REMARK VINA RESULT:    -4.558      2.562      3.128
REMARK INTER + INTRA:         -11.664
REMARK INTER:                  -9.324
REMARK INTRA:                  -2.340
REMARK UNBOUND:                -3.243
REMARK  Name = lig_assembled_78.pdb
REMARK  18 active torsions:
REMARK  status: ('A' for Active; 'I' for Inactive)
REMARK    1  A    between atoms: _2  and  _9
REMARK    2  A    between atoms: _4  and  _21
REMARK    3  A    between atoms: _6  and  _7
REMARK    4  A    between atoms: _6  and  _21
REMARK    5  A    between atoms: _9  and  _41
REMARK    6  A    between atoms: _10  and  _41
REMARK    7  A    between atoms: _17  and  _37
REMARK    8  A    between atoms: _19  and  _25
REMARK    9  A    between atoms: _20  and  _24
REMARK   10  A    between atoms: _24  and  _25
REMARK   11  A    between atoms: _27  and  _28
REMARK   12  A    between atoms: _29  and  _30
REMARK   13  A    between atoms: _31  and  _33
REMARK   14  A    between atoms: _33  and  _34
REMARK   15  A    between atoms: _33  and  _35
REMARK   16  A    between atoms: _35  and  _36
REMARK   17  A    between atoms: _35  and  _37
REMARK   18  A    between atoms: _38  and  _40
REMARK                            x       y       z     vdW  Elec       q    Type
REMARK                         _______ _______ _______ _____ _____    ______ ____
ROOT
ATOM      1  C   UNL     1      -3.167  11.763  25.124  0.00  0.00    +0.163 C 
ENDROOT
BRANCH   1   2
ATOM      2  O   UNL     1      -2.063  10.843  25.095  0.00  0.00    -0.388 OA
ATOM      3  H   UNL     1      -1.745  10.696  25.989  0.00  0.00    +0.210 HD
ENDBRANCH   1   2
BRANCH   1   4
ATOM      4  C   UNL     1      -3.552  12.114  26.571  0.00  0.00    +0.175 C 
BRANCH   4   5
ATOM      5  C   UNL     1      -3.349  10.930  27.527  0.00  0.00    +0.176 C 
ATOM      6  O   UNL     1      -3.982   9.763  26.933  0.00  0.00    -0.332 OA
ATOM      7  C   UNL     1      -3.798   8.503  27.661  0.00  0.00    +0.277 C 
ATOM      8  C   UNL     1      -4.256   8.656  29.132  0.00  0.00    +0.110 C 
ATOM      9  C   UNL     1      -3.634   9.902  29.796  0.00  0.00    +0.143 C 
ATOM     10  C   UNL     1      -3.882  11.154  28.954  0.00  0.00    +0.133 C 
BRANCH  10  11
ATOM     11  N   UNL     1      -3.210  12.319  29.552  0.00  0.00    -0.308 N 
ATOM     12  H   UNL     1      -2.200  12.316  29.584  0.00  0.00    +0.149 HD
ATOM     13  C   UNL     1      -3.848  13.380  30.054  0.00  0.00    +0.210 C 
ATOM     14  C   UNL     1      -5.387  13.342  30.014  0.00  0.00    +0.109 C 
ATOM     15  O   UNL     1      -3.258  14.348  30.536  0.00  0.00    -0.276 OA
ENDBRANCH  10  11
BRANCH   7  16
ATOM     16  C   UNL     1      -2.320   8.061  27.624  0.00  0.00    +0.414 C 
ATOM     17  O   UNL     1      -1.641   8.250  26.616  0.00  0.00    -0.240 OA
ATOM     18  O   UNL     1      -1.807   7.516  28.603  0.00  0.00    -0.240 OA
ENDBRANCH   7  16
BRANCH   7  19
ATOM     19  O   UNL     1      -4.625   7.494  27.027  0.00  0.00    -0.343 OA
ATOM     20  C   UNL     1      -5.113   7.843  25.707  0.00  0.00    +0.198 C 
ENDBRANCH   7  19
BRANCH   9  21
ATOM     21  O   UNL     1      -4.198  10.089  31.095  0.00  0.00    -0.390 OA
ATOM     22  H   UNL     1      -4.061   9.297  31.620  0.00  0.00    +0.210 HD
ENDBRANCH   9  21
ENDBRANCH   4   5
BRANCH   4  23
ATOM     23  O   UNL     1      -4.920  12.567  26.624  0.00  0.00    -0.387 OA
ATOM     24  H   UNL     1      -5.489  11.916  26.207  0.00  0.00    +0.210 HD
ENDBRANCH   4  23
ENDBRANCH   1   4
BRANCH   1  25
ATOM     25  C   UNL     1      -2.803  13.038  24.370  0.00  0.00    +0.141 C 
BRANCH  25  28
ATOM     26  C   UNL     1      -4.636  13.353  22.743  0.00  0.00    +0.401 C 
ATOM     27  O   UNL     1      -5.474  13.641  23.600  0.00  0.00    -0.226 OA
ATOM     28  N   UNL     1      -3.365  13.052  23.014  0.00  0.00    -0.279 N 
ATOM     29  H   UNL     1      -2.755  12.819  22.242  0.00  0.00    +0.152 HD
BRANCH  26  30
ATOM     30  O   UNL     1      -5.028  13.331  21.368  0.00  0.00    -0.444 OA
BRANCH  30  31
ATOM     31  C   UNL     1      -4.238  12.371  20.661  0.00  0.00    +0.292 C 
BRANCH  31  33
ATOM     32  N   UNL     1      -6.171  12.296  19.110  0.00  0.00    -0.131 NA
ATOM     33  C   UNL     1      -5.049  11.703  19.625  0.00  0.00    +0.120 A 
ATOM     34  C   UNL     1      -4.871  10.478  19.020  0.00  0.00    +0.139 A 
ATOM     35  N   UNL     1      -5.880  10.414  18.107  0.00  0.00    -0.230 N 
ATOM     36  N   UNL     1      -6.686  11.486  18.196  0.00  0.00    -0.064 NA
BRANCH  35  37
ATOM     37  C   UNL     1      -6.194   9.351  17.184  0.00  0.00    +0.316 C 
BRANCH  37  38
ATOM     38  S   UNL     1      -5.133   9.309  15.762  0.00  0.00    +0.017 S 
ATOM     39  O   UNL     1      -3.784   8.964  16.163  0.00  0.00    -0.168 OA
ATOM     40  O   UNL     1      -5.815   8.563  14.718  0.00  0.00    -0.168 OA
BRANCH  38  41
ATOM     41  C   UNL     1      -5.062  11.005  15.224  0.00  0.00    +0.090 A 
ATOM     42  C   UNL     1      -3.966  11.793  15.593  0.00  0.00    +0.027 A 
ATOM     43  C   UNL     1      -3.894  13.113  15.152  0.00  0.00    +0.002 A 
ATOM     44  C   UNL     1      -4.899  13.635  14.335  0.00  0.00    +0.000 A 
ATOM     45  C   UNL     1      -5.979  12.838  13.955  0.00  0.00    +0.002 A 
ATOM     46  C   UNL     1      -6.066  11.518  14.398  0.00  0.00    +0.027 A 
ENDBRANCH  38  41
ENDBRANCH  37  38
ENDBRANCH  35  37
ENDBRANCH  31  33
ENDBRANCH  30  31
ENDBRANCH  26  30
ENDBRANCH  25  28
ENDBRANCH   1  25
TORSDOF 16
