REMARK VINA RESULT:    -4.804      2.836      7.703
REMARK INTER + INTRA:         -10.602
REMARK INTER:                  -6.787
REMARK INTRA:                  -3.815
REMARK UNBOUND:                -2.287
REMARK  Name = lig_assembled_52.pdb
REMARK  16 active torsions:
REMARK  status: ('A' for Active; 'I' for Inactive)
REMARK    1  A    between atoms: _2  and  _10
REMARK    2  A    between atoms: _5  and  _18
REMARK    3  A    between atoms: _7  and  _8
REMARK    4  A    between atoms: _7  and  _18
REMARK    5  A    between atoms: _14  and  _34
REMARK    6  A    between atoms: _16  and  _22
REMARK    7  A    between atoms: _17  and  _21
REMARK    8  A    between atoms: _21  and  _22
REMARK    9  A    between atoms: _24  and  _25
REMARK   10  A    between atoms: _26  and  _27
REMARK   11  A    between atoms: _28  and  _30
REMARK   12  A    between atoms: _30  and  _31
REMARK   13  A    between atoms: _30  and  _32
REMARK   14  A    between atoms: _32  and  _33
REMARK   15  A    between atoms: _32  and  _34
REMARK   16  A    between atoms: _35  and  _37
REMARK                            x       y       z     vdW  Elec       q    Type
REMARK                         _______ _______ _______ _____ _____    ______ ____
ROOT
ATOM      1  C   UNL     1      -3.102  11.788  25.147  0.00  0.00    +0.163 C 
ENDROOT
BRANCH   1   2
ATOM      2  O   UNL     1      -1.970  10.906  25.226  0.00  0.00    -0.388 OA
ATOM      3  H   UNL     1      -2.235  10.081  25.640  0.00  0.00    +0.210 HD
ENDBRANCH   1   2
BRANCH   1   4
ATOM      4  C   UNL     1      -2.752  13.013  24.309  0.00  0.00    +0.141 C 
BRANCH   4   7
ATOM      5  C   UNL     1      -4.195  13.305  22.325  0.00  0.00    +0.401 C 
ATOM      6  O   UNL     1      -3.487  12.612  21.591  0.00  0.00    -0.226 OA
ATOM      7  N   UNL     1      -3.924  13.550  23.607  0.00  0.00    -0.279 N 
ATOM      8  H   UNL     1      -4.561  14.138  24.126  0.00  0.00    +0.152 HD
BRANCH   5   9
ATOM      9  O   UNL     1      -5.383  13.894  21.789  0.00  0.00    -0.444 OA
BRANCH   9  10
ATOM     10  C   UNL     1      -6.368  12.879  21.580  0.00  0.00    +0.292 C 
BRANCH  10  12
ATOM     11  N   UNL     1      -7.038  12.872  23.961  0.00  0.00    -0.131 NA
ATOM     12  C   UNL     1      -6.661  12.181  22.846  0.00  0.00    +0.121 A 
ATOM     13  C   UNL     1      -6.627  10.838  23.142  0.00  0.00    +0.143 A 
ATOM     14  N   UNL     1      -7.015  10.753  24.459  0.00  0.00    -0.218 N 
ATOM     15  N   UNL     1      -7.248  11.999  24.937  0.00  0.00    -0.060 NA
BRANCH  14  16
ATOM     16  C   UNL     1      -7.187   9.601  25.256  0.00  0.00    +0.085 A 
ATOM     17  C   UNL     1      -7.207   9.663  26.652  0.00  0.00    +0.031 A 
ATOM     18  C   UNL     1      -7.359   8.486  27.383  0.00  0.00    +0.022 A 
ATOM     19  C   UNL     1      -7.489   7.292  26.694  0.00  0.00    +0.111 A 
ATOM     20  N   UNL     1      -7.482   7.201  25.347  0.00  0.00    -0.261 NA
ATOM     21  C   UNL     1      -7.332   8.356  24.654  0.00  0.00    +0.138 A 
ENDBRANCH  14  16
ENDBRANCH  10  12
ENDBRANCH   9  10
ENDBRANCH   5   9
ENDBRANCH   4   7
ENDBRANCH   1   4
BRANCH   1  22
ATOM     22  C   UNL     1      -3.550  12.236  26.549  0.00  0.00    +0.175 C 
BRANCH  22  23
ATOM     23  C   UNL     1      -3.316  11.146  27.606  0.00  0.00    +0.176 C 
ATOM     24  O   UNL     1      -3.684   9.867  27.019  0.00  0.00    -0.332 OA
ATOM     25  C   UNL     1      -3.425   8.689  27.853  0.00  0.00    +0.277 C 
ATOM     26  C   UNL     1      -4.105   8.845  29.235  0.00  0.00    +0.110 C 
ATOM     27  C   UNL     1      -3.769  10.204  29.885  0.00  0.00    +0.143 C 
ATOM     28  C   UNL     1      -4.073  11.359  28.930  0.00  0.00    +0.133 C 
BRANCH  28  29
ATOM     29  N   UNL     1      -3.668  12.642  29.527  0.00  0.00    -0.308 N 
ATOM     30  H   UNL     1      -2.679  12.820  29.636  0.00  0.00    +0.149 HD
ATOM     31  C   UNL     1      -4.521  13.585  29.934  0.00  0.00    +0.210 C 
ATOM     32  C   UNL     1      -6.021  13.273  29.778  0.00  0.00    +0.109 C 
ATOM     33  O   UNL     1      -4.152  14.657  30.417  0.00  0.00    -0.276 OA
ENDBRANCH  28  29
BRANCH  25  34
ATOM     34  C   UNL     1      -1.909   8.477  28.045  0.00  0.00    +0.414 C 
ATOM     35  O   UNL     1      -1.103   9.193  27.452  0.00  0.00    -0.240 OA
ATOM     36  O   UNL     1      -1.493   7.590  28.791  0.00  0.00    -0.240 OA
ENDBRANCH  25  34
BRANCH  27  37
ATOM     37  O   UNL     1      -4.533  10.369  31.080  0.00  0.00    -0.390 OA
ATOM     38  H   UNL     1      -5.230  11.011  30.930  0.00  0.00    +0.210 HD
ENDBRANCH  27  37
BRANCH  25  39
ATOM     39  O   UNL     1      -4.000   7.535  27.188  0.00  0.00    -0.343 OA
ATOM     40  C   UNL     1      -3.890   7.542  25.742  0.00  0.00    +0.198 C 
ENDBRANCH  25  39
ENDBRANCH  22  23
BRANCH  22  41
ATOM     41  O   UNL     1      -4.940  12.617  26.528  0.00  0.00    -0.387 OA
ATOM     42  H   UNL     1      -5.026  13.492  26.143  0.00  0.00    +0.210 HD
ENDBRANCH  22  41
ENDBRANCH   1  22
TORSDOF 14
