REMARK VINA RESULT:    -4.834      2.293      5.691
REMARK INTER + INTRA:         -11.498
REMARK INTER:                  -7.808
REMARK INTRA:                  -3.690
REMARK UNBOUND:                -2.848
REMARK  Name = lig_assembled_63.pdb
REMARK  17 active torsions:
REMARK  status: ('A' for Active; 'I' for Inactive)
REMARK    1  A    between atoms: _2  and  _11
REMARK    2  A    between atoms: _6  and  _20
REMARK    3  A    between atoms: _7  and  _15
REMARK    4  A    between atoms: _8  and  _9
REMARK    5  A    between atoms: _8  and  _20
REMARK    6  A    between atoms: _16  and  _36
REMARK    7  A    between atoms: _18  and  _24
REMARK    8  A    between atoms: _19  and  _23
REMARK    9  A    between atoms: _23  and  _24
REMARK   10  A    between atoms: _26  and  _27
REMARK   11  A    between atoms: _28  and  _29
REMARK   12  A    between atoms: _30  and  _32
REMARK   13  A    between atoms: _32  and  _33
REMARK   14  A    between atoms: _32  and  _34
REMARK   15  A    between atoms: _34  and  _35
REMARK   16  A    between atoms: _34  and  _36
REMARK   17  A    between atoms: _37  and  _39
REMARK                            x       y       z     vdW  Elec       q    Type
REMARK                         _______ _______ _______ _____ _____    ______ ____
ROOT
ATOM      1  C   UNL     1      -3.325  11.803  25.042  0.00  0.00    +0.163 C 
ENDROOT
BRANCH   1   2
ATOM      2  O   UNL     1      -2.162  10.966  24.928  0.00  0.00    -0.388 OA
ATOM      3  H   UNL     1      -1.439  11.353  25.428  0.00  0.00    +0.210 HD
ENDBRANCH   1   2
BRANCH   1   4
ATOM      4  C   UNL     1      -3.105  13.108  24.284  0.00  0.00    +0.141 C 
BRANCH   4   7
ATOM      5  C   UNL     1      -4.829  13.920  22.712  0.00  0.00    +0.401 C 
ATOM      6  O   UNL     1      -4.232  13.528  21.707  0.00  0.00    -0.226 OA
ATOM      7  N   UNL     1      -4.373  13.771  23.956  0.00  0.00    -0.279 N 
ATOM      8  H   UNL     1      -4.931  14.135  24.716  0.00  0.00    +0.152 HD
BRANCH   5   9
ATOM      9  O   UNL     1      -6.088  14.581  22.558  0.00  0.00    -0.444 OA
BRANCH   9  10
ATOM     10  C   UNL     1      -7.075  13.637  22.134  0.00  0.00    +0.292 C 
BRANCH  10  12
ATOM     11  N   UNL     1      -7.045  12.469  24.311  0.00  0.00    -0.131 NA
ATOM     12  C   UNL     1      -6.997  12.410  22.948  0.00  0.00    +0.121 A 
ATOM     13  C   UNL     1      -6.860  11.098  22.564  0.00  0.00    +0.145 A 
ATOM     14  N   UNL     1      -6.789  10.385  23.744  0.00  0.00    -0.200 N 
ATOM     15  N   UNL     1      -6.926  11.235  24.784  0.00  0.00    -0.059 NA
BRANCH  14  16
ATOM     16  C   UNL     1      -6.548   8.985  23.876  0.00  0.00    +0.173 A 
ATOM     17  C   UNL     1      -5.394   8.374  23.379  0.00  0.00    +0.096 A 
ATOM     18  C   UNL     1      -5.304   6.975  23.476  0.00  0.00    +0.024 A 
ATOM     19  C   UNL     1      -6.324   6.240  24.073  0.00  0.00    +0.021 A 
ATOM     20  C   UNL     1      -7.412   6.928  24.572  0.00  0.00    +0.113 A 
ATOM     21  N   UNL     1      -7.547   8.268  24.484  0.00  0.00    -0.235 NA
BRANCH  17  22
ATOM     22  C   UNL     1      -4.278   9.055  22.792  0.00  0.00    +0.103 C 
ATOM     23  N   UNL     1      -3.313   9.525  22.347  0.00  0.00    -0.191 NA
ENDBRANCH  17  22
ENDBRANCH  14  16
ENDBRANCH  10  12
ENDBRANCH   9  10
ENDBRANCH   5   9
ENDBRANCH   4   7
ENDBRANCH   1   4
BRANCH   1  24
ATOM     24  C   UNL     1      -3.639  12.111  26.516  0.00  0.00    +0.175 C 
BRANCH  24  25
ATOM     25  C   UNL     1      -3.373  10.904  27.428  0.00  0.00    +0.176 C 
ATOM     26  O   UNL     1      -4.002   9.741  26.824  0.00  0.00    -0.332 OA
ATOM     27  C   UNL     1      -3.762   8.465  27.506  0.00  0.00    +0.277 C 
ATOM     28  C   UNL     1      -4.169   8.565  28.997  0.00  0.00    +0.110 C 
ATOM     29  C   UNL     1      -3.550   9.805  29.675  0.00  0.00    +0.143 C 
ATOM     30  C   UNL     1      -3.858  11.075  28.880  0.00  0.00    +0.133 C 
BRANCH  30  31
ATOM     31  N   UNL     1      -3.191  12.237  29.488  0.00  0.00    -0.308 N 
ATOM     32  H   UNL     1      -2.181  12.268  29.463  0.00  0.00    +0.149 HD
ATOM     33  C   UNL     1      -3.832  13.254  30.069  0.00  0.00    +0.210 C 
ATOM     34  C   UNL     1      -5.370  13.165  30.114  0.00  0.00    +0.109 C 
ATOM     35  O   UNL     1      -3.248  14.222  30.557  0.00  0.00    -0.276 OA
ENDBRANCH  30  31
BRANCH  27  36
ATOM     36  C   UNL     1      -2.277   8.060  27.403  0.00  0.00    +0.414 C 
ATOM     37  O   UNL     1      -1.710   7.533  28.359  0.00  0.00    -0.240 OA
ATOM     38  O   UNL     1      -1.647   8.259  26.364  0.00  0.00    -0.240 OA
ENDBRANCH  27  36
BRANCH  27  39
ATOM     39  O   UNL     1      -4.590   7.455  26.873  0.00  0.00    -0.343 OA
ATOM     40  C   UNL     1      -5.010   6.374  27.743  0.00  0.00    +0.198 C 
ENDBRANCH  27  39
BRANCH  29  41
ATOM     41  O   UNL     1      -4.070   9.941  30.998  0.00  0.00    -0.390 OA
ATOM     42  H   UNL     1      -5.026  10.014  30.961  0.00  0.00    +0.210 HD
ENDBRANCH  29  41
ENDBRANCH  24  25
BRANCH  24  43
ATOM     43  O   UNL     1      -5.007  12.546  26.653  0.00  0.00    -0.387 OA
ATOM     44  H   UNL     1      -5.559  12.062  26.034  0.00  0.00    +0.210 HD
ENDBRANCH  24  43
ENDBRANCH   1  24
TORSDOF 15
