REMARK VINA RESULT:    -5.386      1.539      1.719
REMARK INTER + INTRA:         -12.334
REMARK INTER:                 -10.329
REMARK INTRA:                  -2.005
REMARK UNBOUND:                -2.541
REMARK  Name = lig_assembled_23.pdb
REMARK  18 active torsions:
REMARK  status: ('A' for Active; 'I' for Inactive)
REMARK    1  A    between atoms: _2  and  _10
REMARK    2  A    between atoms: _3  and  _41
REMARK    3  A    between atoms: _5  and  _21
REMARK    4  A    between atoms: _7  and  _8
REMARK    5  A    between atoms: _7  and  _21
REMARK    6  A    between atoms: _12  and  _41
REMARK    7  A    between atoms: _17  and  _37
REMARK    8  A    between atoms: _19  and  _25
REMARK    9  A    between atoms: _20  and  _24
REMARK   10  A    between atoms: _24  and  _25
REMARK   11  A    between atoms: _27  and  _28
REMARK   12  A    between atoms: _29  and  _30
REMARK   13  A    between atoms: _31  and  _33
REMARK   14  A    between atoms: _33  and  _34
REMARK   15  A    between atoms: _33  and  _35
REMARK   16  A    between atoms: _35  and  _36
REMARK   17  A    between atoms: _35  and  _37
REMARK   18  A    between atoms: _38  and  _40
REMARK                            x       y       z     vdW  Elec       q    Type
REMARK                         _______ _______ _______ _____ _____    ______ ____
ROOT
ATOM      1  C   UNL     1      -4.087  12.927  23.116  0.00  0.00    +0.141 C 
ENDROOT
BRANCH   1   4
ATOM      2  C   UNL     1      -4.269  10.948  21.648  0.00  0.00    +0.401 C 
ATOM      3  O   UNL     1      -3.067  10.921  21.376  0.00  0.00    -0.226 OA
ATOM      4  N   UNL     1      -4.833  11.854  22.447  0.00  0.00    -0.279 N 
ATOM      5  H   UNL     1      -5.830  11.799  22.602  0.00  0.00    +0.152 HD
BRANCH   2   6
ATOM      6  O   UNL     1      -5.132   9.959  21.079  0.00  0.00    -0.444 OA
BRANCH   6   7
ATOM      7  C   UNL     1      -6.134  10.599  20.284  0.00  0.00    +0.292 C 
BRANCH   7   9
ATOM      8  N   UNL     1      -5.846  12.084  18.328  0.00  0.00    -0.131 NA
ATOM      9  C   UNL     1      -5.613  10.883  18.935  0.00  0.00    +0.121 A 
ATOM     10  C   UNL     1      -4.864  10.093  18.092  0.00  0.00    +0.143 A 
ATOM     11  N   UNL     1      -4.653  10.865  16.974  0.00  0.00    -0.220 N 
ATOM     12  N   UNL     1      -5.264  12.065  17.137  0.00  0.00    -0.060 NA
BRANCH  11  13
ATOM     13  C   UNL     1      -3.940  10.544  15.790  0.00  0.00    +0.069 A 
ATOM     14  C   UNL     1      -3.441   9.245  15.617  0.00  0.00    +0.056 A 
ATOM     15  C   UNL     1      -2.707   8.935  14.467  0.00  0.00    +0.107 A 
ATOM     16  C   UNL     1      -2.485   9.893  13.476  0.00  0.00    +0.028 A 
ATOM     17  C   UNL     1      -2.995  11.181  13.644  0.00  0.00    +0.004 A 
ATOM     18  C   UNL     1      -3.716  11.509  14.797  0.00  0.00    +0.028 A 
BRANCH  15  19
ATOM     19  S   UNL     1      -2.036   7.309  14.291  0.00  0.00    +0.056 S 
ATOM     20  O   UNL     1      -0.923   7.164  15.200  0.00  0.00    -0.153 OA
ATOM     21  O   UNL     1      -3.117   6.353  14.221  0.00  0.00    -0.153 OA
BRANCH  19  22
ATOM     22  N   UNL     1      -1.390   7.364  12.743  0.00  0.00    -0.204 NA
ATOM     23  H   UNL     1      -0.978   8.280  12.568  0.00  0.00    +0.144 HD
ATOM     24  H   UNL     1      -2.096   7.089  12.059  0.00  0.00    +0.144 HD
ENDBRANCH  19  22
ENDBRANCH  15  19
ENDBRANCH  11  13
ENDBRANCH   7   9
ENDBRANCH   6   7
ENDBRANCH   2   6
ENDBRANCH   1   4
BRANCH   1  25
ATOM     25  C   UNL     1      -3.268  12.403  24.291  0.00  0.00    +0.163 C 
BRANCH  25  26
ATOM     26  O   UNL     1      -2.024  13.117  24.379  0.00  0.00    -0.388 OA
ATOM     27  H   UNL     1      -1.555  12.848  25.173  0.00  0.00    +0.210 HD
ENDBRANCH  25  26
BRANCH  25  28
ATOM     28  C   UNL     1      -4.080  12.549  25.589  0.00  0.00    +0.175 C 
BRANCH  28  29
ATOM     29  C   UNL     1      -3.746  11.449  26.607  0.00  0.00    +0.176 C 
ATOM     30  O   UNL     1      -3.761  10.174  25.907  0.00  0.00    -0.332 OA
ATOM     31  C   UNL     1      -3.359   9.010  26.702  0.00  0.00    +0.277 C 
ATOM     32  C   UNL     1      -4.214   8.911  27.989  0.00  0.00    +0.110 C 
ATOM     33  C   UNL     1      -4.254  10.253  28.751  0.00  0.00    +0.143 C 
ATOM     34  C   UNL     1      -4.681  11.395  27.828  0.00  0.00    +0.133 C 
BRANCH  34  35
ATOM     35  N   UNL     1      -4.631  12.681  28.543  0.00  0.00    -0.308 N 
ATOM     36  H   UNL     1      -3.725  13.033  28.817  0.00  0.00    +0.149 HD
ATOM     37  C   UNL     1      -5.705  13.412  28.852  0.00  0.00    +0.210 C 
ATOM     38  C   UNL     1      -7.074  12.835  28.444  0.00  0.00    +0.109 C 
ATOM     39  O   UNL     1      -5.632  14.493  29.438  0.00  0.00    -0.276 OA
ENDBRANCH  34  35
BRANCH  31  40
ATOM     40  C   UNL     1      -1.866   9.096  27.081  0.00  0.00    +0.414 C 
ATOM     41  O   UNL     1      -1.443   8.508  28.076  0.00  0.00    -0.240 OA
ATOM     42  O   UNL     1      -1.084   9.753  26.393  0.00  0.00    -0.240 OA
ENDBRANCH  31  40
BRANCH  33  43
ATOM     43  O   UNL     1      -5.170  10.161  29.842  0.00  0.00    -0.390 OA
ATOM     44  H   UNL     1      -4.921   9.427  30.409  0.00  0.00    +0.210 HD
ENDBRANCH  33  43
BRANCH  31  45
ATOM     45  O   UNL     1      -3.592   7.820  25.906  0.00  0.00    -0.343 OA
ATOM     46  C   UNL     1      -4.104   8.067  24.572  0.00  0.00    +0.198 C 
ENDBRANCH  31  45
ENDBRANCH  28  29
BRANCH  28  47
ATOM     47  O   UNL     1      -5.491  12.543  25.296  0.00  0.00    -0.387 OA
ATOM     48  H   UNL     1      -5.868  13.399  25.514  0.00  0.00    +0.210 HD
ENDBRANCH  28  47
ENDBRANCH  25  28
ENDBRANCH   1  25
TORSDOF 16
