REMARK VINA RESULT:    -4.830      4.882      8.592
REMARK INTER + INTRA:         -11.427
REMARK INTER:                  -9.542
REMARK INTRA:                  -1.885
REMARK UNBOUND:                -3.067
REMARK  Name = lig_assembled_8.pdb
REMARK  16 active torsions:
REMARK  status: ('A' for Active; 'I' for Inactive)
REMARK    1  A    between atoms: _2  and  _9
REMARK    2  A    between atoms: _4  and  _18
REMARK    3  A    between atoms: _6  and  _7
REMARK    4  A    between atoms: _6  and  _18
REMARK    5  A    between atoms: _14  and  _34
REMARK    6  A    between atoms: _16  and  _22
REMARK    7  A    between atoms: _17  and  _21
REMARK    8  A    between atoms: _21  and  _22
REMARK    9  A    between atoms: _24  and  _25
REMARK   10  A    between atoms: _26  and  _27
REMARK   11  A    between atoms: _28  and  _30
REMARK   12  A    between atoms: _30  and  _31
REMARK   13  A    between atoms: _30  and  _32
REMARK   14  A    between atoms: _32  and  _33
REMARK   15  A    between atoms: _32  and  _34
REMARK   16  A    between atoms: _35  and  _37
REMARK                            x       y       z     vdW  Elec       q    Type
REMARK                         _______ _______ _______ _____ _____    ______ ____
ROOT
ATOM      1  C   UNL     1      -3.265  11.809  25.138  0.00  0.00    +0.163 C 
ENDROOT
BRANCH   1   2
ATOM      2  O   UNL     1      -2.144  10.915  25.052  0.00  0.00    -0.388 OA
ATOM      3  H   UNL     1      -2.422  10.028  25.293  0.00  0.00    +0.210 HD
ENDBRANCH   1   2
BRANCH   1   4
ATOM      4  C   UNL     1      -2.964  13.098  24.381  0.00  0.00    +0.141 C 
BRANCH   4   7
ATOM      5  C   UNL     1      -4.006  13.086  22.140  0.00  0.00    +0.401 C 
ATOM      6  O   UNL     1      -3.086  12.457  21.613  0.00  0.00    -0.226 OA
ATOM      7  N   UNL     1      -4.028  13.434  23.428  0.00  0.00    -0.279 N 
ATOM      8  H   UNL     1      -4.823  13.959  23.766  0.00  0.00    +0.152 HD
BRANCH   5   9
ATOM      9  O   UNL     1      -5.124  13.481  21.342  0.00  0.00    -0.444 OA
BRANCH   9  10
ATOM     10  C   UNL     1      -5.937  12.339  21.061  0.00  0.00    +0.292 C 
BRANCH  10  12
ATOM     11  N   UNL     1      -6.665  12.386  18.703  0.00  0.00    -0.131 NA
ATOM     12  C   UNL     1      -5.793  11.945  19.647  0.00  0.00    +0.121 A 
ATOM     13  C   UNL     1      -4.850  11.145  19.044  0.00  0.00    +0.143 A 
ATOM     14  N   UNL     1      -5.176  11.141  17.698  0.00  0.00    -0.219 N 
ATOM     15  N   UNL     1      -6.287  11.892  17.533  0.00  0.00    -0.060 NA
BRANCH  14  16
ATOM     16  C   UNL     1      -4.486  10.492  16.627  0.00  0.00    +0.081 A 
ATOM     17  C   UNL     1      -4.347   9.087  16.680  0.00  0.00    +0.029 A 
ATOM     18  C   UNL     1      -3.668   8.381  15.684  0.00  0.00    +0.002 A 
ATOM     19  C   UNL     1      -3.112   9.058  14.610  0.00  0.00    +0.001 A 
ATOM     20  C   UNL     1      -3.242  10.442  14.531  0.00  0.00    +0.017 A 
ATOM     21  C   UNL     1      -3.925  11.169  15.525  0.00  0.00    +0.043 A 
ATOM     22 BR   UNL     1      -3.976  13.045  15.194  0.00  0.00    -0.048 Br
ENDBRANCH  14  16
ENDBRANCH  10  12
ENDBRANCH   9  10
ENDBRANCH   5   9
ENDBRANCH   4   7
ENDBRANCH   1   4
BRANCH   1  23
ATOM     23  C   UNL     1      -3.594  12.139  26.605  0.00  0.00    +0.175 C 
BRANCH  23  24
ATOM     24  C   UNL     1      -3.367  10.937  27.532  0.00  0.00    +0.176 C 
ATOM     25  O   UNL     1      -4.002   9.778  26.926  0.00  0.00    -0.332 OA
ATOM     26  C   UNL     1      -3.798   8.505  27.624  0.00  0.00    +0.277 C 
ATOM     27  C   UNL     1      -4.234   8.625  29.105  0.00  0.00    +0.110 C 
ATOM     28  C   UNL     1      -3.608   9.861  29.784  0.00  0.00    +0.143 C 
ATOM     29  C   UNL     1      -3.878  11.129  28.972  0.00  0.00    +0.133 C 
BRANCH  29  30
ATOM     30  N   UNL     1      -3.205  12.285  29.583  0.00  0.00    -0.308 N 
ATOM     31  H   UNL     1      -2.194  12.286  29.603  0.00  0.00    +0.149 HD
ATOM     32  C   UNL     1      -3.841  13.334  30.112  0.00  0.00    +0.210 C 
ATOM     33  C   UNL     1      -5.380  13.290  30.090  0.00  0.00    +0.109 C 
ATOM     34  O   UNL     1      -3.250  14.296  30.604  0.00  0.00    -0.276 OA
ENDBRANCH  29  30
BRANCH  26  35
ATOM     35  C   UNL     1      -2.318   8.074  27.555  0.00  0.00    +0.414 C 
ATOM     36  O   UNL     1      -1.821   7.414  28.467  0.00  0.00    -0.240 OA
ATOM     37  O   UNL     1      -1.622   8.386  26.588  0.00  0.00    -0.240 OA
ENDBRANCH  26  35
BRANCH  28  38
ATOM     38  O   UNL     1      -4.152  10.018  31.095  0.00  0.00    -0.390 OA
ATOM     39  H   UNL     1      -5.092  10.205  31.032  0.00  0.00    +0.210 HD
ENDBRANCH  28  38
BRANCH  26  40
ATOM     40  O   UNL     1      -4.629   7.503  26.983  0.00  0.00    -0.343 OA
ATOM     41  C   UNL     1      -4.984   7.792  25.607  0.00  0.00    +0.198 C 
ENDBRANCH  26  40
ENDBRANCH  23  24
BRANCH  23  42
ATOM     42  O   UNL     1      -4.954  12.604  26.716  0.00  0.00    -0.387 OA
ATOM     43  H   UNL     1      -5.392  12.519  25.866  0.00  0.00    +0.210 HD
ENDBRANCH  23  42
ENDBRANCH   1  23
TORSDOF 14
