REMARK VINA RESULT:    -4.852      3.431      4.314
REMARK INTER + INTRA:         -11.771
REMARK INTER:                  -9.556
REMARK INTRA:                  -2.214
REMARK UNBOUND:                -3.373
REMARK  Name = lig_assembled_27.pdb
REMARK  16 active torsions:
REMARK  status: ('A' for Active; 'I' for Inactive)
REMARK    1  A    between atoms: _2  and  _9
REMARK    2  A    between atoms: _4  and  _18
REMARK    3  A    between atoms: _6  and  _7
REMARK    4  A    between atoms: _6  and  _18
REMARK    5  A    between atoms: _14  and  _34
REMARK    6  A    between atoms: _16  and  _22
REMARK    7  A    between atoms: _17  and  _21
REMARK    8  A    between atoms: _21  and  _22
REMARK    9  A    between atoms: _24  and  _25
REMARK   10  A    between atoms: _26  and  _27
REMARK   11  A    between atoms: _28  and  _30
REMARK   12  A    between atoms: _30  and  _31
REMARK   13  A    between atoms: _30  and  _32
REMARK   14  A    between atoms: _32  and  _33
REMARK   15  A    between atoms: _32  and  _34
REMARK   16  A    between atoms: _35  and  _37
REMARK                            x       y       z     vdW  Elec       q    Type
REMARK                         _______ _______ _______ _____ _____    ______ ____
ROOT
ATOM      1  C   UNL     1      -3.215  11.803  25.103  0.00  0.00    +0.163 C 
ENDROOT
BRANCH   1   2
ATOM      2  O   UNL     1      -2.081  10.927  24.996  0.00  0.00    -0.388 OA
ATOM      3  H   UNL     1      -1.786  10.895  24.083  0.00  0.00    +0.210 HD
ENDBRANCH   1   2
BRANCH   1   4
ATOM      4  C   UNL     1      -2.935  13.110  24.369  0.00  0.00    +0.141 C 
BRANCH   4   7
ATOM      5  C   UNL     1      -4.967  13.741  23.112  0.00  0.00    +0.401 C 
ATOM      6  O   UNL     1      -5.569  14.153  24.106  0.00  0.00    -0.226 OA
ATOM      7  N   UNL     1      -3.735  13.232  23.144  0.00  0.00    -0.279 N 
ATOM      8  H   UNL     1      -3.328  12.911  22.276  0.00  0.00    +0.152 HD
BRANCH   5   9
ATOM      9  O   UNL     1      -5.611  13.800  21.837  0.00  0.00    -0.444 OA
BRANCH   9  10
ATOM     10  C   UNL     1      -6.083  12.498  21.479  0.00  0.00    +0.292 C 
BRANCH  10  12
ATOM     11  N   UNL     1      -7.039  12.460  19.197  0.00  0.00    -0.131 NA
ATOM     12  C   UNL     1      -5.966  12.291  20.024  0.00  0.00    +0.121 A 
ATOM     13  C   UNL     1      -4.873  11.927  19.273  0.00  0.00    +0.143 A 
ATOM     14  N   UNL     1      -5.327  11.894  17.974  0.00  0.00    -0.220 N 
ATOM     15  N   UNL     1      -6.643  12.216  17.954  0.00  0.00    -0.060 NA
BRANCH  14  16
ATOM     16  C   UNL     1      -4.610  11.586  16.790  0.00  0.00    +0.068 A 
ATOM     17  C   UNL     1      -4.170  10.272  16.564  0.00  0.00    +0.028 A 
ATOM     18  C   UNL     1      -3.460   9.957  15.403  0.00  0.00    +0.003 A 
ATOM     19  C   UNL     1      -3.185  10.947  14.462  0.00  0.00    +0.020 A 
ATOM     20  C   UNL     1      -3.622  12.251  14.683  0.00  0.00    +0.043 A 
ATOM     21 CL   UNL     1      -3.284  13.474  13.520  0.00  0.00    -0.083 Cl
ATOM     22  C   UNL     1      -4.333  12.578  15.839  0.00  0.00    +0.047 A 
ENDBRANCH  14  16
ENDBRANCH  10  12
ENDBRANCH   9  10
ENDBRANCH   5   9
ENDBRANCH   4   7
ENDBRANCH   1   4
BRANCH   1  23
ATOM     23  C   UNL     1      -3.543  12.101  26.576  0.00  0.00    +0.175 C 
BRANCH  23  24
ATOM     24  C   UNL     1      -3.343  10.870  27.473  0.00  0.00    +0.176 C 
ATOM     25  O   UNL     1      -3.986   9.737  26.827  0.00  0.00    -0.332 OA
ATOM     26  C   UNL     1      -3.808   8.443  27.491  0.00  0.00    +0.277 C 
ATOM     27  C   UNL     1      -4.259   8.527  28.970  0.00  0.00    +0.110 C 
ATOM     28  C   UNL     1      -3.626   9.736  29.691  0.00  0.00    +0.143 C 
ATOM     29  C   UNL     1      -3.869  11.028  28.912  0.00  0.00    +0.133 C 
BRANCH  29  30
ATOM     30  N   UNL     1      -3.188  12.158  29.562  0.00  0.00    -0.308 N 
ATOM     31  H   UNL     1      -2.178  12.142  29.600  0.00  0.00    +0.149 HD
ATOM     32  C   UNL     1      -3.816  13.205  30.105  0.00  0.00    +0.210 C 
ATOM     33  C   UNL     1      -5.355  13.188  30.054  0.00  0.00    +0.109 C 
ATOM     34  O   UNL     1      -3.218  14.144  30.631  0.00  0.00    -0.276 OA
ENDBRANCH  29  30
BRANCH  26  35
ATOM     35  C   UNL     1      -2.333   7.994  27.427  0.00  0.00    +0.414 C 
ATOM     36  O   UNL     1      -1.857   7.297  28.323  0.00  0.00    -0.240 OA
ATOM     37  O   UNL     1      -1.619   8.328  26.481  0.00  0.00    -0.240 OA
ENDBRANCH  26  35
BRANCH  28  38
ATOM     38  O   UNL     1      -4.183   9.863  30.999  0.00  0.00    -0.390 OA
ATOM     39  H   UNL     1      -3.484  10.053  31.629  0.00  0.00    +0.210 HD
ENDBRANCH  28  38
BRANCH  26  40
ATOM     40  O   UNL     1      -4.644   7.470  26.813  0.00  0.00    -0.343 OA
ATOM     41  C   UNL     1      -5.821   8.019  26.167  0.00  0.00    +0.198 C 
ENDBRANCH  26  40
ENDBRANCH  23  24
BRANCH  23  42
ATOM     42  O   UNL     1      -4.894  12.588  26.696  0.00  0.00    -0.387 OA
ATOM     43  H   UNL     1      -5.313  12.585  25.832  0.00  0.00    +0.210 HD
ENDBRANCH  23  42
ENDBRANCH   1  23
TORSDOF 14
