REMARK VINA RESULT:    -4.696      4.031      6.817
REMARK INTER + INTRA:         -10.636
REMARK INTER:                  -8.548
REMARK INTRA:                  -2.088
REMARK UNBOUND:                -2.233
REMARK  Name = lig_assembled_61.pdb
REMARK  17 active torsions:
REMARK  status: ('A' for Active; 'I' for Inactive)
REMARK    1  A    between atoms: _2  and  _9
REMARK    2  A    between atoms: _4  and  _17
REMARK    3  A    between atoms: _6  and  _7
REMARK    4  A    between atoms: _6  and  _17
REMARK    5  A    between atoms: _9  and  _10
REMARK    6  A    between atoms: _13  and  _33
REMARK    7  A    between atoms: _15  and  _21
REMARK    8  A    between atoms: _16  and  _20
REMARK    9  A    between atoms: _20  and  _21
REMARK   10  A    between atoms: _23  and  _24
REMARK   11  A    between atoms: _25  and  _26
REMARK   12  A    between atoms: _27  and  _29
REMARK   13  A    between atoms: _29  and  _30
REMARK   14  A    between atoms: _29  and  _31
REMARK   15  A    between atoms: _31  and  _32
REMARK   16  A    between atoms: _31  and  _33
REMARK   17  A    between atoms: _34  and  _36
REMARK                            x       y       z     vdW  Elec       q    Type
REMARK                         _______ _______ _______ _____ _____    ______ ____
ROOT
ATOM      1  C   UNL     1      -3.291  11.808  25.124  0.00  0.00    +0.163 C 
ENDROOT
BRANCH   1   2
ATOM      2  O   UNL     1      -2.043  11.103  25.027  0.00  0.00    -0.388 OA
ATOM      3  H   UNL     1      -1.748  11.097  24.114  0.00  0.00    +0.210 HD
ENDBRANCH   1   2
BRANCH   1   4
ATOM      4  C   UNL     1      -3.226  13.099  24.315  0.00  0.00    +0.141 C 
BRANCH   4   7
ATOM      5  C   UNL     1      -4.101  12.887  22.014  0.00  0.00    +0.401 C 
ATOM      6  O   UNL     1      -3.016  12.555  21.531  0.00  0.00    -0.226 OA
ATOM      7  N   UNL     1      -4.289  13.166  23.304  0.00  0.00    -0.279 N 
ATOM      8  H   UNL     1      -5.214  13.440  23.604  0.00  0.00    +0.152 HD
BRANCH   5   9
ATOM      9  O   UNL     1      -5.241  12.990  21.156  0.00  0.00    -0.444 OA
BRANCH   9  10
ATOM     10  C   UNL     1      -6.077  11.844  21.333  0.00  0.00    +0.292 C 
BRANCH  10  12
ATOM     11  N   UNL     1      -4.928   9.835  20.456  0.00  0.00    -0.131 NA
ATOM     12  C   UNL     1      -5.826  10.854  20.269  0.00  0.00    +0.120 A 
ATOM     13  C   UNL     1      -6.374  10.748  19.010  0.00  0.00    +0.137 A 
ATOM     14  N   UNL     1      -5.726   9.682  18.459  0.00  0.00    -0.247 N 
ATOM     15  N   UNL     1      -4.888   9.111  19.345  0.00  0.00    -0.065 NA
BRANCH  14  16
ATOM     16  C   UNL     1      -5.875   9.129  17.125  0.00  0.00    +0.180 C 
BRANCH  16  17
ATOM     17  C   UNL     1      -4.593   9.200  16.344  0.00  0.00    -0.019 A 
ATOM     18  C   UNL     1      -3.922  10.419  15.988  0.00  0.00    +0.013 A 
ATOM     19  C   UNL     1      -2.786  10.204  15.237  0.00  0.00    +0.045 A 
ATOM     20  S   UNL     1      -2.504   8.543  14.964  0.00  0.00    -0.105 S 
ATOM     21  C   UNL     1      -3.907   8.107  15.837  0.00  0.00    +0.050 A 
ENDBRANCH  16  17
ENDBRANCH  14  16
ENDBRANCH  10  12
ENDBRANCH   9  10
ENDBRANCH   5   9
ENDBRANCH   4   7
ENDBRANCH   1   4
BRANCH   1  22
ATOM     22  C   UNL     1      -3.626  12.136  26.589  0.00  0.00    +0.175 C 
BRANCH  22  23
ATOM     23  C   UNL     1      -3.381  10.940  27.520  0.00  0.00    +0.176 C 
ATOM     24  O   UNL     1      -4.016   9.774  26.927  0.00  0.00    -0.332 OA
ATOM     25  C   UNL     1      -3.796   8.506  27.628  0.00  0.00    +0.277 C 
ATOM     26  C   UNL     1      -4.214   8.630  29.114  0.00  0.00    +0.110 C 
ATOM     27  C   UNL     1      -3.588   9.874  29.780  0.00  0.00    +0.143 C 
ATOM     28  C   UNL     1      -3.876  11.136  28.965  0.00  0.00    +0.133 C 
BRANCH  28  29
ATOM     29  N   UNL     1      -3.202  12.299  29.562  0.00  0.00    -0.308 N 
ATOM     30  H   UNL     1      -2.191  12.311  29.561  0.00  0.00    +0.149 HD
ATOM     31  C   UNL     1      -3.837  13.341  30.106  0.00  0.00    +0.210 C 
ATOM     32  C   UNL     1      -5.377  13.281  30.115  0.00  0.00    +0.109 C 
ATOM     33  O   UNL     1      -3.247  14.309  30.585  0.00  0.00    -0.276 OA
ENDBRANCH  28  29
BRANCH  25  34
ATOM     34  C   UNL     1      -2.315   8.084  27.543  0.00  0.00    +0.414 C 
ATOM     35  O   UNL     1      -1.611   8.474  26.613  0.00  0.00    -0.240 OA
ATOM     36  O   UNL     1      -1.824   7.353  28.404  0.00  0.00    -0.240 OA
ENDBRANCH  25  34
BRANCH  25  37
ATOM     37  O   UNL     1      -4.629   7.496  27.002  0.00  0.00    -0.343 OA
ATOM     38  C   UNL     1      -4.696   7.569  25.555  0.00  0.00    +0.198 C 
ENDBRANCH  25  37
BRANCH  27  39
ATOM     39  O   UNL     1      -4.117  10.033  31.097  0.00  0.00    -0.390 OA
ATOM     40  H   UNL     1      -4.308  10.960  31.255  0.00  0.00    +0.210 HD
ENDBRANCH  27  39
ENDBRANCH  22  23
BRANCH  22  41
ATOM     41  O   UNL     1      -4.993  12.580  26.699  0.00  0.00    -0.387 OA
ATOM     42  H   UNL     1      -5.050  13.286  27.347  0.00  0.00    +0.210 HD
ENDBRANCH  22  41
ENDBRANCH   1  22
TORSDOF 15
