REMARK VINA RESULT:    -5.190      4.571     10.608
REMARK INTER + INTRA:         -12.698
REMARK INTER:                  -9.896
REMARK INTRA:                  -2.801
REMARK UNBOUND:                -3.108
REMARK  Name = lig_assembled_58.pdb
REMARK  18 active torsions:
REMARK  status: ('A' for Active; 'I' for Inactive)
REMARK    1  A    between atoms: _2  and  _9
REMARK    2  A    between atoms: _4  and  _25
REMARK    3  A    between atoms: _6  and  _7
REMARK    4  A    between atoms: _6  and  _25
REMARK    5  A    between atoms: _9  and  _10
REMARK    6  A    between atoms: _9  and  _16
REMARK    7  A    between atoms: _21  and  _41
REMARK    8  A    between atoms: _23  and  _29
REMARK    9  A    between atoms: _24  and  _28
REMARK   10  A    between atoms: _28  and  _29
REMARK   11  A    between atoms: _31  and  _32
REMARK   12  A    between atoms: _33  and  _34
REMARK   13  A    between atoms: _35  and  _37
REMARK   14  A    between atoms: _37  and  _38
REMARK   15  A    between atoms: _37  and  _39
REMARK   16  A    between atoms: _39  and  _40
REMARK   17  A    between atoms: _39  and  _41
REMARK   18  A    between atoms: _42  and  _44
REMARK                            x       y       z     vdW  Elec       q    Type
REMARK                         _______ _______ _______ _____ _____    ______ ____
ROOT
ATOM      1  C   UNL     1      -3.042  13.086  24.373  0.00  0.00    +0.141 C 
ENDROOT
BRANCH   1   4
ATOM      2  C   UNL     1      -5.113  13.530  23.101  0.00  0.00    +0.401 C 
ATOM      3  O   UNL     1      -5.757  13.886  24.091  0.00  0.00    -0.226 OA
ATOM      4  N   UNL     1      -3.840  13.134  23.142  0.00  0.00    -0.279 N 
ATOM      5  H   UNL     1      -3.401  12.852  22.277  0.00  0.00    +0.152 HD
BRANCH   2   6
ATOM      6  O   UNL     1      -5.751  13.530  21.822  0.00  0.00    -0.444 OA
BRANCH   6   7
ATOM      7  C   UNL     1      -6.396  12.271  21.609  0.00  0.00    +0.292 C 
BRANCH   7   9
ATOM      8  N   UNL     1      -4.781  10.743  20.498  0.00  0.00    -0.131 NA
ATOM      9  C   UNL     1      -5.840  11.608  20.416  0.00  0.00    +0.120 A 
ATOM     10  C   UNL     1      -6.254  11.682  19.106  0.00  0.00    +0.138 A 
ATOM     11  N   UNL     1      -5.516  10.726  18.463  0.00  0.00    -0.240 N 
ATOM     12  N   UNL     1      -4.575  10.223  19.295  0.00  0.00    -0.064 NA
BRANCH  11  13
ATOM     13  C   UNL     1      -5.654  10.203  17.092  0.00  0.00    +0.169 C 
BRANCH  13  14
ATOM     14  C   UNL     1      -5.292  11.295  16.075  0.00  0.00    -0.019 A 
ATOM     15  C   UNL     1      -5.966  11.366  14.844  0.00  0.00    +0.006 A 
ATOM     16  C   UNL     1      -5.605  12.320  13.889  0.00  0.00    +0.000 A 
ATOM     17  C   UNL     1      -4.579  13.226  14.151  0.00  0.00    +0.000 A 
ATOM     18  C   UNL     1      -3.898  13.170  15.363  0.00  0.00    +0.000 A 
ATOM     19  C   UNL     1      -4.244  12.207  16.310  0.00  0.00    +0.006 A 
ENDBRANCH  13  14
BRANCH  13  20
ATOM     20  C   UNL     1      -4.927   8.866  16.891  0.00  0.00    -0.019 A 
ATOM     21  C   UNL     1      -5.501   7.653  17.314  0.00  0.00    +0.006 A 
ATOM     22  C   UNL     1      -4.833   6.439  17.130  0.00  0.00    +0.000 A 
ATOM     23  C   UNL     1      -3.592   6.411  16.500  0.00  0.00    +0.000 A 
ATOM     24  C   UNL     1      -3.032   7.589  16.025  0.00  0.00    +0.000 A 
ATOM     25  C   UNL     1      -3.700   8.799  16.201  0.00  0.00    +0.006 A 
ENDBRANCH  13  20
ENDBRANCH  11  13
ENDBRANCH   7   9
ENDBRANCH   6   7
ENDBRANCH   2   6
ENDBRANCH   1   4
BRANCH   1  26
ATOM     26  C   UNL     1      -3.276  11.796  25.152  0.00  0.00    +0.163 C 
BRANCH  26  27
ATOM     27  O   UNL     1      -2.120  10.947  25.056  0.00  0.00    -0.388 OA
ATOM     28  H   UNL     1      -1.725  10.844  25.925  0.00  0.00    +0.210 HD
ENDBRANCH  26  27
BRANCH  26  29
ATOM     29  C   UNL     1      -3.591  12.132  26.620  0.00  0.00    +0.175 C 
BRANCH  29  30
ATOM     30  C   UNL     1      -3.366  10.930  27.549  0.00  0.00    +0.176 C 
ATOM     31  O   UNL     1      -4.002   9.772  26.944  0.00  0.00    -0.332 OA
ATOM     32  C   UNL     1      -3.800   8.499  27.644  0.00  0.00    +0.277 C 
ATOM     33  C   UNL     1      -4.235   8.621  29.125  0.00  0.00    +0.110 C 
ATOM     34  C   UNL     1      -3.608   9.858  29.802  0.00  0.00    +0.143 C 
ATOM     35  C   UNL     1      -3.876  11.125  28.989  0.00  0.00    +0.133 C 
BRANCH  35  36
ATOM     36  N   UNL     1      -3.201  12.281  29.598  0.00  0.00    -0.308 N 
ATOM     37  H   UNL     1      -2.191  12.283  29.614  0.00  0.00    +0.149 HD
ATOM     38  C   UNL     1      -3.835  13.328  30.132  0.00  0.00    +0.210 C 
ATOM     39  C   UNL     1      -5.375  13.283  30.117  0.00  0.00    +0.109 C 
ATOM     40  O   UNL     1      -3.243  14.290  30.623  0.00  0.00    -0.276 OA
ENDBRANCH  35  36
BRANCH  32  41
ATOM     41  C   UNL     1      -2.321   8.066  27.575  0.00  0.00    +0.414 C 
ATOM     42  O   UNL     1      -1.627   8.380  26.608  0.00  0.00    -0.240 OA
ATOM     43  O   UNL     1      -1.821   7.404  28.485  0.00  0.00    -0.240 OA
ENDBRANCH  32  41
BRANCH  34  44
ATOM     44  O   UNL     1      -4.151  10.016  31.114  0.00  0.00    -0.390 OA
ATOM     45  H   UNL     1      -3.561  10.559  31.642  0.00  0.00    +0.210 HD
ENDBRANCH  34  44
BRANCH  32  46
ATOM     46  O   UNL     1      -4.632   7.498  27.004  0.00  0.00    -0.343 OA
ATOM     47  C   UNL     1      -5.595   8.019  26.053  0.00  0.00    +0.198 C 
ENDBRANCH  32  46
ENDBRANCH  29  30
BRANCH  29  48
ATOM     48  O   UNL     1      -4.947  12.606  26.741  0.00  0.00    -0.387 OA
ATOM     49  H   UNL     1      -5.232  12.532  27.654  0.00  0.00    +0.210 HD
ENDBRANCH  29  48
ENDBRANCH  26  29
ENDBRANCH   1  26
TORSDOF 16
