REMARK VINA RESULT:    -5.686      0.279      1.499
REMARK INTER + INTRA:         -12.221
REMARK INTER:                  -9.895
REMARK INTRA:                  -2.326
REMARK UNBOUND:                -2.381
REMARK  Name = lig_assembled_7.pdb
REMARK  19 active torsions:
REMARK  status: ('A' for Active; 'I' for Inactive)
REMARK    1  A    between atoms: _2  and  _9
REMARK    2  A    between atoms: _4  and  _21
REMARK    3  A    between atoms: _5  and  _16
REMARK    4  A    between atoms: _6  and  _7
REMARK    5  A    between atoms: _6  and  _21
REMARK    6  A    between atoms: _10  and  _11
REMARK    7  A    between atoms: _13  and  _14
REMARK    8  A    between atoms: _17  and  _37
REMARK    9  A    between atoms: _19  and  _25
REMARK   10  A    between atoms: _20  and  _24
REMARK   11  A    between atoms: _24  and  _25
REMARK   12  A    between atoms: _27  and  _28
REMARK   13  A    between atoms: _29  and  _30
REMARK   14  A    between atoms: _31  and  _33
REMARK   15  A    between atoms: _33  and  _34
REMARK   16  A    between atoms: _33  and  _35
REMARK   17  A    between atoms: _35  and  _36
REMARK   18  A    between atoms: _35  and  _37
REMARK   19  A    between atoms: _38  and  _40
REMARK                            x       y       z     vdW  Elec       q    Type
REMARK                         _______ _______ _______ _____ _____    ______ ____
ROOT
ATOM      1  C   UNL     1      -3.197  11.865  25.040  0.00  0.00    +0.163 C 
ENDROOT
BRANCH   1   2
ATOM      2  O   UNL     1      -2.074  10.975  24.943  0.00  0.00    -0.388 OA
ATOM      3  H   UNL     1      -2.325  10.196  24.441  0.00  0.00    +0.210 HD
ENDBRANCH   1   2
BRANCH   1   4
ATOM      4  C   UNL     1      -2.865  13.199  24.379  0.00  0.00    +0.141 C 
BRANCH   4   7
ATOM      5  C   UNL     1      -4.800  13.882  23.002  0.00  0.00    +0.401 C 
ATOM      6  O   UNL     1      -5.473  14.256  23.965  0.00  0.00    -0.226 OA
ATOM      7  N   UNL     1      -3.573  13.369  23.104  0.00  0.00    -0.279 N 
ATOM      8  H   UNL     1      -3.104  13.081  22.257  0.00  0.00    +0.152 HD
BRANCH   5   9
ATOM      9  O   UNL     1      -5.349  13.991  21.686  0.00  0.00    -0.444 OA
BRANCH   9  10
ATOM     10  C   UNL     1      -6.251  12.905  21.453  0.00  0.00    +0.292 C 
BRANCH  10  12
ATOM     11  N   UNL     1      -7.091  12.503  19.171  0.00  0.00    -0.131 NA
ATOM     12  C   UNL     1      -6.087  12.389  20.082  0.00  0.00    +0.121 A 
ATOM     13  C   UNL     1      -5.012  11.763  19.483  0.00  0.00    +0.143 A 
ATOM     14  N   UNL     1      -5.430  11.465  18.202  0.00  0.00    -0.219 N 
ATOM     15  N   UNL     1      -6.678  11.969  18.034  0.00  0.00    -0.060 NA
BRANCH  14  16
ATOM     16  C   UNL     1      -4.743  10.766  17.157  0.00  0.00    +0.073 A 
ATOM     17  C   UNL     1      -4.748   9.338  17.149  0.00  0.00    -0.024 A 
ATOM     18  C   UNL     1      -4.075   8.641  16.122  0.00  0.00    +0.008 A 
ATOM     19  C   UNL     1      -3.407   9.313  15.102  0.00  0.00    -0.050 A 
ATOM     20  C   UNL     1      -2.704   8.542  14.025  0.00  0.00    +0.044 C 
ATOM     21  C   UNL     1      -3.406  10.705  15.112  0.00  0.00    +0.008 A 
ATOM     22  C   UNL     1      -5.481   8.477  18.154  0.00  0.00    +0.046 C 
ATOM     23  C   UNL     1      -4.042  11.453  16.131  0.00  0.00    -0.024 A 
ATOM     24  C   UNL     1      -3.815  12.939  16.024  0.00  0.00    +0.046 C 
ENDBRANCH  14  16
ENDBRANCH  10  12
ENDBRANCH   9  10
ENDBRANCH   5   9
ENDBRANCH   4   7
ENDBRANCH   1   4
BRANCH   1  25
ATOM     25  C   UNL     1      -3.585  12.103  26.510  0.00  0.00    +0.175 C 
BRANCH  25  26
ATOM     26  C   UNL     1      -3.341  10.861  27.380  0.00  0.00    +0.176 C 
ATOM     27  O   UNL     1      -3.969   9.725  26.724  0.00  0.00    -0.332 OA
ATOM     28  C   UNL     1      -3.749   8.424  27.362  0.00  0.00    +0.277 C 
ATOM     29  C   UNL     1      -4.176   8.471  28.849  0.00  0.00    +0.110 C 
ATOM     30  C   UNL     1      -3.559   9.681  29.581  0.00  0.00    +0.143 C 
ATOM     31  C   UNL     1      -3.846  10.982  28.830  0.00  0.00    +0.133 C 
BRANCH  31  32
ATOM     32  N   UNL     1      -3.179  12.115  29.490  0.00  0.00    -0.308 N 
ATOM     33  H   UNL     1      -2.169  12.121  29.512  0.00  0.00    +0.149 HD
ATOM     34  C   UNL     1      -3.822  13.137  30.062  0.00  0.00    +0.210 C 
ATOM     35  C   UNL     1      -5.361  13.086  30.036  0.00  0.00    +0.109 C 
ATOM     36  O   UNL     1      -3.237  14.081  30.595  0.00  0.00    -0.276 OA
ENDBRANCH  31  32
BRANCH  28  37
ATOM     37  C   UNL     1      -2.266   8.011  27.264  0.00  0.00    +0.414 C 
ATOM     38  O   UNL     1      -1.562   8.438  26.350  0.00  0.00    -0.240 OA
ATOM     39  O   UNL     1      -1.773   7.251  28.099  0.00  0.00    -0.240 OA
ENDBRANCH  28  37
BRANCH  30  40
ATOM     40  O   UNL     1      -4.096   9.771  30.901  0.00  0.00    -0.390 OA
ATOM     41  H   UNL     1      -3.886   8.971  31.389  0.00  0.00    +0.210 HD
ENDBRANCH  30  40
BRANCH  28  42
ATOM     42  O   UNL     1      -4.574   7.445  26.680  0.00  0.00    -0.343 OA
ATOM     43  C   UNL     1      -4.896   7.767  25.303  0.00  0.00    +0.198 C 
ENDBRANCH  28  42
ENDBRANCH  25  26
BRANCH  25  44
ATOM     44  O   UNL     1      -4.965  12.510  26.600  0.00  0.00    -0.387 OA
ATOM     45  H   UNL     1      -5.238  12.516  27.521  0.00  0.00    +0.210 HD
ENDBRANCH  25  44
ENDBRANCH   1  25
TORSDOF 14
