REMARK VINA RESULT:    -4.100      3.961      6.081
REMARK INTER + INTRA:         -11.112
REMARK INTER:                  -7.456
REMARK INTRA:                  -3.657
REMARK UNBOUND:                -3.657
REMARK  Name = lig_assembled_88.pdb
REMARK  18 active torsions:
REMARK  status: ('A' for Active; 'I' for Inactive)
REMARK    1  A    between atoms: _2  and  _9
REMARK    2  A    between atoms: _4  and  _20
REMARK    3  A    between atoms: _5  and  _15
REMARK    4  A    between atoms: _6  and  _7
REMARK    5  A    between atoms: _6  and  _20
REMARK    6  A    between atoms: _9  and  _10
REMARK    7  A    between atoms: _16  and  _36
REMARK    8  A    between atoms: _18  and  _24
REMARK    9  A    between atoms: _19  and  _23
REMARK   10  A    between atoms: _23  and  _24
REMARK   11  A    between atoms: _26  and  _27
REMARK   12  A    between atoms: _28  and  _29
REMARK   13  A    between atoms: _30  and  _32
REMARK   14  A    between atoms: _32  and  _33
REMARK   15  A    between atoms: _32  and  _34
REMARK   16  A    between atoms: _34  and  _35
REMARK   17  A    between atoms: _34  and  _36
REMARK   18  A    between atoms: _37  and  _39
REMARK                            x       y       z     vdW  Elec       q    Type
REMARK                         _______ _______ _______ _____ _____    ______ ____
ROOT
ATOM      1  C   UNL     1      -4.301  12.495  25.702  0.00  0.00    +0.163 C 
ENDROOT
BRANCH   1   2
ATOM      2  O   UNL     1      -5.058  13.303  24.785  0.00  0.00    -0.388 OA
ATOM      3  H   UNL     1      -5.957  13.396  25.107  0.00  0.00    +0.210 HD
ENDBRANCH   1   2
BRANCH   1   4
ATOM      4  C   UNL     1      -5.102  11.255  26.134  0.00  0.00    +0.175 C 
BRANCH   4   5
ATOM      5  C   UNL     1      -4.332  10.393  27.144  0.00  0.00    +0.176 C 
ATOM      6  O   UNL     1      -4.566   8.997  26.810  0.00  0.00    -0.332 OA
ATOM      7  C   UNL     1      -3.819   8.020  27.610  0.00  0.00    +0.277 C 
ATOM      8  C   UNL     1      -4.077   8.247  29.120  0.00  0.00    +0.110 C 
ATOM      9  C   UNL     1      -3.871   9.725  29.516  0.00  0.00    +0.143 C 
ATOM     10  C   UNL     1      -4.691  10.653  28.619  0.00  0.00    +0.133 C 
BRANCH  10  11
ATOM     11  N   UNL     1      -4.420  12.061  28.950  0.00  0.00    -0.308 N 
ATOM     12  H   UNL     1      -3.481  12.406  28.811  0.00  0.00    +0.149 HD
ATOM     13  C   UNL     1      -5.334  12.912  29.422  0.00  0.00    +0.210 C 
ATOM     14  C   UNL     1      -6.750  12.349  29.648  0.00  0.00    +0.109 C 
ATOM     15  O   UNL     1      -5.082  14.090  29.677  0.00  0.00    -0.276 OA
ENDBRANCH  10  11
BRANCH   7  16
ATOM     16  C   UNL     1      -2.307   8.121  27.323  0.00  0.00    +0.414 C 
ATOM     17  O   UNL     1      -1.490   7.800  28.186  0.00  0.00    -0.240 OA
ATOM     18  O   UNL     1      -1.903   8.522  26.231  0.00  0.00    -0.240 OA
ENDBRANCH   7  16
BRANCH   7  19
ATOM     19  O   UNL     1      -4.296   6.696  27.259  0.00  0.00    -0.343 OA
ATOM     20  C   UNL     1      -5.595   6.662  26.617  0.00  0.00    +0.198 C 
ENDBRANCH   7  19
BRANCH   9  21
ATOM     21  O   UNL     1      -4.264   9.917  30.876  0.00  0.00    -0.390 OA
ATOM     22  H   UNL     1      -5.183   9.661  30.984  0.00  0.00    +0.210 HD
ENDBRANCH   9  21
ENDBRANCH   4   5
BRANCH   4  23
ATOM     23  O   UNL     1      -5.460  10.469  24.980  0.00  0.00    -0.387 OA
ATOM     24  H   UNL     1      -4.674  10.049  24.622  0.00  0.00    +0.210 HD
ENDBRANCH   4  23
ENDBRANCH   1   4
BRANCH   1  25
ATOM     25  C   UNL     1      -2.993  12.056  25.052  0.00  0.00    +0.141 C 
BRANCH  25  28
ATOM     26  C   UNL     1      -3.055  11.253  22.716  0.00  0.00    +0.401 C 
ATOM     27  O   UNL     1      -3.074  10.060  23.027  0.00  0.00    -0.226 OA
ATOM     28  N   UNL     1      -3.011  12.253  23.597  0.00  0.00    -0.279 N 
ATOM     29  H   UNL     1      -2.988  13.199  23.244  0.00  0.00    +0.152 HD
BRANCH  26  30
ATOM     30  O   UNL     1      -3.077  11.610  21.331  0.00  0.00    -0.444 OA
BRANCH  30  31
ATOM     31  C   UNL     1      -4.361  11.308  20.780  0.00  0.00    +0.292 C 
BRANCH  31  33
ATOM     32  N   UNL     1      -6.187  11.468  22.445  0.00  0.00    -0.131 NA
ATOM     33  C   UNL     1      -5.415  12.064  21.482  0.00  0.00    +0.120 A 
ATOM     34  C   UNL     1      -5.819  13.371  21.327  0.00  0.00    +0.137 A 
ATOM     35  N   UNL     1      -6.888  13.485  22.168  0.00  0.00    -0.247 N 
ATOM     36  N   UNL     1      -7.073  12.355  22.875  0.00  0.00    -0.065 NA
BRANCH  35  37
ATOM     37  C   UNL     1      -7.812  14.600  22.299  0.00  0.00    +0.184 C 
BRANCH  37  38
ATOM     38  C   UNL     1      -7.453  15.545  23.429  0.00  0.00    +0.017 A 
ATOM     39  C   UNL     1      -6.727  16.733  23.218  0.00  0.00    +0.024 A 
ATOM     40  C   UNL     1      -6.412  17.580  24.284  0.00  0.00    +0.019 A 
ATOM     41 BR   UNL     1      -5.394  19.142  23.969  0.00  0.00    -0.050 Br
ATOM     42  C   UNL     1      -6.837  17.288  25.576  0.00  0.00    +0.034 A 
ATOM     43  C   UNL     1      -7.596  16.140  25.793  0.00  0.00    +0.061 A 
ATOM     44 BR   UNL     1      -8.204  15.764  27.549  0.00  0.00    -0.046 Br
ATOM     45  C   UNL     1      -7.904  15.281  24.729  0.00  0.00    +0.136 A 
BRANCH  45  46
ATOM     46  O   UNL     1      -8.663  14.158  24.929  0.00  0.00    -0.505 OA
ATOM     47  H   UNL     1      -8.173  13.401  24.555  0.00  0.00    +0.292 HD
ENDBRANCH  45  46
ENDBRANCH  37  38
ENDBRANCH  35  37
ENDBRANCH  31  33
ENDBRANCH  30  31
ENDBRANCH  26  30
ENDBRANCH  25  28
ENDBRANCH   1  25
TORSDOF 16
