REMARK VINA RESULT:    -4.726      2.792      8.024
REMARK INTER + INTRA:         -11.842
REMARK INTER:                  -8.777
REMARK INTRA:                  -3.066
REMARK UNBOUND:                -2.835
REMARK  Name = lig_assembled_13.pdb
REMARK  20 active torsions:
REMARK  status: ('A' for Active; 'I' for Inactive)
REMARK    1  A    between atoms: _2  and  _9
REMARK    2  A    between atoms: _4  and  _18
REMARK    3  A    between atoms: _5  and  _11
REMARK    4  A    between atoms: _6  and  _7
REMARK    5  A    between atoms: _6  and  _18
REMARK    6  A    between atoms: _9  and  _10
REMARK    7  A    between atoms: _10  and  _12
REMARK    8  A    between atoms: _11  and  _12
REMARK    9  A    between atoms: _14  and  _34
REMARK   10  A    between atoms: _16  and  _22
REMARK   11  A    between atoms: _17  and  _21
REMARK   12  A    between atoms: _21  and  _22
REMARK   13  A    between atoms: _24  and  _25
REMARK   14  A    between atoms: _26  and  _27
REMARK   15  A    between atoms: _28  and  _30
REMARK   16  A    between atoms: _30  and  _31
REMARK   17  A    between atoms: _30  and  _32
REMARK   18  A    between atoms: _32  and  _33
REMARK   19  A    between atoms: _32  and  _34
REMARK   20  A    between atoms: _35  and  _37
REMARK                            x       y       z     vdW  Elec       q    Type
REMARK                         _______ _______ _______ _____ _____    ______ ____
ROOT
ATOM      1  C   UNL     1      -3.435  11.784  25.128  0.00  0.00    +0.163 C 
ENDROOT
BRANCH   1   2
ATOM      2  O   UNL     1      -2.398  10.796  25.010  0.00  0.00    -0.388 OA
ATOM      3  H   UNL     1      -1.695  11.134  24.450  0.00  0.00    +0.210 HD
ENDBRANCH   1   2
BRANCH   1   4
ATOM      4  C   UNL     1      -3.718  12.111  26.604  0.00  0.00    +0.175 C 
BRANCH   4   5
ATOM      5  C   UNL     1      -3.394  10.930  27.530  0.00  0.00    +0.176 C 
ATOM      6  O   UNL     1      -4.004   9.737  26.963  0.00  0.00    -0.332 OA
ATOM      7  C   UNL     1      -3.710   8.482  27.662  0.00  0.00    +0.277 C 
ATOM      8  C   UNL     1      -4.081   8.598  29.161  0.00  0.00    +0.110 C 
ATOM      9  C   UNL     1      -3.482   9.868  29.800  0.00  0.00    +0.143 C 
ATOM     10  C   UNL     1      -3.846  11.114  28.991  0.00  0.00    +0.133 C 
BRANCH  10  11
ATOM     11  N   UNL     1      -3.198  12.306  29.560  0.00  0.00    -0.308 N 
ATOM     12  H   UNL     1      -2.190  12.360  29.517  0.00  0.00    +0.149 HD
ATOM     13  C   UNL     1      -3.854  13.320  30.128  0.00  0.00    +0.210 C 
ATOM     14  C   UNL     1      -5.388  13.196  30.201  0.00  0.00    +0.109 C 
ATOM     15  O   UNL     1      -3.286  14.313  30.584  0.00  0.00    -0.276 OA
ENDBRANCH  10  11
BRANCH   7  16
ATOM     16  C   UNL     1      -2.217   8.117  27.527  0.00  0.00    +0.414 C 
ATOM     17  O   UNL     1      -1.638   8.261  26.451  0.00  0.00    -0.240 OA
ATOM     18  O   UNL     1      -1.592   7.680  28.494  0.00  0.00    -0.240 OA
ENDBRANCH   7  16
BRANCH   7  19
ATOM     19  O   UNL     1      -4.524   7.438  27.069  0.00  0.00    -0.343 OA
ATOM     20  C   UNL     1      -4.801   6.310  27.937  0.00  0.00    +0.198 C 
ENDBRANCH   7  19
BRANCH   9  21
ATOM     21  O   UNL     1      -3.971  10.014  31.134  0.00  0.00    -0.390 OA
ATOM     22  H   UNL     1      -4.730  10.601  31.134  0.00  0.00    +0.210 HD
ENDBRANCH   9  21
ENDBRANCH   4   5
BRANCH   4  23
ATOM     23  O   UNL     1      -5.093  12.510  26.769  0.00  0.00    -0.387 OA
ATOM     24  H   UNL     1      -5.277  13.267  26.209  0.00  0.00    +0.210 HD
ENDBRANCH   4  23
ENDBRANCH   1   4
BRANCH   1  25
ATOM     25  C   UNL     1      -3.028  13.057  24.392  0.00  0.00    +0.141 C 
BRANCH  25  28
ATOM     26  C   UNL     1      -3.672  13.267  22.016  0.00  0.00    +0.401 C 
ATOM     27  O   UNL     1      -4.696  13.911  22.253  0.00  0.00    -0.226 OA
ATOM     28  N   UNL     1      -2.837  12.822  22.956  0.00  0.00    -0.279 N 
ATOM     29  H   UNL     1      -2.027  12.293  22.663  0.00  0.00    +0.152 HD
BRANCH  26  30
ATOM     30  O   UNL     1      -3.341  12.962  20.658  0.00  0.00    -0.444 OA
BRANCH  30  31
ATOM     31  C   UNL     1      -4.113  11.843  20.218  0.00  0.00    +0.292 C 
BRANCH  31  33
ATOM     32  N   UNL     1      -3.055  10.099  21.620  0.00  0.00    -0.131 NA
ATOM     33  C   UNL     1      -4.170  10.811  21.269  0.00  0.00    +0.120 A 
ATOM     34  C   UNL     1      -5.234  10.386  22.028  0.00  0.00    +0.137 A 
ATOM     35  N   UNL     1      -4.718   9.367  22.774  0.00  0.00    -0.241 N 
ATOM     36  N   UNL     1      -3.400   9.229  22.562  0.00  0.00    -0.065 NA
BRANCH  35  37
ATOM     37  C   UNL     1      -5.385   8.560  23.771  0.00  0.00    +0.265 C 
BRANCH  37  38
ATOM     38  C   UNL     1      -6.712   9.138  24.168  0.00  0.00    +0.329 C 
ATOM     39  O   UNL     1      -7.793   8.905  23.646  0.00  0.00    -0.249 OA
BRANCH  38  40
ATOM     40  O   UNL     1      -6.516  10.064  25.155  0.00  0.00    -0.464 OA
BRANCH  40  41
ATOM     41  C   UNL     1      -7.672  10.347  25.957  0.00  0.00    +0.229 C 
ATOM     42  C   UNL     1      -7.413   9.807  27.352  0.00  0.00    +0.048 C 
ENDBRANCH  40  41
ENDBRANCH  38  40
ENDBRANCH  37  38
ENDBRANCH  35  37
ENDBRANCH  31  33
ENDBRANCH  30  31
ENDBRANCH  26  30
ENDBRANCH  25  28
ENDBRANCH   1  25
TORSDOF 17
