REMARK VINA RESULT:    -4.672      4.075     11.047
REMARK INTER + INTRA:         -11.460
REMARK INTER:                  -9.664
REMARK INTRA:                  -1.796
REMARK UNBOUND:                -2.554
REMARK  Name = lig_assembled_9.pdb
REMARK  20 active torsions:
REMARK  status: ('A' for Active; 'I' for Inactive)
REMARK    1  A    between atoms: _2  and  _9
REMARK    2  A    between atoms: _4  and  _23
REMARK    3  A    between atoms: _6  and  _7
REMARK    4  A    between atoms: _6  and  _23
REMARK    5  A    between atoms: _11  and  _12
REMARK    6  A    between atoms: _12  and  _17
REMARK    7  A    between atoms: _13  and  _14
REMARK    8  A    between atoms: _13  and  _17
REMARK    9  A    between atoms: _19  and  _39
REMARK   10  A    between atoms: _21  and  _27
REMARK   11  A    between atoms: _22  and  _26
REMARK   12  A    between atoms: _26  and  _27
REMARK   13  A    between atoms: _29  and  _30
REMARK   14  A    between atoms: _31  and  _32
REMARK   15  A    between atoms: _33  and  _35
REMARK   16  A    between atoms: _35  and  _36
REMARK   17  A    between atoms: _35  and  _37
REMARK   18  A    between atoms: _37  and  _38
REMARK   19  A    between atoms: _37  and  _39
REMARK   20  A    between atoms: _40  and  _42
REMARK                            x       y       z     vdW  Elec       q    Type
REMARK                         _______ _______ _______ _____ _____    ______ ____
ROOT
ATOM      1  C   UNL     1      -3.337  11.655  25.209  0.00  0.00    +0.163 C 
ENDROOT
BRANCH   1   2
ATOM      2  O   UNL     1      -2.015  12.218  25.169  0.00  0.00    -0.388 OA
ATOM      3  H   UNL     1      -1.441  11.651  24.648  0.00  0.00    +0.210 HD
ENDBRANCH   1   2
BRANCH   1   4
ATOM      4  C   UNL     1      -3.947  11.784  26.615  0.00  0.00    +0.175 C 
BRANCH   4   5
ATOM      5  C   UNL     1      -3.534  10.625  27.534  0.00  0.00    +0.176 C 
ATOM      6  O   UNL     1      -4.104   9.401  26.994  0.00  0.00    -0.332 OA
ATOM      7  C   UNL     1      -3.725   8.166  27.686  0.00  0.00    +0.277 C 
ATOM      8  C   UNL     1      -4.047   8.272  29.197  0.00  0.00    +0.110 C 
ATOM      9  C   UNL     1      -3.488   9.573  29.809  0.00  0.00    +0.143 C 
ATOM     10  C   UNL     1      -3.941  10.795  29.009  0.00  0.00    +0.133 C 
BRANCH  10  11
ATOM     11  N   UNL     1      -3.332  12.020  29.550  0.00  0.00    -0.308 N 
ATOM     12  H   UNL     1      -2.324  12.096  29.526  0.00  0.00    +0.149 HD
ATOM     13  C   UNL     1      -4.022  13.038  30.069  0.00  0.00    +0.210 C 
ATOM     14  C   UNL     1      -5.554  12.881  30.115  0.00  0.00    +0.109 C 
ATOM     15  O   UNL     1      -3.486  14.059  30.501  0.00  0.00    -0.276 OA
ENDBRANCH  10  11
BRANCH   7  16
ATOM     16  C   UNL     1      -2.222   7.873  27.499  0.00  0.00    +0.414 C 
ATOM     17  O   UNL     1      -1.661   8.162  26.443  0.00  0.00    -0.240 OA
ATOM     18  O   UNL     1      -1.571   7.348  28.403  0.00  0.00    -0.240 OA
ENDBRANCH   7  16
BRANCH   7  19
ATOM     19  O   UNL     1      -4.508   7.080  27.127  0.00  0.00    -0.343 OA
ATOM     20  C   UNL     1      -4.737   7.163  25.697  0.00  0.00    +0.198 C 
ENDBRANCH   7  19
BRANCH   9  21
ATOM     21  O   UNL     1      -3.935   9.702  31.159  0.00  0.00    -0.390 OA
ATOM     22  H   UNL     1      -3.712  10.575  31.489  0.00  0.00    +0.210 HD
ENDBRANCH   9  21
ENDBRANCH   4   5
BRANCH   4  23
ATOM     23  O   UNL     1      -5.384  11.860  26.528  0.00  0.00    -0.387 OA
ATOM     24  H   UNL     1      -5.776  11.276  27.181  0.00  0.00    +0.210 HD
ENDBRANCH   4  23
ENDBRANCH   1   4
BRANCH   1  25
ATOM     25  C   UNL     1      -4.234  12.360  24.197  0.00  0.00    +0.141 C 
BRANCH  25  28
ATOM     26  C   UNL     1      -4.415  10.894  22.216  0.00  0.00    +0.401 C 
ATOM     27  O   UNL     1      -3.294  11.177  21.788  0.00  0.00    -0.226 OA
ATOM     28  N   UNL     1      -4.938  11.405  23.331  0.00  0.00    -0.279 N 
ATOM     29  H   UNL     1      -5.870  11.119  23.596  0.00  0.00    +0.152 HD
BRANCH  26  30
ATOM     30  O   UNL     1      -5.224   9.968  21.486  0.00  0.00    -0.444 OA
BRANCH  30  31
ATOM     31  C   UNL     1      -6.272  10.674  20.816  0.00  0.00    +0.292 C 
BRANCH  31  33
ATOM     32  N   UNL     1      -6.308  12.097  18.791  0.00  0.00    -0.131 NA
ATOM     33  C   UNL     1      -5.882  10.966  19.423  0.00  0.00    +0.121 A 
ATOM     34  C   UNL     1      -5.085  10.244  18.567  0.00  0.00    +0.143 A 
ATOM     35  N   UNL     1      -5.020  11.002  17.419  0.00  0.00    -0.220 N 
ATOM     36  N   UNL     1      -5.787  12.108  17.571  0.00  0.00    -0.060 NA
BRANCH  35  37
ATOM     37  C   UNL     1      -4.272  10.760  16.238  0.00  0.00    +0.068 A 
ATOM     38  C   UNL     1      -3.952  11.813  15.369  0.00  0.00    +0.042 A 
ATOM     39  C   UNL     1      -3.241  11.563  14.186  0.00  0.00    +0.061 A 
ATOM     40  C   UNL     1      -2.846  10.257  13.877  0.00  0.00    +0.015 A 
ATOM     41  C   UNL     1      -3.151   9.208  14.747  0.00  0.00    +0.003 A 
ATOM     42  C   UNL     1      -3.860   9.456  15.924  0.00  0.00    +0.028 A 
BRANCH  39  43
ATOM     43  C   UNL     1      -2.831  12.659  13.268  0.00  0.00    +0.339 C 
ATOM     44  O   UNL     1      -3.390  13.742  13.214  0.00  0.00    -0.245 OA
BRANCH  43  45
ATOM     45  O   UNL     1      -1.832  12.229  12.458  0.00  0.00    -0.461 OA
BRANCH  45  46
ATOM     46  C   UNL     1      -2.054  12.409  11.054  0.00  0.00    +0.229 C 
ATOM     47  C   UNL     1      -0.986  13.349  10.527  0.00  0.00    +0.048 C 
ENDBRANCH  45  46
ENDBRANCH  43  45
ENDBRANCH  39  43
ENDBRANCH  35  37
ENDBRANCH  31  33
ENDBRANCH  30  31
ENDBRANCH  26  30
ENDBRANCH  25  28
ENDBRANCH   1  25
TORSDOF 17
