REMARK VINA RESULT:    -5.137      4.138     11.725
REMARK INTER + INTRA:         -14.030
REMARK INTER:                 -11.375
REMARK INTRA:                  -2.655
REMARK UNBOUND:                -3.487
REMARK  Name = lig_assembled_90.pdb
REMARK  22 active torsions:
REMARK  status: ('A' for Active; 'I' for Inactive)
REMARK    1  A    between atoms: _2  and  _13
REMARK    2  A    between atoms: _3  and  _15
REMARK    3  A    between atoms: _4  and  _17
REMARK    4  A    between atoms: _8  and  _28
REMARK    5  A    between atoms: _10  and  _11
REMARK    6  A    between atoms: _10  and  _28
REMARK    7  A    between atoms: _13  and  _14
REMARK    8  A    between atoms: _15  and  _16
REMARK    9  A    between atoms: _16  and  _17
REMARK   10  A    between atoms: _16  and  _22
REMARK   11  A    between atoms: _24  and  _44
REMARK   12  A    between atoms: _26  and  _32
REMARK   13  A    between atoms: _27  and  _31
REMARK   14  A    between atoms: _31  and  _32
REMARK   15  A    between atoms: _34  and  _35
REMARK   16  A    between atoms: _36  and  _37
REMARK   17  A    between atoms: _38  and  _40
REMARK   18  A    between atoms: _40  and  _41
REMARK   19  A    between atoms: _40  and  _42
REMARK   20  A    between atoms: _42  and  _43
REMARK   21  A    between atoms: _42  and  _44
REMARK   22  A    between atoms: _45  and  _47
REMARK                            x       y       z     vdW  Elec       q    Type
REMARK                         _______ _______ _______ _____ _____    ______ ____
ROOT
ATOM      1  C   UNL     1      -4.125  13.719  22.905  0.00  0.00    +0.401 C 
ATOM      2  O   UNL     1      -5.227  14.248  23.064  0.00  0.00    -0.226 OA
ATOM      3  N   UNL     1      -3.432  13.130  23.881  0.00  0.00    -0.279 N 
ATOM      4  H   UNL     1      -2.541  12.714  23.649  0.00  0.00    +0.152 HD
ENDROOT
BRANCH   3   5
ATOM      5  C   UNL     1      -3.892  13.051  25.272  0.00  0.00    +0.141 C 
BRANCH   5   6
ATOM      6  C   UNL     1      -3.749  11.643  25.840  0.00  0.00    +0.163 C 
BRANCH   6   7
ATOM      7  O   UNL     1      -2.537  11.040  25.358  0.00  0.00    -0.388 OA
ATOM      8  H   UNL     1      -1.880  11.036  26.059  0.00  0.00    +0.210 HD
ENDBRANCH   6   7
BRANCH   6   9
ATOM      9  C   UNL     1      -3.759  11.705  27.377  0.00  0.00    +0.175 C 
BRANCH   9  10
ATOM     10  C   UNL     1      -3.352  10.367  28.012  0.00  0.00    +0.176 C 
ATOM     11  O   UNL     1      -4.040   9.305  27.297  0.00  0.00    -0.332 OA
ATOM     12  C   UNL     1      -3.690   7.939  27.699  0.00  0.00    +0.277 C 
ATOM     13  C   UNL     1      -3.888   7.757  29.224  0.00  0.00    +0.110 C 
ATOM     14  C   UNL     1      -3.200   8.882  30.026  0.00  0.00    +0.143 C 
ATOM     15  C   UNL     1      -3.634  10.259  29.522  0.00  0.00    +0.133 C 
BRANCH  15  16
ATOM     16  N   UNL     1      -2.907  11.321  30.236  0.00  0.00    -0.308 N 
ATOM     17  H   UNL     1      -1.913  11.401  30.076  0.00  0.00    +0.149 HD
ATOM     18  C   UNL     1      -3.475  12.185  31.081  0.00  0.00    +0.210 C 
ATOM     19  C   UNL     1      -4.987  12.019  31.324  0.00  0.00    +0.109 C 
ATOM     20  O   UNL     1      -2.844  13.074  31.653  0.00  0.00    -0.276 OA
ENDBRANCH  15  16
BRANCH  12  21
ATOM     21  C   UNL     1      -2.227   7.618  27.327  0.00  0.00    +0.414 C 
ATOM     22  O   UNL     1      -1.681   8.205  26.394  0.00  0.00    -0.240 OA
ATOM     23  O   UNL     1      -1.594   6.772  27.959  0.00  0.00    -0.240 OA
ENDBRANCH  12  21
BRANCH  14  24
ATOM     24  O   UNL     1      -3.534   8.760  31.409  0.00  0.00    -0.390 OA
ATOM     25  H   UNL     1      -3.731   9.628  31.769  0.00  0.00    +0.210 HD
ENDBRANCH  14  24
BRANCH  12  26
ATOM     26  O   UNL     1      -4.581   7.026  27.009  0.00  0.00    -0.343 OA
ATOM     27  C   UNL     1      -5.272   6.082  27.866  0.00  0.00    +0.198 C 
ENDBRANCH  12  26
ENDBRANCH   9  10
BRANCH   9  28
ATOM     28  O   UNL     1      -5.062  12.103  27.850  0.00  0.00    -0.387 OA
ATOM     29  H   UNL     1      -5.250  12.997  27.554  0.00  0.00    +0.210 HD
ENDBRANCH   9  28
ENDBRANCH   6   9
ENDBRANCH   5   6
ENDBRANCH   3   5
BRANCH   1  30
ATOM     30  O   UNL     1      -3.536  13.720  21.602  0.00  0.00    -0.444 OA
BRANCH  30  31
ATOM     31  C   UNL     1      -3.006  12.423  21.315  0.00  0.00    +0.292 C 
BRANCH  31  33
ATOM     32  N   UNL     1      -4.069  10.256  20.745  0.00  0.00    -0.131 NA
ATOM     33  C   UNL     1      -3.994  11.614  20.576  0.00  0.00    +0.120 A 
ATOM     34  C   UNL     1      -4.945  12.004  19.660  0.00  0.00    +0.137 A 
ATOM     35  N   UNL     1      -5.577  10.845  19.325  0.00  0.00    -0.242 N 
ATOM     36  N   UNL     1      -5.037   9.792  19.965  0.00  0.00    -0.065 NA
BRANCH  35  37
ATOM     37  C   UNL     1      -6.614  10.643  18.343  0.00  0.00    +0.240 C 
BRANCH  37  38
ATOM     38  C   UNL     1      -6.330  11.417  17.076  0.00  0.00    +0.235 C 
ATOM     39  O   UNL     1      -7.124  12.228  16.602  0.00  0.00    -0.274 OA
ATOM     40  N   UNL     1      -5.087  11.192  16.514  0.00  0.00    -0.311 N 
ATOM     41  H   UNL     1      -4.587  10.342  16.763  0.00  0.00    +0.149 HD
BRANCH  40  42
ATOM     42  C   UNL     1      -4.726  11.813  15.247  0.00  0.00    +0.137 C 
BRANCH  42  43
ATOM     43  C   UNL     1      -3.782  10.912  14.437  0.00  0.00    +0.151 C 
BRANCH  43  44
ATOM     44  O   UNL     1      -2.679  11.702  13.976  0.00  0.00    -0.388 OA
ATOM     45  H   UNL     1      -2.335  12.232  14.724  0.00  0.00    +0.210 HD
ENDBRANCH  43  44
BRANCH  43  46
ATOM     46  C   UNL     1      -3.303   9.709  15.258  0.00  0.00    +0.162 C 
BRANCH  46  47
ATOM     47  N   UNL     1      -3.661   8.438  14.643  0.00  0.00    -0.269 N 
ATOM     48  C   UNL     1      -4.832   7.770  14.927  0.00  0.00    +0.113 A 
ATOM     49  C   UNL     1      -4.787   6.608  14.196  0.00  0.00    +0.137 A 
ATOM     50  N   UNL     1      -3.624   6.537  13.474  0.00  0.00    -0.172 NA
ATOM     51  C   UNL     1      -2.971   7.654  13.751  0.00  0.00    +0.450 A 
ATOM     52  N   UNL     1      -1.687   7.962  13.169  0.00  0.00    +0.120 N 
ATOM     53  O   UNL     1      -1.202   9.078  13.402  0.00  0.00    +0.045 OA
ATOM     54  O   UNL     1      -1.150   7.084  12.483  0.00  0.00    -0.573 OA
ENDBRANCH  46  47
ENDBRANCH  43  46
ENDBRANCH  42  43
ENDBRANCH  40  42
ENDBRANCH  37  38
ENDBRANCH  35  37
ENDBRANCH  31  33
ENDBRANCH  30  31
ENDBRANCH   1  30
TORSDOF 20
