ligand_6_pose_0_2HRL.pdbqt
 OpenBabel07062320523D

 52 53  0  0  1  0  0  0  0  0999 V2000
   29.5140   26.9520   20.2760 N   0  0  0  0  0  0  0  0  0  0  0  0
   28.3390   27.7220   20.3620 C   0  0  0  0  0  0  0  0  0  0  0  0
   28.1380   28.5640   21.2550 O   0  0  0  0  0  0  0  0  0  0  0  0
   29.5770   26.2770   19.4380 H   0  0  0  0  0  0  0  0  0  0  0  0
   30.5840   27.0040   21.1930 C   0  0  0  0  0  0  0  0  0  0  0  0
   31.7950   27.7900   20.8870 C   0  0  2  0  0  0  0  0  0  0  0  0
   31.8350   29.2470   20.9600 C   0  0  2  0  0  0  0  0  0  0  0  0
   33.1780   29.7720   21.4780 C   0  0  2  0  0  0  0  0  0  0  0  0
   34.6160   29.4030   23.2690 C   0  0  2  0  0  0  0  0  0  0  0  0
   35.4040   30.5060   22.6020 C   0  0  0  0  0  0  0  0  0  0  0  0
   33.6140   28.8820   22.4820 O   0  0  0  0  0  0  0  0  0  0  0  0
   34.5440   31.6500   22.1630 C   0  0  1  0  0  0  0  0  0  0  0  0
   33.1000   31.1200   22.0970 C   0  0  1  0  0  0  0  0  0  0  0  0
   34.1580   29.8950   24.4800 O   0  0  0  0  0  0  0  0  0  0  0  0
   33.8790   30.8250   24.3620 H   0  0  0  0  0  0  0  0  0  0  0  0
   35.5770   28.3030   23.5450 C   0  0  0  0  0  0  0  0  0  0  0  0
   36.5080   28.4560   24.3770 O   0  0  0  0  0  0  0  0  0  0  0  0
   35.4730   27.0840   22.8980 O   0  0  0  0  0  0  0  0  0  0  0  0
   35.7700   26.9560   21.9270 H   0  0  0  0  0  0  0  0  0  0  0  0
   34.6290   32.7690   22.9600 O   0  0  0  0  0  0  0  0  0  0  0  0
   34.8120   32.4740   23.8870 H   0  0  0  0  0  0  0  0  0  0  0  0
   32.3690   32.1080   21.3310 N   0  0  0  0  0  0  0  0  0  0  0  0
   31.5610   33.0910   21.9940 C   0  0  0  0  0  0  0  0  0  0  0  0
   32.3950   32.1530   20.2950 H   0  0  0  0  0  0  0  0  0  0  0  0
   30.7890   34.1290   21.2760 C   0  0  0  0  0  0  0  0  0  0  0  0
   31.5190   33.0530   23.2410 O   0  0  0  0  0  0  0  0  0  0  0  0
   30.7890   29.7540   21.6870 O   0  0  0  0  0  0  0  0  0  0  0  0
   30.6760   29.4010   22.5970 H   0  0  0  0  0  0  0  0  0  0  0  0
   32.2610   27.2860   19.6390 O   0  0  0  0  0  0  0  0  0  0  0  0
   32.7380   28.0020   19.1450 H   0  0  0  0  0  0  0  0  0  0  0  0
   27.3520   27.5100   19.3730 O   0  0  0  0  0  0  0  0  0  0  0  0
   26.6880   28.6640   18.8980 C   0  0  0  0  0  0  0  0  0  0  0  0
   27.5390   29.3620   17.8750 C   0  0  0  0  0  0  0  0  0  0  0  0
   28.4230   30.3980   18.0860 C   0  0  0  0  0  0  0  0  0  0  0  0
   27.6100   29.1180   16.5440 N   0  0  0  0  0  0  0  0  0  0  0  0
   29.0010   30.7570   16.9140 N   0  0  0  0  0  0  0  0  0  0  0  0
   28.4730   29.9520   16.0170 N   0  0  0  0  0  0  0  0  0  0  0  0
   29.9660   31.7870   16.7150 C   0  0  0  0  0  0  0  0  0  0  0  0
   30.6350   31.9450   15.5200 C   0  0  0  0  0  0  0  0  0  0  0  0
   30.2740   32.6800   17.7250 C   0  0  0  0  0  0  0  0  0  0  0  0
   31.5660   32.9500   15.3490 C   0  0  0  0  0  0  0  0  0  0  0  0
   31.2060   33.6860   17.5550 C   0  0  0  0  0  0  0  0  0  0  0  0
   31.8760   33.8470   16.3610 C   0  0  0  0  0  0  0  0  0  0  0  0
   32.8270   34.8800   16.1940 N   0  0  0  0  0  0  0  0  0  0  0  0
   33.1180   35.5860   17.1750 O   0  0  0  0  0  0  0  0  0  0  0  0
   33.4540   35.1510   15.0110 O   0  0  0  0  0  0  0  0  0  0  0  0
   29.8670   25.5550   16.9770 C   0  0  0  0  0  0  0  0  0  0  0  0
   28.3450   25.7220   17.0260 C   0  0  0  0  0  0  0  0  0  0  0  0
   27.6010   24.4050   16.8670 C   0  0  0  0  0  0  0  0  0  0  0  0
   26.5920   24.1890   17.9610 C   0  0  0  0  0  0  0  0  0  0  0  0
   25.3540   25.0350   17.6870 C   0  0  0  0  0  0  0  0  0  0  0  0
   24.6290   25.3190   18.9480 N   0  0  0  0  0  0  0  0  0  0  0  0
  1  2  1  0  0  0  0
  1  5  1  0  0  0  0
  2  3  2  0  0  0  0
  4  1  1  0  0  0  0
  6  7  1  0  0  0  0
  6  5  1  6  0  0  0
  7 27  1  1  0  0  0
  8  7  1  1  0  0  0
  8 13  1  0  0  0  0
  8 11  1  0  0  0  0
  9 16  1  1  0  0  0
  9 14  1  0  0  0  0
 10  9  1  0  0  0  0
 11  9  1  0  0  0  0
 12 10  1  0  0  0  0
 12 20  1  1  0  0  0
 13 22  1  6  0  0  0
 13 12  1  0  0  0  0
 15 14  1  0  0  0  0
 16 17  2  0  0  0  0
 18 16  1  0  0  0  0
 19 18  1  0  0  0  0
 20 21  1  0  0  0  0
 22 23  1  0  0  0  0
 23 26  2  0  0  0  0
 24 22  1  0  0  0  0
 25 23  1  0  0  0  0
 27 28  1  0  0  0  0
 29  6  1  0  0  0  0
 30 29  1  0  0  0  0
 31  2  1  0  0  0  0
 32 31  1  0  0  0  0
 33 34  2  0  0  0  0
 33 32  1  0  0  0  0
 35 33  1  0  0  0  0
 36 34  1  0  0  0  0
 37 35  2  0  0  0  0
 37 36  1  0  0  0  0
 38 36  1  0  0  0  0
 38 40  2  0  0  0  0
 39 38  1  0  0  0  0
 41 39  2  0  0  0  0
 41 43  1  0  0  0  0
 42 40  1  0  0  0  0
 43 42  2  0  0  0  0
 44 43  1  0  0  0  0
 44 45  2  0  0  0  0
 46 44  2  0  0  0  0
 47 48  1  0  0  0  0
 49 48  1  0  0  0  0
 49 50  1  0  0  0  0
 51 50  1  0  0  0  0
 51 52  1  0  0  0  0
M  END
>  <REMARK>
 VINA RESULT:    -5.962      0.000      0.000
 INTER + INTRA:         -15.416
 INTER:                 -10.174
 INTRA:                  -5.242
 UNBOUND:                -4.749
 SMILES CC(=O)N[C@@H]1[C@@H](O)C[C@](O)(C(=O)O)O[C@H]1C(O)[C@H](O)CNC(=O)OCc1cn(-c2ccc([N+](=O)[O-])cc2)nn1
 SMILES IDX 21 1 22 2 23 3 20 5 18 6 16 7 15 8 9 9 8 10 14 11 6 12 5 13
 SMILES IDX 10 14 11 16 12 17 13 18 7 20 4 22 2 23 1 25 3 26 17 27 19 29
 SMILES IDX 24 31 25 32 26 33 27 34 39 35 28 36 38 37 29 38 30 39 37 40
 SMILES IDX 31 41 36 42 32 43 33 44 34 45 35 46
 H PARENT 21 4 10 15 13 19 7 21 4 24 17 28 19 30
 Flexibility Score: inf
  4 active torsions:
  status: ('A' for Active; 'I' for Inactive)
    1  A    between atoms: CA   and  CB  
    2  A    between atoms: CB   and  CG  
    3  A    between atoms: CG   and  CD  
    4  A    between atoms: CD   and  CE  

>  <TORSDO>
F 16

>  <BEGIN_>
RES LYS A 131

$$$$
ligand_6_pose_0_2HRL.pdbqt
 OpenBabel07062320523D

  6  5  0  0  0  0  0  0  0  0999 V2000
   33.1930   34.6630    9.2900 C   0  0  0  0  0  0  0  0  0  0  0  0
   32.0600   35.3600   10.0340 C   0  0  0  0  0  0  0  0  0  0  0  0
   30.7130   34.7200    9.8160 C   0  0  0  0  0  0  0  0  0  0  0  0
   30.3320   34.7590    8.3440 C   0  0  0  0  0  0  0  0  0  0  0  0
   29.4190   35.9360    8.0610 C   0  0  0  0  0  0  0  0  0  0  0  0
   27.9980   35.5940    8.3490 N   0  0  0  0  0  0  0  0  0  0  0  0
  1  2  1  0  0  0  0
  3  2  1  0  0  0  0
  4  3  1  0  0  0  0
  5  4  1  0  0  0  0
  5  6  1  0  0  0  0
M  END
>  <EGIN_R>
ES LYS A 135

>  <REMARK>
  4 active torsions:
  status: ('A' for Active; 'I' for Inactive)
    5  A    between atoms: CA   and  CB  
    6  A    between atoms: CB   and  CG  
    7  A    between atoms: CG   and  CD  
    8  A    between atoms: CD   and  CE  

$$$$
