ligand_5_pose_0_2HRL.pdbqt
 OpenBabel07062320523D

 51 52  0  0  1  0  0  0  0  0999 V2000
   29.2730   27.0350   20.2190 N   0  0  0  0  0  0  0  0  0  0  0  0
   28.1440   27.8430   19.9630 C   0  0  0  0  0  0  0  0  0  0  0  0
   27.7020   28.6500   20.7950 O   0  0  0  0  0  0  0  0  0  0  0  0
   29.5260   26.3650   19.4230 H   0  0  0  0  0  0  0  0  0  0  0  0
   30.0920   26.9960   21.3620 C   0  0  0  0  0  0  0  0  0  0  0  0
   31.5170   27.3020   21.2550 C   0  0  2  0  0  0  0  0  0  0  0  0
   32.0490   28.5090   21.8490 C   0  0  1  0  0  0  0  0  0  0  0  0
   33.3520   28.3530   22.6620 C   0  0  2  0  0  0  0  0  0  0  0  0
   33.7760   27.0170   24.5590 C   0  0  2  0  0  0  0  0  0  0  0  0
   33.6130   28.2340   25.4850 C   0  0  0  0  0  0  0  0  0  0  0  0
   33.0560   27.2620   23.4610 O   0  0  0  0  0  0  0  0  0  0  0  0
   34.2720   29.3630   24.7920 C   0  0  1  0  0  0  0  0  0  0  0  0
   33.7980   29.5630   23.3410 C   0  0  1  0  0  0  0  0  0  0  0  0
   33.0730   25.9960   25.2540 O   0  0  0  0  0  0  0  0  0  0  0  0
   33.6960   25.3210   25.6160 H   0  0  0  0  0  0  0  0  0  0  0  0
   35.1490   26.5810   24.4040 C   0  0  0  0  0  0  0  0  0  0  0  0
   35.8910   26.4460   25.4090 O   0  0  0  0  0  0  0  0  0  0  0  0
   35.7720   26.2770   23.1920 O   0  0  0  0  0  0  0  0  0  0  0  0
   36.7900   26.2640   23.0880 H   0  0  0  0  0  0  0  0  0  0  0  0
   34.0970   30.5990   25.4340 O   0  0  0  0  0  0  0  0  0  0  0  0
   34.9040   31.1410   25.1670 H   0  0  0  0  0  0  0  0  0  0  0  0
   34.8930   30.2840   22.7690 N   0  0  0  0  0  0  0  0  0  0  0  0
   34.8420   31.4530   22.0100 C   0  0  0  0  0  0  0  0  0  0  0  0
   35.8520   29.8630   22.9550 H   0  0  0  0  0  0  0  0  0  0  0  0
   36.0820   32.0940   21.4710 C   0  0  0  0  0  0  0  0  0  0  0  0
   33.7270   31.9420   21.7980 O   0  0  0  0  0  0  0  0  0  0  0  0
   32.1940   29.4990   20.8830 O   0  0  0  0  0  0  0  0  0  0  0  0
   33.0830   29.4720   20.4470 H   0  0  0  0  0  0  0  0  0  0  0  0
   31.9480   27.1010   19.9130 O   0  0  0  0  0  0  0  0  0  0  0  0
   32.0030   26.1280   19.7190 H   0  0  0  0  0  0  0  0  0  0  0  0
   27.4610   27.7690   18.7310 O   0  0  0  0  0  0  0  0  0  0  0  0
   26.8230   28.9130   18.2200 C   0  0  0  0  0  0  0  0  0  0  0  0
   27.7380   29.6300   17.3180 C   0  0  0  0  0  0  0  0  0  0  0  0
   28.5580   30.6870   17.7290 C   0  0  0  0  0  0  0  0  0  0  0  0
   27.9960   29.4790   16.0220 N   0  0  0  0  0  0  0  0  0  0  0  0
   29.2640   31.1140   16.6660 N   0  0  0  0  0  0  0  0  0  0  0  0
   28.8910   30.3500   15.6420 N   0  0  0  0  0  0  0  0  0  0  0  0
   30.2170   32.1670   16.6320 C   0  0  0  0  0  0  0  0  0  0  0  0
   30.5100   32.9500   17.7250 C   0  0  0  0  0  0  0  0  0  0  0  0
   30.9140   32.4510   15.4550 C   0  0  0  0  0  0  0  0  0  0  0  0
   31.4480   33.9740   17.6720 C   0  0  0  0  0  0  0  0  0  0  0  0
   31.8460   33.4690   15.4050 C   0  0  0  0  0  0  0  0  0  0  0  0
   32.1270   34.2420   16.5080 C   0  0  0  0  0  0  0  0  0  0  0  0
   33.0450   35.2470   16.4610 O   0  0  0  0  0  0  0  0  0  0  0  0
   32.9330   36.2610   15.4860 C   0  0  0  0  0  0  0  0  0  0  0  0
   29.8670   25.5550   16.9770 C   0  0  0  0  0  0  0  0  0  0  0  0
   28.3450   25.7220   17.0260 C   0  0  0  0  0  0  0  0  0  0  0  0
   27.6010   24.4050   16.8700 C   0  0  0  0  0  0  0  0  0  0  0  0
   26.1480   24.5280   17.2370 C   0  0  0  0  0  0  0  0  0  0  0  0
   26.0110   24.6110   18.7530 C   0  0  0  0  0  0  0  0  0  0  0  0
   24.8610   25.4680   19.1250 N   0  0  0  0  0  0  0  0  0  0  0  0
  1  5  1  0  0  0  0
  2  1  1  0  0  0  0
  2  3  2  0  0  0  0
  4  1  1  0  0  0  0
  6  5  1  6  0  0  0
  6  7  1  0  0  0  0
  7 27  1  6  0  0  0
  8  7  1  1  0  0  0
  8 13  1  0  0  0  0
  8 11  1  0  0  0  0
  9 16  1  6  0  0  0
  9 14  1  0  0  0  0
  9 10  1  0  0  0  0
 11  9  1  0  0  0  0
 12 20  1  1  0  0  0
 12 10  1  0  0  0  0
 13 22  1  6  0  0  0
 13 12  1  0  0  0  0
 14 15  1  0  0  0  0
 16 17  2  0  0  0  0
 18 16  1  0  0  0  0
 19 18  1  0  0  0  0
 21 20  1  0  0  0  0
 22 24  1  0  0  0  0
 23 22  1  0  0  0  0
 25 23  1  0  0  0  0
 26 23  2  0  0  0  0
 28 27  1  0  0  0  0
 29  6  1  0  0  0  0
 30 29  1  0  0  0  0
 31  2  1  0  0  0  0
 32 31  1  0  0  0  0
 33 34  2  0  0  0  0
 33 32  1  0  0  0  0
 35 33  1  0  0  0  0
 36 34  1  0  0  0  0
 37 35  2  0  0  0  0
 37 36  1  0  0  0  0
 38 36  1  0  0  0  0
 38 39  2  0  0  0  0
 40 38  1  0  0  0  0
 41 39  1  0  0  0  0
 42 40  2  0  0  0  0
 42 43  1  0  0  0  0
 43 41  2  0  0  0  0
 44 43  1  0  0  0  0
 45 44  1  0  0  0  0
 46 47  1  0  0  0  0
 48 47  1  0  0  0  0
 48 49  1  0  0  0  0
 49 50  1  0  0  0  0
 50 51  1  0  0  0  0
M  END
>  <REMARK>
 VINA RESULT:    -5.447      0.000      0.000
 INTER + INTRA:         -14.971
 INTER:                 -10.165
 INTRA:                  -4.806
 UNBOUND:                -5.226
 SMILES COc1ccc(-n2cc(COC(=O)NC[C@@H](O)C(O)[C@@H]3O[C@@](O)(C(=O)O)C[C@H](O)[C@H]3NC(C)=O)nn2)cc1
 SMILES IDX 14 1 12 2 13 3 15 5 16 6 18 7 20 8 22 9 27 10 21 11 28 12
 SMILES IDX 30 13 23 14 24 16 25 17 26 18 29 20 31 22 32 23 33 25 34 26
 SMILES IDX 19 27 17 29 11 31 10 32 9 33 8 34 35 35 7 36 36 37 6 38 5 39
 SMILES IDX 37 40 4 41 38 42 3 43 2 44 1 45
 H PARENT 14 4 23 15 26 19 29 21 31 24 19 28 17 30
 Flexibility Score: inf
  4 active torsions:
  status: ('A' for Active; 'I' for Inactive)
    1  A    between atoms: CA   and  CB  
    2  A    between atoms: CB   and  CG  
    3  A    between atoms: CG   and  CD  
    4  A    between atoms: CD   and  CE  

>  <TORSDO>
F 16

>  <BEGIN_>
RES LYS A 131

$$$$
ligand_5_pose_0_2HRL.pdbqt
 OpenBabel07062320523D

  6  5  0  0  0  0  0  0  0  0999 V2000
   33.1930   34.6630    9.2900 C   0  0  0  0  0  0  0  0  0  0  0  0
   32.0600   35.3600   10.0340 C   0  0  0  0  0  0  0  0  0  0  0  0
   30.7030   34.7670    9.7570 C   0  0  0  0  0  0  0  0  0  0  0  0
   30.5400   34.4670    8.2750 C   0  0  0  0  0  0  0  0  0  0  0  0
   29.2410   35.0500    7.7530 C   0  0  0  0  0  0  0  0  0  0  0  0
   28.0690   34.4770    8.4700 N   0  0  0  0  0  0  0  0  0  0  0  0
  1  2  1  0  0  0  0
  3  2  1  0  0  0  0
  4  3  1  0  0  0  0
  5  4  1  0  0  0  0
  5  6  1  0  0  0  0
M  END
>  <EGIN_R>
ES LYS A 135

>  <REMARK>
  4 active torsions:
  status: ('A' for Active; 'I' for Inactive)
    5  A    between atoms: CA   and  CB  
    6  A    between atoms: CB   and  CG  
    7  A    between atoms: CG   and  CD  
    8  A    between atoms: CD   and  CE  

$$$$
