ligand_82_pose_0_2HRL.pdbqt
 OpenBabel07062320523D

 53 55  0  0  1  0  0  0  0  0999 V2000
   26.0490   29.0570   19.3380 N   0  0  0  0  0  0  0  0  0  0  0  0
   25.1720   29.1960   18.2070 C   0  0  0  0  0  0  0  0  0  0  0  0
   24.0950   28.5460   18.2000 O   0  0  0  0  0  0  0  0  0  0  0  0
   26.9420   29.5940   19.3490 H   0  0  0  0  0  0  0  0  0  0  0  0
   25.6800   28.1830   20.4300 C   0  0  0  0  0  0  0  0  0  0  0  0
   26.9390   27.7320   21.1150 C   0  0  2  0  0  0  0  0  0  0  0  0
   28.1820   28.1330   20.3530 C   0  0  1  0  0  0  0  0  0  0  0  0
   29.2710   28.3820   21.3700 C   0  0  2  0  0  0  0  0  0  0  0  0
   30.7290   29.8850   20.3780 C   0  0  2  0  0  0  0  0  0  0  0  0
   31.9060   28.9380   20.4340 C   0  0  0  0  0  0  0  0  0  0  0  0
   29.7840   29.6450   21.3470 O   0  0  0  0  0  0  0  0  0  0  0  0
   31.6580   27.9530   21.5490 C   0  0  1  0  0  0  0  0  0  0  0  0
   30.3200   27.2980   21.2760 C   0  0  1  0  0  0  0  0  0  0  0  0
   30.1920   29.8840   19.0880 O   0  0  0  0  0  0  0  0  0  0  0  0
   30.5630   30.6930   18.6410 H   0  0  0  0  0  0  0  0  0  0  0  0
   31.2700   31.2560   20.6130 C   0  0  0  0  0  0  0  0  0  0  0  0
   31.9500   31.4820   21.6710 O   0  0  0  0  0  0  0  0  0  0  0  0
   31.0720   32.3000   19.7350 O   0  0  0  0  0  0  0  0  0  0  0  0
   30.3460   32.2720   19.0240 H   0  0  0  0  0  0  0  0  0  0  0  0
   32.6230   26.9660   21.6070 O   0  0  0  0  0  0  0  0  0  0  0  0
   33.1280   26.9930   20.7550 H   0  0  0  0  0  0  0  0  0  0  0  0
   30.0720   26.1960   22.1690 N   0  0  0  0  0  0  0  0  0  0  0  0
   29.7540   26.3990   23.5360 C   0  0  0  0  0  0  0  0  0  0  0  0
   30.1330   25.2290   21.7830 H   0  0  0  0  0  0  0  0  0  0  0  0
   29.5150   25.2030   24.3890 C   0  0  0  0  0  0  0  0  0  0  0  0
   29.6800   27.5610   24.0080 O   0  0  0  0  0  0  0  0  0  0  0  0
   28.6080   27.1000   19.5210 O   0  0  0  0  0  0  0  0  0  0  0  0
   29.1850   26.4570   19.9660 H   0  0  0  0  0  0  0  0  0  0  0  0
   26.8870   26.3220   21.1620 O   0  0  0  0  0  0  0  0  0  0  0  0
   27.6440   25.9680   21.7070 H   0  0  0  0  0  0  0  0  0  0  0  0
   25.4550   30.0040   17.1400 O   0  0  0  0  0  0  0  0  0  0  0  0
   26.4360   29.7110   16.1610 C   0  0  0  0  0  0  0  0  0  0  0  0
   27.6630   30.4920   16.4210 C   0  0  0  0  0  0  0  0  0  0  0  0
   28.8030   30.5830   15.6570 C   0  0  0  0  0  0  0  0  0  0  0  0
   27.8730   31.2740   17.4890 N   0  0  0  0  0  0  0  0  0  0  0  0
   29.6870   31.4200   16.2760 N   0  0  0  0  0  0  0  0  0  0  0  0
   29.0870   31.8210   17.3880 N   0  0  0  0  0  0  0  0  0  0  0  0
   30.9960   31.7610   15.7740 C   0  0  0  0  0  0  0  0  0  0  0  0
   31.1380   33.2490   15.6030 C   0  0  0  0  0  0  0  0  0  0  0  0
   30.5770   33.8830   14.5770 C   0  0  0  0  0  0  0  0  0  0  0  0
   31.9070   34.0600   16.5680 C   0  0  2  0  0  0  0  0  0  0  0  0
   30.5430   35.3710   14.5930 C   0  0  0  0  0  0  0  0  0  0  0  0
   30.9690   35.1910   17.0140 C   0  0  0  0  0  0  0  0  0  0  0  0
   32.6890   35.1200   15.8190 C   0  0  0  0  0  0  0  0  0  0  0  0
   31.3660   35.8970   15.7280 C   0  0  1  0  0  0  0  0  0  0  0  0
   33.6660   35.8760   16.6750 C   0  0  0  0  0  0  0  0  0  0  0  0
   33.2620   34.7050   14.5070 C   0  0  0  0  0  0  0  0  0  0  0  0
   29.8670   25.5550   16.9770 C   0  0  0  0  0  0  0  0  0  0  0  0
   28.3450   25.7220   17.0260 C   0  0  0  0  0  0  0  0  0  0  0  0
   27.6020   24.3980   16.9280 C   0  0  0  0  0  0  0  0  0  0  0  0
   26.6250   24.2130   18.0560 C   0  0  0  0  0  0  0  0  0  0  0  0
   25.5730   25.3160   18.0050 C   0  0  0  0  0  0  0  0  0  0  0  0
   24.5040   25.0590   18.9990 N   0  0  0  0  0  0  0  0  0  0  0  0
  1  4  1  0  0  0  0
  1  5  1  0  0  0  0
  2  1  1  0  0  0  0
  3  2  2  0  0  0  0
  6  5  1  6  0  0  0
  6 29  1  0  0  0  0
  7 27  1  6  0  0  0
  7  6  1  0  0  0  0
  8  7  1  6  0  0  0
  9 14  1  6  0  0  0
  9 10  1  0  0  0  0
  9 16  1  0  0  0  0
  9 11  1  0  0  0  0
 10 12  1  0  0  0  0
 11  8  1  0  0  0  0
 12 20  1  6  0  0  0
 13  8  1  0  0  0  0
 13 12  1  0  0  0  0
 13 22  1  1  0  0  0
 15 14  1  0  0  0  0
 16 17  2  0  0  0  0
 18 16  1  0  0  0  0
 19 18  1  0  0  0  0
 21 20  1  0  0  0  0
 22 23  1  0  0  0  0
 23 26  2  0  0  0  0
 23 25  1  0  0  0  0
 24 22  1  0  0  0  0
 27 28  1  0  0  0  0
 29 30  1  0  0  0  0
 31  2  1  0  0  0  0
 32 33  1  0  0  0  0
 32 31  1  0  0  0  0
 33 35  1  0  0  0  0
 34 36  1  0  0  0  0
 34 33  2  0  0  0  0
 36 37  1  0  0  0  0
 37 35  2  0  0  0  0
 38 36  1  0  0  0  0
 39 38  1  0  0  0  0
 39 41  1  0  0  0  0
 40 42  1  0  0  0  0
 40 39  2  0  0  0  0
 41 43  1  1  0  0  0
 44 41  1  0  0  0  0
 44 46  1  0  0  0  0
 45 42  1  6  0  0  0
 45 44  1  0  0  0  0
 45 43  1  0  0  0  0
 47 44  1  0  0  0  0
 48 49  1  0  0  0  0
 50 49  1  0  0  0  0
 50 51  1  0  0  0  0
 52 51  1  0  0  0  0
 52 53  1  0  0  0  0
M  END
>  <REMARK>
 VINA RESULT:    -6.224      0.000      0.000
 INTER + INTRA:         -16.474
 INTER:                 -10.525
 INTRA:                  -5.948
 UNBOUND:                -5.337
 SMILES CC(=O)N[C@@H]1[C@@H](O)C[C@](O)(C(=O)O)O[C@H]1C(O)[C@H](O)CNC(=O)OCc1cn(CC2=CC[C@H]3C[C@@H]2C3(C)C)nn1
 SMILES IDX 21 1 22 2 23 3 20 5 18 6 16 7 15 8 9 9 8 10 14 11 6 12 5 13
 SMILES IDX 10 14 11 16 12 17 13 18 7 20 4 22 2 23 1 25 3 26 17 27 19 29
 SMILES IDX 24 31 25 32 26 33 27 34 40 35 28 36 39 37 29 38 30 39 31 40
 SMILES IDX 35 41 32 42 34 43 36 44 33 45 37 46 38 47
 H PARENT 21 4 10 15 13 19 7 21 4 24 17 28 19 30
 Flexibility Score: inf
  4 active torsions:
  status: ('A' for Active; 'I' for Inactive)
    1  A    between atoms: CA   and  CB  
    2  A    between atoms: CB   and  CG  
    3  A    between atoms: CG   and  CD  
    4  A    between atoms: CD   and  CE  

>  <TORSDO>
F 16

>  <BEGIN_>
RES LYS A 131

$$$$
ligand_82_pose_0_2HRL.pdbqt
 OpenBabel07062320523D

  6  5  0  0  0  0  0  0  0  0999 V2000
   33.1930   34.6630    9.2900 C   0  0  0  0  0  0  0  0  0  0  0  0
   32.0600   35.3600   10.0340 C   0  0  0  0  0  0  0  0  0  0  0  0
   30.7930   35.4810    9.2260 C   0  0  0  0  0  0  0  0  0  0  0  0
   30.0150   34.1740    9.2500 C   0  0  0  0  0  0  0  0  0  0  0  0
   28.5980   34.3890    8.7560 C   0  0  0  0  0  0  0  0  0  0  0  0
   27.6180   33.6430    9.5930 N   0  0  0  0  0  0  0  0  0  0  0  0
  1  2  1  0  0  0  0
  3  4  1  0  0  0  0
  3  2  1  0  0  0  0
  5  4  1  0  0  0  0
  5  6  1  0  0  0  0
M  END
>  <EGIN_R>
ES LYS A 135

>  <REMARK>
  4 active torsions:
  status: ('A' for Active; 'I' for Inactive)
    5  A    between atoms: CA   and  CB  
    6  A    between atoms: CB   and  CG  
    7  A    between atoms: CG   and  CD  
    8  A    between atoms: CD   and  CE  

$$$$
