ligand_77_pose_0_2HRL.pdbqt
 OpenBabel07062320523D

 61 63  0  0  1  0  0  0  0  0999 V2000
   29.6180   26.9890   20.3460 N   0  0  0  0  0  0  0  0  0  0  0  0
   28.3180   27.5340   20.4660 C   0  0  0  0  0  0  0  0  0  0  0  0
   27.9740   28.0920   21.5140 O   0  0  0  0  0  0  0  0  0  0  0  0
   29.8280   26.5300   19.4060 H   0  0  0  0  0  0  0  0  0  0  0  0
   30.6320   27.0160   21.3750 C   0  0  0  0  0  0  0  0  0  0  0  0
   31.8220   27.7610   20.8760 C   0  0  2  0  0  0  0  0  0  0  0  0
   31.6330   29.2630   20.9030 C   0  0  1  0  0  0  0  0  0  0  0  0
   32.8620   30.0380   21.2370 C   0  0  2  0  0  0  0  0  0  0  0  0
   34.5000   30.0540   22.8760 C   0  0  2  0  0  0  0  0  0  0  0  0
   34.9560   31.3900   22.3780 C   0  0  0  0  0  0  0  0  0  0  0  0
   33.8090   29.3190   21.9290 O   0  0  0  0  0  0  0  0  0  0  0  0
   33.9170   32.1720   21.6570 C   0  0  1  0  0  0  0  0  0  0  0  0
   32.5860   31.4130   21.7910 C   0  0  1  0  0  0  0  0  0  0  0  0
   33.7630   30.1750   24.0770 O   0  0  0  0  0  0  0  0  0  0  0  0
   33.0030   30.7600   23.9130 H   0  0  0  0  0  0  0  0  0  0  0  0
   35.7180   29.2690   23.2340 C   0  0  0  0  0  0  0  0  0  0  0  0
   35.6080   28.0120   23.3800 O   0  0  0  0  0  0  0  0  0  0  0  0
   36.9610   29.8190   23.4150 O   0  0  0  0  0  0  0  0  0  0  0  0
   37.1640   30.3740   24.2450 H   0  0  0  0  0  0  0  0  0  0  0  0
   33.7850   33.4760   22.1070 O   0  0  0  0  0  0  0  0  0  0  0  0
   33.9100   33.4940   23.1090 H   0  0  0  0  0  0  0  0  0  0  0  0
   31.6090   32.0530   20.9190 N   0  0  0  0  0  0  0  0  0  0  0  0
   30.4860   32.7150   21.4740 C   0  0  0  0  0  0  0  0  0  0  0  0
   31.6990   32.0440   19.8810 H   0  0  0  0  0  0  0  0  0  0  0  0
   29.4570   33.3820   20.6010 C   0  0  0  0  0  0  0  0  0  0  0  0
   30.2830   32.7840   22.7050 O   0  0  0  0  0  0  0  0  0  0  0  0
   31.1210   29.6020   19.6450 O   0  0  0  0  0  0  0  0  0  0  0  0
   30.7800   30.5200   19.6960 H   0  0  0  0  0  0  0  0  0  0  0  0
   32.2280   27.2860   19.6370 O   0  0  0  0  0  0  0  0  0  0  0  0
   32.4400   26.3220   19.7230 H   0  0  0  0  0  0  0  0  0  0  0  0
   27.3790   27.4760   19.4410 O   0  0  0  0  0  0  0  0  0  0  0  0
   26.6950   28.6320   18.9810 C   0  0  0  0  0  0  0  0  0  0  0  0
   27.4060   29.2790   17.8420 C   0  0  0  0  0  0  0  0  0  0  0  0
   28.1440   30.4260   17.9490 C   0  0  0  0  0  0  0  0  0  0  0  0
   27.4610   28.8900   16.5610 N   0  0  0  0  0  0  0  0  0  0  0  0
   28.6370   30.7140   16.7230 N   0  0  0  0  0  0  0  0  0  0  0  0
   28.2060   29.7740   15.9290 N   0  0  0  0  0  0  0  0  0  0  0  0
   29.4550   31.8420   16.4570 C   0  0  0  0  0  0  0  0  0  0  0  0
   30.7450   31.6730   16.0040 C   0  0  0  0  0  0  0  0  0  0  0  0
   29.0100   33.1340   16.6340 C   0  0  0  0  0  0  0  0  0  0  0  0
   31.5760   32.7460   15.7310 C   0  0  0  0  0  0  0  0  0  0  0  0
   29.8410   34.2260   16.3620 C   0  0  0  0  0  0  0  0  0  0  0  0
   31.1240   34.0310   15.9110 C   0  0  0  0  0  0  0  0  0  0  0  0
   32.1630   35.3700   15.5710 S   0  0  0  0  0  0  0  0  0  0  0  0
   31.3480   36.5850   15.2850 O   0  0  0  0  0  0  0  0  0  0  0  0
   33.0540   35.1230   14.3890 O   0  0  0  0  0  0  0  0  0  0  0  0
   33.2020   35.6100   16.9720 C   0  0  0  0  0  0  0  0  0  0  0  0
   32.6990   35.3500   18.2190 C   0  0  0  0  0  0  0  0  0  0  0  0
   34.5140   36.0530   16.8360 C   0  0  0  0  0  0  0  0  0  0  0  0
   33.4830   35.5250   19.3520 C   0  0  0  0  0  0  0  0  0  0  0  0
   35.3230   36.2380   17.9460 C   0  0  0  0  0  0  0  0  0  0  0  0
   34.7810   35.9680   19.1800 C   0  0  0  0  0  0  0  0  0  0  0  0
   35.5890   36.1500   20.3240 N   0  0  0  0  0  0  0  0  0  0  0  0
   36.1400   37.0160   20.4440 H   0  0  0  0  0  0  0  0  0  0  0  0
   35.6260   35.4070   21.0430 H   0  0  0  0  0  0  0  0  0  0  0  0
   29.8670   25.5550   16.9770 C   0  0  0  0  0  0  0  0  0  0  0  0
   28.3450   25.7220   17.0260 C   0  0  0  0  0  0  0  0  0  0  0  0
   27.6010   24.4030   16.8870 C   0  0  0  0  0  0  0  0  0  0  0  0
   26.6260   24.1820   18.0100 C   0  0  0  0  0  0  0  0  0  0  0  0
   25.5970   23.1360   17.5920 C   0  0  0  0  0  0  0  0  0  0  0  0
   24.2700   23.4550   18.1690 N   0  0  0  0  0  0  0  0  0  0  0  0
  1  2  1  0  0  0  0
  1  5  1  0  0  0  0
  2  3  2  0  0  0  0
  4  1  1  0  0  0  0
  6  7  1  0  0  0  0
  6  5  1  6  0  0  0
  7 27  1  6  0  0  0
  8  7  1  1  0  0  0
  8 13  1  0  0  0  0
  8 11  1  0  0  0  0
  9 16  1  1  0  0  0
  9 14  1  0  0  0  0
 10  9  1  0  0  0  0
 11  9  1  0  0  0  0
 12 13  1  0  0  0  0
 12 20  1  1  0  0  0
 12 10  1  0  0  0  0
 13 22  1  6  0  0  0
 15 14  1  0  0  0  0
 16 17  2  0  0  0  0
 16 18  1  0  0  0  0
 18 19  1  0  0  0  0
 20 21  1  0  0  0  0
 22 23  1  0  0  0  0
 23 26  2  0  0  0  0
 24 22  1  0  0  0  0
 25 23  1  0  0  0  0
 27 28  1  0  0  0  0
 29 30  1  0  0  0  0
 29  6  1  0  0  0  0
 31  2  1  0  0  0  0
 32 31  1  0  0  0  0
 33 34  2  0  0  0  0
 33 32  1  0  0  0  0
 35 33  1  0  0  0  0
 36 34  1  0  0  0  0
 37 35  2  0  0  0  0
 37 36  1  0  0  0  0
 38 40  1  0  0  0  0
 38 36  1  0  0  0  0
 39 38  2  0  0  0  0
 41 43  2  0  0  0  0
 41 39  1  0  0  0  0
 42 40  2  0  0  0  0
 43 42  1  0  0  0  0
 44 43  1  0  0  0  0
 44 47  1  0  0  0  0
 45 44  2  0  0  0  0
 46 44  2  0  0  0  0
 47 48  1  0  0  0  0
 48 50  2  0  0  0  0
 49 47  2  0  0  0  0
 49 51  1  0  0  0  0
 51 52  2  0  0  0  0
 52 50  1  0  0  0  0
 52 53  1  0  0  0  0
 53 54  1  0  0  0  0
 53 55  1  0  0  0  0
 56 57  1  0  0  0  0
 58 57  1  0  0  0  0
 58 59  1  0  0  0  0
 60 59  1  0  0  0  0
 60 61  1  0  0  0  0
M  END
>  <REMARK>
 VINA RESULT:    -5.684      0.000      0.000
 INTER + INTRA:         -17.196
 INTER:                 -10.788
 INTRA:                  -6.408
 UNBOUND:                -6.527
 SMILES CC(=O)N[C@@H]1[C@@H](O)C[C@](O)(C(=O)O)O[C@H]1C(O)[C@H](O)CNC(=O)OCc1cn(-c2ccc(S(=O)(=O)c3ccc(N)cc3)cc2)nn1
 SMILES IDX 21 1 22 2 23 3 20 5 18 6 16 7 15 8 9 9 8 10 14 11 6 12 5 13
 SMILES IDX 10 14 11 16 12 17 13 18 7 20 4 22 2 23 1 25 3 26 17 27 19 29
 SMILES IDX 24 31 25 32 26 33 27 34 46 35 28 36 45 37 29 38 30 39 44 40
 SMILES IDX 31 41 43 42 32 43 33 44 34 45 35 46 36 47 37 48 42 49 38 50
 SMILES IDX 41 51 39 52 40 53
 H PARENT 21 4 10 15 13 19 7 21 4 24 17 28 19 30 40 54 40 55
 Flexibility Score: inf
  4 active torsions:
  status: ('A' for Active; 'I' for Inactive)
    1  A    between atoms: CA   and  CB  
    2  A    between atoms: CB   and  CG  
    3  A    between atoms: CG   and  CD  
    4  A    between atoms: CD   and  CE  

>  <TORSDO>
F 18

>  <BEGIN_>
RES LYS A 131

$$$$
ligand_77_pose_0_2HRL.pdbqt
 OpenBabel07062320523D

  6  5  0  0  0  0  0  0  0  0999 V2000
   33.1930   34.6630    9.2900 C   0  0  0  0  0  0  0  0  0  0  0  0
   32.0600   35.3600   10.0340 C   0  0  0  0  0  0  0  0  0  0  0  0
   30.8900   35.7150    9.1540 C   0  0  0  0  0  0  0  0  0  0  0  0
   30.3870   34.4880    8.4090 C   0  0  0  0  0  0  0  0  0  0  0  0
   28.8710   34.4780    8.3620 C   0  0  0  0  0  0  0  0  0  0  0  0
   28.3650   35.2450    7.1900 N   0  0  0  0  0  0  0  0  0  0  0  0
  1  2  1  0  0  0  0
  3  2  1  0  0  0  0
  4  3  1  0  0  0  0
  5  4  1  0  0  0  0
  6  5  1  0  0  0  0
M  END
>  <EGIN_R>
ES LYS A 135

>  <REMARK>
  4 active torsions:
  status: ('A' for Active; 'I' for Inactive)
    5  A    between atoms: CA   and  CB  
    6  A    between atoms: CB   and  CG  
    7  A    between atoms: CG   and  CD  
    8  A    between atoms: CD   and  CE  

$$$$
