ligand_29_pose_0_2HRL.pdbqt
 OpenBabel07062320523D

 54 55  0  0  1  0  0  0  0  0999 V2000
   30.6270   32.5070   14.6810 N   0  0  0  0  0  0  0  0  0  0  0  0
   30.7130   33.8890   14.4650 C   0  0  0  0  0  0  0  0  0  0  0  0
   30.8680   34.6880   15.4130 O   0  0  0  0  0  0  0  0  0  0  0  0
   30.4850   31.8960   13.8200 H   0  0  0  0  0  0  0  0  0  0  0  0
   30.7160   31.8370   15.9670 C   0  0  0  0  0  0  0  0  0  0  0  0
   29.4950   31.0320   16.2310 C   0  0  2  0  0  0  0  0  0  0  0  0
   29.2450   30.7390   17.6900 C   0  0  2  0  0  0  0  0  0  0  0  0
   27.8130   30.7970   18.1030 C   0  0  2  0  0  0  0  0  0  0  0  0
   27.0310   28.6010   18.0310 C   0  0  2  0  0  0  0  0  0  0  0  0
   25.5970   28.9740   17.6820 C   0  0  0  0  0  0  0  0  0  0  0  0
   27.5300   29.6100   18.8090 O   0  0  0  0  0  0  0  0  0  0  0  0
   25.4670   30.4690   17.6720 C   0  0  1  0  0  0  0  0  0  0  0  0
   26.7820   31.1300   17.1140 C   0  0  1  0  0  0  0  0  0  0  0  0
   27.7700   28.3150   16.8880 O   0  0  0  0  0  0  0  0  0  0  0  0
   28.5050   27.6710   17.0600 H   0  0  0  0  0  0  0  0  0  0  0  0
   27.0210   27.3540   18.8510 C   0  0  0  0  0  0  0  0  0  0  0  0
   25.9200   26.8230   19.1300 O   0  0  0  0  0  0  0  0  0  0  0  0
   28.1810   26.7580   19.3190 O   0  0  0  0  0  0  0  0  0  0  0  0
   29.0360   27.2970   19.5070 H   0  0  0  0  0  0  0  0  0  0  0  0
   24.3990   30.9030   16.8950 O   0  0  0  0  0  0  0  0  0  0  0  0
   24.4640   30.5700   15.9750 H   0  0  0  0  0  0  0  0  0  0  0  0
   26.4400   32.5600   17.1390 N   0  0  0  0  0  0  0  0  0  0  0  0
   26.8050   33.4790   16.1270 C   0  0  0  0  0  0  0  0  0  0  0  0
   25.8840   32.9610   17.9510 H   0  0  0  0  0  0  0  0  0  0  0  0
   26.4490   34.9190   16.1820 C   0  0  0  0  0  0  0  0  0  0  0  0
   27.4600   33.0760   15.1330 O   0  0  0  0  0  0  0  0  0  0  0  0
   29.8860   31.8060   18.4400 O   0  0  0  0  0  0  0  0  0  0  0  0
   30.8590   31.6510   18.3770 H   0  0  0  0  0  0  0  0  0  0  0  0
   29.2640   29.9810   15.3820 O   0  0  0  0  0  0  0  0  0  0  0  0
   29.0070   29.1520   15.8280 H   0  0  0  0  0  0  0  0  0  0  0  0
   30.6260   34.4250   13.1620 O   0  0  0  0  0  0  0  0  0  0  0  0
   30.2710   35.8110   13.0360 C   0  0  0  0  0  0  0  0  0  0  0  0
   28.8290   35.9810   12.8720 C   0  0  0  0  0  0  0  0  0  0  0  0
   28.0040   35.2380   12.0670 C   0  0  0  0  0  0  0  0  0  0  0  0
   28.0690   36.8960   13.4940 N   0  0  0  0  0  0  0  0  0  0  0  0
   26.7690   35.7080   12.2110 N   0  0  0  0  0  0  0  0  0  0  0  0
   26.8260   36.7030   13.0710 N   0  0  0  0  0  0  0  0  0  0  0  0
   25.5600   35.2350   11.5480 C   0  0  0  0  0  0  0  0  0  0  0  0
   24.7310   34.5010   12.5540 C   0  0  0  0  0  0  0  0  0  0  0  0
   24.9930   33.1540   12.8000 C   0  0  0  0  0  0  0  0  0  0  0  0
   23.7140   35.1050   13.2620 C   0  0  0  0  0  0  0  0  0  0  0  0
   24.2610   32.4460   13.7210 C   0  0  0  0  0  0  0  0  0  0  0  0
   22.9610   34.4200   14.1950 C   0  0  0  0  0  0  0  0  0  0  0  0
   23.2500   33.0930   14.4090 C   0  0  0  0  0  0  0  0  0  0  0  0
   24.5100   31.1000   13.9770 O   0  0  0  0  0  0  0  0  0  0  0  0
   24.0130   30.1390   13.0630 C   0  0  0  0  0  0  0  0  0  0  0  0
   22.5170   32.3700   15.3370 O   0  0  0  0  0  0  0  0  0  0  0  0
   21.2020   31.9210   15.0680 C   0  0  0  0  0  0  0  0  0  0  0  0
   29.8670   25.5550   16.9770 C   0  0  0  0  0  0  0  0  0  0  0  0
   28.3450   25.7220   17.0260 C   0  0  0  0  0  0  0  0  0  0  0  0
   27.5990   24.4500   16.6520 C   0  0  0  0  0  0  0  0  0  0  0  0
   27.0330   23.7510   17.8570 C   0  0  0  0  0  0  0  0  0  0  0  0
   25.6340   23.2350   17.5350 C   0  0  0  0  0  0  0  0  0  0  0  0
   24.8030   24.3150   16.9520 N   0  0  0  0  0  0  0  0  0  0  0  0
  1  5  1  0  0  0  0
  2  1  1  0  0  0  0
  2  3  2  0  0  0  0
  4  1  1  0  0  0  0
  6  5  1  1  0  0  0
  6  7  1  0  0  0  0
  7 27  1  1  0  0  0
  8  7  1  6  0  0  0
  8 11  1  0  0  0  0
  9 14  1  6  0  0  0
  9 11  1  0  0  0  0
  9 16  1  0  0  0  0
 10  9  1  0  0  0  0
 12 20  1  6  0  0  0
 12 10  1  0  0  0  0
 13 22  1  1  0  0  0
 13 12  1  0  0  0  0
 13  8  1  0  0  0  0
 14 15  1  0  0  0  0
 16 17  2  0  0  0  0
 16 18  1  0  0  0  0
 18 19  1  0  0  0  0
 21 20  1  0  0  0  0
 22 24  1  0  0  0  0
 23 25  1  0  0  0  0
 23 22  1  0  0  0  0
 26 23  2  0  0  0  0
 28 27  1  0  0  0  0
 29 30  1  0  0  0  0
 29  6  1  0  0  0  0
 31  2  1  0  0  0  0
 32 31  1  0  0  0  0
 33 32  1  0  0  0  0
 33 35  1  0  0  0  0
 34 36  1  0  0  0  0
 34 33  2  0  0  0  0
 36 37  1  0  0  0  0
 37 35  2  0  0  0  0
 38 36  1  0  0  0  0
 38 39  1  0  0  0  0
 39 40  2  0  0  0  0
 39 41  1  0  0  0  0
 40 42  1  0  0  0  0
 41 43  2  0  0  0  0
 42 45  1  0  0  0  0
 42 44  2  0  0  0  0
 43 44  1  0  0  0  0
 44 47  1  0  0  0  0
 46 45  1  0  0  0  0
 48 47  1  0  0  0  0
 49 50  1  0  0  0  0
 51 50  1  0  0  0  0
 51 52  1  0  0  0  0
 53 52  1  0  0  0  0
 54 53  1  0  0  0  0
M  END
>  <REMARK>
 VINA RESULT:    -5.508      0.000      0.000
 INTER + INTRA:         -15.616
 INTER:                  -8.590
 INTRA:                  -7.026
 UNBOUND:                -5.118
 SMILES COc1ccc(Cn2cc(COC(=O)NC[C@@H](O)C(O)[C@@H]3O[C@@](O)(C(=O)O)C[C@H](O)[C@H]3NC(C)=O)nn2)cc1OC
 SMILES IDX 15 1 13 2 14 3 16 5 17 6 19 7 21 8 23 9 28 10 22 11 29 12
 SMILES IDX 31 13 24 14 25 16 26 17 27 18 30 20 32 22 33 23 34 25 35 26
 SMILES IDX 20 27 18 29 12 31 11 32 10 33 9 34 36 35 8 36 37 37 7 38
 SMILES IDX 6 39 38 40 5 41 39 42 4 43 3 44 40 45 41 46 2 47 1 48
 H PARENT 15 4 24 15 27 19 30 21 32 24 20 28 18 30
 Flexibility Score: inf
  4 active torsions:
  status: ('A' for Active; 'I' for Inactive)
    1  A    between atoms: CA   and  CB  
    2  A    between atoms: CB   and  CG  
    3  A    between atoms: CG   and  CD  
    4  A    between atoms: CD   and  CE  

>  <TORSDO>
F 18

>  <BEGIN_>
RES LYS A 131

$$$$
ligand_29_pose_0_2HRL.pdbqt
 OpenBabel07062320523D

  6  5  0  0  0  0  0  0  0  0999 V2000
   33.1930   34.6630    9.2900 C   0  0  0  0  0  0  0  0  0  0  0  0
   32.0600   35.3600   10.0340 C   0  0  0  0  0  0  0  0  0  0  0  0
   30.8130   35.5360    9.2060 C   0  0  0  0  0  0  0  0  0  0  0  0
   30.2060   34.1860    8.8580 C   0  0  0  0  0  0  0  0  0  0  0  0
   28.7040   34.3070    8.6830 C   0  0  0  0  0  0  0  0  0  0  0  0
   28.3670   35.2150    7.5510 N   0  0  0  0  0  0  0  0  0  0  0  0
  1  2  1  0  0  0  0
  3  2  1  0  0  0  0
  4  3  1  0  0  0  0
  5  4  1  0  0  0  0
  6  5  1  0  0  0  0
M  END
>  <EGIN_R>
ES LYS A 135

>  <REMARK>
  4 active torsions:
  status: ('A' for Active; 'I' for Inactive)
    5  A    between atoms: CA   and  CB  
    6  A    between atoms: CB   and  CG  
    7  A    between atoms: CG   and  CD  
    8  A    between atoms: CD   and  CE  

$$$$
