ligand_25_pose_0_2HRL.pdbqt
 OpenBabel07062320523D

 56 59  0  0  1  0  0  0  0  0999 V2000
   25.9380   36.1240   16.7150 C   0  0  0  0  0  0  0  0  0  0  0  0
   26.1470   34.6560   16.7800 C   0  0  2  0  0  0  0  0  0  0  0  0
   27.3530   34.1890   16.0300 C   0  0  1  0  0  0  0  0  0  0  0  0
   28.1170   33.0540   16.6530 C   0  0  2  0  0  0  0  0  0  0  0  0
   30.2810   32.8910   15.7730 C   0  0  2  0  0  0  0  0  0  0  0  0
   30.4610   31.4280   16.1200 C   0  0  0  0  0  0  0  0  0  0  0  0
   29.4510   33.4660   16.6810 O   0  0  0  0  0  0  0  0  0  0  0  0
   29.1260   30.8070   16.3150 C   0  0  1  0  0  0  0  0  0  0  0  0
   27.9600   31.7370   15.9430 C   0  0  1  0  0  0  0  0  0  0  0  0
   29.9160   32.9550   14.4550 O   0  0  0  0  0  0  0  0  0  0  0  0
   30.6670   33.2000   13.8700 H   0  0  0  0  0  0  0  0  0  0  0  0
   31.6270   33.5210   15.9370 C   0  0  0  0  0  0  0  0  0  0  0  0
   31.9700   33.9520   17.0620 O   0  0  0  0  0  0  0  0  0  0  0  0
   32.5250   33.6520   14.8880 O   0  0  0  0  0  0  0  0  0  0  0  0
   32.2660   33.3470   13.9390 H   0  0  0  0  0  0  0  0  0  0  0  0
   28.9450   29.6270   15.6110 O   0  0  0  0  0  0  0  0  0  0  0  0
   28.2040   29.6650   14.9650 H   0  0  0  0  0  0  0  0  0  0  0  0
   26.7930   31.0470   16.4440 N   0  0  0  0  0  0  0  0  0  0  0  0
   25.5660   30.9130   15.7420 C   0  0  0  0  0  0  0  0  0  0  0  0
   26.8560   30.6130   17.3880 H   0  0  0  0  0  0  0  0  0  0  0  0
   24.3990   30.1810   16.3310 C   0  0  0  0  0  0  0  0  0  0  0  0
   25.4900   31.4330   14.6000 O   0  0  0  0  0  0  0  0  0  0  0  0
   27.1410   33.9560   14.6770 O   0  0  0  0  0  0  0  0  0  0  0  0
   26.8980   34.7380   14.1560 H   0  0  0  0  0  0  0  0  0  0  0  0
   25.0490   34.0050   16.2220 O   0  0  0  0  0  0  0  0  0  0  0  0
   24.1970   34.4280   16.4430 H   0  0  0  0  0  0  0  0  0  0  0  0
   26.4930   36.7840   15.5930 N   0  0  0  0  0  0  0  0  0  0  0  0
   27.4520   37.8080   15.6720 C   0  0  0  0  0  0  0  0  0  0  0  0
   26.1750   36.5000   14.6090 H   0  0  0  0  0  0  0  0  0  0  0  0
   27.8990   38.2100   16.7420 O   0  0  0  0  0  0  0  0  0  0  0  0
   27.9510   38.4290   14.5130 O   0  0  0  0  0  0  0  0  0  0  0  0
   29.0820   37.9830   13.8290 C   0  0  0  0  0  0  0  0  0  0  0  0
   28.8630   36.7310   13.0630 C   0  0  0  0  0  0  0  0  0  0  0  0
   28.0340   36.4970   11.9930 C   0  0  0  0  0  0  0  0  0  0  0  0
   29.4910   35.5860   13.3340 N   0  0  0  0  0  0  0  0  0  0  0  0
   28.1880   35.2210   11.6550 N   0  0  0  0  0  0  0  0  0  0  0  0
   29.0700   34.6860   12.4740 N   0  0  0  0  0  0  0  0  0  0  0  0
   27.5190   34.5060   10.5780 C   0  0  0  0  0  0  0  0  0  0  0  0
   28.1440   34.7770    9.2720 C   0  0  0  0  0  0  0  0  0  0  0  0
   26.1200   34.8780   10.4380 C   0  0  0  0  0  0  0  0  0  0  0  0
   29.4730   34.6010    8.8490 C   0  0  0  0  0  0  0  0  0  0  0  0
   27.1780   35.2690    8.4420 C   0  0  0  0  0  0  0  0  0  0  0  0
   25.9090   35.3350    9.1650 C   0  0  0  0  0  0  0  0  0  0  0  0
   25.0240   34.8520   11.3240 C   0  0  0  0  0  0  0  0  0  0  0  0
   29.7930   34.9390    7.5580 C   0  0  0  0  0  0  0  0  0  0  0  0
   27.5420   35.6020    7.1370 C   0  0  0  0  0  0  0  0  0  0  0  0
   24.6620   35.7730    8.7050 C   0  0  0  0  0  0  0  0  0  0  0  0
   23.7940   35.2760   10.8960 C   0  0  0  0  0  0  0  0  0  0  0  0
   28.8360   35.4390    6.6970 C   0  0  0  0  0  0  0  0  0  0  0  0
   23.6180   35.7320    9.6000 C   0  0  0  0  0  0  0  0  0  0  0  0
   29.8670   25.5550   16.9770 C   0  0  0  0  0  0  0  0  0  0  0  0
   28.3450   25.7220   17.0260 C   0  0  0  0  0  0  0  0  0  0  0  0
   27.6010   24.4030   16.8850 C   0  0  0  0  0  0  0  0  0  0  0  0
   26.1580   24.5200   17.2920 C   0  0  0  0  0  0  0  0  0  0  0  0
   26.0750   24.9750   18.7450 C   0  0  0  0  0  0  0  0  0  0  0  0
   25.4490   23.9250   19.5830 N   0  0  0  0  0  0  0  0  0  0  0  0
  2  1  1  6  0  0  0
  3 23  1  6  0  0  0
  3  2  1  0  0  0  0
  4  3  1  6  0  0  0
  4  7  1  0  0  0  0
  5 10  1  6  0  0  0
  5 12  1  0  0  0  0
  5  6  1  0  0  0  0
  5  7  1  0  0  0  0
  6  8  1  0  0  0  0
  8 16  1  6  0  0  0
  9  8  1  0  0  0  0
  9 18  1  1  0  0  0
  9  4  1  0  0  0  0
 11 10  1  0  0  0  0
 12 13  2  0  0  0  0
 14 12  1  0  0  0  0
 15 14  1  0  0  0  0
 17 16  1  0  0  0  0
 18 20  1  0  0  0  0
 19 21  1  0  0  0  0
 19 18  1  0  0  0  0
 22 19  2  0  0  0  0
 24 23  1  0  0  0  0
 25 26  1  0  0  0  0
 25  2  1  0  0  0  0
 27 28  1  0  0  0  0
 27  1  1  0  0  0  0
 28 30  2  0  0  0  0
 29 27  1  0  0  0  0
 31 28  1  0  0  0  0
 32 31  1  0  0  0  0
 33 35  1  0  0  0  0
 33 32  1  0  0  0  0
 34 33  2  0  0  0  0
 36 34  1  0  0  0  0
 36 37  1  0  0  0  0
 37 35  2  0  0  0  0
 38 36  1  0  0  0  0
 39 38  1  0  0  0  0
 40 38  1  0  0  0  0
 40 44  2  0  0  0  0
 41 39  1  0  0  0  0
 42 43  1  0  0  0  0
 42 39  2  0  0  0  0
 43 40  1  0  0  0  0
 45 41  2  0  0  0  0
 46 42  1  0  0  0  0
 47 43  2  0  0  0  0
 47 50  1  0  0  0  0
 48 44  1  0  0  0  0
 49 46  2  0  0  0  0
 49 45  1  0  0  0  0
 50 48  2  0  0  0  0
 51 52  1  0  0  0  0
 53 52  1  0  0  0  0
 53 54  1  0  0  0  0
 54 55  1  0  0  0  0
 55 56  1  0  0  0  0
M  END
>  <REMARK>
 VINA RESULT:    -7.591      0.000      0.000
 INTER + INTRA:         -17.715
 INTER:                 -11.465
 INTRA:                  -6.251
 UNBOUND:                -4.578
 SMILES CC(=O)N[C@@H]1[C@@H](O)C[C@](O)(C(=O)O)O[C@H]1C(O)[C@H](O)CNC(=O)OCc1cn(C2c3ccccc3-c3ccccc32)nn1
 SMILES IDX 20 1 18 2 16 3 15 4 9 5 8 6 14 7 6 8 5 9 10 10 11 12 12 13
 SMILES IDX 13 14 7 16 4 18 2 19 1 21 3 22 17 23 19 25 21 27 22 28 23 30
 SMILES IDX 24 31 25 32 26 33 27 34 43 35 28 36 42 37 29 38 30 39 41 40
 SMILES IDX 31 41 35 42 36 43 40 44 32 45 34 46 37 47 39 48 33 49 38 50
 H PARENT 10 11 13 15 7 17 4 20 17 24 19 26 21 29
 Flexibility Score: inf
  4 active torsions:
  status: ('A' for Active; 'I' for Inactive)
    1  A    between atoms: CA   and  CB  
    2  A    between atoms: CB   and  CG  
    3  A    between atoms: CG   and  CD  
    4  A    between atoms: CD   and  CE  

>  <TORSDO>
F 15

>  <BEGIN_>
RES LYS A 131

$$$$
ligand_25_pose_0_2HRL.pdbqt
 OpenBabel07062320523D

  6  5  0  0  0  0  0  0  0  0999 V2000
   33.1930   34.6630    9.2900 C   0  0  0  0  0  0  0  0  0  0  0  0
   32.0600   35.3600   10.0340 C   0  0  0  0  0  0  0  0  0  0  0  0
   32.5070   36.0630   11.2900 C   0  0  0  0  0  0  0  0  0  0  0  0
   31.9370   37.4720   11.3480 C   0  0  0  0  0  0  0  0  0  0  0  0
   31.2320   37.8150   10.0500 C   0  0  0  0  0  0  0  0  0  0  0  0
   31.9070   38.9460    9.3550 N   0  0  0  0  0  0  0  0  0  0  0  0
  1  2  1  0  0  0  0
  2  3  1  0  0  0  0
  3  4  1  0  0  0  0
  5  4  1  0  0  0  0
  6  5  1  0  0  0  0
M  END
>  <EGIN_R>
ES LYS A 135

>  <REMARK>
  4 active torsions:
  status: ('A' for Active; 'I' for Inactive)
    5  A    between atoms: CA   and  CB  
    6  A    between atoms: CB   and  CG  
    7  A    between atoms: CG   and  CD  
    8  A    between atoms: CD   and  CE  

$$$$
