ligand_74_pose_0_2HRL.pdbqt
 OpenBabel07062320523D

 54 54  0  0  1  0  0  0  0  0999 V2000
   27.4830   30.0490   16.8700 O   0  0  0  0  0  0  0  0  0  0  0  0
   27.2200   28.8770   17.6020 C   0  0  0  0  0  0  0  0  0  0  0  0
   28.0140   28.5120   18.7150 N   0  0  0  0  0  0  0  0  0  0  0  0
   28.8130   29.1790   18.9600 H   0  0  0  0  0  0  0  0  0  0  0  0
   26.2570   28.1630   17.2350 O   0  0  0  0  0  0  0  0  0  0  0  0
   27.7920   27.3180   19.5000 C   0  0  0  0  0  0  0  0  0  0  0  0
   27.8070   27.6640   20.9490 C   0  0  2  0  0  0  0  0  0  0  0  0
   29.1990   27.6730   21.5600 C   0  0  2  0  0  0  0  0  0  0  0  0
   29.6460   29.0610   21.8950 C   0  0  2  0  0  0  0  0  0  0  0  0
   30.3680   30.5490   20.2640 C   0  0  2  0  0  0  0  0  0  0  0  0
   31.4270   31.1700   21.1420 C   0  0  0  0  0  0  0  0  0  0  0  0
   29.3100   30.0260   20.9920 O   0  0  0  0  0  0  0  0  0  0  0  0
   31.4300   30.5670   22.5310 C   0  0  1  0  0  0  0  0  0  0  0  0
   31.1110   29.0810   22.3210 C   0  0  1  0  0  0  0  0  0  0  0  0
   30.9270   29.6030   19.4000 O   0  0  0  0  0  0  0  0  0  0  0  0
   30.2670   29.1450   18.8460 H   0  0  0  0  0  0  0  0  0  0  0  0
   29.8110   31.6330   19.4110 C   0  0  0  0  0  0  0  0  0  0  0  0
   28.5520   31.7330   19.2950 O   0  0  0  0  0  0  0  0  0  0  0  0
   30.5900   32.5470   18.7340 O   0  0  0  0  0  0  0  0  0  0  0  0
   31.5900   32.3410   18.5850 H   0  0  0  0  0  0  0  0  0  0  0  0
   32.6120   30.7570   23.2030 O   0  0  0  0  0  0  0  0  0  0  0  0
   33.3500   30.5120   22.5650 H   0  0  0  0  0  0  0  0  0  0  0  0
   31.2480   28.3480   23.5550 N   0  0  0  0  0  0  0  0  0  0  0  0
   32.1030   27.2060   23.6340 C   0  0  0  0  0  0  0  0  0  0  0  0
   30.7410   28.6040   24.4380 H   0  0  0  0  0  0  0  0  0  0  0  0
   32.2650   26.4340   24.8800 C   0  0  0  0  0  0  0  0  0  0  0  0
   32.7390   26.8410   22.6140 O   0  0  0  0  0  0  0  0  0  0  0  0
   30.0800   26.9610   20.7810 O   0  0  0  0  0  0  0  0  0  0  0  0
   29.6970   26.0800   20.5890 H   0  0  0  0  0  0  0  0  0  0  0  0
   27.0620   26.6830   21.6440 O   0  0  0  0  0  0  0  0  0  0  0  0
   26.3070   26.3610   21.1010 H   0  0  0  0  0  0  0  0  0  0  0  0
   28.5120   30.0000   15.9140 C   0  0  0  0  0  0  0  0  0  0  0  0
   29.2150   31.2880   15.7770 C   0  0  0  0  0  0  0  0  0  0  0  0
   28.7100   32.5620   15.5660 C   0  0  0  0  0  0  0  0  0  0  0  0
   30.5420   31.4490   15.8380 N   0  0  0  0  0  0  0  0  0  0  0  0
   29.7310   33.4340   15.5100 N   0  0  0  0  0  0  0  0  0  0  0  0
   30.8260   32.7370   15.6760 N   0  0  0  0  0  0  0  0  0  0  0  0
   29.5870   34.9000   15.2960 C   0  0  0  0  0  0  0  0  0  0  0  0
   30.8750   35.4640   14.8070 C   0  0  2  0  0  0  0  0  0  0  0  0
   31.4780   36.2870   15.9320 C   0  0  0  0  0  0  0  0  0  0  0  0
   32.6140   35.5410   16.5310 C   0  0  0  0  0  0  0  0  0  0  0  0
   33.7710   35.6770   16.0960 O   0  0  0  0  0  0  0  0  0  0  0  0
   32.3280   34.6830   17.5970 O   0  0  0  0  0  0  0  0  0  0  0  0
   31.3770   34.4390   17.7930 H   0  0  0  0  0  0  0  0  0  0  0  0
   30.7600   36.1720   13.5210 C   0  0  0  0  0  0  0  0  0  0  0  0
   31.9650   36.8360   12.9730 C   0  0  0  0  0  0  0  0  0  0  0  0
   32.9370   35.6830   12.5940 C   0  0  0  0  0  0  0  0  0  0  0  0
   31.7900   37.6710   11.7510 C   0  0  0  0  0  0  0  0  0  0  0  0
   29.8670   25.5550   16.9770 C   0  0  0  0  0  0  0  0  0  0  0  0
   28.3450   25.7220   17.0260 C   0  0  0  0  0  0  0  0  0  0  0  0
   27.6010   24.4030   16.8800 C   0  0  0  0  0  0  0  0  0  0  0  0
   26.5160   24.2490   17.9090 C   0  0  0  0  0  0  0  0  0  0  0  0
   25.1600   24.1770   17.2130 C   0  0  0  0  0  0  0  0  0  0  0  0
   24.3200   25.3370   17.5920 N   0  0  0  0  0  0  0  0  0  0  0  0
  1  2  1  0  0  0  0
  2  3  1  0  0  0  0
  3  4  1  0  0  0  0
  3  6  1  0  0  0  0
  5  2  2  0  0  0  0
  7  6  1  6  0  0  0
  7  8  1  0  0  0  0
  7 30  1  0  0  0  0
  8 28  1  6  0  0  0
  9  8  1  6  0  0  0
  9 14  1  0  0  0  0
 10 15  1  6  0  0  0
 10 12  1  0  0  0  0
 10 11  1  0  0  0  0
 11 13  1  0  0  0  0
 12  9  1  0  0  0  0
 13 21  1  6  0  0  0
 14 13  1  0  0  0  0
 14 23  1  1  0  0  0
 16 15  1  0  0  0  0
 17 10  1  0  0  0  0
 18 17  2  0  0  0  0
 19 17  1  0  0  0  0
 20 19  1  0  0  0  0
 22 21  1  0  0  0  0
 23 24  1  0  0  0  0
 23 25  1  0  0  0  0
 24 26  1  0  0  0  0
 27 24  2  0  0  0  0
 29 28  1  0  0  0  0
 31 30  1  0  0  0  0
 32  1  1  0  0  0  0
 33 35  1  0  0  0  0
 33 32  1  0  0  0  0
 34 33  2  0  0  0  0
 36 34  1  0  0  0  0
 36 37  1  0  0  0  0
 37 35  2  0  0  0  0
 38 36  1  0  0  0  0
 39 45  1  6  0  0  0
 39 38  1  0  0  0  0
 39 40  1  0  0  0  0
 40 41  1  0  0  0  0
 41 43  1  0  0  0  0
 42 41  2  0  0  0  0
 43 44  1  0  0  0  0
 46 45  1  0  0  0  0
 47 46  1  0  0  0  0
 48 46  1  0  0  0  0
 49 50  1  0  0  0  0
 51 50  1  0  0  0  0
 51 52  1  0  0  0  0
 53 54  1  0  0  0  0
 53 52  1  0  0  0  0
M  END
>  <REMARK>
 VINA RESULT:    -4.836      0.000      0.000
 INTER + INTRA:         -17.043
 INTER:                  -9.432
 INTRA:                  -7.611
 UNBOUND:                -7.118
 SMILES CC(=O)N[C@@H]1[C@@H](O)C[C@](O)(C(=O)O)O[C@H]1C(O)[C@H](O)CNC(=O)OCc1cn(C[C@H](CC(=O)O)CC(C)C)nn1
 SMILES IDX 24 1 22 2 21 3 23 5 20 6 18 7 16 8 15 9 9 10 8 11 14 12 6 13
 SMILES IDX 5 14 10 15 11 17 12 18 13 19 7 21 4 23 2 24 1 26 3 27 17 28
 SMILES IDX 19 30 25 32 26 33 27 34 40 35 28 36 39 37 29 38 30 39 31 40
 SMILES IDX 32 41 33 42 34 43 35 45 36 46 37 47 38 48
 H PARENT 21 4 10 16 13 20 7 22 4 25 17 29 19 31 34 44
 Flexibility Score: inf
  4 active torsions:
  status: ('A' for Active; 'I' for Inactive)
    1  A    between atoms: CA   and  CB  
    2  A    between atoms: CB   and  CG  
    3  A    between atoms: CG   and  CD  
    4  A    between atoms: CD   and  CE  

>  <TORSDO>
F 21

>  <BEGIN_>
RES LYS A 131

$$$$
ligand_74_pose_0_2HRL.pdbqt
 OpenBabel07062320523D

  6  5  0  0  0  0  0  0  0  0999 V2000
   33.1930   34.6630    9.2900 C   0  0  0  0  0  0  0  0  0  0  0  0
   32.0600   35.3600   10.0340 C   0  0  0  0  0  0  0  0  0  0  0  0
   30.7040   34.7620    9.7630 C   0  0  0  0  0  0  0  0  0  0  0  0
   30.5450   34.4400    8.2850 C   0  0  0  0  0  0  0  0  0  0  0  0
   29.2540   35.0280    7.7480 C   0  0  0  0  0  0  0  0  0  0  0  0
   28.0740   34.4950    8.4840 N   0  0  0  0  0  0  0  0  0  0  0  0
  1  2  1  0  0  0  0
  3  2  1  0  0  0  0
  4  3  1  0  0  0  0
  5  4  1  0  0  0  0
  5  6  1  0  0  0  0
M  END
>  <EGIN_R>
ES LYS A 135

>  <REMARK>
  4 active torsions:
  status: ('A' for Active; 'I' for Inactive)
    5  A    between atoms: CA   and  CB  
    6  A    between atoms: CB   and  CG  
    7  A    between atoms: CG   and  CD  
    8  A    between atoms: CD   and  CE  

$$$$
