ligand_4_pose_0_2HRL.pdbqt
 OpenBabel07062320523D

 52 53  0  0  1  0  0  0  0  0999 V2000
   25.0270   35.8570   11.0250 N   0  0  0  0  0  0  0  0  0  0  0  0
   26.2950   35.8890   11.6380 C   0  0  0  0  0  0  0  0  0  0  0  0
   27.0170   36.9050   11.5810 O   0  0  0  0  0  0  0  0  0  0  0  0
   24.4550   34.9750   11.1180 H   0  0  0  0  0  0  0  0  0  0  0  0
   24.5020   36.9620   10.3010 C   0  0  0  0  0  0  0  0  0  0  0  0
   24.2230   36.6780    8.8260 C   0  0  2  0  0  0  0  0  0  0  0  0
   25.3910   37.3630    8.1120 C   0  0  2  0  0  0  0  0  0  0  0  0
   26.3670   36.3950    7.5240 C   0  0  2  0  0  0  0  0  0  0  0  0
   28.3180   35.5300    8.4310 C   0  0  2  0  0  0  0  0  0  0  0  0
   28.9730   35.4810    7.0960 C   0  0  0  0  0  0  0  0  0  0  0  0
   26.9610   35.6490    8.4840 O   0  0  0  0  0  0  0  0  0  0  0  0
   28.3540   36.3600    6.0300 C   0  0  1  0  0  0  0  0  0  0  0  0
   27.3560   37.2350    6.7310 C   0  0  1  0  0  0  0  0  0  0  0  0
   28.9570   36.5060    9.2380 O   0  0  0  0  0  0  0  0  0  0  0  0
   29.1240   36.2070   10.1500 H   0  0  0  0  0  0  0  0  0  0  0  0
   28.6250   34.2120    9.0970 C   0  0  0  0  0  0  0  0  0  0  0  0
   29.8090   33.8130    9.0990 O   0  0  0  0  0  0  0  0  0  0  0  0
   27.6550   33.4310    9.7120 O   0  0  0  0  0  0  0  0  0  0  0  0
   27.1280   33.7130   10.5360 H   0  0  0  0  0  0  0  0  0  0  0  0
   29.3880   37.1820    5.4850 O   0  0  0  0  0  0  0  0  0  0  0  0
   29.3050   38.1110    5.8080 H   0  0  0  0  0  0  0  0  0  0  0  0
   26.6870   38.2290    5.9880 N   0  0  0  0  0  0  0  0  0  0  0  0
   27.1240   39.5670    5.8320 C   0  0  0  0  0  0  0  0  0  0  0  0
   25.7660   37.9770    5.4900 H   0  0  0  0  0  0  0  0  0  0  0  0
   26.4100   40.5870    5.0530 C   0  0  0  0  0  0  0  0  0  0  0  0
   28.2350   39.8640    6.4460 O   0  0  0  0  0  0  0  0  0  0  0  0
   25.9570   38.2010    9.0770 O   0  0  0  0  0  0  0  0  0  0  0  0
   26.3000   39.0030    8.6010 H   0  0  0  0  0  0  0  0  0  0  0  0
   23.0450   37.1760    8.3750 O   0  0  0  0  0  0  0  0  0  0  0  0
   22.4240   36.5120    8.0820 H   0  0  0  0  0  0  0  0  0  0  0  0
   26.7810   34.7790   12.3320 O   0  0  0  0  0  0  0  0  0  0  0  0
   26.6510   34.7800   13.7460 C   0  0  0  0  0  0  0  0  0  0  0  0
   25.5820   33.7960   14.0470 C   0  0  0  0  0  0  0  0  0  0  0  0
   24.9050   33.0590   13.0660 C   0  0  0  0  0  0  0  0  0  0  0  0
   25.1510   33.3520   15.2370 N   0  0  0  0  0  0  0  0  0  0  0  0
   24.1110   32.2080   13.7430 N   0  0  0  0  0  0  0  0  0  0  0  0
   24.2850   32.4070   14.9870 N   0  0  0  0  0  0  0  0  0  0  0  0
   23.3500   31.1870   13.1270 C   0  0  0  0  0  0  0  0  0  0  0  0
   22.0350   31.3500   12.9170 C   0  0  0  0  0  0  0  0  0  0  0  0
   23.9540   29.9420   12.8990 C   0  0  0  0  0  0  0  0  0  0  0  0
   21.2790   30.2660   12.4710 C   0  0  0  0  0  0  0  0  0  0  0  0
   23.2410   28.8850   12.4680 C   0  0  0  0  0  0  0  0  0  0  0  0
   21.8780   29.0200   12.2420 C   0  0  0  0  0  0  0  0  0  0  0  0
   21.4120   32.6550   13.0130 C   0  0  0  0  0  0  0  0  0  0  0  0
   20.7420   32.8880   14.3580 C   0  0  0  0  0  0  0  0  0  0  0  0
   20.1140   32.5570   12.0940 C   0  0  0  0  0  0  0  0  0  0  0  0
   29.8670   25.5550   16.9770 C   0  0  0  0  0  0  0  0  0  0  0  0
   28.3450   25.7220   17.0260 C   0  0  0  0  0  0  0  0  0  0  0  0
   27.6010   24.4050   16.8700 C   0  0  0  0  0  0  0  0  0  0  0  0
   26.1560   24.5190   17.2710 C   0  0  0  0  0  0  0  0  0  0  0  0
   26.0650   25.0430   18.7010 C   0  0  0  0  0  0  0  0  0  0  0  0
   25.4540   24.0250   19.5880 N   0  0  0  0  0  0  0  0  0  0  0  0
  1  4  1  0  0  0  0
  1  2  1  0  0  0  0
  2 31  1  0  0  0  0
  3  2  2  0  0  0  0
  5  1  1  0  0  0  0
  6  5  1  1  0  0  0
  7  6  1  0  0  0  0
  7 27  1  1  0  0  0
  8  7  1  1  0  0  0
  8 11  1  0  0  0  0
  9 11  1  0  0  0  0
  9 16  1  1  0  0  0
  9 14  1  0  0  0  0
 10  9  1  0  0  0  0
 12 20  1  1  0  0  0
 12 13  1  0  0  0  0
 12 10  1  0  0  0  0
 13 22  1  6  0  0  0
 13  8  1  0  0  0  0
 14 15  1  0  0  0  0
 16 17  2  0  0  0  0
 16 18  1  0  0  0  0
 18 19  1  0  0  0  0
 20 21  1  0  0  0  0
 23 22  1  0  0  0  0
 23 26  2  0  0  0  0
 24 22  1  0  0  0  0
 25 23  1  0  0  0  0
 28 27  1  0  0  0  0
 29  6  1  0  0  0  0
 30 29  1  0  0  0  0
 31 32  1  0  0  0  0
 32 33  1  0  0  0  0
 33 35  1  0  0  0  0
 34 36  1  0  0  0  0
 34 33  2  0  0  0  0
 36 37  1  0  0  0  0
 37 35  2  0  0  0  0
 38 36  1  0  0  0  0
 39 44  1  0  0  0  0
 39 38  1  0  0  0  0
 40 38  2  0  0  0  0
 41 39  2  0  0  0  0
 42 40  1  0  0  0  0
 43 42  2  0  0  0  0
 43 41  1  0  0  0  0
 44 45  1  0  0  0  0
 46 44  1  0  0  0  0
 47 48  1  0  0  0  0
 49 48  1  0  0  0  0
 49 50  1  0  0  0  0
 50 51  1  0  0  0  0
 51 52  1  0  0  0  0
M  END
>  <REMARK>
 VINA RESULT:    -4.735      0.000      0.000
 INTER + INTRA:         -15.709
 INTER:                 -10.739
 INTRA:                  -4.970
 UNBOUND:                -7.237
 SMILES CC(=O)N[C@@H]1[C@@H](O)C[C@](O)(C(=O)O)O[C@H]1C(O)[C@H](O)CNC(=O)OCc1cn(-c2ccccc2C(C)C)nn1
 SMILES IDX 21 1 22 2 23 3 20 5 18 6 16 7 15 8 9 9 8 10 14 11 6 12 5 13
 SMILES IDX 10 14 11 16 12 17 13 18 7 20 4 22 2 23 1 25 3 26 17 27 19 29
 SMILES IDX 24 31 25 32 26 33 27 34 39 35 28 36 38 37 29 38 34 39 30 40
 SMILES IDX 33 41 31 42 32 43 35 44 36 45 37 46
 H PARENT 21 4 10 15 13 19 7 21 4 24 17 28 19 30
 Flexibility Score: inf
  4 active torsions:
  status: ('A' for Active; 'I' for Inactive)
    1  A    between atoms: CA   and  CB  
    2  A    between atoms: CB   and  CG  
    3  A    between atoms: CG   and  CD  
    4  A    between atoms: CD   and  CE  

>  <TORSDO>
F 16

>  <BEGIN_>
RES LYS A 131

$$$$
ligand_4_pose_0_2HRL.pdbqt
 OpenBabel07062320523D

  6  5  0  0  0  0  0  0  0  0999 V2000
   33.1930   34.6630    9.2900 C   0  0  0  0  0  0  0  0  0  0  0  0
   32.0600   35.3600   10.0340 C   0  0  0  0  0  0  0  0  0  0  0  0
   32.5340   36.2680   11.1400 C   0  0  0  0  0  0  0  0  0  0  0  0
   32.3150   35.6190   12.4980 C   0  0  0  0  0  0  0  0  0  0  0  0
   30.8820   35.8120   12.9550 C   0  0  0  0  0  0  0  0  0  0  0  0
   30.1400   34.5200   12.9540 N   0  0  0  0  0  0  0  0  0  0  0  0
  1  2  1  0  0  0  0
  2  3  1  0  0  0  0
  3  4  1  0  0  0  0
  4  5  1  0  0  0  0
  6  5  1  0  0  0  0
M  END
>  <EGIN_R>
ES LYS A 135

>  <REMARK>
  4 active torsions:
  status: ('A' for Active; 'I' for Inactive)
    5  A    between atoms: CA   and  CB  
    6  A    between atoms: CB   and  CG  
    7  A    between atoms: CG   and  CD  
    8  A    between atoms: CD   and  CE  

$$$$
