ligand_62_pose_0_2HRL.pdbqt
 OpenBabel07062320523D

 52 52  0  0  1  0  0  0  0  0999 V2000
   27.9280   28.9410   17.0010 N   0  0  0  0  0  0  0  0  0  0  0  0
   28.1040   30.3050   16.6940 C   0  0  0  0  0  0  0  0  0  0  0  0
   27.3080   31.1850   17.0910 O   0  0  0  0  0  0  0  0  0  0  0  0
   28.6540   28.2780   16.6260 H   0  0  0  0  0  0  0  0  0  0  0  0
   26.8650   28.3820   17.7630 C   0  0  0  0  0  0  0  0  0  0  0  0
   27.1730   27.9200   19.1390 C   0  0  2  0  0  0  0  0  0  0  0  0
   27.4170   29.0560   20.1080 C   0  0  2  0  0  0  0  0  0  0  0  0
   28.8450   29.4860   20.2290 C   0  0  2  0  0  0  0  0  0  0  0  0
   30.7510   28.9560   21.4280 C   0  0  2  0  0  0  0  0  0  0  0  0
   31.2990   29.8940   20.3860 C   0  0  0  0  0  0  0  0  0  0  0  0
   29.3990   28.7070   21.2660 O   0  0  0  0  0  0  0  0  0  0  0  0
   30.5660   31.1850   20.2930 C   0  0  1  0  0  0  0  0  0  0  0  0
   29.0810   30.9140   20.5800 C   0  0  1  0  0  0  0  0  0  0  0  0
   31.0650   29.4490   22.6820 O   0  0  0  0  0  0  0  0  0  0  0  0
   30.7580   30.3780   22.8300 H   0  0  0  0  0  0  0  0  0  0  0  0
   31.4610   27.6580   21.2680 C   0  0  0  0  0  0  0  0  0  0  0  0
   32.1030   27.1290   22.2170 O   0  0  0  0  0  0  0  0  0  0  0  0
   31.4560   26.9540   20.0590 O   0  0  0  0  0  0  0  0  0  0  0  0
   31.9280   26.0650   19.9600 H   0  0  0  0  0  0  0  0  0  0  0  0
   31.0580   32.1610   21.1570 O   0  0  0  0  0  0  0  0  0  0  0  0
   31.7800   32.6390   20.6630 H   0  0  0  0  0  0  0  0  0  0  0  0
   28.3570   31.8990   19.8530 N   0  0  0  0  0  0  0  0  0  0  0  0
   27.9300   33.1490   20.4430 C   0  0  0  0  0  0  0  0  0  0  0  0
   28.0980   31.7890   18.8500 H   0  0  0  0  0  0  0  0  0  0  0  0
   27.1780   34.1450   19.6460 C   0  0  0  0  0  0  0  0  0  0  0  0
   28.1960   33.3900   21.6260 O   0  0  0  0  0  0  0  0  0  0  0  0
   27.1000   28.4870   21.3810 O   0  0  0  0  0  0  0  0  0  0  0  0
   26.2320   28.0530   21.3620 H   0  0  0  0  0  0  0  0  0  0  0  0
   28.3390   27.1580   19.1400 O   0  0  0  0  0  0  0  0  0  0  0  0
   29.1100   27.7220   19.3860 H   0  0  0  0  0  0  0  0  0  0  0  0
   29.1850   30.7340   15.9290 O   0  0  0  0  0  0  0  0  0  0  0  0
   30.3200   31.3170   16.5150 C   0  0  0  0  0  0  0  0  0  0  0  0
   30.7910   32.4660   15.7210 C   0  0  0  0  0  0  0  0  0  0  0  0
   30.2530   32.9580   14.5480 C   0  0  0  0  0  0  0  0  0  0  0  0
   31.8580   33.2340   16.0310 N   0  0  0  0  0  0  0  0  0  0  0  0
   31.0010   33.9960   14.1920 N   0  0  0  0  0  0  0  0  0  0  0  0
   31.9490   34.1560   15.0700 N   0  0  0  0  0  0  0  0  0  0  0  0
   30.8060   34.8320   13.0100 C   0  0  1  0  0  0  0  0  0  0  0  0
   29.5950   35.6940   13.2310 C   0  0  0  0  0  0  0  0  0  0  0  0
   28.5980   35.3810   12.3350 O   0  0  0  0  0  0  0  0  0  0  0  0
   27.4060   34.9990   12.9100 C   0  0  0  0  0  0  0  0  0  0  0  0
   32.0010   35.7230   12.8480 C   0  0  0  0  0  0  0  0  0  0  0  0
   31.9150   36.9430   13.0480 O   0  0  0  0  0  0  0  0  0  0  0  0
   33.2250   35.1180   12.4590 N   0  0  0  0  0  0  0  0  0  0  0  0
   34.1200   35.5990   12.7040 H   0  0  0  0  0  0  0  0  0  0  0  0
   33.2370   34.2260   11.9490 H   0  0  0  0  0  0  0  0  0  0  0  0
   29.8670   25.5550   16.9770 C   0  0  0  0  0  0  0  0  0  0  0  0
   28.3450   25.7220   17.0260 C   0  0  0  0  0  0  0  0  0  0  0  0
   27.5990   24.4790   16.5650 C   0  0  0  0  0  0  0  0  0  0  0  0
   27.1900   23.6040   17.7170 C   0  0  0  0  0  0  0  0  0  0  0  0
   25.7040   23.2810   17.6080 C   0  0  0  0  0  0  0  0  0  0  0  0
   24.9780   24.3910   16.9460 N   0  0  0  0  0  0  0  0  0  0  0  0
  1  5  1  0  0  0  0
  2  1  1  0  0  0  0
  2  3  2  0  0  0  0
  4  1  1  0  0  0  0
  6  5  1  6  0  0  0
  6 29  1  0  0  0  0
  6  7  1  0  0  0  0
  7 27  1  1  0  0  0
  8  7  1  1  0  0  0
  8 13  1  0  0  0  0
  8 11  1  0  0  0  0
  9 16  1  6  0  0  0
  9 14  1  0  0  0  0
 10  9  1  0  0  0  0
 11  9  1  0  0  0  0
 12 10  1  0  0  0  0
 12 13  1  0  0  0  0
 12 20  1  1  0  0  0
 13 22  1  6  0  0  0
 14 15  1  0  0  0  0
 16 17  2  0  0  0  0
 18 16  1  0  0  0  0
 19 18  1  0  0  0  0
 21 20  1  0  0  0  0
 22 23  1  0  0  0  0
 23 26  2  0  0  0  0
 24 22  1  0  0  0  0
 25 23  1  0  0  0  0
 28 27  1  0  0  0  0
 29 30  1  0  0  0  0
 31 32  1  0  0  0  0
 31  2  1  0  0  0  0
 33 35  1  0  0  0  0
 33 32  1  0  0  0  0
 34 33  2  0  0  0  0
 36 34  1  0  0  0  0
 36 37  1  0  0  0  0
 37 35  2  0  0  0  0
 38 39  1  1  0  0  0
 38 36  1  0  0  0  0
 40 41  1  0  0  0  0
 40 39  1  0  0  0  0
 42 38  1  0  0  0  0
 42 43  2  0  0  0  0
 44 45  1  0  0  0  0
 44 42  1  0  0  0  0
 46 44  1  0  0  0  0
 47 48  1  0  0  0  0
 49 48  1  0  0  0  0
 49 50  1  0  0  0  0
 51 50  1  0  0  0  0
 52 51  1  0  0  0  0
M  END
>  <REMARK>
 VINA RESULT:    -4.567      0.000      0.000
 INTER + INTRA:         -15.458
 INTER:                  -9.360
 INTRA:                  -6.098
 UNBOUND:                -6.753
 SMILES COCC(C(N)=O)n1cc(COC(=O)NC[C@@H](O)C(O)[C@@H]2O[C@@](O)(C(=O)O)C[C@H](O)[C@H]2NC(C)=O)nn1
 SMILES IDX 15 1 13 2 14 3 16 5 17 6 19 7 21 8 23 9 28 10 22 11 29 12
 SMILES IDX 31 13 24 14 25 16 26 17 27 18 30 20 32 22 33 23 34 25 35 26
 SMILES IDX 20 27 18 29 12 31 11 32 10 33 9 34 36 35 8 36 37 37 4 38
 SMILES IDX 3 39 2 40 1 41 5 42 7 43 6 44
 H PARENT 15 4 24 15 27 19 30 21 32 24 20 28 18 30 6 45 6 46
 Flexibility Score: inf
  4 active torsions:
  status: ('A' for Active; 'I' for Inactive)
    1  A    between atoms: CA   and  CB  
    2  A    between atoms: CB   and  CG  
    3  A    between atoms: CG   and  CD  
    4  A    between atoms: CD   and  CE  

>  <TORSDO>
F 18

>  <BEGIN_>
RES LYS A 131

$$$$
ligand_62_pose_0_2HRL.pdbqt
 OpenBabel07062320523D

  6  5  0  0  0  0  0  0  0  0999 V2000
   33.1930   34.6630    9.2900 C   0  0  0  0  0  0  0  0  0  0  0  0
   32.0600   35.3600   10.0340 C   0  0  0  0  0  0  0  0  0  0  0  0
   30.7970   35.4920    9.2220 C   0  0  0  0  0  0  0  0  0  0  0  0
   30.0980   34.1470    9.0960 C   0  0  0  0  0  0  0  0  0  0  0  0
   28.6510   34.3360    8.6820 C   0  0  0  0  0  0  0  0  0  0  0  0
   27.7330   33.5820    9.5790 N   0  0  0  0  0  0  0  0  0  0  0  0
  1  2  1  0  0  0  0
  3  2  1  0  0  0  0
  4  3  1  0  0  0  0
  5  4  1  0  0  0  0
  5  6  1  0  0  0  0
M  END
>  <EGIN_R>
ES LYS A 135

>  <REMARK>
  4 active torsions:
  status: ('A' for Active; 'I' for Inactive)
    5  A    between atoms: CA   and  CB  
    6  A    between atoms: CB   and  CG  
    7  A    between atoms: CG   and  CD  
    8  A    between atoms: CD   and  CE  

$$$$
