ligand_22_pose_0_2HRL.pdbqt
 OpenBabel07062320523D

 50 50  0  0  1  0  0  0  0  0999 V2000
   25.1130   35.2700   14.1500 N   0  0  0  0  0  0  0  0  0  0  0  0
   24.9820   33.8770   13.9410 C   0  0  0  0  0  0  0  0  0  0  0  0
   25.2910   33.3550   12.8150 O   0  0  0  0  0  0  0  0  0  0  0  0
   24.8620   35.6840   15.0670 H   0  0  0  0  0  0  0  0  0  0  0  0
   25.6060   36.0730   13.0600 C   0  0  0  0  0  0  0  0  0  0  0  0
   27.0170   36.5270   13.1900 C   0  0  2  0  0  0  0  0  0  0  0  0
   28.0090   35.6120   12.5170 C   0  0  1  0  0  0  0  0  0  0  0  0
   29.3060   36.4020   12.3060 C   0  0  2  0  0  0  0  0  0  0  0  0
   31.2830   36.8280   13.4550 C   0  0  2  0  0  0  0  0  0  0  0  0
   31.1710   38.3070   13.1590 C   0  0  0  0  0  0  0  0  0  0  0  0
   30.0770   36.1710   13.4400 O   0  0  0  0  0  0  0  0  0  0  0  0
   29.7280   38.7200   13.1420 C   0  0  1  0  0  0  0  0  0  0  0  0
   28.9830   37.8700   12.1310 C   0  0  1  0  0  0  0  0  0  0  0  0
   31.7690   36.7300   14.7680 O   0  0  0  0  0  0  0  0  0  0  0  0
   32.0490   35.8160   14.9540 H   0  0  0  0  0  0  0  0  0  0  0  0
   32.2710   36.1900   12.5570 C   0  0  0  0  0  0  0  0  0  0  0  0
   32.7500   36.8310   11.6000 O   0  0  0  0  0  0  0  0  0  0  0  0
   32.6940   34.8820   12.7390 O   0  0  0  0  0  0  0  0  0  0  0  0
   32.2640   34.2630   13.4110 H   0  0  0  0  0  0  0  0  0  0  0  0
   29.1400   38.6970   14.3830 O   0  0  0  0  0  0  0  0  0  0  0  0
   28.6350   39.5070   14.6160 H   0  0  0  0  0  0  0  0  0  0  0  0
   29.3950   38.3400   10.8090 N   0  0  0  0  0  0  0  0  0  0  0  0
   28.4890   38.3540    9.7140 C   0  0  0  0  0  0  0  0  0  0  0  0
   30.3700   38.6730   10.6540 H   0  0  0  0  0  0  0  0  0  0  0  0
   28.8930   38.8300    8.3580 C   0  0  0  0  0  0  0  0  0  0  0  0
   27.3120   37.9370    9.9560 O   0  0  0  0  0  0  0  0  0  0  0  0
   28.2410   34.4300   13.1610 O   0  0  0  0  0  0  0  0  0  0  0  0
   27.4110   33.9350   13.2970 H   0  0  0  0  0  0  0  0  0  0  0  0
   27.2920   36.5480   14.5820 O   0  0  0  0  0  0  0  0  0  0  0  0
   26.5730   36.0310   15.0490 H   0  0  0  0  0  0  0  0  0  0  0  0
   24.5230   32.9970   14.9000 O   0  0  0  0  0  0  0  0  0  0  0  0
   25.3890   32.0120   15.4900 C   0  0  0  0  0  0  0  0  0  0  0  0
   26.6790   32.6810   15.8040 C   0  0  0  0  0  0  0  0  0  0  0  0
   27.9090   32.0500   15.9000 C   0  0  0  0  0  0  0  0  0  0  0  0
   26.9370   33.9780   16.0550 N   0  0  0  0  0  0  0  0  0  0  0  0
   28.8610   32.9630   16.2010 N   0  0  0  0  0  0  0  0  0  0  0  0
   28.2340   34.1210   16.2860 N   0  0  0  0  0  0  0  0  0  0  0  0
   30.2720   32.6860   16.3810 C   0  0  0  0  0  0  0  0  0  0  0  0
   30.7570   33.2750   17.6900 C   0  0  0  0  0  0  0  0  0  0  0  0
   30.4940   31.1880   16.3810 C   0  0  0  0  0  0  0  0  0  0  0  0
   31.0820   33.3140   15.2970 C   0  0  0  0  0  0  0  0  0  0  0  0
   32.1870   33.8190   15.6200 O   0  0  0  0  0  0  0  0  0  0  0  0
   30.6560   33.3510   13.9830 O   0  0  0  0  0  0  0  0  0  0  0  0
   29.7070   33.0450   13.7920 H   0  0  0  0  0  0  0  0  0  0  0  0
   29.8670   25.5550   16.9770 C   0  0  0  0  0  0  0  0  0  0  0  0
   28.3450   25.7220   17.0260 C   0  0  0  0  0  0  0  0  0  0  0  0
   27.6010   24.4010   16.9030 C   0  0  0  0  0  0  0  0  0  0  0  0
   26.1560   24.5260   17.2970 C   0  0  0  0  0  0  0  0  0  0  0  0
   25.9630   23.9730   18.7060 C   0  0  0  0  0  0  0  0  0  0  0  0
   24.9650   22.8780   18.7010 N   0  0  0  0  0  0  0  0  0  0  0  0
  1  4  1  0  0  0  0
  2  1  1  0  0  0  0
  2 31  1  0  0  0  0
  3  2  2  0  0  0  0
  5  1  1  0  0  0  0
  6  5  1  1  0  0  0
  6 29  1  0  0  0  0
  7 27  1  1  0  0  0
  7  6  1  0  0  0  0
  8  7  1  1  0  0  0
  8 11  1  0  0  0  0
  9 16  1  6  0  0  0
  9 14  1  0  0  0  0
 10  9  1  0  0  0  0
 11  9  1  0  0  0  0
 12 10  1  0  0  0  0
 12 20  1  1  0  0  0
 13 22  1  6  0  0  0
 13  8  1  0  0  0  0
 13 12  1  0  0  0  0
 14 15  1  0  0  0  0
 16 18  1  0  0  0  0
 17 16  2  0  0  0  0
 18 19  1  0  0  0  0
 20 21  1  0  0  0  0
 23 26  2  0  0  0  0
 23 22  1  0  0  0  0
 24 22  1  0  0  0  0
 25 23  1  0  0  0  0
 27 28  1  0  0  0  0
 29 30  1  0  0  0  0
 31 32  1  0  0  0  0
 32 33  1  0  0  0  0
 33 34  2  0  0  0  0
 33 35  1  0  0  0  0
 34 36  1  0  0  0  0
 35 37  2  0  0  0  0
 36 37  1  0  0  0  0
 36 38  1  0  0  0  0
 38 39  1  0  0  0  0
 40 38  1  0  0  0  0
 41 42  2  0  0  0  0
 41 38  1  0  0  0  0
 43 41  1  0  0  0  0
 44 43  1  0  0  0  0
 45 46  1  0  0  0  0
 47 46  1  0  0  0  0
 47 48  1  0  0  0  0
 48 49  1  0  0  0  0
 50 49  1  0  0  0  0
M  END
>  <REMARK>
 VINA RESULT:    -5.152      0.000      0.000
 INTER + INTRA:         -14.946
 INTER:                  -7.284
 INTRA:                  -7.662
 UNBOUND:                -5.578
 SMILES CC(=O)N[C@@H]1[C@@H](O)C[C@](O)(C(=O)O)O[C@H]1C(O)[C@H](O)CNC(=O)OCc1cn(C(C)(C)C(=O)O)nn1
 SMILES IDX 21 1 22 2 23 3 20 5 18 6 16 7 15 8 9 9 8 10 14 11 6 12 5 13
 SMILES IDX 10 14 11 16 12 17 13 18 7 20 4 22 2 23 1 25 3 26 17 27 19 29
 SMILES IDX 24 31 25 32 26 33 27 34 36 35 28 36 35 37 29 38 30 39 31 40
 SMILES IDX 32 41 33 42 34 43
 H PARENT 21 4 10 15 13 19 7 21 4 24 17 28 19 30 34 44
 Flexibility Score: inf
  4 active torsions:
  status: ('A' for Active; 'I' for Inactive)
    1  A    between atoms: CA   and  CB  
    2  A    between atoms: CB   and  CG  
    3  A    between atoms: CG   and  CD  
    4  A    between atoms: CD   and  CE  

>  <TORSDO>
F 17

>  <BEGIN_>
RES LYS A 131

$$$$
ligand_22_pose_0_2HRL.pdbqt
 OpenBabel07062320523D

  6  5  0  0  0  0  0  0  0  0999 V2000
   33.1930   34.6630    9.2900 C   0  0  0  0  0  0  0  0  0  0  0  0
   32.0600   35.3600   10.0340 C   0  0  0  0  0  0  0  0  0  0  0  0
   30.7600   35.3780    9.2720 C   0  0  0  0  0  0  0  0  0  0  0  0
   30.0570   34.0340    9.3780 C   0  0  0  0  0  0  0  0  0  0  0  0
   28.5880   34.1730    9.0260 C   0  0  0  0  0  0  0  0  0  0  0  0
   28.3970   35.0920    7.8700 N   0  0  0  0  0  0  0  0  0  0  0  0
  1  2  1  0  0  0  0
  3  4  1  0  0  0  0
  3  2  1  0  0  0  0
  5  4  1  0  0  0  0
  6  5  1  0  0  0  0
M  END
>  <EGIN_R>
ES LYS A 135

>  <REMARK>
  4 active torsions:
  status: ('A' for Active; 'I' for Inactive)
    5  A    between atoms: CA   and  CB  
    6  A    between atoms: CB   and  CG  
    7  A    between atoms: CG   and  CD  
    8  A    between atoms: CD   and  CE  

$$$$
