ligand_87_pose_0_2HRL.pdbqt
 OpenBabel07062320523D

 52 54  0  0  1  0  0  0  0  0999 V2000
   27.4530   27.4120   19.1410 C   0  0  0  0  0  0  0  0  0  0  0  0
   27.4270   27.5730   20.6320 C   0  0  2  0  0  0  0  0  0  0  0  0
   28.8340   27.4810   21.2100 C   0  0  2  0  0  0  0  0  0  0  0  0
   29.2680   28.8930   21.5990 C   0  0  2  0  0  0  0  0  0  0  0  0
   28.4550   31.0620   21.2720 C   0  0  2  0  0  0  0  0  0  0  0  0
   29.6820   31.5320   20.5560 C   0  0  0  0  0  0  0  0  0  0  0  0
   28.2610   29.7210   21.3010 O   0  0  0  0  0  0  0  0  0  0  0  0
   30.6570   30.4600   20.2050 C   0  0  1  0  0  0  0  0  0  0  0  0
   30.6300   29.2420   21.0670 C   0  0  1  0  0  0  0  0  0  0  0  0
   27.3440   31.6060   20.6200 O   0  0  0  0  0  0  0  0  0  0  0  0
   27.4610   31.6460   19.6400 H   0  0  0  0  0  0  0  0  0  0  0  0
   28.3920   31.5590   22.6630 C   0  0  0  0  0  0  0  0  0  0  0  0
   29.3970   32.0950   23.1760 O   0  0  0  0  0  0  0  0  0  0  0  0
   27.2610   31.4690   23.4680 O   0  0  0  0  0  0  0  0  0  0  0  0
   27.2420   31.9380   24.3870 H   0  0  0  0  0  0  0  0  0  0  0  0
   30.4370   30.1260   18.8610 O   0  0  0  0  0  0  0  0  0  0  0  0
   29.5050   30.3270   18.6090 H   0  0  0  0  0  0  0  0  0  0  0  0
   31.6310   29.2100   22.0990 N   0  0  0  0  0  0  0  0  0  0  0  0
   32.4420   28.0860   22.3810 C   0  0  0  0  0  0  0  0  0  0  0  0
   31.7900   30.0630   22.6990 H   0  0  0  0  0  0  0  0  0  0  0  0
   33.4750   28.0300   23.4380 C   0  0  0  0  0  0  0  0  0  0  0  0
   32.2390   27.0820   21.6560 O   0  0  0  0  0  0  0  0  0  0  0  0
   29.7300   26.9140   20.3190 O   0  0  0  0  0  0  0  0  0  0  0  0
   29.2590   26.1890   19.8340 H   0  0  0  0  0  0  0  0  0  0  0  0
   26.6520   26.6410   21.2610 O   0  0  0  0  0  0  0  0  0  0  0  0
   25.6810   26.8600   21.1420 H   0  0  0  0  0  0  0  0  0  0  0  0
   27.9050   28.5790   18.4630 N   0  0  0  0  0  0  0  0  0  0  0  0
   27.1120   29.6970   18.1540 C   0  0  0  0  0  0  0  0  0  0  0  0
   28.9270   28.6270   18.1550 H   0  0  0  0  0  0  0  0  0  0  0  0
   25.9040   29.7690   18.4460 O   0  0  0  0  0  0  0  0  0  0  0  0
   27.6980   30.7900   17.4850 O   0  0  0  0  0  0  0  0  0  0  0  0
   28.0660   30.6310   16.1300 C   0  0  0  0  0  0  0  0  0  0  0  0
   29.2640   31.4140   15.8250 C   0  0  0  0  0  0  0  0  0  0  0  0
   29.2960   32.5780   15.0660 C   0  0  0  0  0  0  0  0  0  0  0  0
   30.5160   31.1650   16.2040 N   0  0  0  0  0  0  0  0  0  0  0  0
   30.5680   32.9900   15.0150 N   0  0  0  0  0  0  0  0  0  0  0  0
   31.2760   32.1240   15.7060 N   0  0  0  0  0  0  0  0  0  0  0  0
   31.0960   34.1520   14.3460 C   0  0  1  0  0  0  0  0  0  0  0  0
   30.4290   35.3980   14.9270 C   0  0  0  0  0  0  0  0  0  0  0  0
   32.5710   34.2220   14.6780 C   0  0  0  0  0  0  0  0  0  0  0  0
   31.1530   36.6130   14.4130 C   0  0  1  0  0  0  0  0  0  0  0  0
   33.1330   35.5570   14.3120 C   0  0  2  0  0  0  0  0  0  0  0  0
   32.4950   36.6580   14.9630 N   0  0  0  0  0  0  0  0  0  0  0  0
   31.4320   36.4640   12.9290 C   0  0  0  0  0  0  0  0  0  0  0  0
   32.7750   35.8050   12.8410 C   0  0  0  0  0  0  0  0  0  0  0  0
   32.5170   36.5840   16.3950 C   0  0  0  0  0  0  0  0  0  0  0  0
   29.8670   25.5550   16.9770 C   0  0  0  0  0  0  0  0  0  0  0  0
   28.3450   25.7220   17.0260 C   0  0  0  0  0  0  0  0  0  0  0  0
   27.6020   24.3990   16.9250 C   0  0  0  0  0  0  0  0  0  0  0  0
   26.6440   24.1980   18.0660 C   0  0  0  0  0  0  0  0  0  0  0  0
   25.2760   23.8030   17.5190 C   0  0  0  0  0  0  0  0  0  0  0  0
   25.1440   22.3280   17.4670 N   0  0  0  0  0  0  0  0  0  0  0  0
  2  1  1  6  0  0  0
  2  3  1  0  0  0  0
  2 25  1  0  0  0  0
  3 23  1  6  0  0  0
  4  3  1  6  0  0  0
  5 10  1  6  0  0  0
  5  7  1  0  0  0  0
  5 12  1  0  0  0  0
  6  5  1  0  0  0  0
  7  4  1  0  0  0  0
  8 16  1  6  0  0  0
  8  6  1  0  0  0  0
  8  9  1  0  0  0  0
  9  4  1  0  0  0  0
  9 18  1  1  0  0  0
 11 10  1  0  0  0  0
 12 13  2  0  0  0  0
 12 14  1  0  0  0  0
 14 15  1  0  0  0  0
 17 16  1  0  0  0  0
 18 19  1  0  0  0  0
 18 20  1  0  0  0  0
 19 21  1  0  0  0  0
 22 19  2  0  0  0  0
 24 23  1  0  0  0  0
 26 25  1  0  0  0  0
 27  1  1  0  0  0  0
 28 30  2  0  0  0  0
 28 27  1  0  0  0  0
 29 27  1  0  0  0  0
 31 28  1  0  0  0  0
 32 31  1  0  0  0  0
 33 32  1  0  0  0  0
 33 35  1  0  0  0  0
 34 33  2  0  0  0  0
 36 34  1  0  0  0  0
 36 37  1  0  0  0  0
 37 35  2  0  0  0  0
 38 40  1  1  0  0  0
 38 39  1  0  0  0  0
 38 36  1  0  0  0  0
 41 44  1  6  0  0  0
 41 39  1  0  0  0  0
 41 43  1  0  0  0  0
 42 45  1  6  0  0  0
 42 40  1  0  0  0  0
 42 43  1  0  0  0  0
 43 46  1  0  0  0  0
 45 44  1  0  0  0  0
 47 48  1  0  0  0  0
 49 48  1  0  0  0  0
 49 50  1  0  0  0  0
 51 50  1  0  0  0  0
 52 51  1  0  0  0  0
M  END
>  <REMARK>
 VINA RESULT:    -5.591      0.000      0.000
 INTER + INTRA:         -15.179
 INTER:                  -8.558
 INTRA:                  -6.622
 UNBOUND:                -5.502
 SMILES CC(=O)N[C@@H]1[C@@H](O)C[C@](O)(C(=O)O)O[C@H]1C(O)[C@H](O)CNC(=O)OCc1cn([C@@H]2C[C@H]3CC[C@@H](C2)N3C)nn1
 SMILES IDX 20 1 18 2 16 3 15 4 9 5 8 6 14 7 6 8 5 9 10 10 11 12 12 13
 SMILES IDX 13 14 7 16 4 18 2 19 1 21 3 22 17 23 19 25 21 27 22 28 23 30
 SMILES IDX 24 31 25 32 26 33 27 34 39 35 28 36 38 37 29 38 35 39 30 40
 SMILES IDX 34 41 31 42 36 43 33 44 32 45 37 46
 H PARENT 10 11 13 15 7 17 4 20 17 24 19 26 21 29
 Flexibility Score: inf
  4 active torsions:
  status: ('A' for Active; 'I' for Inactive)
    1  A    between atoms: CA   and  CB  
    2  A    between atoms: CB   and  CG  
    3  A    between atoms: CG   and  CD  
    4  A    between atoms: CD   and  CE  

>  <TORSDO>
F 15

>  <BEGIN_>
RES LYS A 131

$$$$
ligand_87_pose_0_2HRL.pdbqt
 OpenBabel07062320523D

  6  5  0  0  0  0  0  0  0  0999 V2000
   33.1930   34.6630    9.2900 C   0  0  0  0  0  0  0  0  0  0  0  0
   32.0600   35.3600   10.0340 C   0  0  0  0  0  0  0  0  0  0  0  0
   30.7120   34.7250    9.8100 C   0  0  0  0  0  0  0  0  0  0  0  0
   30.4460   34.5400    8.3240 C   0  0  0  0  0  0  0  0  0  0  0  0
   29.0010   34.8630    7.9970 C   0  0  0  0  0  0  0  0  0  0  0  0
   28.8890   35.5430    6.6770 N   0  0  0  0  0  0  0  0  0  0  0  0
  1  2  1  0  0  0  0
  3  2  1  0  0  0  0
  4  3  1  0  0  0  0
  5  4  1  0  0  0  0
  6  5  1  0  0  0  0
M  END
>  <EGIN_R>
ES LYS A 135

>  <REMARK>
  4 active torsions:
  status: ('A' for Active; 'I' for Inactive)
    5  A    between atoms: CA   and  CB  
    6  A    between atoms: CB   and  CG  
    7  A    between atoms: CG   and  CD  
    8  A    between atoms: CD   and  CE  

$$$$
