ligand_56_pose_0_2HRL.pdbqt
 OpenBabel07062320523D

 49 50  0  0  1  0  0  0  0  0999 V2000
   30.4410   26.9600   21.4150 C   0  0  0  0  0  0  0  0  0  0  0  0
   31.7330   27.6130   21.0690 C   0  0  2  0  0  0  0  0  0  0  0  0
   31.7080   29.1150   21.2990 C   0  0  2  0  0  0  0  0  0  0  0  0
   33.0450   29.6940   21.5960 C   0  0  2  0  0  0  0  0  0  0  0  0
   34.8130   29.6920   23.0790 C   0  0  2  0  0  0  0  0  0  0  0  0
   35.3470   30.7900   22.1930 C   0  0  0  0  0  0  0  0  0  0  0  0
   33.7660   29.0030   22.5290 O   0  0  0  0  0  0  0  0  0  0  0  0
   34.2870   31.7740   21.7840 C   0  0  1  0  0  0  0  0  0  0  0  0
   32.9400   31.1360   22.0640 C   0  0  1  0  0  0  0  0  0  0  0  0
   34.5060   30.1580   24.3570 O   0  0  0  0  0  0  0  0  0  0  0  0
   33.9690   30.9940   24.3270 H   0  0  0  0  0  0  0  0  0  0  0  0
   35.9390   28.7090   23.2550 C   0  0  0  0  0  0  0  0  0  0  0  0
   37.1020   29.0460   23.5250 O   0  0  0  0  0  0  0  0  0  0  0  0
   35.6010   27.3680   23.0960 O   0  0  0  0  0  0  0  0  0  0  0  0
   34.6730   27.0390   23.3480 H   0  0  0  0  0  0  0  0  0  0  0  0
   34.4020   32.9830   22.4710 O   0  0  0  0  0  0  0  0  0  0  0  0
   33.5360   33.4580   22.4470 H   0  0  0  0  0  0  0  0  0  0  0  0
   31.8650   31.8440   21.4080 N   0  0  0  0  0  0  0  0  0  0  0  0
   31.1290   32.8480   22.0940 C   0  0  0  0  0  0  0  0  0  0  0  0
   31.6000   31.6420   20.4270 H   0  0  0  0  0  0  0  0  0  0  0  0
   30.0100   33.6010   21.4440 C   0  0  0  0  0  0  0  0  0  0  0  0
   31.4300   33.1130   23.2850 O   0  0  0  0  0  0  0  0  0  0  0  0
   30.6910   29.4720   22.1460 O   0  0  0  0  0  0  0  0  0  0  0  0
   30.9070   30.3480   22.5640 H   0  0  0  0  0  0  0  0  0  0  0  0
   32.0920   27.4420   19.7440 O   0  0  0  0  0  0  0  0  0  0  0  0
   32.1950   26.5010   19.4780 H   0  0  0  0  0  0  0  0  0  0  0  0
   29.5320   26.9790   20.3050 N   0  0  0  0  0  0  0  0  0  0  0  0
   28.3890   27.7710   20.1380 C   0  0  0  0  0  0  0  0  0  0  0  0
   29.7380   26.3080   19.4860 H   0  0  0  0  0  0  0  0  0  0  0  0
   28.0410   28.5710   21.0070 O   0  0  0  0  0  0  0  0  0  0  0  0
   27.5800   27.7020   18.9880 O   0  0  0  0  0  0  0  0  0  0  0  0
   26.9340   28.8890   18.5170 C   0  0  0  0  0  0  0  0  0  0  0  0
   27.8290   29.6760   17.6630 C   0  0  0  0  0  0  0  0  0  0  0  0
   28.6830   30.7020   17.9990 C   0  0  0  0  0  0  0  0  0  0  0  0
   27.9670   29.5060   16.3310 N   0  0  0  0  0  0  0  0  0  0  0  0
   29.2920   31.1010   16.8600 N   0  0  0  0  0  0  0  0  0  0  0  0
   28.8550   30.3760   15.8620 N   0  0  0  0  0  0  0  0  0  0  0  0
   30.2620   32.1430   16.7310 C   0  0  0  0  0  0  0  0  0  0  0  0
   30.8990   32.3070   15.5250 C   0  0  0  0  0  0  0  0  0  0  0  0
   30.5510   32.9710   17.8090 C   0  0  0  0  0  0  0  0  0  0  0  0
   31.8320   33.3160   15.4180 C   0  0  0  0  0  0  0  0  0  0  0  0
   31.4820   33.9570   17.6530 C   0  0  0  0  0  0  0  0  0  0  0  0
   32.1010   34.1080   16.4640 N   0  0  0  0  0  0  0  0  0  0  0  0
   29.8670   25.5550   16.9770 C   0  0  0  0  0  0  0  0  0  0  0  0
   28.3450   25.7220   17.0260 C   0  0  0  0  0  0  0  0  0  0  0  0
   27.6010   24.4040   16.8800 C   0  0  0  0  0  0  0  0  0  0  0  0
   26.6550   24.1570   18.0230 C   0  0  0  0  0  0  0  0  0  0  0  0
   25.3730   23.5230   17.4940 C   0  0  0  0  0  0  0  0  0  0  0  0
   24.5010   24.5510   16.8790 N   0  0  0  0  0  0  0  0  0  0  0  0
  2  3  1  0  0  0  0
  2  1  1  6  0  0  0
  3 23  1  1  0  0  0
  4  3  1  1  0  0  0
  4  9  1  0  0  0  0
  4  7  1  0  0  0  0
  5 12  1  1  0  0  0
  5 10  1  0  0  0  0
  6  5  1  0  0  0  0
  7  5  1  0  0  0  0
  8  9  1  0  0  0  0
  8  6  1  0  0  0  0
  8 16  1  1  0  0  0
  9 18  1  6  0  0  0
 11 10  1  0  0  0  0
 12 13  2  0  0  0  0
 14 12  1  0  0  0  0
 14 15  1  0  0  0  0
 17 16  1  0  0  0  0
 18 19  1  0  0  0  0
 19 22  2  0  0  0  0
 20 18  1  0  0  0  0
 21 19  1  0  0  0  0
 23 24  1  0  0  0  0
 25  2  1  0  0  0  0
 26 25  1  0  0  0  0
 27  1  1  0  0  0  0
 28 27  1  0  0  0  0
 28 30  2  0  0  0  0
 29 27  1  0  0  0  0
 31 28  1  0  0  0  0
 32 31  1  0  0  0  0
 33 34  2  0  0  0  0
 33 32  1  0  0  0  0
 35 33  1  0  0  0  0
 36 34  1  0  0  0  0
 37 35  2  0  0  0  0
 37 36  1  0  0  0  0
 38 36  1  0  0  0  0
 38 40  2  0  0  0  0
 39 38  1  0  0  0  0
 41 39  2  0  0  0  0
 41 43  1  0  0  0  0
 42 40  1  0  0  0  0
 43 42  2  0  0  0  0
 44 45  1  0  0  0  0
 46 45  1  0  0  0  0
 46 47  1  0  0  0  0
 48 47  1  0  0  0  0
 49 48  1  0  0  0  0
M  END
>  <REMARK>
 VINA RESULT:    -5.503      0.000      0.000
 INTER + INTRA:         -14.797
 INTER:                  -9.243
 INTRA:                  -5.554
 UNBOUND:                -5.272
 SMILES CC(=O)N[C@@H]1[C@@H](O)C[C@](O)(C(=O)O)O[C@H]1C(O)[C@H](O)CNC(=O)OCc1cn(-c2ccncc2)nn1
 SMILES IDX 20 1 18 2 16 3 15 4 9 5 8 6 14 7 6 8 5 9 10 10 11 12 12 13
 SMILES IDX 13 14 7 16 4 18 2 19 1 21 3 22 17 23 19 25 21 27 22 28 23 30
 SMILES IDX 24 31 25 32 26 33 27 34 36 35 28 36 35 37 29 38 30 39 34 40
 SMILES IDX 31 41 33 42 32 43
 H PARENT 10 11 13 15 7 17 4 20 17 24 19 26 21 29
 Flexibility Score: inf
  4 active torsions:
  status: ('A' for Active; 'I' for Inactive)
    1  A    between atoms: CA   and  CB  
    2  A    between atoms: CB   and  CG  
    3  A    between atoms: CG   and  CD  
    4  A    between atoms: CD   and  CE  

>  <TORSDO>
F 15

>  <BEGIN_>
RES LYS A 131

$$$$
ligand_56_pose_0_2HRL.pdbqt
 OpenBabel07062320523D

  6  5  0  0  0  0  0  0  0  0999 V2000
   33.1930   34.6630    9.2900 C   0  0  0  0  0  0  0  0  0  0  0  0
   32.0600   35.3600   10.0340 C   0  0  0  0  0  0  0  0  0  0  0  0
   30.7050   34.7570    9.7690 C   0  0  0  0  0  0  0  0  0  0  0  0
   30.5350   34.4480    8.2900 C   0  0  0  0  0  0  0  0  0  0  0  0
   29.3250   35.1700    7.7300 C   0  0  0  0  0  0  0  0  0  0  0  0
   28.3490   35.4970    8.8070 N   0  0  0  0  0  0  0  0  0  0  0  0
  1  2  1  0  0  0  0
  3  2  1  0  0  0  0
  4  3  1  0  0  0  0
  5  4  1  0  0  0  0
  5  6  1  0  0  0  0
M  END
>  <EGIN_R>
ES LYS A 135

>  <REMARK>
  4 active torsions:
  status: ('A' for Active; 'I' for Inactive)
    5  A    between atoms: CA   and  CB  
    6  A    between atoms: CB   and  CG  
    7  A    between atoms: CG   and  CD  
    8  A    between atoms: CD   and  CE  

$$$$
