ligand_79_pose_0_2HRL.pdbqt
 OpenBabel07062320523D

 58 60  0  0  1  0  0  0  0  0999 V2000
   25.4570   36.9930   11.2330 N   0  0  0  0  0  0  0  0  0  0  0  0
   25.1440   36.4000   12.4790 C   0  0  0  0  0  0  0  0  0  0  0  0
   24.0550   36.5960   13.0230 O   0  0  0  0  0  0  0  0  0  0  0  0
   26.4310   36.7490   10.8470 H   0  0  0  0  0  0  0  0  0  0  0  0
   24.6050   37.8650   10.4730 C   0  0  0  0  0  0  0  0  0  0  0  0
   24.3210   37.4430    9.0800 C   0  0  2  0  0  0  0  0  0  0  0  0
   25.3930   37.8630    8.0860 C   0  0  1  0  0  0  0  0  0  0  0  0
   26.0790   36.6700    7.4700 C   0  0  2  0  0  0  0  0  0  0  0  0
   27.4770   35.4760    8.8800 C   0  0  2  0  0  0  0  0  0  0  0  0
   28.5420   35.2500    7.8290 C   0  0  0  0  0  0  0  0  0  0  0  0
   26.2140   35.6090    8.3190 O   0  0  0  0  0  0  0  0  0  0  0  0
   28.1020   35.7620    6.4730 C   0  0  1  0  0  0  0  0  0  0  0  0
   27.3510   37.0650    6.7510 C   0  0  1  0  0  0  0  0  0  0  0  0
   27.7680   36.5550    9.7130 O   0  0  0  0  0  0  0  0  0  0  0  0
   27.9030   37.3900    9.1790 H   0  0  0  0  0  0  0  0  0  0  0  0
   27.4490   34.2620    9.7390 C   0  0  0  0  0  0  0  0  0  0  0  0
   28.2680   33.3160    9.5090 O   0  0  0  0  0  0  0  0  0  0  0  0
   26.5750   34.0940   10.7870 O   0  0  0  0  0  0  0  0  0  0  0  0
   26.7000   34.5330   11.6910 H   0  0  0  0  0  0  0  0  0  0  0  0
   29.1570   35.9600    5.6150 O   0  0  0  0  0  0  0  0  0  0  0  0
   28.7790   36.2190    4.7150 H   0  0  0  0  0  0  0  0  0  0  0  0
   27.0270   37.7580    5.5340 N   0  0  0  0  0  0  0  0  0  0  0  0
   27.6020   39.0370    5.2080 C   0  0  0  0  0  0  0  0  0  0  0  0
   26.3600   37.3830    4.8150 H   0  0  0  0  0  0  0  0  0  0  0  0
   27.2990   39.7750    3.9820 C   0  0  0  0  0  0  0  0  0  0  0  0
   28.4150   39.5160    6.0630 O   0  0  0  0  0  0  0  0  0  0  0  0
   24.7190   38.5790    7.0920 O   0  0  0  0  0  0  0  0  0  0  0  0
   23.7600   38.6540    7.2610 H   0  0  0  0  0  0  0  0  0  0  0  0
   23.1340   37.9900    8.6300 O   0  0  0  0  0  0  0  0  0  0  0  0
   22.7220   37.3400    8.0040 H   0  0  0  0  0  0  0  0  0  0  0  0
   26.0450   35.5700   13.1500 O   0  0  0  0  0  0  0  0  0  0  0  0
   26.9600   36.0950   14.0660 C   0  0  0  0  0  0  0  0  0  0  0  0
   28.3390   35.6550   13.7320 C   0  0  0  0  0  0  0  0  0  0  0  0
   29.5110   36.3140   14.0710 C   0  0  0  0  0  0  0  0  0  0  0  0
   28.7470   34.5620   13.0550 N   0  0  0  0  0  0  0  0  0  0  0  0
   30.5650   35.6180   13.6000 N   0  0  0  0  0  0  0  0  0  0  0  0
   30.0660   34.5590   12.9880 N   0  0  0  0  0  0  0  0  0  0  0  0
   31.9860   35.9860   13.7520 C   0  0  0  0  0  0  0  0  0  0  0  0
   32.5930   36.1580   12.4020 C   0  0  0  0  0  0  0  0  0  0  0  0
   31.9310   37.3310   14.5010 C   0  0  0  0  0  0  0  0  0  0  0  0
   32.6030   34.9920   14.6280 C   0  0  0  0  0  0  0  0  0  0  0  0
   33.6480   34.3500   14.2610 O   0  0  0  0  0  0  0  0  0  0  0  0
   32.1210   34.6300   15.9560 C   0  0  0  0  0  0  0  0  0  0  0  0
   32.2580   35.4190   17.0970 C   0  0  0  0  0  0  0  0  0  0  0  0
   31.4900   33.4570   16.2800 C   0  0  0  0  0  0  0  0  0  0  0  0
   31.7170   34.7270   18.0960 N   0  0  0  0  0  0  0  0  0  0  0  0
   31.2430   33.5430   17.6540 C   0  0  0  0  0  0  0  0  0  0  0  0
   31.0880   32.3280   15.5720 C   0  0  0  0  0  0  0  0  0  0  0  0
   31.6590   35.0370   19.0770 H   0  0  0  0  0  0  0  0  0  0  0  0
   30.6000   32.4850   18.2670 C   0  0  0  0  0  0  0  0  0  0  0  0
   30.4560   31.3020   16.2100 C   0  0  0  0  0  0  0  0  0  0  0  0
   30.2120   31.3790   17.5500 C   0  0  0  0  0  0  0  0  0  0  0  0
   29.8670   25.5550   16.9770 C   0  0  0  0  0  0  0  0  0  0  0  0
   28.3450   25.7220   17.0260 C   0  0  0  0  0  0  0  0  0  0  0  0
   27.5990   24.4350   16.7110 C   0  0  0  0  0  0  0  0  0  0  0  0
   27.0280   23.7950   17.9460 C   0  0  0  0  0  0  0  0  0  0  0  0
   25.6230   24.3350   18.1960 C   0  0  0  0  0  0  0  0  0  0  0  0
   24.9020   24.5190   16.9150 N   0  0  0  0  0  0  0  0  0  0  0  0
  1  2  1  0  0  0  0
  2  3  2  0  0  0  0
  2 31  1  0  0  0  0
  4  1  1  0  0  0  0
  5  1  1  0  0  0  0
  6  5  1  1  0  0  0
  7 27  1  6  0  0  0
  7  6  1  0  0  0  0
  8  7  1  1  0  0  0
  8 11  1  0  0  0  0
  9 14  1  1  0  0  0
  9 16  1  0  0  0  0
 10  9  1  0  0  0  0
 11  9  1  0  0  0  0
 12 20  1  6  0  0  0
 12 13  1  0  0  0  0
 12 10  1  0  0  0  0
 13 22  1  6  0  0  0
 13  8  1  0  0  0  0
 15 14  1  0  0  0  0
 16 18  1  0  0  0  0
 17 16  2  0  0  0  0
 18 19  1  0  0  0  0
 21 20  1  0  0  0  0
 23 22  1  0  0  0  0
 23 26  2  0  0  0  0
 24 22  1  0  0  0  0
 25 23  1  0  0  0  0
 27 28  1  0  0  0  0
 29  6  1  0  0  0  0
 30 29  1  0  0  0  0
 31 32  1  0  0  0  0
 33 32  1  0  0  0  0
 33 34  2  0  0  0  0
 35 33  1  0  0  0  0
 36 38  1  0  0  0  0
 36 34  1  0  0  0  0
 37 35  2  0  0  0  0
 37 36  1  0  0  0  0
 38 40  1  0  0  0  0
 38 41  1  0  0  0  0
 39 38  1  0  0  0  0
 41 43  1  0  0  0  0
 42 41  2  0  0  0  0
 43 45  1  0  0  0  0
 43 44  2  0  0  0  0
 44 46  1  0  0  0  0
 45 47  2  0  0  0  0
 46 49  1  0  0  0  0
 47 46  1  0  0  0  0
 47 50  1  0  0  0  0
 48 51  2  0  0  0  0
 48 45  1  0  0  0  0
 51 52  1  0  0  0  0
 52 50  2  0  0  0  0
 53 54  1  0  0  0  0
 55 54  1  0  0  0  0
 55 56  1  0  0  0  0
 56 57  1  0  0  0  0
 58 57  1  0  0  0  0
M  END
>  <REMARK>
 VINA RESULT:    -6.706      0.000      0.000
 INTER + INTRA:         -17.167
 INTER:                 -12.138
 INTRA:                  -5.029
 UNBOUND:                -4.777
 SMILES CC(=O)N[C@@H]1[C@@H](O)C[C@](O)(C(=O)O)O[C@H]1C(O)[C@H](O)CNC(=O)OCc1cn(C(C)(C)C(=O)c2c[nH]c3ccccc23)nn1
 SMILES IDX 21 1 22 2 23 3 20 5 18 6 16 7 15 8 9 9 8 10 14 11 6 12 5 13
 SMILES IDX 10 14 11 16 12 17 13 18 7 20 4 22 2 23 1 25 3 26 17 27 19 29
 SMILES IDX 24 31 25 32 26 33 27 34 44 35 28 36 43 37 29 38 30 39 31 40
 SMILES IDX 32 41 33 42 34 43 35 44 42 45 36 46 37 47 41 48 38 50 40 51
 SMILES IDX 39 52
 H PARENT 21 4 10 15 13 19 7 21 4 24 17 28 19 30 36 49
 Flexibility Score: inf
  4 active torsions:
  status: ('A' for Active; 'I' for Inactive)
    1  A    between atoms: CA   and  CB  
    2  A    between atoms: CB   and  CG  
    3  A    between atoms: CG   and  CD  
    4  A    between atoms: CD   and  CE  

>  <TORSDO>
F 17

>  <BEGIN_>
RES LYS A 131

$$$$
ligand_79_pose_0_2HRL.pdbqt
 OpenBabel07062320523D

  6  5  0  0  0  0  0  0  0  0999 V2000
   33.1930   34.6630    9.2900 C   0  0  0  0  0  0  0  0  0  0  0  0
   32.0600   35.3600   10.0340 C   0  0  0  0  0  0  0  0  0  0  0  0
   31.1130   36.1050    9.1290 C   0  0  0  0  0  0  0  0  0  0  0  0
   31.0540   37.5770    9.5090 C   0  0  0  0  0  0  0  0  0  0  0  0
   30.7260   38.4270    8.2970 C   0  0  0  0  0  0  0  0  0  0  0  0
   31.7190   39.5240    8.1270 N   0  0  0  0  0  0  0  0  0  0  0  0
  1  2  1  0  0  0  0
  3  4  1  0  0  0  0
  3  2  1  0  0  0  0
  5  4  1  0  0  0  0
  6  5  1  0  0  0  0
M  END
>  <EGIN_R>
ES LYS A 135

>  <REMARK>
  4 active torsions:
  status: ('A' for Active; 'I' for Inactive)
    5  A    between atoms: CA   and  CB  
    6  A    between atoms: CB   and  CG  
    7  A    between atoms: CG   and  CD  
    8  A    between atoms: CD   and  CE  

$$$$
