ligand_51_pose_0_2HRL.pdbqt
 OpenBabel07062320523D

 53 56  0  0  1  0  0  0  0  0999 V2000
   26.9700   28.5580   19.9880 C   0  0  0  0  0  0  0  0  0  0  0  0
   28.3250   28.2000   20.5430 C   0  0  2  0  0  0  0  0  0  0  0  0
   29.2510   29.3960   20.6370 C   0  0  1  0  0  0  0  0  0  0  0  0
   29.9560   29.4110   21.9970 C   0  0  2  0  0  0  0  0  0  0  0  0
   32.1960   28.7260   21.8760 C   0  0  2  0  0  0  0  0  0  0  0  0
   31.6620   27.3170   21.8030 C   0  0  0  0  0  0  0  0  0  0  0  0
   31.2770   29.7160   21.9100 O   0  0  0  0  0  0  0  0  0  0  0  0
   30.6170   27.1250   22.8450 C   0  0  1  0  0  0  0  0  0  0  0  0
   29.6070   28.2410   22.8400 C   0  0  1  0  0  0  0  0  0  0  0  0
   32.9440   28.8910   20.6860 O   0  0  0  0  0  0  0  0  0  0  0  0
   32.3280   28.6910   19.9330 H   0  0  0  0  0  0  0  0  0  0  0  0
   33.1660   28.7660   22.9980 C   0  0  0  0  0  0  0  0  0  0  0  0
   32.9900   29.4920   24.0150 O   0  0  0  0  0  0  0  0  0  0  0  0
   34.3050   27.9910   22.9490 O   0  0  0  0  0  0  0  0  0  0  0  0
   34.5890   27.3780   23.7140 H   0  0  0  0  0  0  0  0  0  0  0  0
   30.0140   25.8670   22.6140 O   0  0  0  0  0  0  0  0  0  0  0  0
   30.5410   25.3600   21.9600 H   0  0  0  0  0  0  0  0  0  0  0  0
   29.3830   28.7020   24.2040 N   0  0  0  0  0  0  0  0  0  0  0  0
   28.0820   28.8690   24.7460 C   0  0  0  0  0  0  0  0  0  0  0  0
   30.2160   28.9250   24.8240 H   0  0  0  0  0  0  0  0  0  0  0  0
   27.9490   29.3390   26.1330 C   0  0  0  0  0  0  0  0  0  0  0  0
   27.0860   28.6040   24.0070 O   0  0  0  0  0  0  0  0  0  0  0  0
   30.1210   29.4930   19.5940 O   0  0  0  0  0  0  0  0  0  0  0  0
   29.9590   28.9220   18.8280 H   0  0  0  0  0  0  0  0  0  0  0  0
   28.8550   27.1920   19.7440 O   0  0  0  0  0  0  0  0  0  0  0  0
   29.4010   26.5770   20.3310 H   0  0  0  0  0  0  0  0  0  0  0  0
   27.1830   29.5510   18.9500 N   0  0  0  0  0  0  0  0  0  0  0  0
   27.2470   29.1960   17.5600 C   0  0  0  0  0  0  0  0  0  0  0  0
   27.3010   30.5730   19.1500 H   0  0  0  0  0  0  0  0  0  0  0  0
   27.1100   27.9820   17.2670 O   0  0  0  0  0  0  0  0  0  0  0  0
   27.4470   30.1240   16.5680 O   0  0  0  0  0  0  0  0  0  0  0  0
   28.5260   29.9550   15.6740 C   0  0  0  0  0  0  0  0  0  0  0  0
   29.4930   31.0700   15.9300 C   0  0  0  0  0  0  0  0  0  0  0  0
   29.6650   32.1540   15.0900 C   0  0  0  0  0  0  0  0  0  0  0  0
   30.3420   31.2610   16.9360 N   0  0  0  0  0  0  0  0  0  0  0  0
   30.5950   32.9380   15.6160 N   0  0  0  0  0  0  0  0  0  0  0  0
   30.9990   32.3840   16.7400 N   0  0  0  0  0  0  0  0  0  0  0  0
   31.0590   34.1920   15.0170 C   0  0  2  0  0  0  0  0  0  0  0  0
   30.5050   34.2180   13.5990 C   0  0  0  0  0  0  0  0  0  0  0  0
   32.5550   34.2510   14.9950 C   0  0  0  0  0  0  0  0  0  0  0  0
   30.5330   35.3540   15.8220 C   0  0  0  0  0  0  0  0  0  0  0  0
   30.9280   35.5090   12.9250 C   0  0  1  0  0  0  0  0  0  0  0  0
   32.9690   35.5130   14.2710 C   0  0  1  0  0  0  0  0  0  0  0  0
   30.9410   36.6420   15.1410 C   0  0  2  0  0  0  0  0  0  0  0  0
   30.3910   36.6590   13.7260 C   0  0  0  0  0  0  0  0  0  0  0  0
   32.4350   35.5240   12.8690 C   0  0  0  0  0  0  0  0  0  0  0  0
   32.4490   36.6830   15.0740 C   0  0  0  0  0  0  0  0  0  0  0  0
   29.8670   25.5550   16.9770 C   0  0  0  0  0  0  0  0  0  0  0  0
   28.3450   25.7220   17.0260 C   0  0  0  0  0  0  0  0  0  0  0  0
   27.6010   24.4020   16.8910 C   0  0  0  0  0  0  0  0  0  0  0  0
   26.1540   24.5250   17.2810 C   0  0  0  0  0  0  0  0  0  0  0  0
   26.0530   24.8190   18.7740 C   0  0  0  0  0  0  0  0  0  0  0  0
   25.5400   23.6350   19.5020 N   0  0  0  0  0  0  0  0  0  0  0  0
  2  1  1  6  0  0  0
  2  3  1  0  0  0  0
  3 23  1  6  0  0  0
  4  3  1  6  0  0  0
  4  9  1  0  0  0  0
  5 10  1  6  0  0  0
  5  7  1  0  0  0  0
  5 12  1  0  0  0  0
  6  5  1  0  0  0  0
  6  8  1  0  0  0  0
  7  4  1  0  0  0  0
  8 16  1  6  0  0  0
  9  8  1  0  0  0  0
  9 18  1  1  0  0  0
 11 10  1  0  0  0  0
 12 13  2  0  0  0  0
 14 12  1  0  0  0  0
 14 15  1  0  0  0  0
 17 16  1  0  0  0  0
 18 19  1  0  0  0  0
 18 20  1  0  0  0  0
 19 21  1  0  0  0  0
 22 19  2  0  0  0  0
 24 23  1  0  0  0  0
 25 26  1  0  0  0  0
 25  2  1  0  0  0  0
 27 29  1  0  0  0  0
 27  1  1  0  0  0  0
 28 27  1  0  0  0  0
 30 28  2  0  0  0  0
 31 28  1  0  0  0  0
 32 33  1  0  0  0  0
 32 31  1  0  0  0  0
 33 35  1  0  0  0  0
 34 36  1  0  0  0  0
 34 33  2  0  0  0  0
 36 37  1  0  0  0  0
 37 35  2  0  0  0  0
 38 39  1  6  0  0  0
 38 36  1  0  0  0  0
 38 41  1  0  0  0  0
 40 38  1  0  0  0  0
 42 46  1  1  0  0  0
 42 39  1  0  0  0  0
 42 45  1  0  0  0  0
 43 46  1  6  0  0  0
 43 40  1  0  0  0  0
 43 47  1  0  0  0  0
 44 45  1  6  0  0  0
 44 41  1  0  0  0  0
 47 44  1  0  0  0  0
 48 49  1  0  0  0  0
 50 49  1  0  0  0  0
 50 51  1  0  0  0  0
 51 52  1  0  0  0  0
 52 53  1  0  0  0  0
M  END
>  <REMARK>
 VINA RESULT:    -5.259      0.000      0.000
 INTER + INTRA:         -15.656
 INTER:                 -10.209
 INTRA:                  -5.447
 UNBOUND:                -6.554
 SMILES CC(=O)N[C@@H]1[C@@H](O)C[C@](O)(C(=O)O)O[C@H]1C(O)[C@H](O)CNC(=O)OCc1cn(C23CC4CC(CC(C4)C2)C3)nn1
 SMILES IDX 20 1 18 2 16 3 15 4 9 5 8 6 14 7 6 8 5 9 10 10 11 12 12 13
 SMILES IDX 13 14 7 16 4 18 2 19 1 21 3 22 17 23 19 25 21 27 22 28 23 30
 SMILES IDX 24 31 25 32 26 33 27 34 40 35 28 36 39 37 29 38 38 39 37 40
 SMILES IDX 30 41 33 42 35 43 31 44 32 45 34 46 36 47
 H PARENT 10 11 13 15 7 17 4 20 17 24 19 26 21 29
 Flexibility Score: inf
  4 active torsions:
  status: ('A' for Active; 'I' for Inactive)
    1  A    between atoms: CA   and  CB  
    2  A    between atoms: CB   and  CG  
    3  A    between atoms: CG   and  CD  
    4  A    between atoms: CD   and  CE  

>  <TORSDO>
F 15

>  <BEGIN_>
RES LYS A 131

$$$$
ligand_51_pose_0_2HRL.pdbqt
 OpenBabel07062320523D

  6  5  0  0  0  0  0  0  0  0999 V2000
   33.1930   34.6630    9.2900 C   0  0  0  0  0  0  0  0  0  0  0  0
   32.0600   35.3600   10.0340 C   0  0  0  0  0  0  0  0  0  0  0  0
   30.7910   35.4740    9.2290 C   0  0  0  0  0  0  0  0  0  0  0  0
   30.1790   34.1010    8.9960 C   0  0  0  0  0  0  0  0  0  0  0  0
   28.7510   34.0610    9.5060 C   0  0  0  0  0  0  0  0  0  0  0  0
   27.7940   34.5090    8.4570 N   0  0  0  0  0  0  0  0  0  0  0  0
  1  2  1  0  0  0  0
  3  2  1  0  0  0  0
  4  3  1  0  0  0  0
  4  5  1  0  0  0  0
  6  5  1  0  0  0  0
M  END
>  <EGIN_R>
ES LYS A 135

>  <REMARK>
  4 active torsions:
  status: ('A' for Active; 'I' for Inactive)
    5  A    between atoms: CA   and  CB  
    6  A    between atoms: CB   and  CG  
    7  A    between atoms: CG   and  CD  
    8  A    between atoms: CD   and  CE  

$$$$
