ligand_13_pose_0_2HRL.pdbqt
 OpenBabel07062320523D

 49 49  0  0  1  0  0  0  0  0999 V2000
   27.8480   29.0760   17.8480 N   0  0  0  0  0  0  0  0  0  0  0  0
   27.1140   28.7090   18.9980 C   0  0  0  0  0  0  0  0  0  0  0  0
   25.8840   28.5940   18.9940 O   0  0  0  0  0  0  0  0  0  0  0  0
   28.9080   29.1260   18.0150 H   0  0  0  0  0  0  0  0  0  0  0  0
   27.3150   29.3680   16.5570 C   0  0  0  0  0  0  0  0  0  0  0  0
   27.3210   30.7930   16.1250 C   0  0  2  0  0  0  0  0  0  0  0  0
   28.6440   31.2900   15.6630 C   0  0  1  0  0  0  0  0  0  0  0  0
   28.9840   32.7090   16.0310 C   0  0  2  0  0  0  0  0  0  0  0  0
   30.5300   33.6300   14.5370 C   0  0  2  0  0  0  0  0  0  0  0  0
   31.0580   34.6630   15.5090 C   0  0  0  0  0  0  0  0  0  0  0  0
   29.2270   33.3700   14.8290 O   0  0  0  0  0  0  0  0  0  0  0  0
   30.7260   34.2540   16.8960 C   0  0  1  0  0  0  0  0  0  0  0  0
   30.1360   32.8370   16.9870 C   0  0  1  0  0  0  0  0  0  0  0  0
   31.3980   32.5540   14.5850 O   0  0  0  0  0  0  0  0  0  0  0  0
   31.2650   32.0240   13.7660 H   0  0  0  0  0  0  0  0  0  0  0  0
   30.5930   34.2470   13.1930 C   0  0  0  0  0  0  0  0  0  0  0  0
   29.5230   34.5230   12.6100 O   0  0  0  0  0  0  0  0  0  0  0  0
   31.7890   34.5210   12.5800 O   0  0  0  0  0  0  0  0  0  0  0  0
   32.2950   35.3920   12.7380 H   0  0  0  0  0  0  0  0  0  0  0  0
   31.8010   34.3410   17.7770 O   0  0  0  0  0  0  0  0  0  0  0  0
   32.5990   33.8610   17.4770 H   0  0  0  0  0  0  0  0  0  0  0  0
   29.7030   32.7290   18.3650 N   0  0  0  0  0  0  0  0  0  0  0  0
   29.8920   31.6080   19.1910 C   0  0  0  0  0  0  0  0  0  0  0  0
   29.2130   33.5540   18.7730 H   0  0  0  0  0  0  0  0  0  0  0  0
   29.4410   31.5180   20.6010 C   0  0  0  0  0  0  0  0  0  0  0  0
   30.4910   30.6100   18.6820 O   0  0  0  0  0  0  0  0  0  0  0  0
   29.6500   30.4040   15.9660 O   0  0  0  0  0  0  0  0  0  0  0  0
   29.9780   29.8760   15.1960 H   0  0  0  0  0  0  0  0  0  0  0  0
   26.9760   31.5850   17.2400 O   0  0  0  0  0  0  0  0  0  0  0  0
   27.8000   31.9800   17.6520 H   0  0  0  0  0  0  0  0  0  0  0  0
   27.7730   28.4560   20.2230 O   0  0  0  0  0  0  0  0  0  0  0  0
   28.7080   27.4000   20.3420 C   0  0  0  0  0  0  0  0  0  0  0  0
   29.4670   27.6390   21.5980 C   0  0  0  0  0  0  0  0  0  0  0  0
   30.6230   27.0250   22.0210 C   0  0  0  0  0  0  0  0  0  0  0  0
   29.1630   28.5220   22.5890 N   0  0  0  0  0  0  0  0  0  0  0  0
   30.9540   27.5610   23.2290 N   0  0  0  0  0  0  0  0  0  0  0  0
   30.0460   28.4680   23.5440 N   0  0  0  0  0  0  0  0  0  0  0  0
   32.0890   27.2310   24.0590 C   0  0  0  0  0  0  0  0  0  0  0  0
   33.3520   27.4570   23.3410 C   0  0  0  0  0  0  0  0  0  0  0  0
   34.2550   26.5950   23.4080 O   0  0  0  0  0  0  0  0  0  0  0  0
   33.4970   28.6340   22.6060 O   0  0  0  0  0  0  0  0  0  0  0  0
   34.6300   29.4400   22.9450 C   0  0  0  0  0  0  0  0  0  0  0  0
   34.5330   30.7240   22.1610 C   0  0  0  0  0  0  0  0  0  0  0  0
   29.8670   25.5550   16.9770 C   0  0  0  0  0  0  0  0  0  0  0  0
   28.3450   25.7220   17.0260 C   0  0  0  0  0  0  0  0  0  0  0  0
   27.6010   24.4020   16.8890 C   0  0  0  0  0  0  0  0  0  0  0  0
   26.1720   24.5080   17.3460 C   0  0  0  0  0  0  0  0  0  0  0  0
   26.1330   25.0260   18.7800 C   0  0  0  0  0  0  0  0  0  0  0  0
   24.7430   25.3520   19.1760 N   0  0  0  0  0  0  0  0  0  0  0  0
  1  4  1  0  0  0  0
  1  2  1  0  0  0  0
  2 31  1  0  0  0  0
  3  2  2  0  0  0  0
  5  1  1  0  0  0  0
  6  5  1  1  0  0  0
  6 29  1  0  0  0  0
  7 27  1  1  0  0  0
  7  6  1  0  0  0  0
  8  7  1  6  0  0  0
  8 13  1  0  0  0  0
  9 16  1  6  0  0  0
  9 14  1  0  0  0  0
  9 11  1  0  0  0  0
  9 10  1  0  0  0  0
 10 12  1  0  0  0  0
 11  8  1  0  0  0  0
 12 13  1  0  0  0  0
 12 20  1  1  0  0  0
 13 22  1  1  0  0  0
 15 14  1  0  0  0  0
 17 16  2  0  0  0  0
 18 19  1  0  0  0  0
 18 16  1  0  0  0  0
 21 20  1  0  0  0  0
 22 24  1  0  0  0  0
 22 23  1  0  0  0  0
 23 25  1  0  0  0  0
 26 23  2  0  0  0  0
 28 27  1  0  0  0  0
 29 30  1  0  0  0  0
 31 32  1  0  0  0  0
 32 33  1  0  0  0  0
 33 34  2  0  0  0  0
 33 35  1  0  0  0  0
 34 36  1  0  0  0  0
 35 37  2  0  0  0  0
 36 37  1  0  0  0  0
 36 38  1  0  0  0  0
 39 40  2  0  0  0  0
 39 38  1  0  0  0  0
 41 42  1  0  0  0  0
 41 39  1  0  0  0  0
 43 42  1  0  0  0  0
 44 45  1  0  0  0  0
 46 45  1  0  0  0  0
 46 47  1  0  0  0  0
 47 48  1  0  0  0  0
 48 49  1  0  0  0  0
M  END
>  <REMARK>
 VINA RESULT:    -4.566      0.000      0.000
 INTER + INTRA:         -14.654
 INTER:                  -8.738
 INTRA:                  -5.916
 UNBOUND:                -5.949
 SMILES CCOC(=O)Cn1cc(COC(=O)NC[C@@H](O)C(O)[C@@H]2O[C@@](O)(C(=O)O)C[C@H](O)[C@H]2NC(C)=O)nn1
 SMILES IDX 14 1 12 2 13 3 15 5 16 6 18 7 20 8 22 9 27 10 21 11 28 12
 SMILES IDX 30 13 23 14 24 16 25 17 26 18 29 20 31 22 32 23 33 25 34 26
 SMILES IDX 19 27 17 29 11 31 10 32 9 33 8 34 35 35 7 36 36 37 6 38 4 39
 SMILES IDX 5 40 3 41 2 42 1 43
 H PARENT 14 4 23 15 26 19 29 21 31 24 19 28 17 30
 Flexibility Score: inf
  4 active torsions:
  status: ('A' for Active; 'I' for Inactive)
    1  A    between atoms: CA   and  CB  
    2  A    between atoms: CB   and  CG  
    3  A    between atoms: CG   and  CD  
    4  A    between atoms: CD   and  CE  

>  <TORSDO>
F 18

>  <BEGIN_>
RES LYS A 131

$$$$
ligand_13_pose_0_2HRL.pdbqt
 OpenBabel07062320523D

  6  5  0  0  0  0  0  0  0  0999 V2000
   33.1930   34.6630    9.2900 C   0  0  0  0  0  0  0  0  0  0  0  0
   32.0600   35.3600   10.0340 C   0  0  0  0  0  0  0  0  0  0  0  0
   30.8090   35.5240    9.2100 C   0  0  0  0  0  0  0  0  0  0  0  0
   30.0990   34.1890    9.0410 C   0  0  0  0  0  0  0  0  0  0  0  0
   28.6270   34.4030    8.7470 C   0  0  0  0  0  0  0  0  0  0  0  0
   27.7740   33.6080    9.6730 N   0  0  0  0  0  0  0  0  0  0  0  0
  1  2  1  0  0  0  0
  3  2  1  0  0  0  0
  4  3  1  0  0  0  0
  5  4  1  0  0  0  0
  5  6  1  0  0  0  0
M  END
>  <EGIN_R>
ES LYS A 135

>  <REMARK>
  4 active torsions:
  status: ('A' for Active; 'I' for Inactive)
    5  A    between atoms: CA   and  CB  
    6  A    between atoms: CB   and  CG  
    7  A    between atoms: CG   and  CD  
    8  A    between atoms: CD   and  CE  

$$$$
