ligand_47_pose_0_2HRL.pdbqt
 OpenBabel07062320523D

 62 64  0  0  1  0  0  0  0  0999 V2000
   31.3700   33.0740   15.8180 N   0  0  0  0  0  0  0  0  0  0  0  0
   32.2090   34.2160   15.7530 C   0  0  0  0  0  0  0  0  0  0  0  0
   32.2330   35.0320   16.7200 O   0  0  0  0  0  0  0  0  0  0  0  0
   31.4070   32.4400   14.9660 H   0  0  0  0  0  0  0  0  0  0  0  0
   30.5210   32.7730   16.9450 C   0  0  0  0  0  0  0  0  0  0  0  0
   29.1010   32.3910   16.5240 C   0  0  2  0  0  0  0  0  0  0  0  0
   29.1870   31.0020   15.9700 C   0  0  2  0  0  0  0  0  0  0  0  0
   28.0240   30.1320   16.3510 C   0  0  2  0  0  0  0  0  0  0  0  0
   25.7060   30.1670   16.3330 C   0  0  2  0  0  0  0  0  0  0  0  0
   25.7930   28.8620   17.0830 C   0  0  0  0  0  0  0  0  0  0  0  0
   26.8760   30.5810   15.7600 O   0  0  0  0  0  0  0  0  0  0  0  0
   26.9140   28.8170   18.0630 C   0  0  1  0  0  0  0  0  0  0  0  0
   27.8220   30.0260   17.8440 C   0  0  1  0  0  0  0  0  0  0  0  0
   25.2090   31.1300   17.2170 O   0  0  0  0  0  0  0  0  0  0  0  0
   25.8530   31.3010   17.9570 H   0  0  0  0  0  0  0  0  0  0  0  0
   24.7040   29.9810   15.2560 C   0  0  0  0  0  0  0  0  0  0  0  0
   23.5660   29.5390   15.5450 O   0  0  0  0  0  0  0  0  0  0  0  0
   24.9860   30.2820   13.9400 O   0  0  0  0  0  0  0  0  0  0  0  0
   24.2150   30.4090   13.2700 H   0  0  0  0  0  0  0  0  0  0  0  0
   26.5370   28.6740   19.3750 O   0  0  0  0  0  0  0  0  0  0  0  0
   25.5900   28.3850   19.4440 H   0  0  0  0  0  0  0  0  0  0  0  0
   29.0890   29.8230   18.5330 N   0  0  0  0  0  0  0  0  0  0  0  0
   29.3630   30.5970   19.6850 C   0  0  0  0  0  0  0  0  0  0  0  0
   29.7510   29.1220   18.1670 H   0  0  0  0  0  0  0  0  0  0  0  0
   30.6330   30.4320   20.4240 C   0  0  0  0  0  0  0  0  0  0  0  0
   28.5300   31.4410   20.0990 O   0  0  0  0  0  0  0  0  0  0  0  0
   30.4150   30.4410   16.2560 O   0  0  0  0  0  0  0  0  0  0  0  0
   30.3570   29.6890   16.9100 H   0  0  0  0  0  0  0  0  0  0  0  0
   28.7390   33.3110   15.5240 O   0  0  0  0  0  0  0  0  0  0  0  0
   29.5940   33.4920   15.0320 H   0  0  0  0  0  0  0  0  0  0  0  0
   33.0060   34.4610   14.6520 O   0  0  0  0  0  0  0  0  0  0  0  0
   32.6180   35.4010   13.6420 C   0  0  0  0  0  0  0  0  0  0  0  0
   31.1800   35.2630   13.3220 C   0  0  0  0  0  0  0  0  0  0  0  0
   30.2720   36.3260   13.2020 C   0  0  0  0  0  0  0  0  0  0  0  0
   30.4420   34.1720   13.0860 N   0  0  0  0  0  0  0  0  0  0  0  0
   29.0580   35.8620   12.9060 N   0  0  0  0  0  0  0  0  0  0  0  0
   29.1910   34.5170   12.8380 N   0  0  0  0  0  0  0  0  0  0  0  0
   27.7940   36.4930   12.6570 C   0  0  0  0  0  0  0  0  0  0  0  0
   26.5750   35.6690   12.9070 C   0  0  1  0  0  0  0  0  0  0  0  0
   26.0090   35.9370   14.2290 C   0  0  0  0  0  0  0  0  0  0  0  0
   25.2980   36.9090   14.5380 O   0  0  0  0  0  0  0  0  0  0  0  0
   26.2660   35.0380   15.2870 O   0  0  0  0  0  0  0  0  0  0  0  0
   25.5480   34.3510   15.5320 H   0  0  0  0  0  0  0  0  0  0  0  0
   25.5480   35.8250   11.7990 C   0  0  0  0  0  0  0  0  0  0  0  0
   24.3540   34.9820   12.0410 C   0  0  0  0  0  0  0  0  0  0  0  0
   24.4600   33.7270   12.6530 C   0  0  0  0  0  0  0  0  0  0  0  0
   23.0840   35.3880   11.6790 C   0  0  0  0  0  0  0  0  0  0  0  0
   23.3500   32.9430   12.8790 C   0  0  0  0  0  0  0  0  0  0  0  0
   21.9690   34.6200   11.8970 C   0  0  0  0  0  0  0  0  0  0  0  0
   22.0850   33.3920   12.4980 C   0  0  0  0  0  0  0  0  0  0  0  0
   26.0700   35.5280   10.4610 C   0  0  0  0  0  0  0  0  0  0  0  0
   26.8260   34.3590   10.3050 C   0  0  0  0  0  0  0  0  0  0  0  0
   25.8600   36.3280    9.3590 C   0  0  0  0  0  0  0  0  0  0  0  0
   27.3310   34.0450    9.0650 C   0  0  0  0  0  0  0  0  0  0  0  0
   26.3660   36.0160    8.1170 C   0  0  0  0  0  0  0  0  0  0  0  0
   27.1170   34.8580    7.9520 C   0  0  0  0  0  0  0  0  0  0  0  0
   29.8670   25.5550   16.9770 C   0  0  0  0  0  0  0  0  0  0  0  0
   28.3450   25.7220   17.0260 C   0  0  0  0  0  0  0  0  0  0  0  0
   27.5990   24.4230   16.7630 C   0  0  0  0  0  0  0  0  0  0  0  0
   26.9270   23.8950   18.0010 C   0  0  0  0  0  0  0  0  0  0  0  0
   25.5600   23.3270   17.6340 C   0  0  0  0  0  0  0  0  0  0  0  0
   24.7600   24.3340   16.8980 N   0  0  0  0  0  0  0  0  0  0  0  0
  1  5  1  0  0  0  0
  2  1  1  0  0  0  0
  2  3  2  0  0  0  0
  4  1  1  0  0  0  0
  6  5  1  6  0  0  0
  7 27  1  1  0  0  0
  7  6  1  0  0  0  0
  8  7  1  1  0  0  0
  8 13  1  0  0  0  0
  9 16  1  6  0  0  0
  9 10  1  0  0  0  0
  9 14  1  0  0  0  0
 10 12  1  0  0  0  0
 11  9  1  0  0  0  0
 11  8  1  0  0  0  0
 12 20  1  1  0  0  0
 13 12  1  0  0  0  0
 13 22  1  1  0  0  0
 14 15  1  0  0  0  0
 16 17  2  0  0  0  0
 18 16  1  0  0  0  0
 19 18  1  0  0  0  0
 20 21  1  0  0  0  0
 22 23  1  0  0  0  0
 23 26  2  0  0  0  0
 23 25  1  0  0  0  0
 24 22  1  0  0  0  0
 27 28  1  0  0  0  0
 29  6  1  0  0  0  0
 30 29  1  0  0  0  0
 31  2  1  0  0  0  0
 32 31  1  0  0  0  0
 33 32  1  0  0  0  0
 34 33  2  0  0  0  0
 35 33  1  0  0  0  0
 36 34  1  0  0  0  0
 37 36  1  0  0  0  0
 37 35  2  0  0  0  0
 38 36  1  0  0  0  0
 39 38  1  6  0  0  0
 39 40  1  0  0  0  0
 40 41  2  0  0  0  0
 40 42  1  0  0  0  0
 42 43  1  0  0  0  0
 44 45  1  0  0  0  0
 44 39  1  0  0  0  0
 45 46  2  0  0  0  0
 46 48  1  0  0  0  0
 47 49  2  0  0  0  0
 47 45  1  0  0  0  0
 49 50  1  0  0  0  0
 50 48  2  0  0  0  0
 51 44  1  0  0  0  0
 52 51  1  0  0  0  0
 53 51  2  0  0  0  0
 54 52  2  0  0  0  0
 55 53  1  0  0  0  0
 56 55  2  0  0  0  0
 56 54  1  0  0  0  0
 57 58  1  0  0  0  0
 59 58  1  0  0  0  0
 59 60  1  0  0  0  0
 61 60  1  0  0  0  0
 62 61  1  0  0  0  0
M  END
>  <REMARK>
 VINA RESULT:    -5.824      0.000      0.000
 INTER + INTRA:         -18.251
 INTER:                 -12.054
 INTRA:                  -6.197
 UNBOUND:                -6.299
 SMILES CC(=O)N[C@@H]1[C@@H](O)C[C@](O)(C(=O)O)O[C@H]1C(O)[C@H](O)CNC(=O)OCc1cn(C[C@@H](C(=O)O)C(c2ccccc2)c2ccccc2)nn1
 SMILES IDX 21 1 22 2 23 3 20 5 18 6 16 7 15 8 9 9 8 10 14 11 6 12 5 13
 SMILES IDX 10 14 11 16 12 17 13 18 7 20 4 22 2 23 1 25 3 26 17 27 19 29
 SMILES IDX 24 31 25 32 26 33 27 34 48 35 28 36 47 37 29 38 30 39 31 40
 SMILES IDX 32 41 33 42 34 44 35 45 36 46 40 47 37 48 39 49 38 50 41 51
 SMILES IDX 42 52 46 53 43 54 45 55 44 56
 H PARENT 21 4 10 15 13 19 7 21 4 24 17 28 19 30 33 43
 Flexibility Score: inf
  4 active torsions:
  status: ('A' for Active; 'I' for Inactive)
    1  A    between atoms: CA   and  CB  
    2  A    between atoms: CB   and  CG  
    3  A    between atoms: CG   and  CD  
    4  A    between atoms: CD   and  CE  

>  <TORSDO>
F 21

>  <BEGIN_>
RES LYS A 131

$$$$
ligand_47_pose_0_2HRL.pdbqt
 OpenBabel07062320523D

  6  5  0  0  0  0  0  0  0  0999 V2000
   33.1930   34.6630    9.2900 C   0  0  0  0  0  0  0  0  0  0  0  0
   32.0600   35.3600   10.0340 C   0  0  0  0  0  0  0  0  0  0  0  0
   30.7280   35.2550    9.3380 C   0  0  0  0  0  0  0  0  0  0  0  0
   30.3520   36.5800    8.6940 C   0  0  0  0  0  0  0  0  0  0  0  0
   29.4490   37.3810    9.6120 C   0  0  0  0  0  0  0  0  0  0  0  0
   30.1990   38.4850   10.2740 N   0  0  0  0  0  0  0  0  0  0  0  0
  1  2  1  0  0  0  0
  3  2  1  0  0  0  0
  4  3  1  0  0  0  0
  4  5  1  0  0  0  0
  5  6  1  0  0  0  0
M  END
>  <EGIN_R>
ES LYS A 135

>  <REMARK>
  4 active torsions:
  status: ('A' for Active; 'I' for Inactive)
    5  A    between atoms: CA   and  CB  
    6  A    between atoms: CB   and  CG  
    7  A    between atoms: CG   and  CD  
    8  A    between atoms: CD   and  CE  

$$$$
