ligand_37_pose_0_2HRL.pdbqt
 OpenBabel07062320523D

 55 56  0  0  1  0  0  0  0  0999 V2000
   24.7790   38.4020   11.6110 O   0  0  0  0  0  0  0  0  0  0  0  0
   24.4870   37.4370   10.6190 C   0  0  0  0  0  0  0  0  0  0  0  0
   24.2440   37.8340    9.2870 N   0  0  0  0  0  0  0  0  0  0  0  0
   24.2840   38.8860    9.1080 H   0  0  0  0  0  0  0  0  0  0  0  0
   24.4640   36.2550   11.0090 O   0  0  0  0  0  0  0  0  0  0  0  0
   23.9610   36.9150    8.2300 C   0  0  0  0  0  0  0  0  0  0  0  0
   22.5180   36.9190    7.8490 C   0  0  2  0  0  0  0  0  0  0  0  0
   21.8150   35.7060    8.4520 C   0  0  2  0  0  0  0  0  0  0  0  0
   20.6730   36.0630    9.3510 C   0  0  2  0  0  0  0  0  0  0  0  0
   18.9150   35.4270    7.9400 C   0  0  2  0  0  0  0  0  0  0  0  0
   18.7020   36.8670    7.6000 C   0  0  0  0  0  0  0  0  0  0  0  0
   19.5720   35.2190    9.1280 O   0  0  0  0  0  0  0  0  0  0  0  0
   18.8410   37.6960    8.8600 C   0  0  1  0  0  0  0  0  0  0  0  0
   20.2670   37.5000    9.3510 C   0  0  1  0  0  0  0  0  0  0  0  0
   19.5350   34.7750    6.8990 O   0  0  0  0  0  0  0  0  0  0  0  0
   19.6470   35.3490    6.0910 H   0  0  0  0  0  0  0  0  0  0  0  0
   17.5600   34.7880    8.1140 C   0  0  0  0  0  0  0  0  0  0  0  0
   17.4540   33.6230    8.5750 O   0  0  0  0  0  0  0  0  0  0  0  0
   16.3870   35.4480    7.7780 O   0  0  0  0  0  0  0  0  0  0  0  0
   15.9020   35.2740    6.8840 H   0  0  0  0  0  0  0  0  0  0  0  0
   18.5580   39.0240    8.6090 O   0  0  0  0  0  0  0  0  0  0  0  0
   18.4690   39.5660    9.4330 H   0  0  0  0  0  0  0  0  0  0  0  0
   20.4100   38.1330   10.6670 N   0  0  0  0  0  0  0  0  0  0  0  0
   21.2640   39.2530   10.8920 C   0  0  0  0  0  0  0  0  0  0  0  0
   19.8770   37.7710   11.5010 H   0  0  0  0  0  0  0  0  0  0  0  0
   21.3680   39.8540   12.2570 C   0  0  0  0  0  0  0  0  0  0  0  0
   21.9240   39.7290    9.9400 O   0  0  0  0  0  0  0  0  0  0  0  0
   22.7470   34.9710    9.1950 O   0  0  0  0  0  0  0  0  0  0  0  0
   23.6300   35.0110    8.7360 H   0  0  0  0  0  0  0  0  0  0  0  0
   22.3980   36.8840    6.4600 O   0  0  0  0  0  0  0  0  0  0  0  0
   22.9650   36.1680    6.0480 H   0  0  0  0  0  0  0  0  0  0  0  0
   26.0630   38.3990   12.2000 C   0  0  0  0  0  0  0  0  0  0  0  0
   27.1320   38.2160   11.2000 C   0  0  0  0  0  0  0  0  0  0  0  0
   27.4280   38.9860   10.1000 C   0  0  0  0  0  0  0  0  0  0  0  0
   28.0380   37.2240   11.2000 N   0  0  0  0  0  0  0  0  0  0  0  0
   28.4940   38.4500    9.4610 N   0  0  0  0  0  0  0  0  0  0  0  0
   28.8400   37.3930   10.1440 N   0  0  0  0  0  0  0  0  0  0  0  0
   29.1050   38.9670    8.2660 C   0  0  1  0  0  0  0  0  0  0  0  0
   30.5750   38.6100    8.2350 C   0  0  0  0  0  0  0  0  0  0  0  0
   28.3740   38.4750    7.0910 C   0  0  0  0  0  0  0  0  0  0  0  0
   27.2460   38.9750    6.8030 O   0  0  0  0  0  0  0  0  0  0  0  0
   28.8630   37.4790    6.2720 O   0  0  0  0  0  0  0  0  0  0  0  0
   28.2650   36.2490    6.0080 C   0  0  0  0  0  0  0  0  0  0  0  0
   28.3350   35.3990    7.2290 C   0  0  0  0  0  0  0  0  0  0  0  0
   29.5510   34.9480    7.6940 C   0  0  0  0  0  0  0  0  0  0  0  0
   27.1890   35.0660    7.8980 C   0  0  0  0  0  0  0  0  0  0  0  0
   29.6200   34.1670    8.8220 C   0  0  0  0  0  0  0  0  0  0  0  0
   27.2280   34.2900    9.0230 C   0  0  0  0  0  0  0  0  0  0  0  0
   28.4430   33.8420    9.4830 C   0  0  0  0  0  0  0  0  0  0  0  0
   29.8670   25.5550   16.9770 C   0  0  0  0  0  0  0  0  0  0  0  0
   28.3450   25.7220   17.0260 C   0  0  0  0  0  0  0  0  0  0  0  0
   27.6010   24.4040   16.8780 C   0  0  0  0  0  0  0  0  0  0  0  0
   26.5630   24.2160   17.9490 C   0  0  0  0  0  0  0  0  0  0  0  0
   25.3960   25.1650   17.6990 C   0  0  0  0  0  0  0  0  0  0  0  0
   24.4000   24.5380   16.7990 N   0  0  0  0  0  0  0  0  0  0  0  0
  1 32  1  0  0  0  0
  2  5  2  0  0  0  0
  2  1  1  0  0  0  0
  3  2  1  0  0  0  0
  4  3  1  0  0  0  0
  6  3  1  0  0  0  0
  7  6  1  6  0  0  0
  7  8  1  0  0  0  0
  8 28  1  1  0  0  0
  9  8  1  6  0  0  0
 10 15  1  6  0  0  0
 10 17  1  0  0  0  0
 10 12  1  0  0  0  0
 11 10  1  0  0  0  0
 11 13  1  0  0  0  0
 12  9  1  0  0  0  0
 13 21  1  6  0  0  0
 13 14  1  0  0  0  0
 14  9  1  0  0  0  0
 14 23  1  1  0  0  0
 16 15  1  0  0  0  0
 17 18  2  0  0  0  0
 19 17  1  0  0  0  0
 20 19  1  0  0  0  0
 21 22  1  0  0  0  0
 23 24  1  0  0  0  0
 23 25  1  0  0  0  0
 24 26  1  0  0  0  0
 27 24  2  0  0  0  0
 29 28  1  0  0  0  0
 30  7  1  0  0  0  0
 31 30  1  0  0  0  0
 33 32  1  0  0  0  0
 34 33  2  0  0  0  0
 35 33  1  0  0  0  0
 36 34  1  0  0  0  0
 36 37  1  0  0  0  0
 37 35  2  0  0  0  0
 38 39  1  6  0  0  0
 38 36  1  0  0  0  0
 40 38  1  0  0  0  0
 41 40  2  0  0  0  0
 42 40  1  0  0  0  0
 43 42  1  0  0  0  0
 43 44  1  0  0  0  0
 44 45  2  0  0  0  0
 44 46  1  0  0  0  0
 45 47  1  0  0  0  0
 46 48  2  0  0  0  0
 47 49  2  0  0  0  0
 48 49  1  0  0  0  0
 50 51  1  0  0  0  0
 52 51  1  0  0  0  0
 52 53  1  0  0  0  0
 54 53  1  0  0  0  0
 55 54  1  0  0  0  0
M  END
>  <REMARK>
 VINA RESULT:    -6.104      0.000      0.000
 INTER + INTRA:         -17.101
 INTER:                 -11.704
 INTRA:                  -5.397
 UNBOUND:                -5.110
 SMILES CC(=O)N[C@@H]1[C@@H](O)C[C@](O)(C(=O)O)O[C@H]1C(O)[C@H](O)CNC(=O)OCc1cn([C@@H](C)C(=O)OCc2ccccc2)nn1
 SMILES IDX 24 1 22 2 21 3 23 5 20 6 18 7 16 8 15 9 9 10 8 11 14 12 6 13
 SMILES IDX 5 14 10 15 11 17 12 18 13 19 7 21 4 23 2 24 1 26 3 27 17 28
 SMILES IDX 19 30 25 32 26 33 27 34 42 35 28 36 41 37 29 38 30 39 31 40
 SMILES IDX 32 41 33 42 34 43 35 44 36 45 40 46 37 47 39 48 38 49
 H PARENT 21 4 10 16 13 20 7 22 4 25 17 29 19 31
 Flexibility Score: inf
  4 active torsions:
  status: ('A' for Active; 'I' for Inactive)
    1  A    between atoms: CA   and  CB  
    2  A    between atoms: CB   and  CG  
    3  A    between atoms: CG   and  CD  
    4  A    between atoms: CD   and  CE  

>  <TORSDO>
F 19

>  <BEGIN_>
RES LYS A 131

$$$$
ligand_37_pose_0_2HRL.pdbqt
 OpenBabel07062320523D

  6  5  0  0  0  0  0  0  0  0999 V2000
   33.1930   34.6630    9.2900 C   0  0  0  0  0  0  0  0  0  0  0  0
   32.0600   35.3600   10.0340 C   0  0  0  0  0  0  0  0  0  0  0  0
   32.5260   36.1840   11.2060 C   0  0  0  0  0  0  0  0  0  0  0  0
   31.5160   36.1220   12.3420 C   0  0  0  0  0  0  0  0  0  0  0  0
   30.7420   34.8190   12.2950 C   0  0  0  0  0  0  0  0  0  0  0  0
   29.8140   34.7050   13.4540 N   0  0  0  0  0  0  0  0  0  0  0  0
  1  2  1  0  0  0  0
  2  3  1  0  0  0  0
  3  4  1  0  0  0  0
  5  4  1  0  0  0  0
  5  6  1  0  0  0  0
M  END
>  <EGIN_R>
ES LYS A 135

>  <REMARK>
  4 active torsions:
  status: ('A' for Active; 'I' for Inactive)
    5  A    between atoms: CA   and  CB  
    6  A    between atoms: CB   and  CG  
    7  A    between atoms: CG   and  CD  
    8  A    between atoms: CD   and  CE  

$$$$
