ligand_1_pose_0_2HRL.pdbqt
 OpenBabel07062320523D

 47 47  0  0  1  0  0  0  0  0999 V2000
   29.6320   38.2170    5.6040 N   0  0  0  0  0  0  0  0  0  0  0  0
   29.5640   39.6140    5.6400 C   0  0  0  0  0  0  0  0  0  0  0  0
   28.5190   40.1880    5.3470 O   0  0  0  0  0  0  0  0  0  0  0  0
   30.5900   37.8100    5.8740 H   0  0  0  0  0  0  0  0  0  0  0  0
   28.6390   37.2710    5.2670 C   0  0  0  0  0  0  0  0  0  0  0  0
   28.3680   36.1680    6.2400 C   0  0  2  0  0  0  0  0  0  0  0  0
   27.4640   36.5990    7.3560 C   0  0  1  0  0  0  0  0  0  0  0  0
   27.9100   37.6620    8.2660 C   0  0  2  0  0  0  0  0  0  0  0  0
   29.6650   38.5670    9.4550 C   0  0  2  0  0  0  0  0  0  0  0  0
   28.7860   39.7980    9.4050 C   0  0  0  0  0  0  0  0  0  0  0  0
   29.2320   37.5420    8.6140 O   0  0  0  0  0  0  0  0  0  0  0  0
   27.3620   39.4490    9.8160 C   0  0  1  0  0  0  0  0  0  0  0  0
   27.0890   37.9710    9.4710 C   0  0  1  0  0  0  0  0  0  0  0  0
   29.6920   38.0370   10.7420 O   0  0  0  0  0  0  0  0  0  0  0  0
   30.1810   37.1860   10.7950 H   0  0  0  0  0  0  0  0  0  0  0  0
   31.0510   38.8820    9.0400 C   0  0  0  0  0  0  0  0  0  0  0  0
   31.7550   39.7510    9.6160 O   0  0  0  0  0  0  0  0  0  0  0  0
   31.6060   38.1980    7.9740 O   0  0  0  0  0  0  0  0  0  0  0  0
   31.4510   37.1840    7.8830 H   0  0  0  0  0  0  0  0  0  0  0  0
   27.2160   39.6680   11.1790 O   0  0  0  0  0  0  0  0  0  0  0  0
   27.8870   39.0960   11.6360 H   0  0  0  0  0  0  0  0  0  0  0  0
   25.6620   37.8010    9.2860 N   0  0  0  0  0  0  0  0  0  0  0  0
   24.8950   37.2750   10.3570 C   0  0  0  0  0  0  0  0  0  0  0  0
   25.1850   38.0530    8.3860 H   0  0  0  0  0  0  0  0  0  0  0  0
   23.4260   37.0630   10.2580 C   0  0  0  0  0  0  0  0  0  0  0  0
   25.4640   36.9740   11.4310 O   0  0  0  0  0  0  0  0  0  0  0  0
   26.2670   37.0190    6.6650 O   0  0  0  0  0  0  0  0  0  0  0  0
   26.1400   36.4370    5.8960 H   0  0  0  0  0  0  0  0  0  0  0  0
   29.5080   35.5690    6.6610 O   0  0  0  0  0  0  0  0  0  0  0  0
   30.2760   36.1560    6.8100 H   0  0  0  0  0  0  0  0  0  0  0  0
   30.6630   40.3880    6.0040 O   0  0  0  0  0  0  0  0  0  0  0  0
   31.5420   40.9330    5.0430 C   0  0  0  0  0  0  0  0  0  0  0  0
   32.8180   40.1790    5.0550 C   0  0  0  0  0  0  0  0  0  0  0  0
   33.6230   39.8840    3.9830 C   0  0  0  0  0  0  0  0  0  0  0  0
   33.4030   39.6570    6.1240 N   0  0  0  0  0  0  0  0  0  0  0  0
   34.6630   39.1890    4.4800 N   0  0  0  0  0  0  0  0  0  0  0  0
   34.5350   39.0460    5.7880 N   0  0  0  0  0  0  0  0  0  0  0  0
   35.7570   38.6780    3.6790 C   0  0  0  0  0  0  0  0  0  0  0  0
   36.6110   37.7610    4.5500 C   0  0  0  0  0  0  0  0  0  0  0  0
   37.4130   36.9640    3.7090 O   0  0  0  0  0  0  0  0  0  0  0  0
   38.2690   36.7300    4.1800 H   0  0  0  0  0  0  0  0  0  0  0  0
   29.8670   25.5550   16.9770 C   0  0  0  0  0  0  0  0  0  0  0  0
   28.3450   25.7220   17.0260 C   0  0  0  0  0  0  0  0  0  0  0  0
   27.5990   24.4380   16.6960 C   0  0  0  0  0  0  0  0  0  0  0  0
   26.5950   24.0780   17.7570 C   0  0  0  0  0  0  0  0  0  0  0  0
   25.1850   24.2640   17.2070 C   0  0  0  0  0  0  0  0  0  0  0  0
   24.3850   23.0320   17.4010 N   0  0  0  0  0  0  0  0  0  0  0  0
  1  2  1  0  0  0  0
  1  4  1  0  0  0  0
  2 31  1  0  0  0  0
  3  2  2  0  0  0  0
  5  1  1  0  0  0  0
  6  5  1  1  0  0  0
  6 29  1  0  0  0  0
  6  7  1  0  0  0  0
  7 27  1  6  0  0  0
  8  7  1  1  0  0  0
  8 11  1  0  0  0  0
  8 13  1  0  0  0  0
  9 16  1  6  0  0  0
  9 14  1  0  0  0  0
 10  9  1  0  0  0  0
 10 12  1  0  0  0  0
 11  9  1  0  0  0  0
 12 20  1  1  0  0  0
 13 22  1  6  0  0  0
 13 12  1  0  0  0  0
 14 15  1  0  0  0  0
 16 17  2  0  0  0  0
 18 16  1  0  0  0  0
 19 18  1  0  0  0  0
 20 21  1  0  0  0  0
 22 23  1  0  0  0  0
 23 26  2  0  0  0  0
 24 22  1  0  0  0  0
 25 23  1  0  0  0  0
 28 27  1  0  0  0  0
 29 30  1  0  0  0  0
 32 33  1  0  0  0  0
 32 31  1  0  0  0  0
 33 35  1  0  0  0  0
 34 36  1  0  0  0  0
 34 33  2  0  0  0  0
 36 37  1  0  0  0  0
 37 35  2  0  0  0  0
 38 36  1  0  0  0  0
 38 39  1  0  0  0  0
 40 41  1  0  0  0  0
 40 39  1  0  0  0  0
 42 43  1  0  0  0  0
 44 43  1  0  0  0  0
 44 45  1  0  0  0  0
 46 47  1  0  0  0  0
 46 45  1  0  0  0  0
M  END
>  <REMARK>
 VINA RESULT:    -3.567      0.000      0.000
 INTER + INTRA:         -14.059
 INTER:                  -8.611
 INTRA:                  -5.448
 UNBOUND:                -7.572
 SMILES CC(=O)N[C@@H]1[C@@H](O)C[C@](O)(C(=O)O)O[C@H]1C(O)[C@H](O)CNC(=O)OCc1cn(CCO)nn1
 SMILES IDX 21 1 22 2 23 3 20 5 18 6 16 7 15 8 9 9 8 10 14 11 6 12 5 13
 SMILES IDX 10 14 11 16 12 17 13 18 7 20 4 22 2 23 1 25 3 26 17 27 19 29
 SMILES IDX 24 31 25 32 26 33 27 34 33 35 28 36 32 37 29 38 30 39 31 40
 H PARENT 21 4 10 15 13 19 7 21 4 24 17 28 19 30 31 41
 Flexibility Score: inf
  4 active torsions:
  status: ('A' for Active; 'I' for Inactive)
    1  A    between atoms: CA   and  CB  
    2  A    between atoms: CB   and  CG  
    3  A    between atoms: CG   and  CD  
    4  A    between atoms: CD   and  CE  

>  <TORSDO>
F 17

>  <BEGIN_>
RES LYS A 131

$$$$
ligand_1_pose_0_2HRL.pdbqt
 OpenBabel07062320523D

  6  5  0  0  0  0  0  0  0  0999 V2000
   33.1930   34.6630    9.2900 C   0  0  0  0  0  0  0  0  0  0  0  0
   32.0600   35.3600   10.0340 C   0  0  0  0  0  0  0  0  0  0  0  0
   30.7130   34.7210    9.8150 C   0  0  0  0  0  0  0  0  0  0  0  0
   29.8620   34.8190   11.0720 C   0  0  0  0  0  0  0  0  0  0  0  0
   28.4050   34.5460   10.7520 C   0  0  0  0  0  0  0  0  0  0  0  0
   28.2680   33.8060    9.4660 N   0  0  0  0  0  0  0  0  0  0  0  0
  1  2  1  0  0  0  0
  3  2  1  0  0  0  0
  3  4  1  0  0  0  0
  5  4  1  0  0  0  0
  6  5  1  0  0  0  0
M  END
>  <EGIN_R>
ES LYS A 135

>  <REMARK>
  4 active torsions:
  status: ('A' for Active; 'I' for Inactive)
    5  A    between atoms: CA   and  CB  
    6  A    between atoms: CB   and  CG  
    7  A    between atoms: CG   and  CD  
    8  A    between atoms: CD   and  CE  

$$$$
