ligand_14_pose_0_2HRL.pdbqt
 OpenBabel07062320523D

 50 51  0  0  1  0  0  0  0  0999 V2000
   27.4500   37.9520    8.8600 N   0  0  0  0  0  0  0  0  0  0  0  0
   26.3130   37.5260    9.5690 C   0  0  0  0  0  0  0  0  0  0  0  0
   25.3110   37.1190    8.9680 O   0  0  0  0  0  0  0  0  0  0  0  0
   28.2560   38.2950    9.4850 H   0  0  0  0  0  0  0  0  0  0  0  0
   27.6210   37.9680    7.4420 C   0  0  0  0  0  0  0  0  0  0  0  0
   29.0540   37.7220    7.0690 C   0  0  2  0  0  0  0  0  0  0  0  0
   29.7950   39.0320    6.8130 C   0  0  1  0  0  0  0  0  0  0  0  0
   30.9390   39.0900    7.8410 C   0  0  2  0  0  0  0  0  0  0  0  0
   30.3400   40.0220    9.9080 C   0  0  2  0  0  0  0  0  0  0  0  0
   30.4620   41.3620    9.2100 C   0  0  0  0  0  0  0  0  0  0  0  0
   30.4600   38.9380    9.0950 O   0  0  0  0  0  0  0  0  0  0  0  0
   31.7220   41.4230    8.4190 C   0  0  1  0  0  0  0  0  0  0  0  0
   31.8800   40.2050    7.5670 C   0  0  1  0  0  0  0  0  0  0  0  0
   29.0110   39.9980   10.3980 O   0  0  0  0  0  0  0  0  0  0  0  0
   28.5430   39.2110    9.9830 H   0  0  0  0  0  0  0  0  0  0  0  0
   31.2270   39.9490   11.0930 C   0  0  0  0  0  0  0  0  0  0  0  0
   31.3920   40.9640   11.8050 O   0  0  0  0  0  0  0  0  0  0  0  0
   31.8760   38.7750   11.4260 O   0  0  0  0  0  0  0  0  0  0  0  0
   31.3710   38.0690   11.9440 H   0  0  0  0  0  0  0  0  0  0  0  0
   31.6900   42.5770    7.6450 O   0  0  0  0  0  0  0  0  0  0  0  0
   31.0210   42.4830    6.9140 H   0  0  0  0  0  0  0  0  0  0  0  0
   33.2660   39.7390    7.5370 N   0  0  0  0  0  0  0  0  0  0  0  0
   33.9630   39.5120    6.3450 C   0  0  0  0  0  0  0  0  0  0  0  0
   33.7200   39.5800    8.4560 H   0  0  0  0  0  0  0  0  0  0  0  0
   35.3690   39.0380    6.4090 C   0  0  0  0  0  0  0  0  0  0  0  0
   33.3980   39.7080    5.2200 O   0  0  0  0  0  0  0  0  0  0  0  0
   30.3140   38.9750    5.5240 O   0  0  0  0  0  0  0  0  0  0  0  0
   30.8960   39.7180    5.2910 H   0  0  0  0  0  0  0  0  0  0  0  0
   29.2390   36.8310    6.0370 O   0  0  0  0  0  0  0  0  0  0  0  0
   28.5530   36.1270    5.9640 H   0  0  0  0  0  0  0  0  0  0  0  0
   26.2520   37.5410   10.9660 O   0  0  0  0  0  0  0  0  0  0  0  0
   26.5760   36.3850   11.7120 C   0  0  0  0  0  0  0  0  0  0  0  0
   28.0200   36.3160   12.0480 C   0  0  0  0  0  0  0  0  0  0  0  0
   28.7220   35.2070   12.5250 C   0  0  0  0  0  0  0  0  0  0  0  0
   28.9490   37.2850   11.9700 N   0  0  0  0  0  0  0  0  0  0  0  0
   30.0140   35.5230   12.7180 N   0  0  0  0  0  0  0  0  0  0  0  0
   30.1080   36.8140   12.3630 N   0  0  0  0  0  0  0  0  0  0  0  0
   31.0970   34.6920   13.2020 C   0  0  0  0  0  0  0  0  0  0  0  0
   31.2270   34.7120   14.6880 C   0  0  0  0  0  0  0  0  0  0  0  0
   31.4630   33.4220   15.2860 N   0  0  0  0  0  0  0  0  0  0  0  0
   31.5290   33.6020   16.7270 C   0  0  0  0  0  0  0  0  0  0  0  0
   30.3670   32.5020   15.0530 C   0  0  0  0  0  0  0  0  0  0  0  0
   30.7490   32.4970   17.3620 C   0  0  0  0  0  0  0  0  0  0  0  0
   30.5290   31.5380   16.2110 C   0  0  0  0  0  0  0  0  0  0  0  0
   29.8670   25.5550   16.9770 C   0  0  0  0  0  0  0  0  0  0  0  0
   28.3450   25.7220   17.0260 C   0  0  0  0  0  0  0  0  0  0  0  0
   27.5990   24.4360   16.7040 C   0  0  0  0  0  0  0  0  0  0  0  0
   26.9630   23.8300   17.9240 C   0  0  0  0  0  0  0  0  0  0  0  0
   25.5650   23.3310   17.5750 C   0  0  0  0  0  0  0  0  0  0  0  0
   24.5390   24.0970   18.3220 N   0  0  0  0  0  0  0  0  0  0  0  0
  1  4  1  0  0  0  0
  1  2  1  0  0  0  0
  2 31  1  0  0  0  0
  3  2  2  0  0  0  0
  5  1  1  0  0  0  0
  6  5  1  6  0  0  0
  7 27  1  6  0  0  0
  7  6  1  0  0  0  0
  8  7  1  6  0  0  0
  8 11  1  0  0  0  0
  9 14  1  1  0  0  0
  9 16  1  0  0  0  0
 10  9  1  0  0  0  0
 11  9  1  0  0  0  0
 12 20  1  6  0  0  0
 12 10  1  0  0  0  0
 13 22  1  1  0  0  0
 13  8  1  0  0  0  0
 13 12  1  0  0  0  0
 15 14  1  0  0  0  0
 16 18  1  0  0  0  0
 16 17  2  0  0  0  0
 18 19  1  0  0  0  0
 21 20  1  0  0  0  0
 22 24  1  0  0  0  0
 23 25  1  0  0  0  0
 23 22  1  0  0  0  0
 26 23  2  0  0  0  0
 28 27  1  0  0  0  0
 29  6  1  0  0  0  0
 30 29  1  0  0  0  0
 31 32  1  0  0  0  0
 32 33  1  0  0  0  0
 33 34  2  0  0  0  0
 34 36  1  0  0  0  0
 35 33  1  0  0  0  0
 35 37  2  0  0  0  0
 36 38  1  0  0  0  0
 37 36  1  0  0  0  0
 38 39  1  0  0  0  0
 39 40  1  0  0  0  0
 40 41  1  0  0  0  0
 41 43  1  0  0  0  0
 42 40  1  0  0  0  0
 42 44  1  0  0  0  0
 44 43  1  0  0  0  0
 45 46  1  0  0  0  0
 47 46  1  0  0  0  0
 47 48  1  0  0  0  0
 49 48  1  0  0  0  0
 49 50  1  0  0  0  0
M  END
>  <REMARK>
 VINA RESULT:    -4.688      0.000      0.000
 INTER + INTRA:         -14.655
 INTER:                  -8.425
 INTRA:                  -6.230
 UNBOUND:                -5.994
 SMILES CC(=O)N[C@@H]1[C@@H](O)C[C@](O)(C(=O)O)O[C@H]1C(O)[C@H](O)CNC(=O)OCc1cn(CCN2CCCC2)nn1
 SMILES IDX 21 1 22 2 23 3 20 5 18 6 16 7 15 8 9 9 8 10 14 11 6 12 5 13
 SMILES IDX 10 14 11 16 12 17 13 18 7 20 4 22 2 23 1 25 3 26 17 27 19 29
 SMILES IDX 24 31 25 32 26 33 27 34 37 35 28 36 36 37 29 38 30 39 31 40
 SMILES IDX 32 41 35 42 33 43 34 44
 H PARENT 21 4 10 15 13 19 7 21 4 24 17 28 19 30
 Flexibility Score: inf
  4 active torsions:
  status: ('A' for Active; 'I' for Inactive)
    1  A    between atoms: CA   and  CB  
    2  A    between atoms: CB   and  CG  
    3  A    between atoms: CG   and  CD  
    4  A    between atoms: CD   and  CE  

>  <TORSDO>
F 17

>  <BEGIN_>
RES LYS A 131

$$$$
ligand_14_pose_0_2HRL.pdbqt
 OpenBabel07062320523D

  6  5  0  0  0  0  0  0  0  0999 V2000
   33.1930   34.6630    9.2900 C   0  0  0  0  0  0  0  0  0  0  0  0
   32.0600   35.3600   10.0340 C   0  0  0  0  0  0  0  0  0  0  0  0
   30.8010   35.5030    9.2180 C   0  0  0  0  0  0  0  0  0  0  0  0
   30.0390   34.1880    9.1730 C   0  0  0  0  0  0  0  0  0  0  0  0
   28.6200   34.4110    8.6860 C   0  0  0  0  0  0  0  0  0  0  0  0
   27.6420   33.6590    9.5190 N   0  0  0  0  0  0  0  0  0  0  0  0
  1  2  1  0  0  0  0
  3  2  1  0  0  0  0
  4  3  1  0  0  0  0
  5  4  1  0  0  0  0
  5  6  1  0  0  0  0
M  END
>  <EGIN_R>
ES LYS A 135

>  <REMARK>
  4 active torsions:
  status: ('A' for Active; 'I' for Inactive)
    5  A    between atoms: CA   and  CB  
    6  A    between atoms: CB   and  CG  
    7  A    between atoms: CG   and  CD  
    8  A    between atoms: CD   and  CE  

$$$$
