ligand_20_pose_0_2HRL.pdbqt
 OpenBabel07062320523D

 53 55  0  0  1  0  0  0  0  0999 V2000
   28.1030   32.4550   16.5080 C   0  0  0  0  0  0  0  0  0  0  0  0
   29.4120   31.9450   16.0880 C   0  0  2  0  0  0  0  0  0  0  0  0
   29.9240   32.7040   14.8430 C   0  0  1  0  0  0  0  0  0  0  0  0
   30.0990   34.1430   15.0610 C   0  0  2  0  0  0  0  0  0  0  0  0
   28.7800   35.2280   13.4640 C   0  0  2  0  0  0  0  0  0  0  0  0
   29.9300   35.0290   12.5180 C   0  0  0  0  0  0  0  0  0  0  0  0
   29.0600   34.9790   14.7750 O   0  0  0  0  0  0  0  0  0  0  0  0
   31.2640   35.2770   13.1300 C   0  0  1  0  0  0  0  0  0  0  0  0
   31.4240   34.6530   14.4800 C   0  0  1  0  0  0  0  0  0  0  0  0
   27.7050   34.4410   13.0520 O   0  0  0  0  0  0  0  0  0  0  0  0
   27.3600   34.7120   12.1670 H   0  0  0  0  0  0  0  0  0  0  0  0
   28.3720   36.6480   13.3530 C   0  0  0  0  0  0  0  0  0  0  0  0
   28.7410   37.4700   14.2070 O   0  0  0  0  0  0  0  0  0  0  0  0
   27.5820   37.0550   12.2990 O   0  0  0  0  0  0  0  0  0  0  0  0
   26.6660   36.6350   12.0870 H   0  0  0  0  0  0  0  0  0  0  0  0
   32.2440   34.8140   12.2320 O   0  0  0  0  0  0  0  0  0  0  0  0
   32.9190   35.5330   12.1890 H   0  0  0  0  0  0  0  0  0  0  0  0
   32.1340   35.4900   15.4100 N   0  0  0  0  0  0  0  0  0  0  0  0
   33.5540   35.5330   15.4660 C   0  0  0  0  0  0  0  0  0  0  0  0
   31.5930   36.1050   16.0900 H   0  0  0  0  0  0  0  0  0  0  0  0
   34.2350   36.4080   16.4390 C   0  0  0  0  0  0  0  0  0  0  0  0
   34.2090   34.8130   14.6710 O   0  0  0  0  0  0  0  0  0  0  0  0
   31.2540   32.1590   14.7370 O   0  0  0  0  0  0  0  0  0  0  0  0
   31.3960   31.7900   13.8350 H   0  0  0  0  0  0  0  0  0  0  0  0
   29.1520   30.6140   15.5840 O   0  0  0  0  0  0  0  0  0  0  0  0
   28.7310   30.0750   16.3090 H   0  0  0  0  0  0  0  0  0  0  0  0
   27.0930   32.5500   15.4910 N   0  0  0  0  0  0  0  0  0  0  0  0
   26.0610   31.5840   15.3620 C   0  0  0  0  0  0  0  0  0  0  0  0
   27.0660   33.3610   14.8530 H   0  0  0  0  0  0  0  0  0  0  0  0
   26.0440   30.6210   16.1710 O   0  0  0  0  0  0  0  0  0  0  0  0
   25.0780   31.6410   14.4010 O   0  0  0  0  0  0  0  0  0  0  0  0
   23.9270   32.4610   14.4730 C   0  0  0  0  0  0  0  0  0  0  0  0
   24.1690   33.6620   13.6040 C   0  0  0  0  0  0  0  0  0  0  0  0
   23.6110   33.9580   12.3800 C   0  0  0  0  0  0  0  0  0  0  0  0
   25.0050   34.7060   13.8690 N   0  0  0  0  0  0  0  0  0  0  0  0
   24.1360   35.1520   11.9780 N   0  0  0  0  0  0  0  0  0  0  0  0
   24.9770   35.5810   12.9020 N   0  0  0  0  0  0  0  0  0  0  0  0
   23.8120   35.8040   10.7610 C   0  0  0  0  0  0  0  0  0  0  0  0
   22.7930   35.3030    9.9740 C   0  0  0  0  0  0  0  0  0  0  0  0
   24.4650   36.9300   10.3060 C   0  0  0  0  0  0  0  0  0  0  0  0
   22.4330   35.8930    8.7800 C   0  0  0  0  0  0  0  0  0  0  0  0
   24.1260   37.5310    9.1290 C   0  0  0  0  0  0  0  0  0  0  0  0
   23.0970   37.0240    8.3360 C   0  0  0  0  0  0  0  0  0  0  0  0
   24.5930   38.6320    8.4510 C   0  0  0  0  0  0  0  0  0  0  0  0
   22.9790   37.8010    7.2480 N   0  0  0  0  0  0  0  0  0  0  0  0
   23.8670   38.7670    7.3030 N   0  0  0  0  0  0  0  0  0  0  0  0
   22.2900   37.6540    6.4880 H   0  0  0  0  0  0  0  0  0  0  0  0
   29.8670   25.5550   16.9770 C   0  0  0  0  0  0  0  0  0  0  0  0
   28.3450   25.7220   17.0260 C   0  0  0  0  0  0  0  0  0  0  0  0
   27.6010   24.4030   16.8810 C   0  0  0  0  0  0  0  0  0  0  0  0
   26.2690   24.4250   17.5780 C   0  0  0  0  0  0  0  0  0  0  0  0
   25.6560   23.0290   17.5470 C   0  0  0  0  0  0  0  0  0  0  0  0
   24.2270   23.0810   17.9380 N   0  0  0  0  0  0  0  0  0  0  0  0
  2  1  1  6  0  0  0
  3 23  1  1  0  0  0
  3  2  1  0  0  0  0
  4  3  1  6  0  0  0
  5 10  1  6  0  0  0
  5  7  1  0  0  0  0
  6  8  1  0  0  0  0
  6  5  1  0  0  0  0
  7  4  1  0  0  0  0
  8 16  1  6  0  0  0
  8  9  1  0  0  0  0
  9  4  1  0  0  0  0
  9 18  1  1  0  0  0
 11 10  1  0  0  0  0
 12  5  1  0  0  0  0
 12 13  2  0  0  0  0
 14 12  1  0  0  0  0
 15 14  1  0  0  0  0
 17 16  1  0  0  0  0
 18 19  1  0  0  0  0
 18 20  1  0  0  0  0
 19 21  1  0  0  0  0
 22 19  2  0  0  0  0
 24 23  1  0  0  0  0
 25  2  1  0  0  0  0
 25 26  1  0  0  0  0
 27  1  1  0  0  0  0
 28 27  1  0  0  0  0
 28 30  2  0  0  0  0
 29 27  1  0  0  0  0
 31 32  1  0  0  0  0
 31 28  1  0  0  0  0
 33 35  1  0  0  0  0
 33 32  1  0  0  0  0
 34 33  2  0  0  0  0
 36 34  1  0  0  0  0
 36 37  1  0  0  0  0
 37 35  2  0  0  0  0
 38 36  1  0  0  0  0
 39 38  2  0  0  0  0
 40 38  1  0  0  0  0
 41 39  1  0  0  0  0
 42 40  2  0  0  0  0
 43 41  2  0  0  0  0
 43 42  1  0  0  0  0
 44 42  1  0  0  0  0
 45 46  1  0  0  0  0
 45 43  1  0  0  0  0
 46 44  2  0  0  0  0
 47 45  1  0  0  0  0
 48 49  1  0  0  0  0
 50 49  1  0  0  0  0
 50 51  1  0  0  0  0
 52 51  1  0  0  0  0
 52 53  1  0  0  0  0
M  END
>  <REMARK>
 VINA RESULT:    -5.196      0.000      0.000
 INTER + INTRA:         -15.483
 INTER:                  -9.085
 INTRA:                  -6.398
 UNBOUND:                -6.490
 SMILES CC(=O)N[C@@H]1[C@@H](O)C[C@](O)(C(=O)O)O[C@H]1C(O)[C@H](O)CNC(=O)OCc1cn(-c2ccc3[nH]ncc3c2)nn1
 SMILES IDX 20 1 18 2 16 3 15 4 9 5 8 6 14 7 6 8 5 9 10 10 11 12 12 13
 SMILES IDX 13 14 7 16 4 18 2 19 1 21 3 22 17 23 19 25 21 27 22 28 23 30
 SMILES IDX 24 31 25 32 26 33 27 34 39 35 28 36 38 37 29 38 30 39 37 40
 SMILES IDX 31 41 36 42 32 43 35 44 33 45 34 46
 H PARENT 10 11 13 15 7 17 4 20 17 24 19 26 21 29 33 47
 Flexibility Score: inf
  4 active torsions:
  status: ('A' for Active; 'I' for Inactive)
    1  A    between atoms: CA   and  CB  
    2  A    between atoms: CB   and  CG  
    3  A    between atoms: CG   and  CD  
    4  A    between atoms: CD   and  CE  

>  <TORSDO>
F 15

>  <BEGIN_>
RES LYS A 131

$$$$
ligand_20_pose_0_2HRL.pdbqt
 OpenBabel07062320523D

  6  5  0  0  0  0  0  0  0  0999 V2000
   33.1930   34.6630    9.2900 C   0  0  0  0  0  0  0  0  0  0  0  0
   32.0600   35.3600   10.0340 C   0  0  0  0  0  0  0  0  0  0  0  0
   30.8620   35.6540    9.1680 C   0  0  0  0  0  0  0  0  0  0  0  0
   30.3330   34.3780    8.5320 C   0  0  0  0  0  0  0  0  0  0  0  0
   28.8220   34.4260    8.4180 C   0  0  0  0  0  0  0  0  0  0  0  0
   28.1740   33.7700    9.5880 N   0  0  0  0  0  0  0  0  0  0  0  0
  1  2  1  0  0  0  0
  3  2  1  0  0  0  0
  4  3  1  0  0  0  0
  5  4  1  0  0  0  0
  5  6  1  0  0  0  0
M  END
>  <EGIN_R>
ES LYS A 135

>  <REMARK>
  4 active torsions:
  status: ('A' for Active; 'I' for Inactive)
    5  A    between atoms: CA   and  CB  
    6  A    between atoms: CB   and  CG  
    7  A    between atoms: CG   and  CD  
    8  A    between atoms: CD   and  CE  

$$$$
