ligand_34_pose_0_2HRL.pdbqt
 OpenBabel07062320523D

 69 73  0  0  1  0  0  0  0  0999 V2000
   30.6640   36.9060   16.8970 N   0  0  0  0  0  0  0  0  0  0  0  0
   31.5890   37.8600   16.3500 C   0  0  0  0  0  0  0  0  0  0  0  0
   32.2390   38.5580   17.1760 O   0  0  0  0  0  0  0  0  0  0  0  0
   30.1030   36.3060   16.2640 H   0  0  0  0  0  0  0  0  0  0  0  0
   30.4950   36.7620   18.3220 C   0  0  0  0  0  0  0  0  0  0  0  0
   31.2790   35.5820   18.7940 C   0  0  2  0  0  0  0  0  0  0  0  0
   30.4490   34.2990   18.7730 C   0  0  2  0  0  0  0  0  0  0  0  0
   31.0960   33.2650   17.8650 C   0  0  2  0  0  0  0  0  0  0  0  0
   31.5080   33.8350   15.6450 C   0  0  2  0  0  0  0  0  0  0  0  0
   31.5040   32.3860   15.2090 C   0  0  0  0  0  0  0  0  0  0  0  0
   31.8770   33.9290   16.9630 O   0  0  0  0  0  0  0  0  0  0  0  0
   30.6220   31.5710   16.0830 C   0  0  1  0  0  0  0  0  0  0  0  0
   30.1050   32.3150   17.2890 C   0  0  1  0  0  0  0  0  0  0  0  0
   30.2740   34.3620   15.3580 O   0  0  0  0  0  0  0  0  0  0  0  0
   29.8230   34.7780   16.1140 H   0  0  0  0  0  0  0  0  0  0  0  0
   32.5420   34.5240   14.8350 C   0  0  0  0  0  0  0  0  0  0  0  0
   33.4920   35.1170   15.4040 O   0  0  0  0  0  0  0  0  0  0  0  0
   32.5210   34.5520   13.4500 O   0  0  0  0  0  0  0  0  0  0  0  0
   32.9480   33.7990   12.8890 H   0  0  0  0  0  0  0  0  0  0  0  0
   29.5250   31.0630   15.3910 O   0  0  0  0  0  0  0  0  0  0  0  0
   28.8490   31.7410   15.1710 H   0  0  0  0  0  0  0  0  0  0  0  0
   29.7590   31.2830   18.2780 N   0  0  0  0  0  0  0  0  0  0  0  0
   28.4470   30.8300   18.5020 C   0  0  0  0  0  0  0  0  0  0  0  0
   30.5490   30.8780   18.8310 H   0  0  0  0  0  0  0  0  0  0  0  0
   28.1800   29.7860   19.5170 C   0  0  0  0  0  0  0  0  0  0  0  0
   27.5290   31.3600   17.7950 O   0  0  0  0  0  0  0  0  0  0  0  0
   29.1880   34.6690   18.2920 O   0  0  0  0  0  0  0  0  0  0  0  0
   29.0620   35.6240   18.5410 H   0  0  0  0  0  0  0  0  0  0  0  0
   31.8310   35.7940   20.0550 O   0  0  0  0  0  0  0  0  0  0  0  0
   31.1440   35.9180   20.7520 H   0  0  0  0  0  0  0  0  0  0  0  0
   31.7840   38.0310   15.0120 O   0  0  0  0  0  0  0  0  0  0  0  0
   30.7650   38.5180   14.1720 C   0  0  0  0  0  0  0  0  0  0  0  0
   30.0280   37.3730   13.6020 C   0  0  0  0  0  0  0  0  0  0  0  0
   28.6770   37.0670   13.7820 C   0  0  0  0  0  0  0  0  0  0  0  0
   30.5060   36.4020   12.8110 N   0  0  0  0  0  0  0  0  0  0  0  0
   28.3940   35.9410   13.1030 N   0  0  0  0  0  0  0  0  0  0  0  0
   29.5170   35.5640   12.5290 N   0  0  0  0  0  0  0  0  0  0  0  0
   27.1080   35.3420   13.0730 C   0  0  0  0  0  0  0  0  0  0  0  0
   26.2530   35.2720   14.1320 C   0  0  0  0  0  0  0  0  0  0  0  0
   26.6830   34.7760   11.8680 C   0  0  0  0  0  0  0  0  0  0  0  0
   25.0010   34.6710   14.0560 C   0  0  0  0  0  0  0  0  0  0  0  0
   25.4550   34.1810   11.7680 C   0  0  0  0  0  0  0  0  0  0  0  0
   24.6060   34.1280   12.8730 C   0  0  0  0  0  0  0  0  0  0  0  0
   24.1100   34.6150   15.2130 C   0  0  0  0  0  0  0  0  0  0  0  0
   24.1650   33.6510   16.0400 O   0  0  0  0  0  0  0  0  0  0  0  0
   23.1950   35.6090   15.4320 O   0  0  0  0  0  0  0  0  0  0  0  0
   23.3240   33.4730   12.6650 C   0  0  0  0  0  0  0  0  0  0  0  0
   22.1800   34.1160   12.2480 C   0  0  0  0  0  0  0  0  0  0  0  0
   23.2380   32.1100   12.8980 C   0  0  0  0  0  0  0  0  0  0  0  0
   22.2260   35.4760   12.0060 C   0  0  0  0  0  0  0  0  0  0  0  0
   20.9840   33.4330   12.0650 C   0  0  0  0  0  0  0  0  0  0  0  0
   21.9630   31.4400   12.6910 C   0  0  0  0  0  0  0  0  0  0  0  0
   24.3220   31.3730   13.3170 C   0  0  0  0  0  0  0  0  0  0  0  0
   21.1000   36.1670   11.5840 C   0  0  0  0  0  0  0  0  0  0  0  0
   19.8500   34.0910   11.6470 C   0  0  0  0  0  0  0  0  0  0  0  0
   20.9080   32.1430   12.2860 O   0  0  0  0  0  0  0  0  0  0  0  0
   21.8680   30.0990   12.9170 C   0  0  0  0  0  0  0  0  0  0  0  0
   24.1760   30.0320   13.5300 C   0  0  0  0  0  0  0  0  0  0  0  0
   19.9270   35.4620   11.4110 C   0  0  0  0  0  0  0  0  0  0  0  0
   22.9670   29.3820   13.3360 C   0  0  0  0  0  0  0  0  0  0  0  0
   22.8840   28.1420   13.5450 O   0  0  0  0  0  0  0  0  0  0  0  0
   18.7970   36.1440   10.9910 O   0  0  0  0  0  0  0  0  0  0  0  0
   18.6880   37.1400   11.0420 H   0  0  0  0  0  0  0  0  0  0  0  0
   29.8670   25.5550   16.9770 C   0  0  0  0  0  0  0  0  0  0  0  0
   28.3450   25.7220   17.0260 C   0  0  0  0  0  0  0  0  0  0  0  0
   27.6050   24.3930   17.0280 C   0  0  0  0  0  0  0  0  0  0  0  0
   26.1210   24.5720   17.1940 C   0  0  0  0  0  0  0  0  0  0  0  0
   25.5010   23.2640   17.6750 C   0  0  0  0  0  0  0  0  0  0  0  0
   25.5500   23.1810   19.1540 N   0  0  0  0  0  0  0  0  0  0  0  0
  1  5  1  0  0  0  0
  2  1  1  0  0  0  0
  2  3  2  0  0  0  0
  4  1  1  0  0  0  0
  6  5  1  1  0  0  0
  6 29  1  0  0  0  0
  7 27  1  6  0  0  0
  7  6  1  0  0  0  0
  8  7  1  6  0  0  0
  9 16  1  6  0  0  0
  9 11  1  0  0  0  0
 10  9  1  0  0  0  0
 10 12  1  0  0  0  0
 11  8  1  0  0  0  0
 12 20  1  6  0  0  0
 12 13  1  0  0  0  0
 13  8  1  0  0  0  0
 13 22  1  1  0  0  0
 14  9  1  0  0  0  0
 14 15  1  0  0  0  0
 16 17  2  0  0  0  0
 18 16  1  0  0  0  0
 19 18  1  0  0  0  0
 21 20  1  0  0  0  0
 22 23  1  0  0  0  0
 22 24  1  0  0  0  0
 23 25  1  0  0  0  0
 26 23  2  0  0  0  0
 27 28  1  0  0  0  0
 29 30  1  0  0  0  0
 31  2  1  0  0  0  0
 32 31  1  0  0  0  0
 33 34  2  0  0  0  0
 33 32  1  0  0  0  0
 35 33  1  0  0  0  0
 36 34  1  0  0  0  0
 37 35  2  0  0  0  0
 37 36  1  0  0  0  0
 38 36  1  0  0  0  0
 38 39  2  0  0  0  0
 40 38  1  0  0  0  0
 41 39  1  0  0  0  0
 41 44  1  0  0  0  0
 42 40  2  0  0  0  0
 42 43  1  0  0  0  0
 43 41  2  0  0  0  0
 44 46  2  0  0  0  0
 44 45  1  0  0  0  0
 47 43  1  0  0  0  0
 47 49  2  0  0  0  0
 48 47  1  0  0  0  0
 49 53  1  0  0  0  0
 50 48  2  0  0  0  0
 51 48  1  0  0  0  0
 51 56  1  0  0  0  0
 52 49  1  0  0  0  0
 52 57  2  0  0  0  0
 53 58  2  0  0  0  0
 54 50  1  0  0  0  0
 55 51  2  0  0  0  0
 56 52  1  0  0  0  0
 57 60  1  0  0  0  0
 59 54  2  0  0  0  0
 59 55  1  0  0  0  0
 60 58  1  0  0  0  0
 60 61  2  0  0  0  0
 62 63  1  0  0  0  0
 62 59  1  0  0  0  0
 64 65  1  0  0  0  0
 65 66  1  0  0  0  0
 66 67  1  0  0  0  0
 67 68  1  0  0  0  0
 68 69  1  0  0  0  0
M  END
>  <REMARK>
 VINA RESULT:    -5.750      0.000      0.000
 INTER + INTRA:         -18.510
 INTER:                 -10.002
 INTRA:                  -8.509
 UNBOUND:                -7.717
 SMILES CC(=O)N[C@@H]1[C@@H](O)C[C@](O)(C(=O)O)O[C@H]1C(O)[C@H](O)CNC(=O)OCc1cn(-c2ccc(-c3c4ccc(=O)cc-4oc4cc(O)ccc34)c(C(=O)[O-])c2)nn1
 SMILES IDX 21 1 22 2 23 3 20 5 18 6 16 7 15 8 9 9 8 10 14 11 6 12 5 13
 SMILES IDX 10 14 11 16 12 17 13 18 7 20 4 22 2 23 1 25 3 26 17 27 19 29
 SMILES IDX 24 31 25 32 26 33 27 34 55 35 28 36 54 37 29 38 53 39 30 40
 SMILES IDX 49 41 31 42 32 43 50 44 51 45 52 46 33 47 48 48 34 49 47 50
 SMILES IDX 42 51 40 52 35 53 46 54 43 55 41 56 39 57 36 58 44 59 37 60
 SMILES IDX 38 61 45 62
 H PARENT 21 4 10 15 13 19 7 21 4 24 17 28 19 30 45 63
 Flexibility Score: inf
  4 active torsions:
  status: ('A' for Active; 'I' for Inactive)
    1  A    between atoms: CA   and  CB  
    2  A    between atoms: CB   and  CG  
    3  A    between atoms: CG   and  CD  
    4  A    between atoms: CD   and  CE  

>  <TORSDO>
F 18

>  <BEGIN_>
RES LYS A 131

$$$$
ligand_34_pose_0_2HRL.pdbqt
 OpenBabel07062320523D

  6  5  0  0  0  0  0  0  0  0999 V2000
   33.1930   34.6630    9.2900 C   0  0  0  0  0  0  0  0  0  0  0  0
   32.0600   35.3600   10.0340 C   0  0  0  0  0  0  0  0  0  0  0  0
   30.8420   35.6070    9.1820 C   0  0  0  0  0  0  0  0  0  0  0  0
   30.3240   34.3020    8.5960 C   0  0  0  0  0  0  0  0  0  0  0  0
   28.9050   34.0360    9.0620 C   0  0  0  0  0  0  0  0  0  0  0  0
   27.9150   34.7170    8.1830 N   0  0  0  0  0  0  0  0  0  0  0  0
  1  2  1  0  0  0  0
  3  2  1  0  0  0  0
  4  5  1  0  0  0  0
  4  3  1  0  0  0  0
  6  5  1  0  0  0  0
M  END
>  <EGIN_R>
ES LYS A 135

>  <REMARK>
  4 active torsions:
  status: ('A' for Active; 'I' for Inactive)
    5  A    between atoms: CA   and  CB  
    6  A    between atoms: CB   and  CG  
    7  A    between atoms: CG   and  CD  
    8  A    between atoms: CD   and  CE  

$$$$
