ligand_55_pose_0_2HRL.pdbqt
 OpenBabel07062320523D

 51 51  0  0  1  0  0  0  0  0999 V2000
   28.1900   29.9200   17.1540 N   0  0  0  0  0  0  0  0  0  0  0  0
   26.9790   30.3210   17.7550 C   0  0  0  0  0  0  0  0  0  0  0  0
   26.0720   30.9080   17.1420 O   0  0  0  0  0  0  0  0  0  0  0  0
   28.8890   29.4160   17.7790 H   0  0  0  0  0  0  0  0  0  0  0  0
   28.5560   30.1250   15.8030 C   0  0  0  0  0  0  0  0  0  0  0  0
   29.1800   31.4530   15.4540 C   0  0  2  0  0  0  0  0  0  0  0  0
   30.5530   31.4610   16.0500 C   0  0  2  0  0  0  0  0  0  0  0  0
   30.7660   32.3090   17.2640 C   0  0  2  0  0  0  0  0  0  0  0  0
   30.0040   32.4870   19.4740 C   0  0  2  0  0  0  0  0  0  0  0  0
   30.1660   33.9690   19.4380 C   0  0  0  0  0  0  0  0  0  0  0  0
   30.1010   31.8230   18.3140 O   0  0  0  0  0  0  0  0  0  0  0  0
   29.9700   34.5640   18.0700 C   0  0  1  0  0  0  0  0  0  0  0  0
   30.6760   33.7830   17.0150 C   0  0  1  0  0  0  0  0  0  0  0  0
   28.7650   32.1960   20.0580 O   0  0  0  0  0  0  0  0  0  0  0  0
   28.5640   32.8890   20.7230 H   0  0  0  0  0  0  0  0  0  0  0  0
   31.0320   31.9390   20.4050 C   0  0  0  0  0  0  0  0  0  0  0  0
   31.6860   32.6310   21.2070 O   0  0  0  0  0  0  0  0  0  0  0  0
   31.3090   30.5590   20.4080 O   0  0  0  0  0  0  0  0  0  0  0  0
   32.0060   30.1630   21.0260 H   0  0  0  0  0  0  0  0  0  0  0  0
   28.6070   34.7200   17.8480 O   0  0  0  0  0  0  0  0  0  0  0  0
   28.1500   34.4840   18.6960 H   0  0  0  0  0  0  0  0  0  0  0  0
   31.9810   34.3860   16.8180 N   0  0  0  0  0  0  0  0  0  0  0  0
   32.4160   34.9300   15.5800 C   0  0  0  0  0  0  0  0  0  0  0  0
   32.6900   34.4510   17.6090 H   0  0  0  0  0  0  0  0  0  0  0  0
   33.7780   35.5430   15.4260 C   0  0  0  0  0  0  0  0  0  0  0  0
   31.6070   34.8740   14.6180 O   0  0  0  0  0  0  0  0  0  0  0  0
   31.3980   31.8960   14.9870 O   0  0  0  0  0  0  0  0  0  0  0  0
   31.7450   32.7950   15.1630 H   0  0  0  0  0  0  0  0  0  0  0  0
   28.3440   32.4620   15.8490 O   0  0  0  0  0  0  0  0  0  0  0  0
   27.4180   32.2790   15.6470 H   0  0  0  0  0  0  0  0  0  0  0  0
   26.7630   30.0600   19.1030 O   0  0  0  0  0  0  0  0  0  0  0  0
   26.7420   28.7690   19.6580 C   0  0  0  0  0  0  0  0  0  0  0  0
   27.9890   28.4940   20.3950 C   0  0  0  0  0  0  0  0  0  0  0  0
   28.8100   27.3860   20.3230 C   0  0  0  0  0  0  0  0  0  0  0  0
   28.5520   29.3040   21.2880 N   0  0  0  0  0  0  0  0  0  0  0  0
   29.8370   27.5540   21.1670 N   0  0  0  0  0  0  0  0  0  0  0  0
   29.6510   28.7370   21.7420 N   0  0  0  0  0  0  0  0  0  0  0  0
   30.9540   26.6940   21.4580 C   0  0  0  0  0  0  0  0  0  0  0  0
   31.9310   27.3330   22.4280 C   0  0  0  0  0  0  0  0  0  0  0  0
   32.8230   28.1710   21.6560 N   0  0  0  0  0  0  0  0  0  0  0  0
   32.3730   28.5420   20.8070 H   0  0  0  0  0  0  0  0  0  0  0  0
   33.4850   29.4540   22.5890 S   0  0  0  0  0  0  0  0  0  0  0  0
   34.1510   30.4080   21.6320 O   0  0  0  0  0  0  0  0  0  0  0  0
   32.3970   30.1190   23.3690 O   0  0  0  0  0  0  0  0  0  0  0  0
   34.7270   28.8460   23.7080 C   0  0  0  0  0  0  0  0  0  0  0  0
   29.8670   25.5550   16.9770 C   0  0  0  0  0  0  0  0  0  0  0  0
   28.3450   25.7220   17.0260 C   0  0  0  0  0  0  0  0  0  0  0  0
   27.6020   24.3990   16.9260 C   0  0  0  0  0  0  0  0  0  0  0  0
   26.1650   24.5220   17.3510 C   0  0  0  0  0  0  0  0  0  0  0  0
   26.1020   25.0170   18.7930 C   0  0  0  0  0  0  0  0  0  0  0  0
   24.9800   24.3710   19.5140 N   0  0  0  0  0  0  0  0  0  0  0  0
  1  2  1  0  0  0  0
  1  4  1  0  0  0  0
  2 31  1  0  0  0  0
  3  2  2  0  0  0  0
  5  1  1  0  0  0  0
  6  5  1  1  0  0  0
  6 29  1  0  0  0  0
  6  7  1  0  0  0  0
  7 27  1  6  0  0  0
  8  7  1  6  0  0  0
  8 11  1  0  0  0  0
  9 14  1  1  0  0  0
  9 16  1  0  0  0  0
 10  9  1  0  0  0  0
 11  9  1  0  0  0  0
 12 20  1  6  0  0  0
 12 10  1  0  0  0  0
 13 22  1  1  0  0  0
 13  8  1  0  0  0  0
 13 12  1  0  0  0  0
 14 15  1  0  0  0  0
 16 18  1  0  0  0  0
 16 17  2  0  0  0  0
 18 19  1  0  0  0  0
 20 21  1  0  0  0  0
 22 24  1  0  0  0  0
 23 22  1  0  0  0  0
 25 23  1  0  0  0  0
 26 23  2  0  0  0  0
 27 28  1  0  0  0  0
 30 29  1  0  0  0  0
 31 32  1  0  0  0  0
 32 33  1  0  0  0  0
 33 35  1  0  0  0  0
 34 33  2  0  0  0  0
 34 36  1  0  0  0  0
 35 37  2  0  0  0  0
 36 38  1  0  0  0  0
 36 37  1  0  0  0  0
 38 39  1  0  0  0  0
 40 39  1  0  0  0  0
 40 42  1  0  0  0  0
 41 40  1  0  0  0  0
 42 44  2  0  0  0  0
 42 45  1  0  0  0  0
 43 42  2  0  0  0  0
 46 47  1  0  0  0  0
 48 47  1  0  0  0  0
 48 49  1  0  0  0  0
 49 50  1  0  0  0  0
 50 51  1  0  0  0  0
M  END
>  <REMARK>
 VINA RESULT:    -4.909      0.000      0.000
 INTER + INTRA:         -15.633
 INTER:                  -7.932
 INTRA:                  -7.701
 UNBOUND:                -6.277
 SMILES CC(=O)N[C@@H]1[C@@H](O)C[C@](O)(C(=O)O)O[C@H]1C(O)[C@H](O)CNC(=O)OCc1cn(CCNS(C)(=O)=O)nn1
 SMILES IDX 21 1 22 2 23 3 20 5 18 6 16 7 15 8 9 9 8 10 14 11 6 12 5 13
 SMILES IDX 10 14 11 16 12 17 13 18 7 20 4 22 2 23 1 25 3 26 17 27 19 29
 SMILES IDX 24 31 25 32 26 33 27 34 37 35 28 36 36 37 29 38 30 39 31 40
 SMILES IDX 32 42 34 43 35 44 33 45
 H PARENT 21 4 10 15 13 19 7 21 4 24 17 28 19 30 31 41
 Flexibility Score: inf
  4 active torsions:
  status: ('A' for Active; 'I' for Inactive)
    1  A    between atoms: CA   and  CB  
    2  A    between atoms: CB   and  CG  
    3  A    between atoms: CG   and  CD  
    4  A    between atoms: CD   and  CE  

>  <TORSDO>
F 18

>  <BEGIN_>
RES LYS A 131

$$$$
ligand_55_pose_0_2HRL.pdbqt
 OpenBabel07062320523D

  6  5  0  0  0  0  0  0  0  0999 V2000
   33.1930   34.6630    9.2900 C   0  0  0  0  0  0  0  0  0  0  0  0
   32.0600   35.3600   10.0340 C   0  0  0  0  0  0  0  0  0  0  0  0
   30.8590   35.6480    9.1700 C   0  0  0  0  0  0  0  0  0  0  0  0
   30.3190   34.3650    8.5580 C   0  0  0  0  0  0  0  0  0  0  0  0
   28.8050   34.4130    8.4710 C   0  0  0  0  0  0  0  0  0  0  0  0
   28.1780   33.7340    9.6390 N   0  0  0  0  0  0  0  0  0  0  0  0
  1  2  1  0  0  0  0
  3  2  1  0  0  0  0
  4  3  1  0  0  0  0
  5  4  1  0  0  0  0
  5  6  1  0  0  0  0
M  END
>  <EGIN_R>
ES LYS A 135

>  <REMARK>
  4 active torsions:
  status: ('A' for Active; 'I' for Inactive)
    5  A    between atoms: CA   and  CB  
    6  A    between atoms: CB   and  CG  
    7  A    between atoms: CG   and  CD  
    8  A    between atoms: CD   and  CE  

$$$$
