ligand_11_pose_0_2HRL.pdbqt
 OpenBabel07062320523D

 54 54  0  0  1  0  0  0  0  0999 V2000
   27.1540   34.3540   13.8220 O   0  0  0  0  0  0  0  0  0  0  0  0
   25.7920   34.3460   13.4930 C   0  0  0  0  0  0  0  0  0  0  0  0
   25.1460   35.4520   12.9230 N   0  0  0  0  0  0  0  0  0  0  0  0
   25.7650   36.3150   12.7630 H   0  0  0  0  0  0  0  0  0  0  0  0
   25.1690   33.2990   13.7320 O   0  0  0  0  0  0  0  0  0  0  0  0
   23.7670   35.5470   12.5380 C   0  0  0  0  0  0  0  0  0  0  0  0
   23.4960   34.8220   11.2790 C   0  0  2  0  0  0  0  0  0  0  0  0
   23.8000   35.6390   10.0370 C   0  0  1  0  0  0  0  0  0  0  0  0
   22.8590   36.8450    9.9520 C   0  0  2  0  0  0  0  0  0  0  0  0
   21.2980   36.3990    8.2660 C   0  0  2  0  0  0  0  0  0  0  0  0
   22.4050   36.7820    7.3260 C   0  0  0  0  0  0  0  0  0  0  0  0
   21.5940   36.5200    9.5890 O   0  0  0  0  0  0  0  0  0  0  0  0
   23.2230   37.9520    7.7400 C   0  0  1  0  0  0  0  0  0  0  0  0
   23.4980   37.9840    9.2150 C   0  0  1  0  0  0  0  0  0  0  0  0
   21.0250   35.0540    8.0110 O   0  0  0  0  0  0  0  0  0  0  0  0
   20.1030   34.8170    8.2420 H   0  0  0  0  0  0  0  0  0  0  0  0
   20.0730   37.1710    7.9410 C   0  0  0  0  0  0  0  0  0  0  0  0
   19.7860   38.1990    8.5980 O   0  0  0  0  0  0  0  0  0  0  0  0
   19.2120   36.7930    6.9150 O   0  0  0  0  0  0  0  0  0  0  0  0
   18.2150   36.8300    7.1300 H   0  0  0  0  0  0  0  0  0  0  0  0
   24.4360   37.8910    7.0560 O   0  0  0  0  0  0  0  0  0  0  0  0
   25.1860   37.6770    7.6720 H   0  0  0  0  0  0  0  0  0  0  0  0
   23.0790   39.2080    9.8340 N   0  0  0  0  0  0  0  0  0  0  0  0
   23.7840   39.7020   10.9600 C   0  0  0  0  0  0  0  0  0  0  0  0
   22.2460   39.7430    9.4510 H   0  0  0  0  0  0  0  0  0  0  0  0
   23.3540   40.9620   11.6010 C   0  0  0  0  0  0  0  0  0  0  0  0
   24.7790   39.1020   11.4510 O   0  0  0  0  0  0  0  0  0  0  0  0
   25.1070   36.0840   10.0950 O   0  0  0  0  0  0  0  0  0  0  0  0
   25.6600   35.3820   10.5210 H   0  0  0  0  0  0  0  0  0  0  0  0
   22.2740   34.2330   11.2510 O   0  0  0  0  0  0  0  0  0  0  0  0
   21.5240   34.7910   11.5570 H   0  0  0  0  0  0  0  0  0  0  0  0
   27.9490   35.4910   13.4980 C   0  0  0  0  0  0  0  0  0  0  0  0
   28.1200   35.6520   12.0600 C   0  0  0  0  0  0  0  0  0  0  0  0
   28.6180   34.7550   11.1540 C   0  0  0  0  0  0  0  0  0  0  0  0
   27.8080   36.7410   11.3420 N   0  0  0  0  0  0  0  0  0  0  0  0
   28.6040   35.2920    9.9260 N   0  0  0  0  0  0  0  0  0  0  0  0
   28.1040   36.5040   10.0760 N   0  0  0  0  0  0  0  0  0  0  0  0
   29.0240   34.7570    8.6430 C   0  0  1  0  0  0  0  0  0  0  0  0
   27.9860   35.0100    7.6120 C   0  0  0  0  0  0  0  0  0  0  0  0
   28.4540   35.6180    6.3440 C   0  0  0  0  0  0  0  0  0  0  0  0
   28.0610   37.0160    6.1770 C   0  0  0  0  0  0  0  0  0  0  0  0
   28.6810   37.9600    6.7790 O   0  0  0  0  0  0  0  0  0  0  0  0
   26.9850   37.3430    5.3480 O   0  0  0  0  0  0  0  0  0  0  0  0
   26.0860   37.4810    5.7880 H   0  0  0  0  0  0  0  0  0  0  0  0
   30.4010   35.0680    8.3010 C   0  0  0  0  0  0  0  0  0  0  0  0
   31.2590   34.2640    7.9410 O   0  0  0  0  0  0  0  0  0  0  0  0
   30.7890   36.4180    8.3980 O   0  0  0  0  0  0  0  0  0  0  0  0
   31.4020   36.6900    9.1470 H   0  0  0  0  0  0  0  0  0  0  0  0
   29.8670   25.5550   16.9770 C   0  0  0  0  0  0  0  0  0  0  0  0
   28.3450   25.7220   17.0260 C   0  0  0  0  0  0  0  0  0  0  0  0
   27.6010   24.4010   16.9030 C   0  0  0  0  0  0  0  0  0  0  0  0
   26.1530   24.5290   17.2840 C   0  0  0  0  0  0  0  0  0  0  0  0
   25.6720   23.2220   17.9060 C   0  0  0  0  0  0  0  0  0  0  0  0
   24.4200   22.7670   17.2550 N   0  0  0  0  0  0  0  0  0  0  0  0
  2  5  2  0  0  0  0
  2  1  1  0  0  0  0
  3  2  1  0  0  0  0
  4  3  1  0  0  0  0
  6  3  1  0  0  0  0
  7  6  1  1  0  0  0
  8 28  1  1  0  0  0
  8  7  1  0  0  0  0
  9  8  1  6  0  0  0
 10 17  1  6  0  0  0
 10 12  1  0  0  0  0
 11 13  1  0  0  0  0
 11 10  1  0  0  0  0
 12  9  1  0  0  0  0
 13 21  1  6  0  0  0
 13 14  1  0  0  0  0
 14 23  1  1  0  0  0
 14  9  1  0  0  0  0
 15 16  1  0  0  0  0
 15 10  1  0  0  0  0
 17 18  2  0  0  0  0
 19 20  1  0  0  0  0
 19 17  1  0  0  0  0
 21 22  1  0  0  0  0
 23 24  1  0  0  0  0
 24 27  2  0  0  0  0
 24 26  1  0  0  0  0
 25 23  1  0  0  0  0
 28 29  1  0  0  0  0
 30  7  1  0  0  0  0
 30 31  1  0  0  0  0
 32  1  1  0  0  0  0
 33 32  1  0  0  0  0
 34 33  2  0  0  0  0
 35 33  1  0  0  0  0
 36 37  1  0  0  0  0
 36 34  1  0  0  0  0
 37 35  2  0  0  0  0
 38 39  1  6  0  0  0
 38 36  1  0  0  0  0
 40 39  1  0  0  0  0
 41 40  1  0  0  0  0
 41 42  2  0  0  0  0
 43 44  1  0  0  0  0
 43 41  1  0  0  0  0
 45 47  1  0  0  0  0
 45 38  1  0  0  0  0
 46 45  2  0  0  0  0
 47 48  1  0  0  0  0
 49 50  1  0  0  0  0
 51 50  1  0  0  0  0
 51 52  1  0  0  0  0
 52 53  1  0  0  0  0
 54 53  1  0  0  0  0
M  END
>  <REMARK>
 VINA RESULT:    -4.298      0.000      0.000
 INTER + INTRA:         -16.132
 INTER:                 -10.596
 INTRA:                  -5.537
 UNBOUND:                -7.438
 SMILES CC(=O)N[C@@H]1[C@@H](O)C[C@](O)(C(=O)O)O[C@H]1C(O)[C@H](O)CNC(=O)OCc1cn([C@@H](CCC(=O)O)C(=O)O)nn1
 SMILES IDX 24 1 22 2 21 3 23 5 20 6 18 7 16 8 15 9 9 10 8 11 14 12 6 13
 SMILES IDX 5 14 10 15 11 17 12 18 13 19 7 21 4 23 2 24 1 26 3 27 17 28
 SMILES IDX 19 30 25 32 26 33 27 34 39 35 28 36 38 37 29 38 30 39 31 40
 SMILES IDX 32 41 33 42 34 43 35 45 36 46 37 47
 H PARENT 21 4 10 16 13 20 7 22 4 25 17 29 19 31 34 44 37 48
 Flexibility Score: inf
  4 active torsions:
  status: ('A' for Active; 'I' for Inactive)
    1  A    between atoms: CA   and  CB  
    2  A    between atoms: CB   and  CG  
    3  A    between atoms: CG   and  CD  
    4  A    between atoms: CD   and  CE  

>  <TORSDO>
F 21

>  <BEGIN_>
RES LYS A 131

$$$$
ligand_11_pose_0_2HRL.pdbqt
 OpenBabel07062320523D

  6  5  0  0  0  0  0  0  0  0999 V2000
   33.1930   34.6630    9.2900 C   0  0  0  0  0  0  0  0  0  0  0  0
   32.0600   35.3600   10.0340 C   0  0  0  0  0  0  0  0  0  0  0  0
   32.4100   35.7320   11.4520 C   0  0  0  0  0  0  0  0  0  0  0  0
   31.6370   36.9680   11.8880 C   0  0  0  0  0  0  0  0  0  0  0  0
   31.6940   37.1270   13.3950 C   0  0  0  0  0  0  0  0  0  0  0  0
   30.6510   38.0750   13.8750 N   0  0  0  0  0  0  0  0  0  0  0  0
  1  2  1  0  0  0  0
  2  3  1  0  0  0  0
  3  4  1  0  0  0  0
  4  5  1  0  0  0  0
  5  6  1  0  0  0  0
M  END
>  <EGIN_R>
ES LYS A 135

>  <REMARK>
  4 active torsions:
  status: ('A' for Active; 'I' for Inactive)
    5  A    between atoms: CA   and  CB  
    6  A    between atoms: CB   and  CG  
    7  A    between atoms: CG   and  CD  
    8  A    between atoms: CD   and  CE  

$$$$
