ligand_81_pose_0_2HRL.pdbqt
 OpenBabel07062320523D

 63 65  0  0  1  0  0  0  0  0999 V2000
   26.7090   36.9740   10.5180 O   0  0  0  0  0  0  0  0  0  0  0  0
   25.8810   36.8150    9.4290 C   0  0  0  0  0  0  0  0  0  0  0  0
   24.8930   37.8070    9.0770 N   0  0  0  0  0  0  0  0  0  0  0  0
   24.8640   38.6300    9.7110 H   0  0  0  0  0  0  0  0  0  0  0  0
   26.0050   35.7730    8.7370 O   0  0  0  0  0  0  0  0  0  0  0  0
   24.0510   37.5880    7.9240 C   0  0  0  0  0  0  0  0  0  0  0  0
   22.6490   38.0660    8.2780 C   0  0  2  0  0  0  0  0  0  0  0  0
   21.6910   37.0620    7.6830 C   0  0  2  0  0  0  0  0  0  0  0  0
   21.5890   35.7660    8.4280 C   0  0  2  0  0  0  0  0  0  0  0  0
   19.2820   35.5050    8.1130 C   0  0  2  0  0  0  0  0  0  0  0  0
   19.1070   36.0860    9.5060 C   0  0  0  0  0  0  0  0  0  0  0  0
   20.5490   35.0490    7.8860 O   0  0  0  0  0  0  0  0  0  0  0  0
   20.1550   35.4700   10.4100 C   0  0  1  0  0  0  0  0  0  0  0  0
   21.5620   35.8520    9.9100 C   0  0  1  0  0  0  0  0  0  0  0  0
   18.8970   36.5200    7.2280 O   0  0  0  0  0  0  0  0  0  0  0  0
   18.1250   37.0290    7.5600 H   0  0  0  0  0  0  0  0  0  0  0  0
   18.3580   34.3700    7.9060 C   0  0  0  0  0  0  0  0  0  0  0  0
   17.6910   33.9420    8.8670 O   0  0  0  0  0  0  0  0  0  0  0  0
   18.2350   33.7930    6.6700 O   0  0  0  0  0  0  0  0  0  0  0  0
   18.5230   32.8500    6.4410 H   0  0  0  0  0  0  0  0  0  0  0  0
   19.9690   35.8530   11.7190 O   0  0  0  0  0  0  0  0  0  0  0  0
   19.5500   35.1410   12.2470 H   0  0  0  0  0  0  0  0  0  0  0  0
   22.4530   34.8720   10.5460 N   0  0  0  0  0  0  0  0  0  0  0  0
   23.4120   35.3110   11.4900 C   0  0  0  0  0  0  0  0  0  0  0  0
   22.3920   33.8580   10.3160 H   0  0  0  0  0  0  0  0  0  0  0  0
   24.3500   34.3700   12.1750 C   0  0  0  0  0  0  0  0  0  0  0  0
   23.4560   36.5470   11.7440 O   0  0  0  0  0  0  0  0  0  0  0  0
   22.3310   36.7090    6.4490 O   0  0  0  0  0  0  0  0  0  0  0  0
   22.2600   35.7450    6.3040 H   0  0  0  0  0  0  0  0  0  0  0  0
   22.5310   39.3440    7.7550 O   0  0  0  0  0  0  0  0  0  0  0  0
   22.6670   40.0360    8.4370 H   0  0  0  0  0  0  0  0  0  0  0  0
   27.2480   38.1970   10.9680 C   0  0  0  0  0  0  0  0  0  0  0  0
   28.3320   37.9310   11.9670 C   0  0  0  0  0  0  0  0  0  0  0  0
   29.0570   36.7800   12.1440 C   0  0  0  0  0  0  0  0  0  0  0  0
   28.7980   38.7930   12.8970 N   0  0  0  0  0  0  0  0  0  0  0  0
   29.9490   36.9470   13.1670 N   0  0  0  0  0  0  0  0  0  0  0  0
   29.7480   38.1900   13.5870 N   0  0  0  0  0  0  0  0  0  0  0  0
   30.8600   35.9830   13.6630 C   0  0  0  0  0  0  0  0  0  0  0  0
   32.0440   35.7740   13.0710 N   0  0  0  0  0  0  0  0  0  0  0  0
   30.5340   35.1970   14.7750 C   0  0  0  0  0  0  0  0  0  0  0  0
   32.9090   34.8330   13.5270 C   0  0  0  0  0  0  0  0  0  0  0  0
   31.4010   34.2470   15.2340 C   0  0  0  0  0  0  0  0  0  0  0  0
   32.6100   34.0740   14.5860 N   0  0  0  0  0  0  0  0  0  0  0  0
   29.2170   35.3990   15.4140 C   0  0  0  0  0  0  0  0  0  0  0  0
   28.1090   34.5430   14.8690 C   0  0  0  0  0  0  0  0  0  0  0  0
   27.1210   34.3090   15.7840 O   0  0  0  0  0  0  0  0  0  0  0  0
   27.1710   33.0620   16.3640 C   0  0  0  0  0  0  0  0  0  0  0  0
   27.0550   33.1370   17.8720 C   0  0  0  0  0  0  0  0  0  0  0  0
   34.1480   34.6480   12.8710 N   0  0  0  0  0  0  0  0  0  0  0  0
   34.7030   33.7900   13.0380 H   0  0  0  0  0  0  0  0  0  0  0  0
   34.5330   35.3540   12.2160 H   0  0  0  0  0  0  0  0  0  0  0  0
   31.0740   33.3280   16.3070 C   0  0  0  0  0  0  0  0  0  0  0  0
   31.0650   33.5520   17.6340 C   0  0  0  0  0  0  0  0  0  0  0  0
   30.6940   32.0330   15.8880 C   0  0  0  0  0  0  0  0  0  0  0  0
   30.6940   32.5400   18.5400 C   0  0  0  0  0  0  0  0  0  0  0  0
   30.3320   31.0420   16.7570 C   0  0  0  0  0  0  0  0  0  0  0  0
   30.3270   31.2850   18.1200 C   0  0  0  0  0  0  0  0  0  0  0  0
   29.8670   25.5550   16.9770 C   0  0  0  0  0  0  0  0  0  0  0  0
   28.3450   25.7220   17.0260 C   0  0  0  0  0  0  0  0  0  0  0  0
   27.6000   24.4100   16.8320 C   0  0  0  0  0  0  0  0  0  0  0  0
   26.8110   24.0210   18.0510 C   0  0  0  0  0  0  0  0  0  0  0  0
   26.2960   25.2770   18.7460 C   0  0  0  0  0  0  0  0  0  0  0  0
   24.9170   25.0650   19.2450 N   0  0  0  0  0  0  0  0  0  0  0  0
  1 32  1  0  0  0  0
  2  1  1  0  0  0  0
  3  2  1  0  0  0  0
  3  4  1  0  0  0  0
  5  2  2  0  0  0  0
  6  3  1  0  0  0  0
  7  6  1  6  0  0  0
  8 28  1  6  0  0  0
  8  7  1  0  0  0  0
  9  8  1  6  0  0  0
  9 14  1  0  0  0  0
 10 15  1  6  0  0  0
 10 11  1  0  0  0  0
 11 13  1  0  0  0  0
 12 10  1  0  0  0  0
 12  9  1  0  0  0  0
 13 21  1  1  0  0  0
 14 13  1  0  0  0  0
 14 23  1  1  0  0  0
 15 16  1  0  0  0  0
 17 10  1  0  0  0  0
 17 18  2  0  0  0  0
 19 17  1  0  0  0  0
 20 19  1  0  0  0  0
 21 22  1  0  0  0  0
 23 24  1  0  0  0  0
 24 27  2  0  0  0  0
 24 26  1  0  0  0  0
 25 23  1  0  0  0  0
 29 28  1  0  0  0  0
 30  7  1  0  0  0  0
 30 31  1  0  0  0  0
 32 33  1  0  0  0  0
 33 34  2  0  0  0  0
 33 35  1  0  0  0  0
 34 36  1  0  0  0  0
 35 37  2  0  0  0  0
 36 37  1  0  0  0  0
 36 38  1  0  0  0  0
 38 40  2  0  0  0  0
 39 41  2  0  0  0  0
 39 38  1  0  0  0  0
 40 42  1  0  0  0  0
 40 44  1  0  0  0  0
 41 43  1  0  0  0  0
 42 52  1  0  0  0  0
 43 42  2  0  0  0  0
 45 44  1  0  0  0  0
 45 46  1  0  0  0  0
 46 47  1  0  0  0  0
 47 48  1  0  0  0  0
 49 50  1  0  0  0  0
 49 41  1  0  0  0  0
 51 49  1  0  0  0  0
 52 53  1  0  0  0  0
 53 55  2  0  0  0  0
 54 52  2  0  0  0  0
 54 56  1  0  0  0  0
 56 57  2  0  0  0  0
 57 55  1  0  0  0  0
 58 59  1  0  0  0  0
 60 59  1  0  0  0  0
 60 61  1  0  0  0  0
 61 62  1  0  0  0  0
 62 63  1  0  0  0  0
M  END
>  <REMARK>
 VINA RESULT:    -5.039      0.000      0.000
 INTER + INTRA:         -17.512
 INTER:                 -11.641
 INTRA:                  -5.871
 UNBOUND:                -7.171
 SMILES CCOCCc1c(-c2ccccc2)nc(N)nc1-n1cc(COC(=O)NC[C@@H](O)C(O)[C@@H]2O[C@@](O)(C(=O)O)C[C@H](O)[C@H]2NC(C)=O)nn1
 SMILES IDX 23 1 24 2 26 3 25 5 27 6 28 7 30 8 32 9 34 10 39 11 33 12
 SMILES IDX 40 13 42 14 35 15 36 17 37 18 38 19 41 21 43 23 44 24 45 26
 SMILES IDX 46 27 31 28 29 30 22 32 21 33 20 34 47 35 19 36 48 37 18 38
 SMILES IDX 17 39 6 40 15 41 7 42 14 43 5 44 4 45 3 46 2 47 1 48 16 49
 SMILES IDX 8 52 9 53 13 54 10 55 12 56 11 57
 H PARENT 26 4 35 16 38 20 41 22 43 25 31 29 29 31 16 50 16 51
 Flexibility Score: inf
  4 active torsions:
  status: ('A' for Active; 'I' for Inactive)
    1  A    between atoms: CA   and  CB  
    2  A    between atoms: CB   and  CG  
    3  A    between atoms: CG   and  CD  
    4  A    between atoms: CD   and  CE  

>  <TORSDO>
F 21

>  <BEGIN_>
RES LYS A 131

$$$$
ligand_81_pose_0_2HRL.pdbqt
 OpenBabel07062320523D

  6  5  0  0  0  0  0  0  0  0999 V2000
   33.1930   34.6630    9.2900 C   0  0  0  0  0  0  0  0  0  0  0  0
   32.0600   35.3600   10.0340 C   0  0  0  0  0  0  0  0  0  0  0  0
   30.7010   34.7740    9.7480 C   0  0  0  0  0  0  0  0  0  0  0  0
   30.5370   34.5010    8.2610 C   0  0  0  0  0  0  0  0  0  0  0  0
   29.3020   35.2000    7.7250 C   0  0  0  0  0  0  0  0  0  0  0  0
   29.3250   36.6530    8.0470 N   0  0  0  0  0  0  0  0  0  0  0  0
  1  2  1  0  0  0  0
  3  2  1  0  0  0  0
  4  3  1  0  0  0  0
  5  6  1  0  0  0  0
  5  4  1  0  0  0  0
M  END
>  <EGIN_R>
ES LYS A 135

>  <REMARK>
  4 active torsions:
  status: ('A' for Active; 'I' for Inactive)
    5  A    between atoms: CA   and  CB  
    6  A    between atoms: CB   and  CG  
    7  A    between atoms: CG   and  CD  
    8  A    between atoms: CD   and  CE  

$$$$
