ligand_83_pose_0_2HRL.pdbqt
 OpenBabel07062320523D

 56 57  0  0  1  0  0  0  0  0999 V2000
   32.2390   32.4210   22.2630 O   0  0  0  0  0  0  0  0  0  0  0  0
   32.7500   31.1360   22.0120 C   0  0  0  0  0  0  0  0  0  0  0  0
   31.9470   29.9920   21.9780 N   0  0  0  0  0  0  0  0  0  0  0  0
   30.9060   30.1210   22.1550 H   0  0  0  0  0  0  0  0  0  0  0  0
   33.9710   31.0630   21.8180 O   0  0  0  0  0  0  0  0  0  0  0  0
   32.4310   28.6560   21.7220 C   0  0  0  0  0  0  0  0  0  0  0  0
   31.5200   28.0080   20.7140 C   0  0  2  0  0  0  0  0  0  0  0  0
   30.6890   26.9700   21.4310 C   0  0  2  0  0  0  0  0  0  0  0  0
   29.2050   27.3010   21.3410 C   0  0  2  0  0  0  0  0  0  0  0  0
   27.7910   28.6690   20.0950 C   0  0  2  0  0  0  0  0  0  0  0  0
   27.0150   28.8190   21.3890 C   0  0  0  0  0  0  0  0  0  0  0  0
   29.0720   28.2540   20.3690 O   0  0  0  0  0  0  0  0  0  0  0  0
   27.9790   29.0580   22.5290 C   0  0  1  0  0  0  0  0  0  0  0  0
   28.7490   27.7560   22.7160 C   0  0  1  0  0  0  0  0  0  0  0  0
   27.8980   29.9140   19.4440 O   0  0  0  0  0  0  0  0  0  0  0  0
   27.1900   30.4890   19.8160 H   0  0  0  0  0  0  0  0  0  0  0  0
   27.1600   27.7190   19.1710 C   0  0  0  0  0  0  0  0  0  0  0  0
   26.1960   27.0260   19.5360 O   0  0  0  0  0  0  0  0  0  0  0  0
   27.6330   27.5840   17.8780 O   0  0  0  0  0  0  0  0  0  0  0  0
   27.3800   26.7920   17.3170 H   0  0  0  0  0  0  0  0  0  0  0  0
   28.9220   30.0350   22.2520 O   0  0  0  0  0  0  0  0  0  0  0  0
   29.3550   29.8590   21.3940 H   0  0  0  0  0  0  0  0  0  0  0  0
   27.8900   26.7940   23.3450 N   0  0  0  0  0  0  0  0  0  0  0  0
   28.2750   26.1590   24.5440 C   0  0  0  0  0  0  0  0  0  0  0  0
   26.9510   26.5140   22.9560 H   0  0  0  0  0  0  0  0  0  0  0  0
   27.3760   25.1570   25.1940 C   0  0  0  0  0  0  0  0  0  0  0  0
   29.3780   26.4220   25.0890 O   0  0  0  0  0  0  0  0  0  0  0  0
   31.0210   26.9980   22.7710 O   0  0  0  0  0  0  0  0  0  0  0  0
   30.6630   27.7860   23.2410 H   0  0  0  0  0  0  0  0  0  0  0  0
   32.2200   27.4660   19.6410 O   0  0  0  0  0  0  0  0  0  0  0  0
   31.5500   27.0270   19.0580 H   0  0  0  0  0  0  0  0  0  0  0  0
   30.9420   32.7750   21.7570 C   0  0  0  0  0  0  0  0  0  0  0  0
   30.8160   32.4640   20.3370 C   0  0  0  0  0  0  0  0  0  0  0  0
   31.1660   33.2860   19.2950 C   0  0  0  0  0  0  0  0  0  0  0  0
   30.3360   31.3200   19.8250 N   0  0  0  0  0  0  0  0  0  0  0  0
   30.8850   32.6120   18.1710 N   0  0  0  0  0  0  0  0  0  0  0  0
   30.3920   31.4450   18.5090 N   0  0  0  0  0  0  0  0  0  0  0  0
   31.1120   33.1390   16.8140 C   0  0  0  0  0  0  0  0  0  0  0  0
   30.2680   32.3760   15.8180 C   0  0  2  0  0  0  0  0  0  0  0  0
   31.1080   32.1650   14.7020 O   0  0  0  0  0  0  0  0  0  0  0  0
   31.3160   31.2220   14.5650 H   0  0  0  0  0  0  0  0  0  0  0  0
   29.0750   33.1970   15.4480 C   0  0  0  0  0  0  0  0  0  0  0  0
   28.1240   33.1480   16.5630 N   0  0  0  0  0  0  0  0  0  0  0  0
   27.8990   34.1300   17.4660 C   0  0  0  0  0  0  0  0  0  0  0  0
   27.3380   32.1190   16.8270 C   0  0  0  0  0  0  0  0  0  0  0  0
   26.9390   33.6870   18.3170 C   0  0  0  0  0  0  0  0  0  0  0  0
   26.6020   32.4610   17.9210 N   0  0  0  0  0  0  0  0  0  0  0  0
   27.2430   30.8660   16.1300 N   0  0  0  0  0  0  0  0  0  0  0  0
   26.3980   30.6410   15.2490 O   0  0  0  0  0  0  0  0  0  0  0  0
   28.1300   29.8570   16.4480 O   0  0  0  0  0  0  0  0  0  0  0  0
   29.8670   25.5550   16.9770 C   0  0  0  0  0  0  0  0  0  0  0  0
   28.3450   25.7220   17.0260 C   0  0  0  0  0  0  0  0  0  0  0  0
   27.5990   24.4200   16.7740 C   0  0  0  0  0  0  0  0  0  0  0  0
   26.8170   23.9740   17.9780 C   0  0  0  0  0  0  0  0  0  0  0  0
   25.5060   23.3400   17.5260 C   0  0  0  0  0  0  0  0  0  0  0  0
   24.6070   24.3650   16.9450 N   0  0  0  0  0  0  0  0  0  0  0  0
  2  1  1  0  0  0  0
  3  2  1  0  0  0  0
  3  4  1  0  0  0  0
  5  2  2  0  0  0  0
  6  3  1  0  0  0  0
  7  8  1  0  0  0  0
  7  6  1  1  0  0  0
  8 28  1  1  0  0  0
  9  8  1  1  0  0  0
  9 14  1  0  0  0  0
 10 17  1  6  0  0  0
 10 12  1  0  0  0  0
 10 11  1  0  0  0  0
 11 13  1  0  0  0  0
 12  9  1  0  0  0  0
 13 21  1  6  0  0  0
 13 14  1  0  0  0  0
 14 23  1  6  0  0  0
 15 16  1  0  0  0  0
 15 10  1  0  0  0  0
 17 18  2  0  0  0  0
 19 17  1  0  0  0  0
 20 19  1  0  0  0  0
 22 21  1  0  0  0  0
 23 24  1  0  0  0  0
 24 27  2  0  0  0  0
 24 26  1  0  0  0  0
 25 23  1  0  0  0  0
 28 29  1  0  0  0  0
 30  7  1  0  0  0  0
 31 30  1  0  0  0  0
 32  1  1  0  0  0  0
 33 32  1  0  0  0  0
 34 33  2  0  0  0  0
 35 33  1  0  0  0  0
 36 37  1  0  0  0  0
 36 34  1  0  0  0  0
 37 35  2  0  0  0  0
 38 36  1  0  0  0  0
 39 42  1  6  0  0  0
 39 38  1  0  0  0  0
 40 39  1  0  0  0  0
 41 40  1  0  0  0  0
 42 43  1  0  0  0  0
 43 45  1  0  0  0  0
 43 44  1  0  0  0  0
 44 46  2  0  0  0  0
 45 47  2  0  0  0  0
 47 46  1  0  0  0  0
 48 50  2  0  0  0  0
 48 45  1  0  0  0  0
 49 48  2  0  0  0  0
 51 52  1  0  0  0  0
 53 52  1  0  0  0  0
 53 54  1  0  0  0  0
 55 54  1  0  0  0  0
 56 55  1  0  0  0  0
M  END
>  <REMARK>
 VINA RESULT:    -4.086      0.000      0.000
 INTER + INTRA:         -16.592
 INTER:                  -8.244
 INTRA:                  -8.348
 UNBOUND:                -8.446
 SMILES CC(=O)N[C@@H]1[C@@H](O)C[C@](O)(C(=O)O)O[C@H]1C(O)[C@H](O)CNC(=O)OCc1cn(CC(O)Cn2ccnc2[N+](=O)[O-])nn1
 SMILES IDX 24 1 22 2 21 3 23 5 20 6 18 7 16 8 15 9 9 10 8 11 14 12 6 13
 SMILES IDX 5 14 10 15 11 17 12 18 13 19 7 21 4 23 2 24 1 26 3 27 17 28
 SMILES IDX 19 30 25 32 26 33 27 34 42 35 28 36 41 37 29 38 30 39 31 40
 SMILES IDX 32 42 33 43 34 44 37 45 35 46 36 47 38 48 39 49 40 50
 H PARENT 21 4 10 16 13 20 7 22 4 25 17 29 19 31 31 41
 Flexibility Score: inf
  4 active torsions:
  status: ('A' for Active; 'I' for Inactive)
    1  A    between atoms: CA   and  CB  
    2  A    between atoms: CB   and  CG  
    3  A    between atoms: CG   and  CD  
    4  A    between atoms: CD   and  CE  

>  <TORSDO>
F 20

>  <BEGIN_>
RES LYS A 131

$$$$
ligand_83_pose_0_2HRL.pdbqt
 OpenBabel07062320523D

  6  5  0  0  0  0  0  0  0  0999 V2000
   33.1930   34.6630    9.2900 C   0  0  0  0  0  0  0  0  0  0  0  0
   32.0600   35.3600   10.0340 C   0  0  0  0  0  0  0  0  0  0  0  0
   30.8360   35.5940    9.1860 C   0  0  0  0  0  0  0  0  0  0  0  0
   30.1670   34.2740    8.8350 C   0  0  0  0  0  0  0  0  0  0  0  0
   28.7170   34.4980    8.4510 C   0  0  0  0  0  0  0  0  0  0  0  0
   28.6110   35.2860    7.1920 N   0  0  0  0  0  0  0  0  0  0  0  0
  1  2  1  0  0  0  0
  3  2  1  0  0  0  0
  4  3  1  0  0  0  0
  5  4  1  0  0  0  0
  6  5  1  0  0  0  0
M  END
>  <EGIN_R>
ES LYS A 135

>  <REMARK>
  4 active torsions:
  status: ('A' for Active; 'I' for Inactive)
    5  A    between atoms: CA   and  CB  
    6  A    between atoms: CB   and  CG  
    7  A    between atoms: CG   and  CD  
    8  A    between atoms: CD   and  CE  

$$$$
