ligand_73_pose_0_2HRL.pdbqt
 OpenBabel07062320523D

 54 55  0  0  1  0  0  0  0  0999 V2000
   27.7360   28.1400   18.4770 N   0  0  0  0  0  0  0  0  0  0  0  0
   27.7960   27.8710   19.8710 C   0  0  0  0  0  0  0  0  0  0  0  0
   26.7520   27.5790   20.5440 O   0  0  0  0  0  0  0  0  0  0  0  0
   28.6050   28.3660   17.9680 H   0  0  0  0  0  0  0  0  0  0  0  0
   26.4700   28.0810   17.8070 C   0  0  0  0  0  0  0  0  0  0  0  0
   25.9460   29.3590   17.2590 C   0  0  2  0  0  0  0  0  0  0  0  0
   26.6790   29.9010   16.0590 C   0  0  1  0  0  0  0  0  0  0  0  0
   26.2840   31.2890   15.6620 C   0  0  2  0  0  0  0  0  0  0  0  0
   26.5080   33.5240   16.1430 C   0  0  2  0  0  0  0  0  0  0  0  0
   25.9420   33.6000   14.7430 C   0  0  0  0  0  0  0  0  0  0  0  0
   26.7060   32.2290   16.5880 O   0  0  0  0  0  0  0  0  0  0  0  0
   24.6570   32.8450   14.6870 C   0  0  1  0  0  0  0  0  0  0  0  0
   24.8790   31.4190   15.2050 C   0  0  1  0  0  0  0  0  0  0  0  0
   25.6020   34.1580   16.9810 O   0  0  0  0  0  0  0  0  0  0  0  0
   24.6960   34.0060   16.5940 H   0  0  0  0  0  0  0  0  0  0  0  0
   27.7740   34.2980   16.1500 C   0  0  0  0  0  0  0  0  0  0  0  0
   28.4620   34.4360   15.1050 O   0  0  0  0  0  0  0  0  0  0  0  0
   28.2250   34.8890   17.3150 O   0  0  0  0  0  0  0  0  0  0  0  0
   28.0120   34.5470   18.2320 H   0  0  0  0  0  0  0  0  0  0  0  0
   23.7350   33.5400   15.4920 O   0  0  0  0  0  0  0  0  0  0  0  0
   22.8530   33.0750   15.3590 H   0  0  0  0  0  0  0  0  0  0  0  0
   24.7220   30.5180   14.0530 N   0  0  0  0  0  0  0  0  0  0  0  0
   23.5640   29.7400   13.8430 C   0  0  0  0  0  0  0  0  0  0  0  0
   25.5060   30.4540   13.3610 H   0  0  0  0  0  0  0  0  0  0  0  0
   23.4460   28.8420   12.6690 C   0  0  0  0  0  0  0  0  0  0  0  0
   22.6290   29.8050   14.6510 O   0  0  0  0  0  0  0  0  0  0  0  0
   28.0590   29.8870   16.2600 O   0  0  0  0  0  0  0  0  0  0  0  0
   28.5750   29.8820   15.4370 H   0  0  0  0  0  0  0  0  0  0  0  0
   25.9960   30.2940   18.3050 O   0  0  0  0  0  0  0  0  0  0  0  0
   26.8570   30.7940   18.2120 H   0  0  0  0  0  0  0  0  0  0  0  0
   29.0210   27.9350   20.4920 O   0  0  0  0  0  0  0  0  0  0  0  0
   29.4770   29.1480   21.0060 C   0  0  0  0  0  0  0  0  0  0  0  0
   29.4460   30.2590   20.0170 C   0  0  0  0  0  0  0  0  0  0  0  0
   30.4360   30.6380   19.1220 C   0  0  0  0  0  0  0  0  0  0  0  0
   28.4410   31.1260   19.7940 N   0  0  0  0  0  0  0  0  0  0  0  0
   30.0230   31.6910   18.3990 N   0  0  0  0  0  0  0  0  0  0  0  0
   28.8040   31.9710   18.8270 N   0  0  0  0  0  0  0  0  0  0  0  0
   30.7120   32.3980   17.3740 C   0  0  0  0  0  0  0  0  0  0  0  0
   30.7780   31.8780   16.0980 C   0  0  0  0  0  0  0  0  0  0  0  0
   31.3360   33.6080   17.5920 C   0  0  0  0  0  0  0  0  0  0  0  0
   31.4440   32.5500   15.0860 C   0  0  0  0  0  0  0  0  0  0  0  0
   32.0140   34.3160   16.6120 C   0  0  0  0  0  0  0  0  0  0  0  0
   32.0540   33.7550   15.3390 C   0  0  0  0  0  0  0  0  0  0  0  0
   32.6470   35.5520   16.8520 N   0  0  0  0  0  0  0  0  0  0  0  0
   32.1990   36.5750   16.3320 O   0  0  0  0  0  0  0  0  0  0  0  0
   33.7430   35.6110   17.6540 O   0  0  0  0  0  0  0  0  0  0  0  0
   32.7370   34.4680   14.3560 O   0  0  0  0  0  0  0  0  0  0  0  0
   32.6090   34.1790   13.3750 H   0  0  0  0  0  0  0  0  0  0  0  0
   29.8670   25.5550   16.9770 C   0  0  0  0  0  0  0  0  0  0  0  0
   28.3450   25.7220   17.0260 C   0  0  0  0  0  0  0  0  0  0  0  0
   27.6010   24.4040   16.8770 C   0  0  0  0  0  0  0  0  0  0  0  0
   26.1520   24.5250   17.2600 C   0  0  0  0  0  0  0  0  0  0  0  0
   26.0210   24.4800   18.7790 C   0  0  0  0  0  0  0  0  0  0  0  0
   25.5330   23.1510   19.2190 N   0  0  0  0  0  0  0  0  0  0  0  0
  1  2  1  0  0  0  0
  2 31  1  0  0  0  0
  2  3  2  0  0  0  0
  4  1  1  0  0  0  0
  5  1  1  0  0  0  0
  6  5  1  1  0  0  0
  6 29  1  0  0  0  0
  7 27  1  1  0  0  0
  7  6  1  0  0  0  0
  8  7  1  1  0  0  0
  8 11  1  0  0  0  0
  9 16  1  1  0  0  0
  9 11  1  0  0  0  0
  9 14  1  0  0  0  0
 10  9  1  0  0  0  0
 12 10  1  0  0  0  0
 12 13  1  0  0  0  0
 12 20  1  1  0  0  0
 13 22  1  6  0  0  0
 13  8  1  0  0  0  0
 15 14  1  0  0  0  0
 16 18  1  0  0  0  0
 17 16  2  0  0  0  0
 18 19  1  0  0  0  0
 21 20  1  0  0  0  0
 23 22  1  0  0  0  0
 23 26  2  0  0  0  0
 24 22  1  0  0  0  0
 25 23  1  0  0  0  0
 28 27  1  0  0  0  0
 30 29  1  0  0  0  0
 31 32  1  0  0  0  0
 33 32  1  0  0  0  0
 34 33  2  0  0  0  0
 35 33  1  0  0  0  0
 36 37  1  0  0  0  0
 36 34  1  0  0  0  0
 37 35  2  0  0  0  0
 38 40  1  0  0  0  0
 38 36  1  0  0  0  0
 39 38  2  0  0  0  0
 41 43  2  0  0  0  0
 41 39  1  0  0  0  0
 42 44  1  0  0  0  0
 42 40  2  0  0  0  0
 43 42  1  0  0  0  0
 44 46  2  0  0  0  0
 45 44  2  0  0  0  0
 47 43  1  0  0  0  0
 48 47  1  0  0  0  0
 49 50  1  0  0  0  0
 51 50  1  0  0  0  0
 51 52  1  0  0  0  0
 52 53  1  0  0  0  0
 53 54  1  0  0  0  0
M  END
>  <REMARK>
 VINA RESULT:    -4.518      0.000      0.000
 INTER + INTRA:         -15.527
 INTER:                  -8.796
 INTRA:                  -6.731
 UNBOUND:                -7.311
 SMILES CC(=O)N[C@@H]1[C@@H](O)C[C@](O)(C(=O)O)O[C@H]1C(O)[C@H](O)CNC(=O)OCc1cn(-c2ccc(O)c([N+](=O)[O-])c2)nn1
 SMILES IDX 21 1 22 2 23 3 20 5 18 6 16 7 15 8 9 9 8 10 14 11 6 12 5 13
 SMILES IDX 10 14 11 16 12 17 13 18 7 20 4 22 2 23 1 25 3 26 17 27 19 29
 SMILES IDX 24 31 25 32 26 33 27 34 40 35 28 36 39 37 29 38 30 39 38 40
 SMILES IDX 31 41 34 42 32 43 35 44 36 45 37 46 33 47
 H PARENT 21 4 10 15 13 19 7 21 4 24 17 28 19 30 33 48
 Flexibility Score: inf
  4 active torsions:
  status: ('A' for Active; 'I' for Inactive)
    1  A    between atoms: CA   and  CB  
    2  A    between atoms: CB   and  CG  
    3  A    between atoms: CG   and  CD  
    4  A    between atoms: CD   and  CE  

>  <TORSDO>
F 17

>  <BEGIN_>
RES LYS A 131

$$$$
ligand_73_pose_0_2HRL.pdbqt
 OpenBabel07062320523D

  6  5  0  0  0  0  0  0  0  0999 V2000
   33.1930   34.6630    9.2900 C   0  0  0  0  0  0  0  0  0  0  0  0
   32.0600   35.3600   10.0340 C   0  0  0  0  0  0  0  0  0  0  0  0
   30.7620   35.3840    9.2690 C   0  0  0  0  0  0  0  0  0  0  0  0
   30.1300   34.0010    9.2420 C   0  0  0  0  0  0  0  0  0  0  0  0
   28.6350   34.1030    9.0030 C   0  0  0  0  0  0  0  0  0  0  0  0
   28.3360   34.9910    7.8460 N   0  0  0  0  0  0  0  0  0  0  0  0
  1  2  1  0  0  0  0
  3  2  1  0  0  0  0
  4  3  1  0  0  0  0
  5  4  1  0  0  0  0
  6  5  1  0  0  0  0
M  END
>  <EGIN_R>
ES LYS A 135

>  <REMARK>
  4 active torsions:
  status: ('A' for Active; 'I' for Inactive)
    5  A    between atoms: CA   and  CB  
    6  A    between atoms: CB   and  CG  
    7  A    between atoms: CG   and  CD  
    8  A    between atoms: CD   and  CE  

$$$$
