ligand_30_pose_0_2HRL.pdbqt
 OpenBabel07062320523D

 57 57  0  0  1  0  0  0  0  0999 V2000
   27.5400   35.9690   13.5870 C   0  0  0  0  0  0  0  0  0  0  0  0
   26.6660   34.8950   13.9730 N   0  0  0  0  0  0  0  0  0  0  0  0
   25.1950   33.2690   14.0400 C   0  0  0  0  0  0  0  0  0  0  0  0
   25.7920   34.1790   13.2100 C   0  0  0  0  0  0  0  0  0  0  0  0
   25.7120   33.4480   15.2750 N   0  0  0  0  0  0  0  0  0  0  0  0
   26.5810   34.4190   15.1990 N   0  0  0  0  0  0  0  0  0  0  0  0
   24.1730   32.2840   13.6270 C   0  0  0  0  0  0  0  0  0  0  0  0
   24.7320   30.9920   13.5410 O   0  0  0  0  0  0  0  0  0  0  0  0
   24.7190   30.1390   14.6360 C   0  0  0  0  0  0  0  0  0  0  0  0
   25.7360   30.1810   15.6260 N   0  0  0  0  0  0  0  0  0  0  0  0
   26.5220   30.8620   15.5470 H   0  0  0  0  0  0  0  0  0  0  0  0
   23.7570   29.3020   14.7360 O   0  0  0  0  0  0  0  0  0  0  0  0
   25.6840   29.2860   16.7380 C   0  0  0  0  0  0  0  0  0  0  0  0
   26.9870   29.2330   17.5070 C   0  0  2  0  0  0  0  0  0  0  0  0
   27.0930   30.4170   18.4200 C   0  0  2  0  0  0  0  0  0  0  0  0
   27.8750   30.0430   19.6610 C   0  0  2  0  0  0  0  0  0  0  0  0
   30.0430   29.6340   20.3690 C   0  0  2  0  0  0  0  0  0  0  0  0
   29.3470   28.8610   21.4670 C   0  0  0  0  0  0  0  0  0  0  0  0
   29.1950   29.9350   19.3160 O   0  0  0  0  0  0  0  0  0  0  0  0
   28.3750   27.9090   20.8290 C   0  0  1  0  0  0  0  0  0  0  0  0
   27.2680   28.7770   20.2130 C   0  0  1  0  0  0  0  0  0  0  0  0
   31.0390   28.8020   19.8650 O   0  0  0  0  0  0  0  0  0  0  0  0
   31.7950   28.7280   20.4910 H   0  0  0  0  0  0  0  0  0  0  0  0
   30.6640   30.8120   20.9740 C   0  0  0  0  0  0  0  0  0  0  0  0
   31.1410   31.7050   20.2330 O   0  0  0  0  0  0  0  0  0  0  0  0
   30.7670   31.0220   22.3430 O   0  0  0  0  0  0  0  0  0  0  0  0
   31.6410   31.4270   22.7130 H   0  0  0  0  0  0  0  0  0  0  0  0
   28.9950   27.1180   19.8850 O   0  0  0  0  0  0  0  0  0  0  0  0
   28.3800   27.0170   19.1170 H   0  0  0  0  0  0  0  0  0  0  0  0
   26.3520   29.0630   21.2950 N   0  0  0  0  0  0  0  0  0  0  0  0
   24.9690   28.8450   21.0850 C   0  0  0  0  0  0  0  0  0  0  0  0
   26.6810   29.4240   22.2250 H   0  0  0  0  0  0  0  0  0  0  0  0
   23.9890   29.1290   22.1780 C   0  0  0  0  0  0  0  0  0  0  0  0
   24.5630   28.4170   19.9870 O   0  0  0  0  0  0  0  0  0  0  0  0
   25.7960   30.8430   18.7250 O   0  0  0  0  0  0  0  0  0  0  0  0
   25.6940   31.8100   18.7140 H   0  0  0  0  0  0  0  0  0  0  0  0
   28.0860   29.2490   16.6490 O   0  0  0  0  0  0  0  0  0  0  0  0
   27.9440   29.8540   15.8970 H   0  0  0  0  0  0  0  0  0  0  0  0
   28.9570   35.5980   13.9350 C   0  0  0  0  0  0  0  0  0  0  0  0
   29.5210   34.5350   13.0360 C   0  0  0  0  0  0  0  0  0  0  0  0
   30.8820   34.8980   12.4970 C   0  0  0  0  0  0  0  0  0  0  0  0
   31.6540   35.6900   13.5480 C   0  0  0  0  0  0  0  0  0  0  0  0
   32.8180   34.8610   14.0230 C   0  0  0  0  0  0  0  0  0  0  0  0
   32.8820   34.8030   15.5220 C   0  0  0  0  0  0  0  0  0  0  0  0
   31.6440   34.1810   16.0780 C   0  0  0  0  0  0  0  0  0  0  0  0
   31.4880   32.7420   15.5930 C   0  0  0  0  0  0  0  0  0  0  0  0
   30.7090   31.8970   16.5650 C   0  0  0  0  0  0  0  0  0  0  0  0
   29.3150   32.4410   16.5790 C   0  0  0  0  0  0  0  0  0  0  0  0
   28.8830   33.2000   17.4710 O   0  0  0  0  0  0  0  0  0  0  0  0
   28.4410   32.0910   15.5490 O   0  0  0  0  0  0  0  0  0  0  0  0
   27.6200   31.5550   15.7680 H   0  0  0  0  0  0  0  0  0  0  0  0
   29.8670   25.5550   16.9770 C   0  0  0  0  0  0  0  0  0  0  0  0
   28.3450   25.7220   17.0260 C   0  0  0  0  0  0  0  0  0  0  0  0
   27.6000   24.4140   16.8110 C   0  0  0  0  0  0  0  0  0  0  0  0
   26.5360   24.1900   17.8500 C   0  0  0  0  0  0  0  0  0  0  0  0
   26.1780   25.5200   18.5050 C   0  0  0  0  0  0  0  0  0  0  0  0
   25.7340   25.3070   19.9030 N   0  0  0  0  0  0  0  0  0  0  0  0
  1 39  1  0  0  0  0
  1  2  1  0  0  0  0
  2  6  1  0  0  0  0
  3  5  1  0  0  0  0
  4  2  1  0  0  0  0
  4  3  2  0  0  0  0
  6  5  2  0  0  0  0
  7  3  1  0  0  0  0
  8  7  1  0  0  0  0
  8  9  1  0  0  0  0
  9 12  2  0  0  0  0
  9 10  1  0  0  0  0
 10 13  1  0  0  0  0
 11 10  1  0  0  0  0
 14 13  1  6  0  0  0
 14 15  1  0  0  0  0
 15 35  1  1  0  0  0
 16 15  1  6  0  0  0
 16 21  1  0  0  0  0
 17 22  1  6  0  0  0
 17 24  1  0  0  0  0
 17 18  1  0  0  0  0
 19 16  1  0  0  0  0
 19 17  1  0  0  0  0
 20 28  1  6  0  0  0
 20 18  1  0  0  0  0
 21 20  1  0  0  0  0
 21 30  1  1  0  0  0
 22 23  1  0  0  0  0
 24 26  1  0  0  0  0
 25 24  2  0  0  0  0
 26 27  1  0  0  0  0
 29 28  1  0  0  0  0
 30 32  1  0  0  0  0
 31 30  1  0  0  0  0
 31 33  1  0  0  0  0
 34 31  2  0  0  0  0
 36 35  1  0  0  0  0
 37 14  1  0  0  0  0
 38 37  1  0  0  0  0
 40 39  1  0  0  0  0
 41 40  1  0  0  0  0
 41 42  1  0  0  0  0
 42 43  1  0  0  0  0
 43 44  1  0  0  0  0
 44 45  1  0  0  0  0
 46 45  1  0  0  0  0
 46 47  1  0  0  0  0
 47 48  1  0  0  0  0
 48 49  2  0  0  0  0
 50 51  1  0  0  0  0
 50 48  1  0  0  0  0
 52 53  1  0  0  0  0
 54 53  1  0  0  0  0
 54 55  1  0  0  0  0
 55 56  1  0  0  0  0
 56 57  1  0  0  0  0
M  END
>  <REMARK>
 VINA RESULT:    -4.203      0.000      0.000
 INTER + INTRA:         -18.153
 INTER:                  -9.838
 INTRA:                  -8.315
 UNBOUND:                -8.298
 SMILES CC(=O)N[C@@H]1[C@@H](O)C[C@](O)(C(=O)O)O[C@H]1C(O)[C@H](O)CNC(=O)OCc1cn(CCCCCCCCCCC(=O)O)nn1
 SMILES IDX 29 1 28 2 26 3 27 4 43 5 42 6 25 7 24 8 22 9 21 10 23 12
 SMILES IDX 20 13 18 14 16 15 15 16 9 17 8 18 14 19 6 20 5 21 10 22
 SMILES IDX 11 24 12 25 13 26 7 28 4 30 2 31 1 33 3 34 17 35 19 37 30 39
 SMILES IDX 31 40 32 41 33 42 34 43 35 44 36 45 37 46 38 47 39 48 40 49
 SMILES IDX 41 50
 H PARENT 21 11 10 23 13 27 7 29 4 32 17 36 19 38 41 51
 Flexibility Score: inf
  4 active torsions:
  status: ('A' for Active; 'I' for Inactive)
    1  A    between atoms: CA   and  CB  
    2  A    between atoms: CB   and  CG  
    3  A    between atoms: CG   and  CD  
    4  A    between atoms: CD   and  CE  

>  <TORSDO>
F 26

>  <BEGIN_>
RES LYS A 131

$$$$
ligand_30_pose_0_2HRL.pdbqt
 OpenBabel07062320523D

  6  5  0  0  0  0  0  0  0  0999 V2000
   33.1930   34.6630    9.2900 C   0  0  0  0  0  0  0  0  0  0  0  0
   32.0600   35.3600   10.0340 C   0  0  0  0  0  0  0  0  0  0  0  0
   30.8540   35.6350    9.1740 C   0  0  0  0  0  0  0  0  0  0  0  0
   30.2160   34.3330    8.7130 C   0  0  0  0  0  0  0  0  0  0  0  0
   28.7090   34.4820    8.6220 C   0  0  0  0  0  0  0  0  0  0  0  0
   28.0260   33.6730    9.6700 N   0  0  0  0  0  0  0  0  0  0  0  0
  1  2  1  0  0  0  0
  3  2  1  0  0  0  0
  4  3  1  0  0  0  0
  5  4  1  0  0  0  0
  5  6  1  0  0  0  0
M  END
>  <EGIN_R>
ES LYS A 135

>  <REMARK>
  4 active torsions:
  status: ('A' for Active; 'I' for Inactive)
    5  A    between atoms: CA   and  CB  
    6  A    between atoms: CB   and  CG  
    7  A    between atoms: CG   and  CD  
    8  A    between atoms: CD   and  CE  

$$$$
