ligand_52_pose_0_2HRL.pdbqt
 OpenBabel07062320523D

 49 50  0  0  1  0  0  0  0  0999 V2000
   28.3950   28.7950   20.4660 C   0  0  0  0  0  0  0  0  0  0  0  0
   29.4420   27.9460   21.0880 C   0  0  2  0  0  0  0  0  0  0  0  0
   30.8180   28.4620   20.9060 C   0  0  2  0  0  0  0  0  0  0  0  0
   31.0440   29.9310   21.0020 C   0  0  2  0  0  0  0  0  0  0  0  0
   30.7890   31.9730   20.0520 C   0  0  2  0  0  0  0  0  0  0  0  0
   31.6870   32.5840   21.0670 C   0  0  0  0  0  0  0  0  0  0  0  0
   30.9330   30.6160   19.8350 O   0  0  0  0  0  0  0  0  0  0  0  0
   32.0930   31.7270   22.2150 C   0  0  1  0  0  0  0  0  0  0  0  0
   32.3270   30.2750   21.7060 C   0  0  1  0  0  0  0  0  0  0  0  0
   31.1550   32.5860   18.8110 O   0  0  0  0  0  0  0  0  0  0  0  0
   31.7850   33.2970   19.0720 H   0  0  0  0  0  0  0  0  0  0  0  0
   29.3640   32.3190   20.2560 C   0  0  0  0  0  0  0  0  0  0  0  0
   29.0000   32.8430   21.3370 O   0  0  0  0  0  0  0  0  0  0  0  0
   28.3580   32.1070   19.3220 O   0  0  0  0  0  0  0  0  0  0  0  0
   28.6610   31.7320   18.4170 H   0  0  0  0  0  0  0  0  0  0  0  0
   33.3260   32.1300   22.7280 O   0  0  0  0  0  0  0  0  0  0  0  0
   33.3780   33.1170   22.7230 H   0  0  0  0  0  0  0  0  0  0  0  0
   32.4330   29.4750   22.8960 N   0  0  0  0  0  0  0  0  0  0  0  0
   33.6530   28.9750   23.4040 C   0  0  0  0  0  0  0  0  0  0  0  0
   31.5570   29.2410   23.4330 H   0  0  0  0  0  0  0  0  0  0  0  0
   33.6580   28.1580   24.6390 C   0  0  0  0  0  0  0  0  0  0  0  0
   34.7210   29.2280   22.8020 O   0  0  0  0  0  0  0  0  0  0  0  0
   31.5500   27.8200   19.9250 O   0  0  0  0  0  0  0  0  0  0  0  0
   32.5120   27.7940   20.0450 H   0  0  0  0  0  0  0  0  0  0  0  0
   29.4230   26.6590   20.4970 O   0  0  0  0  0  0  0  0  0  0  0  0
   29.7200   26.7660   19.5710 H   0  0  0  0  0  0  0  0  0  0  0  0
   28.4290   28.9260   19.0400 N   0  0  0  0  0  0  0  0  0  0  0  0
   27.3300   28.9740   18.1910 C   0  0  0  0  0  0  0  0  0  0  0  0
   29.3850   28.9930   18.5720 H   0  0  0  0  0  0  0  0  0  0  0  0
   26.1720   28.8960   18.6220 O   0  0  0  0  0  0  0  0  0  0  0  0
   27.4470   29.1140   16.7970 O   0  0  0  0  0  0  0  0  0  0  0  0
   27.3740   30.3860   16.1930 C   0  0  0  0  0  0  0  0  0  0  0  0
   28.7040   31.0120   16.0740 C   0  0  0  0  0  0  0  0  0  0  0  0
   28.9580   32.0980   15.2510 C   0  0  0  0  0  0  0  0  0  0  0  0
   29.8670   30.7290   16.6590 N   0  0  0  0  0  0  0  0  0  0  0  0
   30.2550   32.4310   15.3650 N   0  0  0  0  0  0  0  0  0  0  0  0
   30.7900   31.5970   16.2180 N   0  0  0  0  0  0  0  0  0  0  0  0
   30.9380   33.4930   14.6910 C   0  0  0  0  0  0  0  0  0  0  0  0
   32.1820   33.9300   15.1090 C   0  0  0  0  0  0  0  0  0  0  0  0
   30.3540   34.1030   13.5990 C   0  0  0  0  0  0  0  0  0  0  0  0
   32.8100   34.9690   14.4190 C   0  0  0  0  0  0  0  0  0  0  0  0
   30.9880   35.1150   12.9450 N   0  0  0  0  0  0  0  0  0  0  0  0
   32.1980   35.5600   13.3290 C   0  0  0  0  0  0  0  0  0  0  0  0
   29.8670   25.5550   16.9770 C   0  0  0  0  0  0  0  0  0  0  0  0
   28.3450   25.7220   17.0260 C   0  0  0  0  0  0  0  0  0  0  0  0
   27.6010   24.4030   16.8880 C   0  0  0  0  0  0  0  0  0  0  0  0
   26.1500   24.5290   17.2620 C   0  0  0  0  0  0  0  0  0  0  0  0
   25.6230   23.1730   17.7220 C   0  0  0  0  0  0  0  0  0  0  0  0
   24.2760   22.9210   17.1570 N   0  0  0  0  0  0  0  0  0  0  0  0
  2  1  1  6  0  0  0
  3 23  1  6  0  0  0
  3  2  1  0  0  0  0
  4  3  1  6  0  0  0
  4  9  1  0  0  0  0
  5 10  1  6  0  0  0
  5 12  1  0  0  0  0
  5  6  1  0  0  0  0
  6  8  1  0  0  0  0
  7  5  1  0  0  0  0
  7  4  1  0  0  0  0
  8 16  1  6  0  0  0
  9  8  1  0  0  0  0
  9 18  1  1  0  0  0
 10 11  1  0  0  0  0
 12 13  2  0  0  0  0
 14 12  1  0  0  0  0
 15 14  1  0  0  0  0
 17 16  1  0  0  0  0
 18 19  1  0  0  0  0
 18 20  1  0  0  0  0
 19 21  1  0  0  0  0
 22 19  2  0  0  0  0
 23 24  1  0  0  0  0
 25  2  1  0  0  0  0
 26 25  1  0  0  0  0
 27  1  1  0  0  0  0
 28 30  2  0  0  0  0
 28 27  1  0  0  0  0
 29 27  1  0  0  0  0
 31 28  1  0  0  0  0
 32 31  1  0  0  0  0
 33 32  1  0  0  0  0
 33 35  1  0  0  0  0
 34 36  1  0  0  0  0
 34 33  2  0  0  0  0
 36 37  1  0  0  0  0
 37 35  2  0  0  0  0
 38 39  1  0  0  0  0
 38 36  1  0  0  0  0
 40 38  2  0  0  0  0
 41 39  2  0  0  0  0
 42 43  2  0  0  0  0
 42 40  1  0  0  0  0
 43 41  1  0  0  0  0
 44 45  1  0  0  0  0
 46 45  1  0  0  0  0
 46 47  1  0  0  0  0
 47 48  1  0  0  0  0
 49 48  1  0  0  0  0
M  END
>  <REMARK>
 VINA RESULT:    -5.357      0.000      0.000
 INTER + INTRA:         -14.436
 INTER:                  -8.223
 INTRA:                  -6.214
 UNBOUND:                -5.164
 SMILES CC(=O)N[C@@H]1[C@@H](O)C[C@](O)(C(=O)O)O[C@H]1C(O)[C@H](O)CNC(=O)OCc1cn(-c2cccnc2)nn1
 SMILES IDX 20 1 18 2 16 3 15 4 9 5 8 6 14 7 6 8 5 9 10 10 11 12 12 13
 SMILES IDX 13 14 7 16 4 18 2 19 1 21 3 22 17 23 19 25 21 27 22 28 23 30
 SMILES IDX 24 31 25 32 26 33 27 34 36 35 28 36 35 37 29 38 30 39 34 40
 SMILES IDX 31 41 33 42 32 43
 H PARENT 10 11 13 15 7 17 4 20 17 24 19 26 21 29
 Flexibility Score: inf
  4 active torsions:
  status: ('A' for Active; 'I' for Inactive)
    1  A    between atoms: CA   and  CB  
    2  A    between atoms: CB   and  CG  
    3  A    between atoms: CG   and  CD  
    4  A    between atoms: CD   and  CE  

>  <TORSDO>
F 15

>  <BEGIN_>
RES LYS A 131

$$$$
ligand_52_pose_0_2HRL.pdbqt
 OpenBabel07062320523D

  6  5  0  0  0  0  0  0  0  0999 V2000
   33.1930   34.6630    9.2900 C   0  0  0  0  0  0  0  0  0  0  0  0
   32.0600   35.3600   10.0340 C   0  0  0  0  0  0  0  0  0  0  0  0
   30.8020   35.5050    9.2170 C   0  0  0  0  0  0  0  0  0  0  0  0
   30.1480   34.1510    8.9930 C   0  0  0  0  0  0  0  0  0  0  0  0
   28.6910   34.3210    8.6060 C   0  0  0  0  0  0  0  0  0  0  0  0
   27.7920   33.6940    9.6140 N   0  0  0  0  0  0  0  0  0  0  0  0
  1  2  1  0  0  0  0
  3  2  1  0  0  0  0
  4  3  1  0  0  0  0
  5  4  1  0  0  0  0
  5  6  1  0  0  0  0
M  END
>  <EGIN_R>
ES LYS A 135

>  <REMARK>
  4 active torsions:
  status: ('A' for Active; 'I' for Inactive)
    5  A    between atoms: CA   and  CB  
    6  A    between atoms: CB   and  CG  
    7  A    between atoms: CG   and  CD  
    8  A    between atoms: CD   and  CE  

$$$$
