ligand_89_pose_0_2HRL.pdbqt
 OpenBabel07062320523D

 60 63  0  0  1  0  0  0  0  0999 V2000
   26.3550   29.0930   19.6180 N   0  0  0  0  0  0  0  0  0  0  0  0
   26.0930   28.3550   18.4630 C   0  0  0  0  0  0  0  0  0  0  0  0
   25.7510   27.1710   18.4650 O   0  0  0  0  0  0  0  0  0  0  0  0
   26.6180   30.1440   19.4560 H   0  0  0  0  0  0  0  0  0  0  0  0
   26.3140   28.6250   20.9490 C   0  0  0  0  0  0  0  0  0  0  0  0
   27.4300   27.7890   21.3940 C   0  0  2  0  0  0  0  0  0  0  0  0
   28.7580   27.8130   20.7580 C   0  0  1  0  0  0  0  0  0  0  0  0
   29.7180   28.4480   21.8080 C   0  0  2  0  0  0  0  0  0  0  0  0
   30.8830   30.0980   20.6110 C   0  0  2  0  0  0  0  0  0  0  0  0
   32.1770   29.4310   20.9400 C   0  0  0  0  0  0  0  0  0  0  0  0
   29.9050   29.7370   21.4790 O   0  0  0  0  0  0  0  0  0  0  0  0
   32.0750   27.9410   21.1410 C   0  0  1  0  0  0  0  0  0  0  0  0
   30.9030   27.5840   22.0290 C   0  0  1  0  0  0  0  0  0  0  0  0
   30.4720   29.7370   19.3030 O   0  0  0  0  0  0  0  0  0  0  0  0
   29.5620   30.1250   19.2050 H   0  0  0  0  0  0  0  0  0  0  0  0
   31.1520   31.5760   20.6390 C   0  0  0  0  0  0  0  0  0  0  0  0
   32.1990   31.9980   21.1470 O   0  0  0  0  0  0  0  0  0  0  0  0
   30.2380   32.4500   20.1020 O   0  0  0  0  0  0  0  0  0  0  0  0
   29.3630   32.6580   20.5920 H   0  0  0  0  0  0  0  0  0  0  0  0
   32.0020   27.2410   19.9360 O   0  0  0  0  0  0  0  0  0  0  0  0
   32.1870   27.8590   19.1870 H   0  0  0  0  0  0  0  0  0  0  0  0
   31.3830   27.6590   23.4150 N   0  0  0  0  0  0  0  0  0  0  0  0
   30.9760   26.7470   24.4100 C   0  0  0  0  0  0  0  0  0  0  0  0
   32.0620   28.4160   23.7090 H   0  0  0  0  0  0  0  0  0  0  0  0
   31.4650   26.8270   25.8110 C   0  0  0  0  0  0  0  0  0  0  0  0
   30.1640   25.8170   24.1220 O   0  0  0  0  0  0  0  0  0  0  0  0
   29.2710   26.5640   20.4020 O   0  0  0  0  0  0  0  0  0  0  0  0
   28.6510   25.8320   20.7120 H   0  0  0  0  0  0  0  0  0  0  0  0
   26.9290   26.4320   21.3680 O   0  0  0  0  0  0  0  0  0  0  0  0
   27.1650   25.9970   20.5310 H   0  0  0  0  0  0  0  0  0  0  0  0
   26.2150   28.9450   17.1850 O   0  0  0  0  0  0  0  0  0  0  0  0
   27.4160   28.9090   16.4700 C   0  0  0  0  0  0  0  0  0  0  0  0
   28.1780   30.1610   16.7070 C   0  0  0  0  0  0  0  0  0  0  0  0
   28.9370   30.8670   15.7790 C   0  0  0  0  0  0  0  0  0  0  0  0
   28.2940   30.8710   17.8440 N   0  0  0  0  0  0  0  0  0  0  0  0
   29.4840   31.9690   16.3670 N   0  0  0  0  0  0  0  0  0  0  0  0
   29.0620   31.9160   17.6050 N   0  0  0  0  0  0  0  0  0  0  0  0
   30.3120   32.9000   15.6780 C   0  0  0  0  0  0  0  0  0  0  0  0
   31.6760   32.9480   15.7380 N   0  0  0  0  0  0  0  0  0  0  0  0
   29.9500   33.9150   14.8320 C   0  0  0  0  0  0  0  0  0  0  0  0
   32.1050   33.9500   14.9600 C   0  0  0  0  0  0  0  0  0  0  0  0
   31.0620   34.5740   14.3820 N   0  0  0  0  0  0  0  0  0  0  0  0
   28.7420   34.3540   14.3890 C   0  0  0  0  0  0  0  0  0  0  0  0
   30.9840   35.6160   13.5340 C   0  0  0  0  0  0  0  0  0  0  0  0
   28.6180   35.3800   13.5510 N   0  0  0  0  0  0  0  0  0  0  0  0
   27.6760   33.8000   14.7600 O   0  0  0  0  0  0  0  0  0  0  0  0
   32.1280   36.2550   13.1020 C   0  0  0  0  0  0  0  0  0  0  0  0
   29.7290   36.0130   13.1210 C   0  0  0  0  0  0  0  0  0  0  0  0
   32.0780   37.3300   12.2300 C   0  0  0  0  0  0  0  0  0  0  0  0
   29.7060   37.0920   12.2490 C   0  0  0  0  0  0  0  0  0  0  0  0
   30.8430   37.7400   11.8080 C   0  0  0  0  0  0  0  0  0  0  0  0
   27.3660   35.8930   13.0410 C   0  0  0  0  0  0  0  0  0  0  0  0
   26.5610   36.3680   14.2310 C   0  0  0  0  0  0  0  0  0  0  0  0
   26.5370   34.8940   12.3000 C   0  0  0  0  0  0  0  0  0  0  0  0
   29.8670   25.5550   16.9770 C   0  0  0  0  0  0  0  0  0  0  0  0
   28.3450   25.7220   17.0260 C   0  0  0  0  0  0  0  0  0  0  0  0
   27.5990   24.4320   16.7200 C   0  0  0  0  0  0  0  0  0  0  0  0
   26.9740   23.8340   17.9500 C   0  0  0  0  0  0  0  0  0  0  0  0
   25.6140   23.2420   17.5930 C   0  0  0  0  0  0  0  0  0  0  0  0
   24.7690   24.2540   16.9170 N   0  0  0  0  0  0  0  0  0  0  0  0
  1  5  1  0  0  0  0
  2  3  2  0  0  0  0
  2  1  1  0  0  0  0
  4  1  1  0  0  0  0
  6  5  1  6  0  0  0
  7 27  1  1  0  0  0
  7  6  1  0  0  0  0
  8  7  1  6  0  0  0
  8 13  1  0  0  0  0
  9 14  1  6  0  0  0
  9 16  1  0  0  0  0
  9 10  1  0  0  0  0
  9 11  1  0  0  0  0
 10 12  1  0  0  0  0
 11  8  1  0  0  0  0
 12 20  1  6  0  0  0
 12 13  1  0  0  0  0
 13 22  1  1  0  0  0
 15 14  1  0  0  0  0
 16 17  2  0  0  0  0
 18 19  1  0  0  0  0
 18 16  1  0  0  0  0
 21 20  1  0  0  0  0
 22 24  1  0  0  0  0
 22 23  1  0  0  0  0
 23 25  1  0  0  0  0
 26 23  2  0  0  0  0
 27 28  1  0  0  0  0
 29  6  1  0  0  0  0
 30 29  1  0  0  0  0
 31  2  1  0  0  0  0
 32 33  1  0  0  0  0
 32 31  1  0  0  0  0
 33 35  1  0  0  0  0
 34 36  1  0  0  0  0
 34 33  2  0  0  0  0
 36 37  1  0  0  0  0
 37 35  2  0  0  0  0
 38 39  1  0  0  0  0
 38 36  1  0  0  0  0
 40 38  2  0  0  0  0
 41 39  2  0  0  0  0
 42 40  1  0  0  0  0
 42 41  1  0  0  0  0
 43 46  2  0  0  0  0
 43 40  1  0  0  0  0
 44 42  1  0  0  0  0
 45 43  1  0  0  0  0
 47 44  2  0  0  0  0
 48 44  1  0  0  0  0
 48 45  1  0  0  0  0
 49 47  1  0  0  0  0
 50 48  2  0  0  0  0
 51 49  2  0  0  0  0
 51 50  1  0  0  0  0
 52 45  1  0  0  0  0
 52 53  1  0  0  0  0
 54 52  1  0  0  0  0
 55 56  1  0  0  0  0
 57 56  1  0  0  0  0
 57 58  1  0  0  0  0
 59 58  1  0  0  0  0
 60 59  1  0  0  0  0
M  END
>  <REMARK>
 VINA RESULT:    -5.287      0.000      0.000
 INTER + INTRA:         -16.568
 INTER:                 -10.669
 INTRA:                  -5.898
 UNBOUND:                -7.109
 SMILES CC(=O)N[C@@H]1[C@@H](O)C[C@](O)(C(=O)O)O[C@H]1C(O)[C@H](O)CNC(=O)OCc1cn(-c2ncn3c2c(=O)n(C(C)C)c2ccccc23)nn1
 SMILES IDX 21 1 22 2 23 3 20 5 18 6 16 7 15 8 9 9 8 10 14 11 6 12 5 13
 SMILES IDX 10 14 11 16 12 17 13 18 7 20 4 22 2 23 1 25 3 26 17 27 19 29
 SMILES IDX 24 31 25 32 26 33 27 34 47 35 28 36 46 37 29 38 30 39 33 40
 SMILES IDX 31 41 32 42 34 43 45 44 36 45 35 46 44 47 40 48 43 49 41 50
 SMILES IDX 42 51 37 52 38 53 39 54
 H PARENT 21 4 10 15 13 19 7 21 4 24 17 28 19 30
 Flexibility Score: inf
  4 active torsions:
  status: ('A' for Active; 'I' for Inactive)
    1  A    between atoms: CA   and  CB  
    2  A    between atoms: CB   and  CG  
    3  A    between atoms: CG   and  CD  
    4  A    between atoms: CD   and  CE  

>  <TORSDO>
F 16

>  <BEGIN_>
RES LYS A 131

$$$$
ligand_89_pose_0_2HRL.pdbqt
 OpenBabel07062320523D

  6  5  0  0  0  0  0  0  0  0999 V2000
   33.1930   34.6630    9.2900 C   0  0  0  0  0  0  0  0  0  0  0  0
   32.0600   35.3600   10.0340 C   0  0  0  0  0  0  0  0  0  0  0  0
   30.7720   35.4150    9.2540 C   0  0  0  0  0  0  0  0  0  0  0  0
   30.1830   34.0220    9.0910 C   0  0  0  0  0  0  0  0  0  0  0  0
   28.6690   34.0710    9.1700 C   0  0  0  0  0  0  0  0  0  0  0  0
   28.0970   34.8320    8.0250 N   0  0  0  0  0  0  0  0  0  0  0  0
  1  2  1  0  0  0  0
  3  2  1  0  0  0  0
  4  5  1  0  0  0  0
  4  3  1  0  0  0  0
  6  5  1  0  0  0  0
M  END
>  <EGIN_R>
ES LYS A 135

>  <REMARK>
  4 active torsions:
  status: ('A' for Active; 'I' for Inactive)
    5  A    between atoms: CA   and  CB  
    6  A    between atoms: CB   and  CG  
    7  A    between atoms: CG   and  CD  
    8  A    between atoms: CD   and  CE  

$$$$
