ligand_66_pose_0_2HRL.pdbqt
 OpenBabel07062320523D

 52 53  0  0  1  0  0  0  0  0999 V2000
   28.2420   31.6710   17.8130 N   0  0  0  0  0  0  0  0  0  0  0  0
   27.2420   31.1630   18.6490 C   0  0  0  0  0  0  0  0  0  0  0  0
   27.5110   30.3190   19.5280 O   0  0  0  0  0  0  0  0  0  0  0  0
   27.9370   32.3900   17.0910 H   0  0  0  0  0  0  0  0  0  0  0  0
   29.6240   31.2760   17.8830 C   0  0  0  0  0  0  0  0  0  0  0  0
   30.2530   31.0910   16.5300 C   0  0  2  0  0  0  0  0  0  0  0  0
   31.0190   32.2450   16.0110 C   0  0  2  0  0  0  0  0  0  0  0  0
   30.2250   33.5580   15.9040 C   0  0  2  0  0  0  0  0  0  0  0  0
   28.3250   34.4250   14.9950 C   0  0  2  0  0  0  0  0  0  0  0  0
   29.1260   35.3600   14.1110 C   0  0  0  0  0  0  0  0  0  0  0  0
   29.0960   33.3160   15.2280 O   0  0  0  0  0  0  0  0  0  0  0  0
   30.3880   35.8100   14.7970 C   0  0  1  0  0  0  0  0  0  0  0  0
   31.0910   34.6940   15.5130 C   0  0  1  0  0  0  0  0  0  0  0  0
   27.1680   34.0420   14.2700 O   0  0  0  0  0  0  0  0  0  0  0  0
   26.4100   34.3730   14.8320 H   0  0  0  0  0  0  0  0  0  0  0  0
   27.8500   35.1540   16.1750 C   0  0  0  0  0  0  0  0  0  0  0  0
   27.2470   36.2480   16.0840 O   0  0  0  0  0  0  0  0  0  0  0  0
   28.0320   34.6910   17.4950 O   0  0  0  0  0  0  0  0  0  0  0  0
   28.9890   34.4090   17.7220 H   0  0  0  0  0  0  0  0  0  0  0  0
   31.2220   36.3610   13.8240 O   0  0  0  0  0  0  0  0  0  0  0  0
   32.1260   36.5350   14.1590 H   0  0  0  0  0  0  0  0  0  0  0  0
   31.7820   35.2420   16.6640 N   0  0  0  0  0  0  0  0  0  0  0  0
   33.1650   35.6490   16.6150 C   0  0  0  0  0  0  0  0  0  0  0  0
   31.3400   35.3800   17.6080 H   0  0  0  0  0  0  0  0  0  0  0  0
   33.8370   36.2070   17.8310 C   0  0  0  0  0  0  0  0  0  0  0  0
   33.8120   35.5380   15.5540 O   0  0  0  0  0  0  0  0  0  0  0  0
   31.5700   32.0180   14.7490 O   0  0  0  0  0  0  0  0  0  0  0  0
   31.1360   31.2720   14.2670 H   0  0  0  0  0  0  0  0  0  0  0  0
   29.2820   30.5760   15.6720 O   0  0  0  0  0  0  0  0  0  0  0  0
   28.6580   30.0330   16.2130 H   0  0  0  0  0  0  0  0  0  0  0  0
   25.9070   31.5580   18.5540 O   0  0  0  0  0  0  0  0  0  0  0  0
   24.9850   30.6730   17.9710 C   0  0  0  0  0  0  0  0  0  0  0  0
   25.0060   30.8550   16.5060 C   0  0  0  0  0  0  0  0  0  0  0  0
   24.4740   30.0340   15.5370 C   0  0  0  0  0  0  0  0  0  0  0  0
   25.5640   31.8880   15.8480 N   0  0  0  0  0  0  0  0  0  0  0  0
   24.7200   30.5840   14.3330 N   0  0  0  0  0  0  0  0  0  0  0  0
   25.3840   31.7090   14.5700 N   0  0  0  0  0  0  0  0  0  0  0  0
   24.3710   30.1370   13.0110 C   0  0  0  0  0  0  0  0  0  0  0  0
   22.9070   30.3380   12.7530 C   0  0  0  0  0  0  0  0  0  0  0  0
   22.3680   31.6040   12.8130 C   0  0  0  0  0  0  0  0  0  0  0  0
   22.0780   29.2910   12.4490 C   0  0  0  0  0  0  0  0  0  0  0  0
   21.0040   31.7990   12.5660 C   0  0  0  0  0  0  0  0  0  0  0  0
   20.7300   29.4470   12.1990 C   0  0  0  0  0  0  0  0  0  0  0  0
   20.1930   30.7120   12.2590 C   0  0  0  0  0  0  0  0  0  0  0  0
   19.8440   28.3670   11.8790 C   0  0  0  0  0  0  0  0  0  0  0  0
   19.1360   27.4800   11.6070 N   0  0  0  0  0  0  0  0  0  0  0  0
   29.8670   25.5550   16.9770 C   0  0  0  0  0  0  0  0  0  0  0  0
   28.3450   25.7220   17.0260 C   0  0  0  0  0  0  0  0  0  0  0  0
   27.6020   24.3990   16.9270 C   0  0  0  0  0  0  0  0  0  0  0  0
   26.4480   24.3240   17.8870 C   0  0  0  0  0  0  0  0  0  0  0  0
   26.0690   25.7300   18.3390 C   0  0  0  0  0  0  0  0  0  0  0  0
   25.8830   25.7710   19.8090 N   0  0  0  0  0  0  0  0  0  0  0  0
  1  5  1  0  0  0  0
  1  2  1  0  0  0  0
  2  3  2  0  0  0  0
  4  1  1  0  0  0  0
  6  5  1  1  0  0  0
  7 27  1  6  0  0  0
  7  6  1  0  0  0  0
  8  7  1  6  0  0  0
  9 14  1  6  0  0  0
  9 11  1  0  0  0  0
  9 16  1  0  0  0  0
 10 12  1  0  0  0  0
 10  9  1  0  0  0  0
 11  8  1  0  0  0  0
 12 20  1  6  0  0  0
 12 13  1  0  0  0  0
 13  8  1  0  0  0  0
 13 22  1  1  0  0  0
 14 15  1  0  0  0  0
 16 18  1  0  0  0  0
 17 16  2  0  0  0  0
 18 19  1  0  0  0  0
 20 21  1  0  0  0  0
 22 24  1  0  0  0  0
 23 22  1  0  0  0  0
 23 25  1  0  0  0  0
 26 23  2  0  0  0  0
 28 27  1  0  0  0  0
 29 30  1  0  0  0  0
 29  6  1  0  0  0  0
 31  2  1  0  0  0  0
 32 31  1  0  0  0  0
 33 32  1  0  0  0  0
 34 33  2  0  0  0  0
 35 33  1  0  0  0  0
 36 37  1  0  0  0  0
 36 34  1  0  0  0  0
 37 35  2  0  0  0  0
 38 36  1  0  0  0  0
 39 40  1  0  0  0  0
 39 38  1  0  0  0  0
 41 39  2  0  0  0  0
 42 40  2  0  0  0  0
 43 44  2  0  0  0  0
 43 41  1  0  0  0  0
 44 42  1  0  0  0  0
 45 43  1  0  0  0  0
 46 45  3  0  0  0  0
 47 48  1  0  0  0  0
 49 48  1  0  0  0  0
 49 50  1  0  0  0  0
 50 51  1  0  0  0  0
 51 52  1  0  0  0  0
M  END
>  <REMARK>
 VINA RESULT:    -5.374      0.000      0.000
 INTER + INTRA:         -15.142
 INTER:                  -9.507
 INTRA:                  -5.635
 UNBOUND:                -5.212
 SMILES CC(=O)N[C@@H]1[C@@H](O)C[C@](O)(C(=O)O)O[C@H]1C(O)[C@H](O)CNC(=O)OCc1cn(Cc2cccc(C#N)c2)nn1
 SMILES IDX 21 1 22 2 23 3 20 5 18 6 16 7 15 8 9 9 8 10 14 11 6 12 5 13
 SMILES IDX 10 14 11 16 12 17 13 18 7 20 4 22 2 23 1 25 3 26 17 27 19 29
 SMILES IDX 24 31 25 32 26 33 27 34 39 35 28 36 38 37 29 38 30 39 31 40
 SMILES IDX 37 41 32 42 34 43 33 44 35 45 36 46
 H PARENT 21 4 10 15 13 19 7 21 4 24 17 28 19 30
 Flexibility Score: inf
  4 active torsions:
  status: ('A' for Active; 'I' for Inactive)
    1  A    between atoms: CA   and  CB  
    2  A    between atoms: CB   and  CG  
    3  A    between atoms: CG   and  CD  
    4  A    between atoms: CD   and  CE  

>  <TORSDO>
F 17

>  <BEGIN_>
RES LYS A 131

$$$$
ligand_66_pose_0_2HRL.pdbqt
 OpenBabel07062320523D

  6  5  0  0  0  0  0  0  0  0999 V2000
   33.1930   34.6630    9.2900 C   0  0  0  0  0  0  0  0  0  0  0  0
   32.0600   35.3600   10.0340 C   0  0  0  0  0  0  0  0  0  0  0  0
   30.8010   35.5020    9.2180 C   0  0  0  0  0  0  0  0  0  0  0  0
   30.2430   34.1370    8.8490 C   0  0  0  0  0  0  0  0  0  0  0  0
   28.7270   34.1670    8.8340 C   0  0  0  0  0  0  0  0  0  0  0  0
   28.1770   34.1720   10.2180 N   0  0  0  0  0  0  0  0  0  0  0  0
  1  2  1  0  0  0  0
  3  2  1  0  0  0  0
  4  3  1  0  0  0  0
  5  4  1  0  0  0  0
  5  6  1  0  0  0  0
M  END
>  <EGIN_R>
ES LYS A 135

>  <REMARK>
  4 active torsions:
  status: ('A' for Active; 'I' for Inactive)
    5  A    between atoms: CA   and  CB  
    6  A    between atoms: CB   and  CG  
    7  A    between atoms: CG   and  CD  
    8  A    between atoms: CD   and  CE  

$$$$
