ligand_70_pose_0_2HRL.pdbqt
 OpenBabel07062320523D

 53 55  0  0  1  0  0  0  0  0999 V2000
   30.3350   27.0340   21.4550 C   0  0  0  0  0  0  0  0  0  0  0  0
   31.6150   27.7270   21.0830 C   0  0  2  0  0  0  0  0  0  0  0  0
   31.4980   29.2250   21.0110 C   0  0  1  0  0  0  0  0  0  0  0  0
   32.7640   29.9640   21.3350 C   0  0  2  0  0  0  0  0  0  0  0  0
   34.4980   29.7810   22.8650 C   0  0  2  0  0  0  0  0  0  0  0  0
   35.0230   31.1140   22.3930 C   0  0  0  0  0  0  0  0  0  0  0  0
   33.7140   29.1490   21.9320 O   0  0  0  0  0  0  0  0  0  0  0  0
   33.8990   32.0030   21.9760 C   0  0  1  0  0  0  0  0  0  0  0  0
   32.5450   31.2640   22.0290 C   0  0  1  0  0  0  0  0  0  0  0  0
   33.8720   29.9800   24.0920 O   0  0  0  0  0  0  0  0  0  0  0  0
   33.4580   29.1720   24.4500 H   0  0  0  0  0  0  0  0  0  0  0  0
   35.6830   28.9090   23.1190 C   0  0  0  0  0  0  0  0  0  0  0  0
   36.7290   29.4510   23.5560 O   0  0  0  0  0  0  0  0  0  0  0  0
   35.6670   27.5440   22.8930 O   0  0  0  0  0  0  0  0  0  0  0  0
   36.5320   27.0040   22.9900 H   0  0  0  0  0  0  0  0  0  0  0  0
   33.8340   33.1440   22.7960 O   0  0  0  0  0  0  0  0  0  0  0  0
   33.2360   33.8140   22.3880 H   0  0  0  0  0  0  0  0  0  0  0  0
   31.5810   32.0400   21.2420 N   0  0  0  0  0  0  0  0  0  0  0  0
   30.4510   32.6810   21.8110 C   0  0  0  0  0  0  0  0  0  0  0  0
   31.7130   32.1360   20.2190 H   0  0  0  0  0  0  0  0  0  0  0  0
   29.4810   33.4610   20.9950 C   0  0  0  0  0  0  0  0  0  0  0  0
   30.2320   32.6060   23.0460 O   0  0  0  0  0  0  0  0  0  0  0  0
   31.0490   29.5350   19.7110 O   0  0  0  0  0  0  0  0  0  0  0  0
   30.1280   29.1800   19.6430 H   0  0  0  0  0  0  0  0  0  0  0  0
   32.1350   27.2040   19.8820 O   0  0  0  0  0  0  0  0  0  0  0  0
   31.3540   27.2370   19.2430 H   0  0  0  0  0  0  0  0  0  0  0  0
   29.4670   26.9750   20.3030 N   0  0  0  0  0  0  0  0  0  0  0  0
   28.2250   27.6370   20.2340 C   0  0  0  0  0  0  0  0  0  0  0  0
   29.7340   26.4200   19.4420 H   0  0  0  0  0  0  0  0  0  0  0  0
   27.7930   28.3240   21.1820 O   0  0  0  0  0  0  0  0  0  0  0  0
   27.3980   27.5680   19.1040 O   0  0  0  0  0  0  0  0  0  0  0  0
   26.7330   28.7490   18.6310 C   0  0  0  0  0  0  0  0  0  0  0  0
   27.5910   29.4700   17.6690 C   0  0  0  0  0  0  0  0  0  0  0  0
   28.4140   30.5270   17.9010 C   0  0  0  0  0  0  0  0  0  0  0  0
   27.6850   29.1700   16.3690 N   0  0  0  0  0  0  0  0  0  0  0  0
   28.9870   30.8340   16.7020 N   0  0  0  0  0  0  0  0  0  0  0  0
   28.5340   30.0030   15.7920 N   0  0  0  0  0  0  0  0  0  0  0  0
   29.9180   31.8720   16.4650 C   0  0  0  0  0  0  0  0  0  0  0  0
   30.2990   32.1490   15.1640 C   0  0  0  0  0  0  0  0  0  0  0  0
   30.4230   32.5830   17.5300 C   0  0  0  0  0  0  0  0  0  0  0  0
   31.1840   33.1350   14.9400 N   0  0  0  0  0  0  0  0  0  0  0  0
   31.3370   33.6000   17.2760 C   0  0  0  0  0  0  0  0  0  0  0  0
   31.7020   33.8570   15.9710 C   0  0  0  0  0  0  0  0  0  0  0  0
   31.8530   34.3190   18.3110 C   0  0  0  0  0  0  0  0  0  0  0  0
   32.6090   34.8660   15.7170 C   0  0  0  0  0  0  0  0  0  0  0  0
   32.7700   35.3400   18.0620 C   0  0  0  0  0  0  0  0  0  0  0  0
   33.1410   35.6060   16.7660 C   0  0  0  0  0  0  0  0  0  0  0  0
   29.8670   25.5550   16.9770 C   0  0  0  0  0  0  0  0  0  0  0  0
   28.3450   25.7220   17.0260 C   0  0  0  0  0  0  0  0  0  0  0  0
   27.6010   24.4020   16.8910 C   0  0  0  0  0  0  0  0  0  0  0  0
   26.1510   24.5280   17.2690 C   0  0  0  0  0  0  0  0  0  0  0  0
   25.6350   23.1810   17.7640 C   0  0  0  0  0  0  0  0  0  0  0  0
   24.2970   22.8970   17.1950 N   0  0  0  0  0  0  0  0  0  0  0  0
  2  1  1  6  0  0  0
  3 23  1  6  0  0  0
  3  2  1  0  0  0  0
  4  3  1  1  0  0  0
  4  7  1  0  0  0  0
  4  9  1  0  0  0  0
  5 12  1  1  0  0  0
  5 10  1  0  0  0  0
  6  5  1  0  0  0  0
  7  5  1  0  0  0  0
  8  9  1  0  0  0  0
  8  6  1  0  0  0  0
  8 16  1  1  0  0  0
  9 18  1  6  0  0  0
 10 11  1  0  0  0  0
 12 13  2  0  0  0  0
 14 15  1  0  0  0  0
 14 12  1  0  0  0  0
 17 16  1  0  0  0  0
 18 19  1  0  0  0  0
 19 22  2  0  0  0  0
 20 18  1  0  0  0  0
 21 19  1  0  0  0  0
 24 23  1  0  0  0  0
 25  2  1  0  0  0  0
 26 25  1  0  0  0  0
 27  1  1  0  0  0  0
 28 27  1  0  0  0  0
 28 30  2  0  0  0  0
 29 27  1  0  0  0  0
 31 28  1  0  0  0  0
 32 31  1  0  0  0  0
 33 34  2  0  0  0  0
 33 32  1  0  0  0  0
 35 33  1  0  0  0  0
 36 34  1  0  0  0  0
 37 35  2  0  0  0  0
 37 36  1  0  0  0  0
 38 36  1  0  0  0  0
 38 40  2  0  0  0  0
 39 38  1  0  0  0  0
 41 39  2  0  0  0  0
 41 43  1  0  0  0  0
 42 40  1  0  0  0  0
 42 44  2  0  0  0  0
 43 42  1  0  0  0  0
 45 43  2  0  0  0  0
 45 47  1  0  0  0  0
 46 44  1  0  0  0  0
 47 46  2  0  0  0  0
 48 49  1  0  0  0  0
 50 49  1  0  0  0  0
 50 51  1  0  0  0  0
 51 52  1  0  0  0  0
 53 52  1  0  0  0  0
M  END
>  <REMARK>
 VINA RESULT:    -7.015      0.000      0.000
 INTER + INTRA:         -16.674
 INTER:                 -10.521
 INTRA:                  -6.153
 UNBOUND:                -4.533
 SMILES CC(=O)N[C@@H]1[C@@H](O)C[C@](O)(C(=O)O)O[C@H]1C(O)[C@H](O)CNC(=O)OCc1cn(-c2cnc3ccccc3c2)nn1
 SMILES IDX 20 1 18 2 16 3 15 4 9 5 8 6 14 7 6 8 5 9 10 10 11 12 12 13
 SMILES IDX 13 14 7 16 4 18 2 19 1 21 3 22 17 23 19 25 21 27 22 28 23 30
 SMILES IDX 24 31 25 32 26 33 27 34 40 35 28 36 39 37 29 38 30 39 38 40
 SMILES IDX 31 41 37 42 32 43 36 44 33 45 35 46 34 47
 H PARENT 10 11 13 15 7 17 4 20 17 24 19 26 21 29
 Flexibility Score: inf
  4 active torsions:
  status: ('A' for Active; 'I' for Inactive)
    1  A    between atoms: CA   and  CB  
    2  A    between atoms: CB   and  CG  
    3  A    between atoms: CG   and  CD  
    4  A    between atoms: CD   and  CE  

>  <TORSDO>
F 15

>  <BEGIN_>
RES LYS A 131

$$$$
ligand_70_pose_0_2HRL.pdbqt
 OpenBabel07062320523D

  6  5  0  0  0  0  0  0  0  0999 V2000
   33.1930   34.6630    9.2900 C   0  0  0  0  0  0  0  0  0  0  0  0
   32.0600   35.3600   10.0340 C   0  0  0  0  0  0  0  0  0  0  0  0
   30.8550   35.6370    9.1730 C   0  0  0  0  0  0  0  0  0  0  0  0
   30.2480   34.3380    8.6650 C   0  0  0  0  0  0  0  0  0  0  0  0
   28.7400   34.4610    8.5570 C   0  0  0  0  0  0  0  0  0  0  0  0
   28.0600   33.6410    9.5970 N   0  0  0  0  0  0  0  0  0  0  0  0
  1  2  1  0  0  0  0
  3  2  1  0  0  0  0
  4  3  1  0  0  0  0
  5  4  1  0  0  0  0
  5  6  1  0  0  0  0
M  END
>  <EGIN_R>
ES LYS A 135

>  <REMARK>
  4 active torsions:
  status: ('A' for Active; 'I' for Inactive)
    5  A    between atoms: CA   and  CB  
    6  A    between atoms: CB   and  CG  
    7  A    between atoms: CG   and  CD  
    8  A    between atoms: CD   and  CE  

$$$$
