ligand_59_pose_0_2HRL.pdbqt
 OpenBabel07062320523D

 52 53  0  0  1  0  0  0  0  0999 V2000
   27.7540   27.9320   18.4710 N   0  0  0  0  0  0  0  0  0  0  0  0
   26.6550   28.0210   17.5520 C   0  0  0  0  0  0  0  0  0  0  0  0
   25.7030   27.2330   17.7470 O   0  0  0  0  0  0  0  0  0  0  0  0
   28.5180   28.6150   18.2790 H   0  0  0  0  0  0  0  0  0  0  0  0
   27.7390   26.9900   19.5570 C   0  0  0  0  0  0  0  0  0  0  0  0
   27.7480   27.7400   20.8800 C   0  0  2  0  0  0  0  0  0  0  0  0
   29.1910   27.8620   21.2780 C   0  0  2  0  0  0  0  0  0  0  0  0
   29.7720   29.2450   21.3300 C   0  0  2  0  0  0  0  0  0  0  0  0
   28.8430   31.4000   21.0820 C   0  0  2  0  0  0  0  0  0  0  0  0
   30.0190   31.8910   20.2740 C   0  0  0  0  0  0  0  0  0  0  0  0
   28.7050   30.0560   21.0410 O   0  0  0  0  0  0  0  0  0  0  0  0
   30.4730   30.6850   19.4740 C   0  0  1  0  0  0  0  0  0  0  0  0
   30.9020   29.5590   20.4470 C   0  0  1  0  0  0  0  0  0  0  0  0
   27.6970   32.0030   20.4750 O   0  0  0  0  0  0  0  0  0  0  0  0
   27.6780   32.9660   20.7090 H   0  0  0  0  0  0  0  0  0  0  0  0
   28.8450   31.8760   22.4810 C   0  0  0  0  0  0  0  0  0  0  0  0
   29.8660   32.4210   22.9430 O   0  0  0  0  0  0  0  0  0  0  0  0
   27.7320   31.7320   23.2860 O   0  0  0  0  0  0  0  0  0  0  0  0
   27.5850   30.8530   23.7670 H   0  0  0  0  0  0  0  0  0  0  0  0
   29.5270   30.2520   18.5790 O   0  0  0  0  0  0  0  0  0  0  0  0
   29.1910   29.3530   18.8590 H   0  0  0  0  0  0  0  0  0  0  0  0
   32.0760   30.0700   21.0760 N   0  0  0  0  0  0  0  0  0  0  0  0
   32.9260   29.2640   21.8510 C   0  0  0  0  0  0  0  0  0  0  0  0
   32.3070   31.0720   20.9620 H   0  0  0  0  0  0  0  0  0  0  0  0
   34.1460   29.7950   22.5040 C   0  0  0  0  0  0  0  0  0  0  0  0
   32.6510   28.0560   21.9980 O   0  0  0  0  0  0  0  0  0  0  0  0
   29.9550   27.1680   20.3220 O   0  0  0  0  0  0  0  0  0  0  0  0
   29.4030   26.5100   19.8200 H   0  0  0  0  0  0  0  0  0  0  0  0
   27.0920   26.8360   21.7600 O   0  0  0  0  0  0  0  0  0  0  0  0
   26.1340   26.9210   21.6300 H   0  0  0  0  0  0  0  0  0  0  0  0
   26.6190   28.9070   16.5100 O   0  0  0  0  0  0  0  0  0  0  0  0
   26.0120   30.1620   16.5600 C   0  0  0  0  0  0  0  0  0  0  0  0
   26.9670   31.2800   16.7640 C   0  0  0  0  0  0  0  0  0  0  0  0
   27.9920   31.6050   15.8700 C   0  0  0  0  0  0  0  0  0  0  0  0
   27.0860   32.1660   17.7440 N   0  0  0  0  0  0  0  0  0  0  0  0
   28.6660   32.6510   16.3490 N   0  0  0  0  0  0  0  0  0  0  0  0
   28.1080   32.9840   17.4880 N   0  0  0  0  0  0  0  0  0  0  0  0
   29.7970   33.2820   15.7300 C   0  0  0  0  0  0  0  0  0  0  0  0
   31.0630   33.2550   16.2760 C   0  0  0  0  0  0  0  0  0  0  0  0
   29.6400   33.9470   14.5750 N   0  0  0  0  0  0  0  0  0  0  0  0
   32.1440   33.8650   15.6980 C   0  0  0  0  0  0  0  0  0  0  0  0
   30.6690   34.5600   13.9700 C   0  0  0  0  0  0  0  0  0  0  0  0
   31.9510   34.5410   14.5080 C   0  0  0  0  0  0  0  0  0  0  0  0
   33.0590   35.2380   13.7940 C   0  0  0  0  0  0  0  0  0  0  0  0
   33.0280   34.8760   12.4530 O   0  0  0  0  0  0  0  0  0  0  0  0
   33.3800   33.9560   12.3440 H   0  0  0  0  0  0  0  0  0  0  0  0
   29.8670   25.5550   16.9770 C   0  0  0  0  0  0  0  0  0  0  0  0
   28.3450   25.7220   17.0260 C   0  0  0  0  0  0  0  0  0  0  0  0
   27.5990   24.4760   16.5750 C   0  0  0  0  0  0  0  0  0  0  0  0
   26.9800   23.7380   17.7300 C   0  0  0  0  0  0  0  0  0  0  0  0
   25.4640   23.7030   17.5580 C   0  0  0  0  0  0  0  0  0  0  0  0
   24.9550   22.3200   17.7160 N   0  0  0  0  0  0  0  0  0  0  0  0
  1  5  1  0  0  0  0
  2  3  2  0  0  0  0
  2  1  1  0  0  0  0
  4  1  1  0  0  0  0
  6  5  1  6  0  0  0
  6  7  1  0  0  0  0
  6 29  1  0  0  0  0
  7 27  1  6  0  0  0
  8  7  1  6  0  0  0
  9 14  1  6  0  0  0
  9 16  1  0  0  0  0
 10  9  1  0  0  0  0
 11  9  1  0  0  0  0
 11  8  1  0  0  0  0
 12 20  1  1  0  0  0
 12 10  1  0  0  0  0
 12 13  1  0  0  0  0
 13 22  1  1  0  0  0
 13  8  1  0  0  0  0
 14 15  1  0  0  0  0
 16 17  2  0  0  0  0
 16 18  1  0  0  0  0
 18 19  1  0  0  0  0
 20 21  1  0  0  0  0
 22 23  1  0  0  0  0
 23 26  2  0  0  0  0
 23 25  1  0  0  0  0
 24 22  1  0  0  0  0
 28 27  1  0  0  0  0
 30 29  1  0  0  0  0
 31 32  1  0  0  0  0
 31  2  1  0  0  0  0
 32 33  1  0  0  0  0
 33 35  1  0  0  0  0
 34 36  1  0  0  0  0
 34 33  2  0  0  0  0
 36 37  1  0  0  0  0
 37 35  2  0  0  0  0
 38 39  1  0  0  0  0
 38 36  1  0  0  0  0
 40 38  2  0  0  0  0
 41 39  2  0  0  0  0
 42 43  2  0  0  0  0
 42 40  1  0  0  0  0
 43 41  1  0  0  0  0
 44 43  1  0  0  0  0
 45 44  1  0  0  0  0
 46 45  1  0  0  0  0
 47 48  1  0  0  0  0
 49 48  1  0  0  0  0
 49 50  1  0  0  0  0
 51 52  1  0  0  0  0
 51 50  1  0  0  0  0
M  END
>  <REMARK>
 VINA RESULT:    -5.496      0.000      0.000
 INTER + INTRA:         -15.730
 INTER:                  -8.998
 INTRA:                  -6.732
 UNBOUND:                -5.735
 SMILES CC(=O)N[C@@H]1[C@@H](O)C[C@](O)(C(=O)O)O[C@H]1C(O)[C@H](O)CNC(=O)OCc1cn(-c2ccc(CO)cn2)nn1
 SMILES IDX 21 1 22 2 23 3 20 5 18 6 16 7 15 8 9 9 8 10 14 11 6 12 5 13
 SMILES IDX 10 14 11 16 12 17 13 18 7 20 4 22 2 23 1 25 3 26 17 27 19 29
 SMILES IDX 24 31 25 32 26 33 27 34 38 35 28 36 37 37 29 38 30 39 36 40
 SMILES IDX 31 41 35 42 32 43 33 44 34 45
 H PARENT 21 4 10 15 13 19 7 21 4 24 17 28 19 30 34 46
 Flexibility Score: inf
  4 active torsions:
  status: ('A' for Active; 'I' for Inactive)
    1  A    between atoms: CA   and  CB  
    2  A    between atoms: CB   and  CG  
    3  A    between atoms: CG   and  CD  
    4  A    between atoms: CD   and  CE  

>  <TORSDO>
F 17

>  <BEGIN_>
RES LYS A 131

$$$$
ligand_59_pose_0_2HRL.pdbqt
 OpenBabel07062320523D

  6  5  0  0  0  0  0  0  0  0999 V2000
   33.1930   34.6630    9.2900 C   0  0  0  0  0  0  0  0  0  0  0  0
   32.0600   35.3600   10.0340 C   0  0  0  0  0  0  0  0  0  0  0  0
   30.7980   35.4930    9.2220 C   0  0  0  0  0  0  0  0  0  0  0  0
   30.0630   34.1630    9.1500 C   0  0  0  0  0  0  0  0  0  0  0  0
   28.6270   34.3720    8.7100 C   0  0  0  0  0  0  0  0  0  0  0  0
   27.6810   33.6520    9.6070 N   0  0  0  0  0  0  0  0  0  0  0  0
  1  2  1  0  0  0  0
  3  2  1  0  0  0  0
  4  3  1  0  0  0  0
  5  4  1  0  0  0  0
  5  6  1  0  0  0  0
M  END
>  <EGIN_R>
ES LYS A 135

>  <REMARK>
  4 active torsions:
  status: ('A' for Active; 'I' for Inactive)
    5  A    between atoms: CA   and  CB  
    6  A    between atoms: CB   and  CG  
    7  A    between atoms: CG   and  CD  
    8  A    between atoms: CD   and  CE  

$$$$
