ligand_16_pose_0_2HRL.pdbqt
 OpenBabel07062320523D

 54 55  0  0  1  0  0  0  0  0999 V2000
   25.9090   27.9160   18.1380 N   0  0  0  0  0  0  0  0  0  0  0  0
   25.3940   29.0740   17.5340 C   0  0  0  0  0  0  0  0  0  0  0  0
   24.9330   29.9880   18.2380 O   0  0  0  0  0  0  0  0  0  0  0  0
   26.2810   27.1790   17.4640 H   0  0  0  0  0  0  0  0  0  0  0  0
   25.9520   27.7020   19.5600 C   0  0  0  0  0  0  0  0  0  0  0  0
   27.3830   27.5590   20.0050 C   0  0  2  0  0  0  0  0  0  0  0  0
   28.1060   28.8580   20.1640 C   0  0  1  0  0  0  0  0  0  0  0  0
   29.3590   28.6680   21.0380 C   0  0  2  0  0  0  0  0  0  0  0  0
   31.4430   27.6760   20.9080 C   0  0  2  0  0  0  0  0  0  0  0  0
   31.1000   26.5670   21.8910 C   0  0  0  0  0  0  0  0  0  0  0  0
   30.2780   28.0020   20.2560 O   0  0  0  0  0  0  0  0  0  0  0  0
   30.0370   27.0220   22.8380 C   0  0  1  0  0  0  0  0  0  0  0  0
   28.9440   27.8240   22.1880 C   0  0  1  0  0  0  0  0  0  0  0  0
   32.2880   27.0370   19.9540 O   0  0  0  0  0  0  0  0  0  0  0  0
   33.0910   26.6840   20.4510 H   0  0  0  0  0  0  0  0  0  0  0  0
   32.1630   28.7780   21.5500 C   0  0  0  0  0  0  0  0  0  0  0  0
   32.3000   29.8790   20.9140 O   0  0  0  0  0  0  0  0  0  0  0  0
   32.7330   28.7670   22.8070 O   0  0  0  0  0  0  0  0  0  0  0  0
   32.1480   29.0510   23.5810 H   0  0  0  0  0  0  0  0  0  0  0  0
   29.4330   25.8540   23.3610 O   0  0  0  0  0  0  0  0  0  0  0  0
   29.1500   25.3240   22.5750 H   0  0  0  0  0  0  0  0  0  0  0  0
   28.2170   28.5550   23.2060 N   0  0  0  0  0  0  0  0  0  0  0  0
   26.9990   28.0780   23.7500 C   0  0  0  0  0  0  0  0  0  0  0  0
   28.5740   29.4640   23.5720 H   0  0  0  0  0  0  0  0  0  0  0  0
   26.2600   28.8550   24.8090 C   0  0  0  0  0  0  0  0  0  0  0  0
   26.5440   26.9940   23.3370 O   0  0  0  0  0  0  0  0  0  0  0  0
   28.4020   29.5040   18.9880 O   0  0  0  0  0  0  0  0  0  0  0  0
   28.9040   30.3380   19.1770 H   0  0  0  0  0  0  0  0  0  0  0  0
   28.1160   26.7070   19.1680 O   0  0  0  0  0  0  0  0  0  0  0  0
   27.6330   25.8360   19.0890 H   0  0  0  0  0  0  0  0  0  0  0  0
   25.3650   29.2700   16.1590 O   0  0  0  0  0  0  0  0  0  0  0  0
   25.7690   30.4600   15.5260 C   0  0  0  0  0  0  0  0  0  0  0  0
   27.1490   30.8000   15.9310 C   0  0  0  0  0  0  0  0  0  0  0  0
   27.5400   31.9880   16.5510 C   0  0  0  0  0  0  0  0  0  0  0  0
   28.2910   30.0970   15.8030 N   0  0  0  0  0  0  0  0  0  0  0  0
   28.8610   31.9510   16.7640 N   0  0  0  0  0  0  0  0  0  0  0  0
   29.2910   30.8010   16.3040 N   0  0  0  0  0  0  0  0  0  0  0  0
   29.6760   33.0060   17.3840 C   0  0  0  0  0  0  0  0  0  0  0  0
   30.3970   33.6670   16.2500 C   0  0  0  0  0  0  0  0  0  0  0  0
   31.7500   33.5120   16.1340 C   0  0  0  0  0  0  0  0  0  0  0  0
   29.7360   34.4330   15.3230 C   0  0  0  0  0  0  0  0  0  0  0  0
   32.4540   34.1200   15.0890 C   0  0  0  0  0  0  0  0  0  0  0  0
   30.4340   35.0380   14.2840 C   0  0  0  0  0  0  0  0  0  0  0  0
   31.8010   34.8880   14.1560 C   0  0  0  0  0  0  0  0  0  0  0  0
   32.5210   35.5250   13.0620 C   0  0  0  0  0  0  0  0  0  0  0  0
   32.1880   36.6280   12.5760 O   0  0  0  0  0  0  0  0  0  0  0  0
   33.6350   34.8900   12.5230 O   0  0  0  0  0  0  0  0  0  0  0  0
   33.7080   34.7100   11.5360 H   0  0  0  0  0  0  0  0  0  0  0  0
   29.8670   25.5550   16.9770 C   0  0  0  0  0  0  0  0  0  0  0  0
   28.3450   25.7220   17.0260 C   0  0  0  0  0  0  0  0  0  0  0  0
   27.5990   24.4330   16.7160 C   0  0  0  0  0  0  0  0  0  0  0  0
   26.2080   24.4330   17.2880 C   0  0  0  0  0  0  0  0  0  0  0  0
   26.1570   23.5100   18.5010 C   0  0  0  0  0  0  0  0  0  0  0  0
   25.4810   24.1820   19.6360 N   0  0  0  0  0  0  0  0  0  0  0  0
  1  5  1  0  0  0  0
  2  1  1  0  0  0  0
  2  3  2  0  0  0  0
  4  1  1  0  0  0  0
  6  5  1  6  0  0  0
  6  7  1  0  0  0  0
  7 27  1  6  0  0  0
  8  7  1  6  0  0  0
  8 13  1  0  0  0  0
  9 14  1  6  0  0  0
  9 16  1  0  0  0  0
  9 10  1  0  0  0  0
 10 12  1  0  0  0  0
 11  9  1  0  0  0  0
 11  8  1  0  0  0  0
 12 20  1  6  0  0  0
 13 12  1  0  0  0  0
 13 22  1  1  0  0  0
 14 15  1  0  0  0  0
 16 18  1  0  0  0  0
 17 16  2  0  0  0  0
 18 19  1  0  0  0  0
 21 20  1  0  0  0  0
 22 24  1  0  0  0  0
 22 23  1  0  0  0  0
 23 25  1  0  0  0  0
 26 23  2  0  0  0  0
 27 28  1  0  0  0  0
 29  6  1  0  0  0  0
 30 29  1  0  0  0  0
 31  2  1  0  0  0  0
 32 33  1  0  0  0  0
 32 31  1  0  0  0  0
 33 34  2  0  0  0  0
 34 36  1  0  0  0  0
 35 33  1  0  0  0  0
 35 37  2  0  0  0  0
 36 38  1  0  0  0  0
 37 36  1  0  0  0  0
 39 38  1  0  0  0  0
 40 39  1  0  0  0  0
 41 39  2  0  0  0  0
 42 40  2  0  0  0  0
 43 41  1  0  0  0  0
 44 43  2  0  0  0  0
 44 42  1  0  0  0  0
 45 44  1  0  0  0  0
 46 45  2  0  0  0  0
 47 45  1  0  0  0  0
 48 47  1  0  0  0  0
 49 50  1  0  0  0  0
 51 50  1  0  0  0  0
 51 52  1  0  0  0  0
 52 53  1  0  0  0  0
 53 54  1  0  0  0  0
M  END
>  <REMARK>
 VINA RESULT:    -6.311      0.000      0.000
 INTER + INTRA:         -15.838
 INTER:                 -10.696
 INTRA:                  -5.141
 UNBOUND:                -3.993
 SMILES CC(=O)N[C@@H]1[C@@H](O)C[C@](O)(C(=O)O)O[C@H]1C(O)[C@H](O)CNC(=O)OCc1cn(Cc2ccc(C(=O)O)cc2)nn1
 SMILES IDX 21 1 22 2 23 3 20 5 18 6 16 7 15 8 9 9 8 10 14 11 6 12 5 13
 SMILES IDX 10 14 11 16 12 17 13 18 7 20 4 22 2 23 1 25 3 26 17 27 19 29
 SMILES IDX 24 31 25 32 26 33 27 34 40 35 28 36 39 37 29 38 30 39 31 40
 SMILES IDX 38 41 32 42 37 43 33 44 34 45 35 46 36 47
 H PARENT 21 4 10 15 13 19 7 21 4 24 17 28 19 30 36 48
 Flexibility Score: inf
  4 active torsions:
  status: ('A' for Active; 'I' for Inactive)
    1  A    between atoms: CA   and  CB  
    2  A    between atoms: CB   and  CG  
    3  A    between atoms: CG   and  CD  
    4  A    between atoms: CD   and  CE  

>  <TORSDO>
F 18

>  <BEGIN_>
RES LYS A 131

$$$$
ligand_16_pose_0_2HRL.pdbqt
 OpenBabel07062320523D

  6  5  0  0  0  0  0  0  0  0999 V2000
   33.1930   34.6630    9.2900 C   0  0  0  0  0  0  0  0  0  0  0  0
   32.0600   35.3600   10.0340 C   0  0  0  0  0  0  0  0  0  0  0  0
   30.6940   35.0540    9.4750 C   0  0  0  0  0  0  0  0  0  0  0  0
   29.6870   34.8570   10.5980 C   0  0  0  0  0  0  0  0  0  0  0  0
   28.2710   34.9840   10.0710 C   0  0  0  0  0  0  0  0  0  0  0  0
   27.7720   33.6800    9.5520 N   0  0  0  0  0  0  0  0  0  0  0  0
  1  2  1  0  0  0  0
  3  2  1  0  0  0  0
  3  4  1  0  0  0  0
  5  4  1  0  0  0  0
  6  5  1  0  0  0  0
M  END
>  <EGIN_R>
ES LYS A 135

>  <REMARK>
  4 active torsions:
  status: ('A' for Active; 'I' for Inactive)
    5  A    between atoms: CA   and  CB  
    6  A    between atoms: CB   and  CG  
    7  A    between atoms: CG   and  CD  
    8  A    between atoms: CD   and  CE  

$$$$
