ligand_44_pose_0_2HRL.pdbqt
 OpenBabel07062320523D

 51 52  0  0  1  0  0  0  0  0999 V2000
   29.1280   30.4770   16.7510 N   0  0  0  0  0  0  0  0  0  0  0  0
   28.3310   30.1060   17.8620 C   0  0  0  0  0  0  0  0  0  0  0  0
   28.5890   30.3410   19.0570 O   0  0  0  0  0  0  0  0  0  0  0  0
   28.8050   30.2260   15.7640 H   0  0  0  0  0  0  0  0  0  0  0  0
   30.3550   31.1820   16.9510 C   0  0  0  0  0  0  0  0  0  0  0  0
   30.2500   32.6830   16.8620 C   0  0  2  0  0  0  0  0  0  0  0  0
   30.1030   33.1870   15.4730 C   0  0  1  0  0  0  0  0  0  0  0  0
   30.1750   34.6420   15.2310 C   0  0  2  0  0  0  0  0  0  0  0  0
   29.1780   35.2000   13.2270 C   0  0  2  0  0  0  0  0  0  0  0  0
   29.7890   36.5810   13.1650 C   0  0  0  0  0  0  0  0  0  0  0  0
   28.9740   34.9620   14.5770 O   0  0  0  0  0  0  0  0  0  0  0  0
   31.1270   36.4840   13.8150 C   0  0  1  0  0  0  0  0  0  0  0  0
   31.3700   35.2180   14.6130 C   0  0  1  0  0  0  0  0  0  0  0  0
   30.0490   34.3300   12.6110 O   0  0  0  0  0  0  0  0  0  0  0  0
   29.8330   34.1230   11.6820 H   0  0  0  0  0  0  0  0  0  0  0  0
   27.8600   35.2640   12.5520 C   0  0  0  0  0  0  0  0  0  0  0  0
   26.8880   34.5480   12.8790 O   0  0  0  0  0  0  0  0  0  0  0  0
   27.7270   36.1720   11.5060 O   0  0  0  0  0  0  0  0  0  0  0  0
   28.2860   37.0060   11.4260 H   0  0  0  0  0  0  0  0  0  0  0  0
   32.0880   36.4890   12.7780 O   0  0  0  0  0  0  0  0  0  0  0  0
   31.6770   36.6220   11.9010 H   0  0  0  0  0  0  0  0  0  0  0  0
   32.3390   35.6790   15.6320 N   0  0  0  0  0  0  0  0  0  0  0  0
   33.7220   35.4980   15.5140 C   0  0  0  0  0  0  0  0  0  0  0  0
   31.8990   36.1550   16.4570 H   0  0  0  0  0  0  0  0  0  0  0  0
   34.6150   35.9940   16.6030 C   0  0  0  0  0  0  0  0  0  0  0  0
   34.2050   34.9350   14.5210 O   0  0  0  0  0  0  0  0  0  0  0  0
   30.8250   32.3770   14.6100 O   0  0  0  0  0  0  0  0  0  0  0  0
   31.4440   32.9410   14.0640 H   0  0  0  0  0  0  0  0  0  0  0  0
   31.1720   33.3750   17.6300 O   0  0  0  0  0  0  0  0  0  0  0  0
   32.0340   32.9200   17.7130 H   0  0  0  0  0  0  0  0  0  0  0  0
   27.1450   29.4160   17.6140 O   0  0  0  0  0  0  0  0  0  0  0  0
   25.8900   30.0130   17.8330 C   0  0  0  0  0  0  0  0  0  0  0  0
   25.4570   30.8240   16.6800 C   0  0  0  0  0  0  0  0  0  0  0  0
   25.4330   30.5390   15.3350 C   0  0  0  0  0  0  0  0  0  0  0  0
   24.9830   32.0830   16.8270 N   0  0  0  0  0  0  0  0  0  0  0  0
   24.9460   31.6330   14.7070 N   0  0  0  0  0  0  0  0  0  0  0  0
   24.6890   32.5340   15.6370 N   0  0  0  0  0  0  0  0  0  0  0  0
   24.7570   31.7510   13.2760 C   0  0  0  0  0  0  0  0  0  0  0  0
   23.5080   30.9980   12.9250 C   0  0  0  0  0  0  0  0  0  0  0  0
   23.5860   29.6320   12.6940 C   0  0  0  0  0  0  0  0  0  0  0  0
   22.3080   31.6690   12.8400 C   0  0  0  0  0  0  0  0  0  0  0  0
   22.4330   28.9640   12.3750 C   0  0  0  0  0  0  0  0  0  0  0  0
   21.1330   30.9900   12.5160 C   0  0  0  0  0  0  0  0  0  0  0  0
   21.2370   29.6400   12.2920 C   0  0  0  0  0  0  0  0  0  0  0  0
   19.6440   28.6810   11.8460 Br  0  0  0  0  0  0  0  0  0  0  0  0
   29.8670   25.5550   16.9770 C   0  0  0  0  0  0  0  0  0  0  0  0
   28.3450   25.7220   17.0260 C   0  0  0  0  0  0  0  0  0  0  0  0
   27.6020   24.3990   16.9220 C   0  0  0  0  0  0  0  0  0  0  0  0
   26.1470   24.5370   17.2770 C   0  0  0  0  0  0  0  0  0  0  0  0
   25.9960   25.5310   18.4240 C   0  0  0  0  0  0  0  0  0  0  0  0
   24.8740   26.4620   18.1590 N   0  0  0  0  0  0  0  0  0  0  0  0
  1  5  1  0  0  0  0
  1  2  1  0  0  0  0
  2  3  2  0  0  0  0
  4  1  1  0  0  0  0
  6  5  1  6  0  0  0
  6 29  1  0  0  0  0
  7 27  1  6  0  0  0
  7  6  1  0  0  0  0
  8  7  1  6  0  0  0
  9 16  1  6  0  0  0
  9 11  1  0  0  0  0
 10  9  1  0  0  0  0
 10 12  1  0  0  0  0
 11  8  1  0  0  0  0
 12 20  1  6  0  0  0
 12 13  1  0  0  0  0
 13  8  1  0  0  0  0
 13 22  1  1  0  0  0
 14  9  1  0  0  0  0
 15 14  1  0  0  0  0
 16 17  2  0  0  0  0
 18 16  1  0  0  0  0
 19 18  1  0  0  0  0
 21 20  1  0  0  0  0
 22 24  1  0  0  0  0
 23 22  1  0  0  0  0
 23 25  1  0  0  0  0
 26 23  2  0  0  0  0
 28 27  1  0  0  0  0
 29 30  1  0  0  0  0
 31 32  1  0  0  0  0
 31  2  1  0  0  0  0
 33 35  1  0  0  0  0
 33 32  1  0  0  0  0
 34 33  2  0  0  0  0
 36 34  1  0  0  0  0
 36 37  1  0  0  0  0
 37 35  2  0  0  0  0
 38 36  1  0  0  0  0
 39 38  1  0  0  0  0
 40 39  2  0  0  0  0
 41 39  1  0  0  0  0
 42 40  1  0  0  0  0
 43 41  2  0  0  0  0
 44 42  2  0  0  0  0
 44 43  1  0  0  0  0
 45 44  1  0  0  0  0
 46 47  1  0  0  0  0
 48 47  1  0  0  0  0
 48 49  1  0  0  0  0
 49 50  1  0  0  0  0
 51 50  1  0  0  0  0
M  END
>  <REMARK>
 VINA RESULT:    -4.865      0.000      0.000
 INTER + INTRA:         -15.102
 INTER:                  -9.939
 INTRA:                  -5.163
 UNBOUND:                -6.398
 SMILES CC(=O)N[C@@H]1[C@@H](O)C[C@](O)(C(=O)O)O[C@H]1C(O)[C@H](O)CNC(=O)OCc1cn(Cc2ccc(Br)cc2)nn1
 SMILES IDX 21 1 22 2 23 3 20 5 18 6 16 7 15 8 9 9 8 10 14 11 6 12 5 13
 SMILES IDX 10 14 11 16 12 17 13 18 7 20 4 22 2 23 1 25 3 26 17 27 19 29
 SMILES IDX 24 31 25 32 26 33 27 34 38 35 28 36 37 37 29 38 30 39 31 40
 SMILES IDX 36 41 32 42 35 43 33 44 34 45
 H PARENT 21 4 10 15 13 19 7 21 4 24 17 28 19 30
 Flexibility Score: inf
  4 active torsions:
  status: ('A' for Active; 'I' for Inactive)
    1  A    between atoms: CA   and  CB  
    2  A    between atoms: CB   and  CG  
    3  A    between atoms: CG   and  CD  
    4  A    between atoms: CD   and  CE  

>  <TORSDO>
F 16

>  <BEGIN_>
RES LYS A 131

$$$$
ligand_44_pose_0_2HRL.pdbqt
 OpenBabel07062320523D

  6  5  0  0  0  0  0  0  0  0999 V2000
   33.1930   34.6630    9.2900 C   0  0  0  0  0  0  0  0  0  0  0  0
   32.0600   35.3600   10.0340 C   0  0  0  0  0  0  0  0  0  0  0  0
   30.7960   35.4870    9.2240 C   0  0  0  0  0  0  0  0  0  0  0  0
   30.0730   34.1510    9.1440 C   0  0  0  0  0  0  0  0  0  0  0  0
   28.6490   34.3430    8.6600 C   0  0  0  0  0  0  0  0  0  0  0  0
   27.6930   33.5380    9.4690 N   0  0  0  0  0  0  0  0  0  0  0  0
  1  2  1  0  0  0  0
  3  2  1  0  0  0  0
  4  3  1  0  0  0  0
  5  4  1  0  0  0  0
  5  6  1  0  0  0  0
M  END
>  <EGIN_R>
ES LYS A 135

>  <REMARK>
  4 active torsions:
  status: ('A' for Active; 'I' for Inactive)
    5  A    between atoms: CA   and  CB  
    6  A    between atoms: CB   and  CG  
    7  A    between atoms: CG   and  CD  
    8  A    between atoms: CD   and  CE  

$$$$
