ligand_31_pose_0_2HRL.pdbqt
 OpenBabel07062320523D

 57 58  0  0  1  0  0  0  0  0999 V2000
   33.7390   36.0630   19.0540 O   0  0  0  0  0  0  0  0  0  0  0  0
   34.0960   35.2680   20.1380 C   0  0  0  0  0  0  0  0  0  0  0  0
   33.1850   34.7090   21.0460 N   0  0  0  0  0  0  0  0  0  0  0  0
   32.1750   34.8780   20.9310 H   0  0  0  0  0  0  0  0  0  0  0  0
   35.3220   35.0410   20.3080 O   0  0  0  0  0  0  0  0  0  0  0  0
   33.6700   33.8850   22.1570 C   0  0  0  0  0  0  0  0  0  0  0  0
   33.5960   32.4360   21.7550 C   0  0  2  0  0  0  0  0  0  0  0  0
   32.4570   31.7120   22.4190 C   0  0  1  0  0  0  0  0  0  0  0  0
   31.9390   30.5670   21.5980 C   0  0  2  0  0  0  0  0  0  0  0  0
   29.8830   29.6560   20.9630 C   0  0  2  0  0  0  0  0  0  0  0  0
   30.5010   28.3130   20.7460 C   0  0  0  0  0  0  0  0  0  0  0  0
   30.5510   30.4820   21.8090 O   0  0  0  0  0  0  0  0  0  0  0  0
   31.9560   28.2310   20.9720 C   0  0  1  0  0  0  0  0  0  0  0  0
   32.4600   29.2140   22.0140 C   0  0  1  0  0  0  0  0  0  0  0  0
   28.6280   29.3970   21.5720 O   0  0  0  0  0  0  0  0  0  0  0  0
   27.9650   30.0830   21.3130 H   0  0  0  0  0  0  0  0  0  0  0  0
   29.5920   30.3690   19.6950 C   0  0  0  0  0  0  0  0  0  0  0  0
   28.5330   31.0400   19.5420 O   0  0  0  0  0  0  0  0  0  0  0  0
   30.4530   30.3440   18.6040 O   0  0  0  0  0  0  0  0  0  0  0  0
   31.1700   31.0550   18.5080 H   0  0  0  0  0  0  0  0  0  0  0  0
   32.3080   26.9190   21.3520 O   0  0  0  0  0  0  0  0  0  0  0  0
   33.0100   26.5510   20.7790 H   0  0  0  0  0  0  0  0  0  0  0  0
   33.8700   29.1110   22.1640 N   0  0  0  0  0  0  0  0  0  0  0  0
   34.3940   28.4060   23.2920 C   0  0  0  0  0  0  0  0  0  0  0  0
   34.5670   29.5100   21.5000 H   0  0  0  0  0  0  0  0  0  0  0  0
   35.8430   28.2430   23.5370 C   0  0  0  0  0  0  0  0  0  0  0  0
   33.5990   27.8890   24.1300 O   0  0  0  0  0  0  0  0  0  0  0  0
   32.6970   31.3960   23.7440 O   0  0  0  0  0  0  0  0  0  0  0  0
   32.2640   30.5560   24.0400 H   0  0  0  0  0  0  0  0  0  0  0  0
   34.7730   31.8370   22.2800 O   0  0  0  0  0  0  0  0  0  0  0  0
   34.7440   30.8980   21.9160 H   0  0  0  0  0  0  0  0  0  0  0  0
   32.3880   36.2510   18.6910 C   0  0  0  0  0  0  0  0  0  0  0  0
   31.9080   35.0130   18.0390 C   0  0  0  0  0  0  0  0  0  0  0  0
   32.1300   34.6210   16.7470 C   0  0  0  0  0  0  0  0  0  0  0  0
   31.1660   34.0520   18.6120 N   0  0  0  0  0  0  0  0  0  0  0  0
   31.5180   33.4360   16.5700 N   0  0  0  0  0  0  0  0  0  0  0  0
   30.9340   33.0930   17.7070 N   0  0  0  0  0  0  0  0  0  0  0  0
   31.4850   32.6340   15.3440 C   0  0  0  0  0  0  0  0  0  0  0  0
   30.0430   32.3160   15.0500 C   0  0  0  0  0  0  0  0  0  0  0  0
   29.6830   31.0820   15.7010 N   0  0  0  0  0  0  0  0  0  0  0  0
   28.3540   30.6920   15.9920 C   0  0  0  0  0  0  0  0  0  0  0  0
   30.4410   30.4030   15.9920 H   0  0  0  0  0  0  0  0  0  0  0  0
   27.4140   31.4750   15.6590 O   0  0  0  0  0  0  0  0  0  0  0  0
   28.1020   29.4550   16.6400 N   0  0  0  0  0  0  0  0  0  0  0  0
   28.8510   28.7980   16.9230 H   0  0  0  0  0  0  0  0  0  0  0  0
   26.7310   29.0910   16.9210 C   0  0  0  0  0  0  0  0  0  0  0  0
   26.7090   28.2580   18.1420 C   0  0  0  0  0  0  0  0  0  0  0  0
   25.5880   28.0950   18.9490 C   0  0  0  0  0  0  0  0  0  0  0  0
   27.6870   27.5710   18.6430 O   0  0  0  0  0  0  0  0  0  0  0  0
   25.9880   27.2550   19.9660 C   0  0  0  0  0  0  0  0  0  0  0  0
   27.3130   26.9580   19.7240 C   0  0  0  0  0  0  0  0  0  0  0  0
   29.8670   25.5550   16.9770 C   0  0  0  0  0  0  0  0  0  0  0  0
   28.3450   25.7220   17.0260 C   0  0  0  0  0  0  0  0  0  0  0  0
   27.6000   24.4080   16.8450 C   0  0  0  0  0  0  0  0  0  0  0  0
   26.1660   24.5040   17.2860 C   0  0  0  0  0  0  0  0  0  0  0  0
   25.9740   23.7020   18.5690 C   0  0  0  0  0  0  0  0  0  0  0  0
   24.9540   22.6450   18.3720 N   0  0  0  0  0  0  0  0  0  0  0  0
  1  2  1  0  0  0  0
  2  5  2  0  0  0  0
  2  3  1  0  0  0  0
  3  6  1  0  0  0  0
  4  3  1  0  0  0  0
  7  6  1  1  0  0  0
  7 30  1  0  0  0  0
  7  8  1  0  0  0  0
  8 28  1  1  0  0  0
  9 12  1  0  0  0  0
  9 14  1  0  0  0  0
  9  8  1  1  0  0  0
 10 17  1  6  0  0  0
 10 15  1  0  0  0  0
 10 12  1  0  0  0  0
 11 10  1  0  0  0  0
 11 13  1  0  0  0  0
 13 21  1  1  0  0  0
 13 14  1  0  0  0  0
 14 23  1  6  0  0  0
 16 15  1  0  0  0  0
 18 17  2  0  0  0  0
 19 17  1  0  0  0  0
 20 19  1  0  0  0  0
 22 21  1  0  0  0  0
 23 24  1  0  0  0  0
 24 26  1  0  0  0  0
 24 27  2  0  0  0  0
 25 23  1  0  0  0  0
 28 29  1  0  0  0  0
 31 30  1  0  0  0  0
 32  1  1  0  0  0  0
 33 35  1  0  0  0  0
 33 32  1  0  0  0  0
 34 33  2  0  0  0  0
 36 34  1  0  0  0  0
 36 37  1  0  0  0  0
 37 35  2  0  0  0  0
 38 36  1  0  0  0  0
 39 38  1  0  0  0  0
 39 40  1  0  0  0  0
 40 42  1  0  0  0  0
 40 41  1  0  0  0  0
 41 44  1  0  0  0  0
 43 41  2  0  0  0  0
 44 46  1  0  0  0  0
 44 45  1  0  0  0  0
 46 47  1  0  0  0  0
 47 49  1  0  0  0  0
 47 48  2  0  0  0  0
 48 50  1  0  0  0  0
 49 51  1  0  0  0  0
 51 50  2  0  0  0  0
 52 53  1  0  0  0  0
 54 53  1  0  0  0  0
 54 55  1  0  0  0  0
 55 56  1  0  0  0  0
 57 56  1  0  0  0  0
M  END
>  <REMARK>
 VINA RESULT:    -5.374      0.000      0.000
 INTER + INTRA:         -16.467
 INTER:                  -9.082
 INTRA:                  -7.385
 UNBOUND:                -5.909
 SMILES CC(=O)N[C@@H]1[C@@H](O)C[C@](O)(C(=O)O)O[C@H]1C(O)[C@H](O)CNC(=O)OCc1cn(CCNC(=O)NCc2ccco2)nn1
 SMILES IDX 24 1 22 2 21 3 23 5 20 6 18 7 16 8 15 9 9 10 8 11 14 12 6 13
 SMILES IDX 5 14 10 15 11 17 12 18 13 19 7 21 4 23 2 24 1 26 3 27 17 28
 SMILES IDX 19 30 25 32 26 33 27 34 42 35 28 36 41 37 29 38 30 39 31 40
 SMILES IDX 32 41 33 43 34 44 35 46 36 47 37 48 40 49 38 50 39 51
 H PARENT 21 4 10 16 13 20 7 22 4 25 17 29 19 31 31 42 34 45
 Flexibility Score: inf
  4 active torsions:
  status: ('A' for Active; 'I' for Inactive)
    1  A    between atoms: CA   and  CB  
    2  A    between atoms: CB   and  CG  
    3  A    between atoms: CG   and  CD  
    4  A    between atoms: CD   and  CE  

>  <TORSDO>
F 19

>  <BEGIN_>
RES LYS A 131

$$$$
ligand_31_pose_0_2HRL.pdbqt
 OpenBabel07062320523D

  6  5  0  0  0  0  0  0  0  0999 V2000
   33.1930   34.6630    9.2900 C   0  0  0  0  0  0  0  0  0  0  0  0
   32.0600   35.3600   10.0340 C   0  0  0  0  0  0  0  0  0  0  0  0
   30.7310   34.6620    9.8990 C   0  0  0  0  0  0  0  0  0  0  0  0
   30.3260   34.5570    8.4370 C   0  0  0  0  0  0  0  0  0  0  0  0
   28.8160   34.5430    8.3030 C   0  0  0  0  0  0  0  0  0  0  0  0
   28.1830   33.8120    9.4360 N   0  0  0  0  0  0  0  0  0  0  0  0
  1  2  1  0  0  0  0
  3  2  1  0  0  0  0
  4  3  1  0  0  0  0
  5  4  1  0  0  0  0
  5  6  1  0  0  0  0
M  END
>  <EGIN_R>
ES LYS A 135

>  <REMARK>
  4 active torsions:
  status: ('A' for Active; 'I' for Inactive)
    5  A    between atoms: CA   and  CB  
    6  A    between atoms: CB   and  CG  
    7  A    between atoms: CG   and  CD  
    8  A    between atoms: CD   and  CE  

$$$$
