ligand_64_pose_0_2HRL.pdbqt
 OpenBabel07062320523D

 59 61  0  0  1  0  0  0  0  0999 V2000
   26.0440   36.3010   15.5920 N   0  0  0  0  0  0  0  0  0  0  0  0
   25.3360   35.2630   16.2770 C   0  0  0  0  0  0  0  0  0  0  0  0
   25.9300   34.6470   17.1990 O   0  0  0  0  0  0  0  0  0  0  0  0
   25.4870   36.7800   14.8260 H   0  0  0  0  0  0  0  0  0  0  0  0
   27.3970   36.6770   15.8990 C   0  0  0  0  0  0  0  0  0  0  0  0
   28.3060   36.4310   14.7330 C   0  0  2  0  0  0  0  0  0  0  0  0
   28.3580   34.9300   14.4830 C   0  0  2  0  0  0  0  0  0  0  0  0
   29.4170   34.3080   15.3240 C   0  0  2  0  0  0  0  0  0  0  0  0
   31.6440   33.6470   15.2160 C   0  0  2  0  0  0  0  0  0  0  0  0
   31.4170   33.5020   16.7160 C   0  0  0  0  0  0  0  0  0  0  0  0
   30.6120   34.2800   14.5730 O   0  0  0  0  0  0  0  0  0  0  0  0
   30.2080   32.6580   16.9110 C   0  0  1  0  0  0  0  0  0  0  0  0
   29.1890   32.9060   15.7760 C   0  0  1  0  0  0  0  0  0  0  0  0
   31.8130   32.3200   14.7540 O   0  0  0  0  0  0  0  0  0  0  0  0
   32.7280   32.0630   15.0380 H   0  0  0  0  0  0  0  0  0  0  0  0
   32.8850   34.3930   14.9330 C   0  0  0  0  0  0  0  0  0  0  0  0
   33.1870   35.3870   15.6170 O   0  0  0  0  0  0  0  0  0  0  0  0
   33.7210   33.9970   13.9110 O   0  0  0  0  0  0  0  0  0  0  0  0
   33.7730   34.4830   13.0190 H   0  0  0  0  0  0  0  0  0  0  0  0
   30.4750   31.3130   17.0450 O   0  0  0  0  0  0  0  0  0  0  0  0
   29.6540   30.8120   17.2470 H   0  0  0  0  0  0  0  0  0  0  0  0
   27.8750   32.6060   16.2760 N   0  0  0  0  0  0  0  0  0  0  0  0
   27.2870   31.3000   16.1040 C   0  0  0  0  0  0  0  0  0  0  0  0
   27.3400   33.3210   16.7730 H   0  0  0  0  0  0  0  0  0  0  0  0
   25.9470   30.9510   16.5990 C   0  0  0  0  0  0  0  0  0  0  0  0
   28.0080   30.4590   15.4880 O   0  0  0  0  0  0  0  0  0  0  0  0
   28.4270   34.5920   13.1590 O   0  0  0  0  0  0  0  0  0  0  0  0
   28.7840   35.2720   12.5610 H   0  0  0  0  0  0  0  0  0  0  0  0
   29.5800   36.8690   15.1490 O   0  0  0  0  0  0  0  0  0  0  0  0
   29.9180   36.1660   15.7420 H   0  0  0  0  0  0  0  0  0  0  0  0
   24.0300   34.9520   15.9290 O   0  0  0  0  0  0  0  0  0  0  0  0
   23.7980   33.7300   15.2580 C   0  0  0  0  0  0  0  0  0  0  0  0
   23.5130   34.0600   13.8370 C   0  0  0  0  0  0  0  0  0  0  0  0
   24.4090   34.5870   12.8990 C   0  0  0  0  0  0  0  0  0  0  0  0
   22.3630   33.9330   13.1360 N   0  0  0  0  0  0  0  0  0  0  0  0
   23.7880   34.7500   11.7180 N   0  0  0  0  0  0  0  0  0  0  0  0
   22.5520   34.3470   11.8890 N   0  0  0  0  0  0  0  0  0  0  0  0
   24.4330   35.2750   10.5390 C   0  0  0  0  0  0  0  0  0  0  0  0
   23.7740   36.1000    9.6640 C   0  0  0  0  0  0  0  0  0  0  0  0
   25.7540   34.9490   10.2570 C   0  0  0  0  0  0  0  0  0  0  0  0
   24.3590   36.6170    8.5270 C   0  0  0  0  0  0  0  0  0  0  0  0
   26.3490   35.4560    9.1310 C   0  0  0  0  0  0  0  0  0  0  0  0
   25.6370   36.2650    8.3130 N   0  0  0  0  0  0  0  0  0  0  0  0
   23.6420   37.4910    7.6140 C   0  0  0  0  0  0  0  0  0  0  0  0
   22.5020   37.1590    7.2300 O   0  0  0  0  0  0  0  0  0  0  0  0
   24.1890   38.6730    7.1650 O   0  0  0  0  0  0  0  0  0  0  0  0
   24.9750   38.7070    6.5060 H   0  0  0  0  0  0  0  0  0  0  0  0
   27.7490   35.1260    8.8070 C   0  0  0  0  0  0  0  0  0  0  0  0
   28.4680   34.3800    9.7160 C   0  0  0  0  0  0  0  0  0  0  0  0
   28.3080   35.5540    7.6370 C   0  0  0  0  0  0  0  0  0  0  0  0
   29.7740   34.0710    9.4180 C   0  0  0  0  0  0  0  0  0  0  0  0
   29.6230   35.2210    7.3760 C   0  0  0  0  0  0  0  0  0  0  0  0
   30.3840   34.4770    8.2500 C   0  0  0  0  0  0  0  0  0  0  0  0
   29.8670   25.5550   16.9770 C   0  0  0  0  0  0  0  0  0  0  0  0
   28.3450   25.7220   17.0260 C   0  0  0  0  0  0  0  0  0  0  0  0
   27.6010   24.4030   16.8870 C   0  0  0  0  0  0  0  0  0  0  0  0
   26.2090   24.4750   17.4510 C   0  0  0  0  0  0  0  0  0  0  0  0
   25.6380   23.0660   17.5790 C   0  0  0  0  0  0  0  0  0  0  0  0
   24.8580   22.9350   18.8320 N   0  0  0  0  0  0  0  0  0  0  0  0
  1  5  1  0  0  0  0
  1  2  1  0  0  0  0
  2  3  2  0  0  0  0
  4  1  1  0  0  0  0
  6 29  1  0  0  0  0
  6  5  1  1  0  0  0
  7 27  1  6  0  0  0
  7  6  1  0  0  0  0
  8  7  1  6  0  0  0
  8 13  1  0  0  0  0
  9 14  1  6  0  0  0
  9 10  1  0  0  0  0
 10 12  1  0  0  0  0
 11  9  1  0  0  0  0
 11  8  1  0  0  0  0
 12 20  1  6  0  0  0
 13 22  1  1  0  0  0
 13 12  1  0  0  0  0
 14 15  1  0  0  0  0
 16  9  1  0  0  0  0
 16 17  2  0  0  0  0
 18 16  1  0  0  0  0
 19 18  1  0  0  0  0
 20 21  1  0  0  0  0
 22 24  1  0  0  0  0
 23 22  1  0  0  0  0
 23 25  1  0  0  0  0
 26 23  2  0  0  0  0
 28 27  1  0  0  0  0
 29 30  1  0  0  0  0
 31  2  1  0  0  0  0
 32 31  1  0  0  0  0
 33 32  1  0  0  0  0
 34 33  2  0  0  0  0
 35 33  1  0  0  0  0
 36 37  1  0  0  0  0
 36 34  1  0  0  0  0
 37 35  2  0  0  0  0
 38 36  1  0  0  0  0
 39 38  2  0  0  0  0
 40 38  1  0  0  0  0
 41 39  1  0  0  0  0
 42 40  2  0  0  0  0
 43 41  2  0  0  0  0
 43 42  1  0  0  0  0
 44 41  1  0  0  0  0
 45 44  2  0  0  0  0
 46 44  1  0  0  0  0
 47 46  1  0  0  0  0
 48 42  1  0  0  0  0
 48 49  2  0  0  0  0
 50 48  1  0  0  0  0
 51 49  1  0  0  0  0
 52 50  2  0  0  0  0
 52 53  1  0  0  0  0
 53 51  2  0  0  0  0
 54 55  1  0  0  0  0
 56 55  1  0  0  0  0
 56 57  1  0  0  0  0
 57 58  1  0  0  0  0
 58 59  1  0  0  0  0
M  END
>  <REMARK>
 VINA RESULT:    -6.264      0.000      0.000
 INTER + INTRA:         -16.973
 INTER:                 -12.192
 INTRA:                  -4.781
 UNBOUND:                -5.216
 SMILES CC(=O)N[C@@H]1[C@@H](O)C[C@](O)(C(=O)O)O[C@H]1C(O)[C@H](O)CNC(=O)OCc1cn(-c2cc(C(=O)O)nc(-c3ccccc3)c2)nn1
 SMILES IDX 21 1 22 2 23 3 20 5 18 6 16 7 15 8 9 9 8 10 14 11 6 12 5 13
 SMILES IDX 10 14 11 16 12 17 13 18 7 20 4 22 2 23 1 25 3 26 17 27 19 29
 SMILES IDX 24 31 25 32 26 33 27 34 45 35 28 36 44 37 29 38 30 39 43 40
 SMILES IDX 31 41 36 42 35 43 32 44 33 45 34 46 37 48 38 49 42 50 39 51
 SMILES IDX 41 52 40 53
 H PARENT 21 4 10 15 13 19 7 21 4 24 17 28 19 30 34 47
 Flexibility Score: inf
  4 active torsions:
  status: ('A' for Active; 'I' for Inactive)
    1  A    between atoms: CA   and  CB  
    2  A    between atoms: CB   and  CG  
    3  A    between atoms: CG   and  CD  
    4  A    between atoms: CD   and  CE  

>  <TORSDO>
F 18

>  <BEGIN_>
RES LYS A 131

$$$$
ligand_64_pose_0_2HRL.pdbqt
 OpenBabel07062320523D

  6  5  0  0  0  0  0  0  0  0999 V2000
   33.1930   34.6630    9.2900 C   0  0  0  0  0  0  0  0  0  0  0  0
   32.0600   35.3600   10.0340 C   0  0  0  0  0  0  0  0  0  0  0  0
   32.5120   36.0940   11.2700 C   0  0  0  0  0  0  0  0  0  0  0  0
   31.7650   37.4100   11.4160 C   0  0  0  0  0  0  0  0  0  0  0  0
   30.2700   37.1680   11.4970 C   0  0  0  0  0  0  0  0  0  0  0  0
   29.5530   37.8670   10.3950 N   0  0  0  0  0  0  0  0  0  0  0  0
  1  2  1  0  0  0  0
  2  3  1  0  0  0  0
  3  4  1  0  0  0  0
  4  5  1  0  0  0  0
  6  5  1  0  0  0  0
M  END
>  <EGIN_R>
ES LYS A 135

>  <REMARK>
  4 active torsions:
  status: ('A' for Active; 'I' for Inactive)
    5  A    between atoms: CA   and  CB  
    6  A    between atoms: CB   and  CG  
    7  A    between atoms: CG   and  CD  
    8  A    between atoms: CD   and  CE  

$$$$
