ligand_85_pose_0_2HRL.pdbqt
 OpenBabel07062320523D

 55 56  0  0  1  0  0  0  0  0999 V2000
   23.0350   35.2320    9.9330 N   0  0  0  0  0  0  0  0  0  0  0  0
   23.5280   35.7680   11.1320 C   0  0  0  0  0  0  0  0  0  0  0  0
   22.9600   36.7420   11.6670 O   0  0  0  0  0  0  0  0  0  0  0  0
   23.5160   34.4140    9.4950 H   0  0  0  0  0  0  0  0  0  0  0  0
   21.8760   35.7640    9.2650 C   0  0  0  0  0  0  0  0  0  0  0  0
   22.2720   36.3280    7.9250 C   0  0  2  0  0  0  0  0  0  0  0  0
   22.8010   37.7370    8.0210 C   0  0  2  0  0  0  0  0  0  0  0  0
   24.2650   37.7690    7.7960 C   0  0  2  0  0  0  0  0  0  0  0  0
   26.3370   36.9630    8.3570 C   0  0  2  0  0  0  0  0  0  0  0  0
   26.6910   37.6660    7.0710 C   0  0  0  0  0  0  0  0  0  0  0  0
   25.0360   37.1400    8.7580 O   0  0  0  0  0  0  0  0  0  0  0  0
   26.1610   39.0590    6.9930 C   0  0  1  0  0  0  0  0  0  0  0  0
   24.8030   39.1950    7.6770 C   0  0  1  0  0  0  0  0  0  0  0  0
   27.1430   37.5080    9.3720 O   0  0  0  0  0  0  0  0  0  0  0  0
   26.5040   37.7910   10.0950 H   0  0  0  0  0  0  0  0  0  0  0  0
   26.6020   35.5230    8.2740 C   0  0  0  0  0  0  0  0  0  0  0  0
   27.3880   35.0850    7.4000 O   0  0  0  0  0  0  0  0  0  0  0  0
   26.0310   34.5790    9.1140 O   0  0  0  0  0  0  0  0  0  0  0  0
   26.4390   33.6310    9.0870 H   0  0  0  0  0  0  0  0  0  0  0  0
   27.1010   39.9240    7.5890 O   0  0  0  0  0  0  0  0  0  0  0  0
   27.9250   39.3800    7.7050 H   0  0  0  0  0  0  0  0  0  0  0  0
   23.9170   40.0500    6.9640 N   0  0  0  0  0  0  0  0  0  0  0  0
   23.9630   41.4540    7.1590 C   0  0  0  0  0  0  0  0  0  0  0  0
   23.2250   39.6720    6.2900 H   0  0  0  0  0  0  0  0  0  0  0  0
   23.0080   42.3140    6.3820 C   0  0  0  0  0  0  0  0  0  0  0  0
   24.7480   42.0220    7.9380 O   0  0  0  0  0  0  0  0  0  0  0  0
   22.3580   38.3220    9.1800 O   0  0  0  0  0  0  0  0  0  0  0  0
   22.1790   39.2940    8.9730 H   0  0  0  0  0  0  0  0  0  0  0  0
   21.1160   36.4040    7.0870 O   0  0  0  0  0  0  0  0  0  0  0  0
   21.1860   35.7800    6.3370 H   0  0  0  0  0  0  0  0  0  0  0  0
   24.6490   35.2710   11.7890 O   0  0  0  0  0  0  0  0  0  0  0  0
   25.6000   36.1710   12.3210 C   0  0  0  0  0  0  0  0  0  0  0  0
   26.9090   35.5230   12.4870 C   0  0  0  0  0  0  0  0  0  0  0  0
   27.5810   35.1690   13.6380 C   0  0  0  0  0  0  0  0  0  0  0  0
   27.7150   35.1470   11.4790 N   0  0  0  0  0  0  0  0  0  0  0  0
   28.7660   34.5920   13.3060 N   0  0  0  0  0  0  0  0  0  0  0  0
   28.8040   34.6000   11.9960 N   0  0  0  0  0  0  0  0  0  0  0  0
   29.7650   34.0820   14.1780 C   0  0  0  0  0  0  0  0  0  0  0  0
   29.5670   32.8940   14.8660 C   0  0  0  0  0  0  0  0  0  0  0  0
   30.9400   34.7800   14.3370 C   0  0  0  0  0  0  0  0  0  0  0  0
   30.5180   32.3840   15.7130 C   0  0  0  0  0  0  0  0  0  0  0  0
   31.9220   34.2950   15.1840 C   0  0  0  0  0  0  0  0  0  0  0  0
   30.2770   30.8770   16.5920 Cl  0  0  0  0  0  0  0  0  0  0  0  0
   31.6900   33.0980   15.8600 C   0  0  0  0  0  0  0  0  0  0  0  0
   31.1330   36.0150   13.6140 C   0  0  0  0  0  0  0  0  0  0  0  0
   31.6850   36.0710   12.4780 O   0  0  0  0  0  0  0  0  0  0  0  0
   30.6950   37.2360   14.1770 N   0  0  0  0  0  0  0  0  0  0  0  0
   30.0580   37.2210   15.4710 C   0  0  0  0  0  0  0  0  0  0  0  0
   30.8630   38.5090   13.4920 C   0  0  0  0  0  0  0  0  0  0  0  0
   29.8670   25.5550   16.9770 C   0  0  0  0  0  0  0  0  0  0  0  0
   28.3450   25.7220   17.0260 C   0  0  0  0  0  0  0  0  0  0  0  0
   27.5990   24.4440   16.6750 C   0  0  0  0  0  0  0  0  0  0  0  0
   27.0290   23.7680   17.8910 C   0  0  0  0  0  0  0  0  0  0  0  0
   25.5940   23.3360   17.6080 C   0  0  0  0  0  0  0  0  0  0  0  0
   24.8470   24.4250   16.9370 N   0  0  0  0  0  0  0  0  0  0  0  0
  1  2  1  0  0  0  0
  2  3  2  0  0  0  0
  2 31  1  0  0  0  0
  4  1  1  0  0  0  0
  5  1  1  0  0  0  0
  6  7  1  0  0  0  0
  6  5  1  1  0  0  0
  7 27  1  1  0  0  0
  8  7  1  1  0  0  0
  8 11  1  0  0  0  0
  9 16  1  6  0  0  0
  9 11  1  0  0  0  0
  9 14  1  0  0  0  0
 10  9  1  0  0  0  0
 12 10  1  0  0  0  0
 12 20  1  1  0  0  0
 12 13  1  0  0  0  0
 13 22  1  6  0  0  0
 13  8  1  0  0  0  0
 14 15  1  0  0  0  0
 16 18  1  0  0  0  0
 17 16  2  0  0  0  0
 19 18  1  0  0  0  0
 20 21  1  0  0  0  0
 22 23  1  0  0  0  0
 23 26  2  0  0  0  0
 24 22  1  0  0  0  0
 25 23  1  0  0  0  0
 28 27  1  0  0  0  0
 29  6  1  0  0  0  0
 30 29  1  0  0  0  0
 31 32  1  0  0  0  0
 32 33  1  0  0  0  0
 33 34  2  0  0  0  0
 35 37  2  0  0  0  0
 35 33  1  0  0  0  0
 36 34  1  0  0  0  0
 36 38  1  0  0  0  0
 37 36  1  0  0  0  0
 38 40  2  0  0  0  0
 38 39  1  0  0  0  0
 39 41  2  0  0  0  0
 40 42  1  0  0  0  0
 41 44  1  0  0  0  0
 41 43  1  0  0  0  0
 42 44  2  0  0  0  0
 45 47  1  0  0  0  0
 45 40  1  0  0  0  0
 46 45  2  0  0  0  0
 47 48  1  0  0  0  0
 49 47  1  0  0  0  0
 50 51  1  0  0  0  0
 52 51  1  0  0  0  0
 52 53  1  0  0  0  0
 54 53  1  0  0  0  0
 55 54  1  0  0  0  0
M  END
>  <REMARK>
 VINA RESULT:    -5.223      0.000      0.000
 INTER + INTRA:         -15.532
 INTER:                  -9.562
 INTRA:                  -5.970
 UNBOUND:                -6.187
 SMILES CC(=O)N[C@@H]1[C@@H](O)C[C@](O)(C(=O)O)O[C@H]1C(O)[C@H](O)CNC(=O)OCc1cn(-c2cc(Cl)ccc2C(=O)N(C)C)nn1
 SMILES IDX 21 1 22 2 23 3 20 5 18 6 16 7 15 8 9 9 8 10 14 11 6 12 5 13
 SMILES IDX 10 14 11 16 12 17 13 18 7 20 4 22 2 23 1 25 3 26 17 27 19 29
 SMILES IDX 24 31 25 32 26 33 27 34 42 35 28 36 41 37 29 38 30 39 35 40
 SMILES IDX 31 41 34 42 32 43 33 44 36 45 37 46 38 47 39 48 40 49
 H PARENT 21 4 10 15 13 19 7 21 4 24 17 28 19 30
 Flexibility Score: inf
  4 active torsions:
  status: ('A' for Active; 'I' for Inactive)
    1  A    between atoms: CA   and  CB  
    2  A    between atoms: CB   and  CG  
    3  A    between atoms: CG   and  CD  
    4  A    between atoms: CD   and  CE  

>  <TORSDO>
F 16

>  <BEGIN_>
RES LYS A 131

$$$$
ligand_85_pose_0_2HRL.pdbqt
 OpenBabel07062320523D

  6  5  0  0  0  0  0  0  0  0999 V2000
   33.1930   34.6630    9.2900 C   0  0  0  0  0  0  0  0  0  0  0  0
   32.0600   35.3600   10.0340 C   0  0  0  0  0  0  0  0  0  0  0  0
   30.7370   35.2940    9.3160 C   0  0  0  0  0  0  0  0  0  0  0  0
   30.3920   36.6410    8.7010 C   0  0  0  0  0  0  0  0  0  0  0  0
   30.9890   37.7690    9.5200 C   0  0  0  0  0  0  0  0  0  0  0  0
   31.4690   38.8740    8.6440 N   0  0  0  0  0  0  0  0  0  0  0  0
  1  2  1  0  0  0  0
  3  2  1  0  0  0  0
  4  3  1  0  0  0  0
  4  5  1  0  0  0  0
  6  5  1  0  0  0  0
M  END
>  <EGIN_R>
ES LYS A 135

>  <REMARK>
  4 active torsions:
  status: ('A' for Active; 'I' for Inactive)
    5  A    between atoms: CA   and  CB  
    6  A    between atoms: CB   and  CG  
    7  A    between atoms: CG   and  CD  
    8  A    between atoms: CD   and  CE  

$$$$
