ligand_2_pose_0_2HRL.pdbqt
 OpenBabel07062320523D

 50 51  0  0  1  0  0  0  0  0999 V2000
   30.2710   27.2420   21.0470 C   0  0  0  0  0  0  0  0  0  0  0  0
   31.7380   27.4840   20.8800 C   0  0  2  0  0  0  0  0  0  0  0  0
   31.9850   28.9950   21.0190 C   0  0  2  0  0  0  0  0  0  0  0  0
   33.1550   29.2740   21.9590 C   0  0  2  0  0  0  0  0  0  0  0  0
   32.7950   28.4690   24.1340 C   0  0  2  0  0  0  0  0  0  0  0  0
   33.5240   29.5930   24.8380 C   0  0  0  0  0  0  0  0  0  0  0  0
   33.1820   28.2300   22.8610 O   0  0  0  0  0  0  0  0  0  0  0  0
   34.0030   30.5690   23.8240 C   0  0  1  0  0  0  0  0  0  0  0  0
   33.0360   30.5670   22.6560 C   0  0  1  0  0  0  0  0  0  0  0  0
   31.4350   28.7300   24.2890 O   0  0  0  0  0  0  0  0  0  0  0  0
   31.1320   29.1290   23.4350 H   0  0  0  0  0  0  0  0  0  0  0  0
   33.0910   27.2450   24.9230 C   0  0  0  0  0  0  0  0  0  0  0  0
   34.2290   27.1360   25.4350 O   0  0  0  0  0  0  0  0  0  0  0  0
   32.1670   26.2530   25.1010 O   0  0  0  0  0  0  0  0  0  0  0  0
   31.6500   25.8940   24.2940 H   0  0  0  0  0  0  0  0  0  0  0  0
   34.2050   31.8450   24.3330 O   0  0  0  0  0  0  0  0  0  0  0  0
   33.7200   32.5120   23.8060 H   0  0  0  0  0  0  0  0  0  0  0  0
   33.2690   31.7520   21.9050 N   0  0  0  0  0  0  0  0  0  0  0  0
   32.2770   32.7330   21.6700 C   0  0  0  0  0  0  0  0  0  0  0  0
   34.2450   31.8640   21.5210 H   0  0  0  0  0  0  0  0  0  0  0  0
   32.5560   33.9530   20.8850 C   0  0  0  0  0  0  0  0  0  0  0  0
   31.1530   32.4770   22.1830 O   0  0  0  0  0  0  0  0  0  0  0  0
   30.8290   29.6170   21.5010 O   0  0  0  0  0  0  0  0  0  0  0  0
   31.0440   30.4600   21.9910 H   0  0  0  0  0  0  0  0  0  0  0  0
   32.2380   27.0060   19.6900 O   0  0  0  0  0  0  0  0  0  0  0  0
   32.2530   26.0400   19.5780 H   0  0  0  0  0  0  0  0  0  0  0  0
   29.4430   27.5800   19.9390 N   0  0  0  0  0  0  0  0  0  0  0  0
   28.0260   27.5340   19.9370 C   0  0  0  0  0  0  0  0  0  0  0  0
   29.8990   27.8930   19.0370 H   0  0  0  0  0  0  0  0  0  0  0  0
   27.3810   27.1900   20.9410 O   0  0  0  0  0  0  0  0  0  0  0  0
   27.3110   27.8840   18.7750 O   0  0  0  0  0  0  0  0  0  0  0  0
   26.7670   29.1920   18.6240 C   0  0  0  0  0  0  0  0  0  0  0  0
   27.9080   30.1380   18.6700 C   0  0  0  0  0  0  0  0  0  0  0  0
   28.5280   30.7020   17.5940 C   0  0  0  0  0  0  0  0  0  0  0  0
   28.5150   30.5930   19.7560 N   0  0  0  0  0  0  0  0  0  0  0  0
   29.5090   31.4940   18.0740 N   0  0  0  0  0  0  0  0  0  0  0  0
   29.4890   31.4170   19.3920 N   0  0  0  0  0  0  0  0  0  0  0  0
   30.3800   32.2560   17.2320 C   0  0  0  0  0  0  0  0  0  0  0  0
   30.6440   31.8150   15.9580 C   0  0  0  0  0  0  0  0  0  0  0  0
   30.9200   33.4080   17.7450 C   0  0  0  0  0  0  0  0  0  0  0  0
   31.4910   32.5800   15.1790 C   0  0  0  0  0  0  0  0  0  0  0  0
   31.7620   34.1510   16.9400 C   0  0  0  0  0  0  0  0  0  0  0  0
   32.0570   33.7520   15.6600 C   0  0  0  0  0  0  0  0  0  0  0  0
   33.1270   34.7330   14.6960 Cl  0  0  0  0  0  0  0  0  0  0  0  0
   29.8670   25.5550   16.9770 C   0  0  0  0  0  0  0  0  0  0  0  0
   28.3450   25.7220   17.0260 C   0  0  0  0  0  0  0  0  0  0  0  0
   27.5990   24.4690   16.5930 C   0  0  0  0  0  0  0  0  0  0  0  0
   27.0390   23.7100   17.7630 C   0  0  0  0  0  0  0  0  0  0  0  0
   26.1470   24.6320   18.5880 C   0  0  0  0  0  0  0  0  0  0  0  0
   25.5010   23.8790   19.6900 N   0  0  0  0  0  0  0  0  0  0  0  0
  2  3  1  0  0  0  0
  2  1  1  6  0  0  0
  3 23  1  1  0  0  0
  4  3  1  6  0  0  0
  4  9  1  0  0  0  0
  4  7  1  0  0  0  0
  5 10  1  1  0  0  0
  5  6  1  0  0  0  0
  5 12  1  0  0  0  0
  7  5  1  0  0  0  0
  8 16  1  1  0  0  0
  8  6  1  0  0  0  0
  9 18  1  6  0  0  0
  9  8  1  0  0  0  0
 11 10  1  0  0  0  0
 12 14  1  0  0  0  0
 12 13  2  0  0  0  0
 15 14  1  0  0  0  0
 17 16  1  0  0  0  0
 19 18  1  0  0  0  0
 19 22  2  0  0  0  0
 20 18  1  0  0  0  0
 21 19  1  0  0  0  0
 23 24  1  0  0  0  0
 25  2  1  0  0  0  0
 26 25  1  0  0  0  0
 27  1  1  0  0  0  0
 28 27  1  0  0  0  0
 28 30  2  0  0  0  0
 29 27  1  0  0  0  0
 31 28  1  0  0  0  0
 32 33  1  0  0  0  0
 32 31  1  0  0  0  0
 33 35  1  0  0  0  0
 34 36  1  0  0  0  0
 34 33  2  0  0  0  0
 36 37  1  0  0  0  0
 37 35  2  0  0  0  0
 38 40  1  0  0  0  0
 38 36  1  0  0  0  0
 39 38  2  0  0  0  0
 41 43  2  0  0  0  0
 41 39  1  0  0  0  0
 42 40  2  0  0  0  0
 43 42  1  0  0  0  0
 44 43  1  0  0  0  0
 45 46  1  0  0  0  0
 47 46  1  0  0  0  0
 47 48  1  0  0  0  0
 48 49  1  0  0  0  0
 49 50  1  0  0  0  0
M  END
>  <REMARK>
 VINA RESULT:    -4.713      0.000      0.000
 INTER + INTRA:         -15.165
 INTER:                  -8.917
 INTRA:                  -6.247
 UNBOUND:                -7.007
 SMILES CC(=O)N[C@@H]1[C@@H](O)C[C@](O)(C(=O)O)O[C@H]1C(O)[C@H](O)CNC(=O)OCc1cn(-c2ccc(Cl)cc2)nn1
 SMILES IDX 20 1 18 2 16 3 15 4 9 5 8 6 14 7 6 8 5 9 10 10 11 12 12 13
 SMILES IDX 13 14 7 16 4 18 2 19 1 21 3 22 17 23 19 25 21 27 22 28 23 30
 SMILES IDX 24 31 25 32 26 33 27 34 37 35 28 36 36 37 29 38 30 39 35 40
 SMILES IDX 31 41 34 42 32 43 33 44
 H PARENT 10 11 13 15 7 17 4 20 17 24 19 26 21 29
 Flexibility Score: inf
  4 active torsions:
  status: ('A' for Active; 'I' for Inactive)
    1  A    between atoms: CA   and  CB  
    2  A    between atoms: CB   and  CG  
    3  A    between atoms: CG   and  CD  
    4  A    between atoms: CD   and  CE  

>  <TORSDO>
F 15

>  <BEGIN_>
RES LYS A 131

$$$$
ligand_2_pose_0_2HRL.pdbqt
 OpenBabel07062320523D

  6  5  0  0  0  0  0  0  0  0999 V2000
   33.1930   34.6630    9.2900 C   0  0  0  0  0  0  0  0  0  0  0  0
   32.0600   35.3600   10.0340 C   0  0  0  0  0  0  0  0  0  0  0  0
   30.7920   35.4760    9.2280 C   0  0  0  0  0  0  0  0  0  0  0  0
   30.1620   34.1080    9.0190 C   0  0  0  0  0  0  0  0  0  0  0  0
   28.7150   34.1130    9.4720 C   0  0  0  0  0  0  0  0  0  0  0  0
   27.8100   34.5540    8.3740 N   0  0  0  0  0  0  0  0  0  0  0  0
  1  2  1  0  0  0  0
  3  2  1  0  0  0  0
  4  3  1  0  0  0  0
  4  5  1  0  0  0  0
  6  5  1  0  0  0  0
M  END
>  <EGIN_R>
ES LYS A 135

>  <REMARK>
  4 active torsions:
  status: ('A' for Active; 'I' for Inactive)
    5  A    between atoms: CA   and  CB  
    6  A    between atoms: CB   and  CG  
    7  A    between atoms: CG   and  CD  
    8  A    between atoms: CD   and  CE  

$$$$
