ligand_21_pose_0_2HRL.pdbqt
 OpenBabel07062320523D

 54 55  0  0  1  0  0  0  0  0999 V2000
   25.1700   40.5290    5.8020 N   0  0  0  0  0  0  0  0  0  0  0  0
   26.0310   41.0970    4.8160 C   0  0  0  0  0  0  0  0  0  0  0  0
   25.9840   42.3310    4.6320 O   0  0  0  0  0  0  0  0  0  0  0  0
   25.2160   39.5010    5.9450 H   0  0  0  0  0  0  0  0  0  0  0  0
   24.2680   41.3540    6.5610 C   0  0  0  0  0  0  0  0  0  0  0  0
   23.5270   40.4580    7.5590 C   0  0  2  0  0  0  0  0  0  0  0  0
   24.2530   39.1460    7.6690 C   0  0  2  0  0  0  0  0  0  0  0  0
   23.4000   38.1750    8.4400 C   0  0  2  0  0  0  0  0  0  0  0  0
   21.5160   36.8310    8.2070 C   0  0  2  0  0  0  0  0  0  0  0  0
   20.7150   37.7010    9.1470 C   0  0  0  0  0  0  0  0  0  0  0  0
   22.4570   37.6560    7.6120 O   0  0  0  0  0  0  0  0  0  0  0  0
   21.6240   38.2060   10.2140 C   0  0  1  0  0  0  0  0  0  0  0  0
   22.9000   38.8050    9.6900 C   0  0  1  0  0  0  0  0  0  0  0  0
   20.6200   36.4600    7.1830 O   0  0  0  0  0  0  0  0  0  0  0  0
   19.8530   37.0740    7.1310 H   0  0  0  0  0  0  0  0  0  0  0  0
   22.0860   35.6310    8.8500 C   0  0  0  0  0  0  0  0  0  0  0  0
   23.2710   35.2480    8.6990 O   0  0  0  0  0  0  0  0  0  0  0  0
   21.2830   34.8640    9.6730 O   0  0  0  0  0  0  0  0  0  0  0  0
   21.4430   33.8710    9.8590 H   0  0  0  0  0  0  0  0  0  0  0  0
   20.9000   39.1690   10.9510 O   0  0  0  0  0  0  0  0  0  0  0  0
   21.4250   39.3890   11.7770 H   0  0  0  0  0  0  0  0  0  0  0  0
   23.9160   38.6690   10.7170 N   0  0  0  0  0  0  0  0  0  0  0  0
   24.4030   39.7900   11.4550 C   0  0  0  0  0  0  0  0  0  0  0  0
   24.3190   37.7350   10.9440 H   0  0  0  0  0  0  0  0  0  0  0  0
   25.4410   39.5930   12.4920 C   0  0  0  0  0  0  0  0  0  0  0  0
   23.9500   40.9300   11.2190 O   0  0  0  0  0  0  0  0  0  0  0  0
   25.5000   39.2920    8.2890 O   0  0  0  0  0  0  0  0  0  0  0  0
   25.7820   38.4140    8.6370 H   0  0  0  0  0  0  0  0  0  0  0  0
   22.2270   40.3490    7.1200 O   0  0  0  0  0  0  0  0  0  0  0  0
   22.1090   39.7370    6.3640 H   0  0  0  0  0  0  0  0  0  0  0  0
   26.8900   40.2830    4.0960 O   0  0  0  0  0  0  0  0  0  0  0  0
   28.1530   39.9070    4.5930 C   0  0  0  0  0  0  0  0  0  0  0  0
   27.9710   38.8770    5.6270 C   0  0  0  0  0  0  0  0  0  0  0  0
   27.5960   37.5470    5.4200 C   0  0  0  0  0  0  0  0  0  0  0  0
   28.1200   38.9890    6.9720 N   0  0  0  0  0  0  0  0  0  0  0  0
   27.5420   36.9570    6.6080 N   0  0  0  0  0  0  0  0  0  0  0  0
   27.8600   37.8320    7.5460 N   0  0  0  0  0  0  0  0  0  0  0  0
   27.1970   35.5720    6.8530 C   0  0  0  0  0  0  0  0  0  0  0  0
   28.2570   35.0340    7.7710 C   0  0  0  0  0  0  0  0  0  0  0  0
   27.8830   34.5960    9.0150 C   0  0  0  0  0  0  0  0  0  0  0  0
   29.5620   34.9920    7.3530 C   0  0  0  0  0  0  0  0  0  0  0  0
   28.8140   34.0990    9.8890 C   0  0  0  0  0  0  0  0  0  0  0  0
   30.5240   34.4860    8.2340 C   0  0  0  0  0  0  0  0  0  0  0  0
   30.1280   34.0560    9.4710 C   0  0  0  0  0  0  0  0  0  0  0  0
   26.5520   34.6550    9.4000 O   0  0  0  0  0  0  0  0  0  0  0  0
   26.2110   35.5700   10.3950 C   0  0  0  0  0  0  0  0  0  0  0  0
   26.2100   36.7960   10.1320 O   0  0  0  0  0  0  0  0  0  0  0  0
   25.8490   35.1120   11.7580 C   0  0  0  0  0  0  0  0  0  0  0  0
   29.8670   25.5550   16.9770 C   0  0  0  0  0  0  0  0  0  0  0  0
   28.3450   25.7220   17.0260 C   0  0  0  0  0  0  0  0  0  0  0  0
   27.6010   24.4010   16.9000 C   0  0  0  0  0  0  0  0  0  0  0  0
   26.1610   24.5210   17.3140 C   0  0  0  0  0  0  0  0  0  0  0  0
   25.9650   23.8560   18.6730 C   0  0  0  0  0  0  0  0  0  0  0  0
   24.6140   23.2540   18.7660 N   0  0  0  0  0  0  0  0  0  0  0  0
  1  4  1  0  0  0  0
  1  5  1  0  0  0  0
  2  1  1  0  0  0  0
  3  2  2  0  0  0  0
  6  5  1  6  0  0  0
  6  7  1  0  0  0  0
  7 27  1  1  0  0  0
  8  7  1  6  0  0  0
  8 13  1  0  0  0  0
  9 14  1  6  0  0  0
  9 16  1  0  0  0  0
  9 10  1  0  0  0  0
 10 12  1  0  0  0  0
 11  9  1  0  0  0  0
 11  8  1  0  0  0  0
 12 20  1  6  0  0  0
 13 12  1  0  0  0  0
 13 22  1  1  0  0  0
 15 14  1  0  0  0  0
 16 18  1  0  0  0  0
 17 16  2  0  0  0  0
 18 19  1  0  0  0  0
 20 21  1  0  0  0  0
 22 24  1  0  0  0  0
 22 23  1  0  0  0  0
 23 25  1  0  0  0  0
 26 23  2  0  0  0  0
 27 28  1  0  0  0  0
 29  6  1  0  0  0  0
 30 29  1  0  0  0  0
 31 32  1  0  0  0  0
 31  2  1  0  0  0  0
 32 33  1  0  0  0  0
 33 35  1  0  0  0  0
 34 33  2  0  0  0  0
 34 36  1  0  0  0  0
 35 37  2  0  0  0  0
 36 38  1  0  0  0  0
 36 37  1  0  0  0  0
 38 39  1  0  0  0  0
 39 40  1  0  0  0  0
 40 45  1  0  0  0  0
 40 42  2  0  0  0  0
 41 39  2  0  0  0  0
 41 43  1  0  0  0  0
 43 44  2  0  0  0  0
 44 42  1  0  0  0  0
 45 46  1  0  0  0  0
 46 48  1  0  0  0  0
 47 46  2  0  0  0  0
 49 50  1  0  0  0  0
 51 50  1  0  0  0  0
 51 52  1  0  0  0  0
 52 53  1  0  0  0  0
 53 54  1  0  0  0  0
M  END
>  <REMARK>
 VINA RESULT:    -4.981      0.000      0.000
 INTER + INTRA:         -15.769
 INTER:                 -10.164
 INTRA:                  -5.605
 UNBOUND:                -6.275
 SMILES CC(=O)N[C@@H]1[C@@H](O)C[C@](O)(C(=O)O)O[C@H]1C(O)[C@H](O)CNC(=O)OCc1cn(Cc2ccccc2OC(C)=O)nn1
 SMILES IDX 21 1 22 2 23 3 20 5 18 6 16 7 15 8 9 9 8 10 14 11 6 12 5 13
 SMILES IDX 10 14 11 16 12 17 13 18 7 20 4 22 2 23 1 25 3 26 17 27 19 29
 SMILES IDX 24 31 25 32 26 33 27 34 41 35 28 36 40 37 29 38 30 39 35 40
 SMILES IDX 31 41 34 42 32 43 33 44 36 45 37 46 39 47 38 48
 H PARENT 21 4 10 15 13 19 7 21 4 24 17 28 19 30
 Flexibility Score: inf
  4 active torsions:
  status: ('A' for Active; 'I' for Inactive)
    1  A    between atoms: CA   and  CB  
    2  A    between atoms: CB   and  CG  
    3  A    between atoms: CG   and  CD  
    4  A    between atoms: CD   and  CE  

>  <TORSDO>
F 18

>  <BEGIN_>
RES LYS A 131

$$$$
ligand_21_pose_0_2HRL.pdbqt
 OpenBabel07062320523D

  6  5  0  0  0  0  0  0  0  0999 V2000
   33.1930   34.6630    9.2900 C   0  0  0  0  0  0  0  0  0  0  0  0
   32.0600   35.3600   10.0340 C   0  0  0  0  0  0  0  0  0  0  0  0
   32.5040   36.0500   11.2980 C   0  0  0  0  0  0  0  0  0  0  0  0
   31.8970   35.3750   12.5190 C   0  0  0  0  0  0  0  0  0  0  0  0
   30.9650   36.3260   13.2450 C   0  0  0  0  0  0  0  0  0  0  0  0
   31.4360   37.7340   13.1250 N   0  0  0  0  0  0  0  0  0  0  0  0
  1  2  1  0  0  0  0
  2  3  1  0  0  0  0
  3  4  1  0  0  0  0
  4  5  1  0  0  0  0
  6  5  1  0  0  0  0
M  END
>  <EGIN_R>
ES LYS A 135

>  <REMARK>
  4 active torsions:
  status: ('A' for Active; 'I' for Inactive)
    5  A    between atoms: CA   and  CB  
    6  A    between atoms: CB   and  CG  
    7  A    between atoms: CG   and  CD  
    8  A    between atoms: CD   and  CE  

$$$$
