ligand_76_pose_0_2HRL.pdbqt
 OpenBabel07062320523D

 55 56  0  0  1  0  0  0  0  0999 V2000
   27.0890   35.9660   11.7150 O   0  0  0  0  0  0  0  0  0  0  0  0
   25.8710   35.8820   12.3680 C   0  0  0  0  0  0  0  0  0  0  0  0
   24.9760   36.9720   12.3660 N   0  0  0  0  0  0  0  0  0  0  0  0
   25.2390   37.8420   11.8680 H   0  0  0  0  0  0  0  0  0  0  0  0
   25.5540   34.8310   12.9690 O   0  0  0  0  0  0  0  0  0  0  0  0
   23.6850   36.9240   13.0370 C   0  0  0  0  0  0  0  0  0  0  0  0
   22.5660   37.3020   12.0850 C   0  0  2  0  0  0  0  0  0  0  0  0
   23.1790   38.0340   10.9020 C   0  0  1  0  0  0  0  0  0  0  0  0
   22.1540   38.1620    9.7710 C   0  0  2  0  0  0  0  0  0  0  0  0
   21.6050   36.0570    8.9230 C   0  0  2  0  0  0  0  0  0  0  0  0
   22.8760   36.1310    8.1510 C   0  0  0  0  0  0  0  0  0  0  0  0
   21.2970   37.1230    9.6900 O   0  0  0  0  0  0  0  0  0  0  0  0
   23.1470   37.4670    7.5580 C   0  0  1  0  0  0  0  0  0  0  0  0
   22.8480   38.5890    8.5150 C   0  0  1  0  0  0  0  0  0  0  0  0
   21.7020   34.9240    9.7670 O   0  0  0  0  0  0  0  0  0  0  0  0
   22.4060   35.0810   10.4470 H   0  0  0  0  0  0  0  0  0  0  0  0
   20.4990   35.7390    7.9500 C   0  0  0  0  0  0  0  0  0  0  0  0
   19.7150   36.6090    7.5050 O   0  0  0  0  0  0  0  0  0  0  0  0
   20.2960   34.4340    7.4910 O   0  0  0  0  0  0  0  0  0  0  0  0
   19.6590   34.2580    6.7010 H   0  0  0  0  0  0  0  0  0  0  0  0
   24.4930   37.4980    7.1220 O   0  0  0  0  0  0  0  0  0  0  0  0
   24.7930   36.5780    6.8560 H   0  0  0  0  0  0  0  0  0  0  0  0
   22.1030   39.6660    7.8600 N   0  0  0  0  0  0  0  0  0  0  0  0
   22.7390   40.8200    7.3820 C   0  0  0  0  0  0  0  0  0  0  0  0
   21.0540   39.5210    7.7690 H   0  0  0  0  0  0  0  0  0  0  0  0
   21.9470   41.8770    6.7300 C   0  0  0  0  0  0  0  0  0  0  0  0
   23.9710   40.9620    7.5030 O   0  0  0  0  0  0  0  0  0  0  0  0
   23.3860   39.3510   11.3480 O   0  0  0  0  0  0  0  0  0  0  0  0
   23.0530   40.0230   10.6800 H   0  0  0  0  0  0  0  0  0  0  0  0
   21.6470   38.1210   12.7300 O   0  0  0  0  0  0  0  0  0  0  0  0
   21.4620   37.7170   13.6110 H   0  0  0  0  0  0  0  0  0  0  0  0
   27.6970   37.2680   11.6790 C   0  0  0  0  0  0  0  0  0  0  0  0
   27.5780   37.8460   10.3230 C   0  0  0  0  0  0  0  0  0  0  0  0
   28.5630   38.3120    9.4830 C   0  0  0  0  0  0  0  0  0  0  0  0
   26.4160   38.0110    9.6670 N   0  0  0  0  0  0  0  0  0  0  0  0
   27.9820   38.7420    8.3540 N   0  0  0  0  0  0  0  0  0  0  0  0
   26.7060   38.5560    8.4790 N   0  0  0  0  0  0  0  0  0  0  0  0
   28.6410   39.3280    7.1650 C   0  0  0  0  0  0  0  0  0  0  0  0
   28.1700   38.5820    5.9550 C   0  0  2  0  0  0  0  0  0  0  0  0
   26.8120   38.8140    5.6930 O   0  0  0  0  0  0  0  0  0  0  0  0
   26.3800   37.9200    5.5710 H   0  0  0  0  0  0  0  0  0  0  0  0
   28.6760   37.2430    5.7520 C   0  0  0  0  0  0  0  0  0  0  0  0
   27.7930   36.0910    5.9710 C   0  0  0  0  0  0  0  0  0  0  0  0
   28.0100   35.3630    7.2110 C   0  0  0  0  0  0  0  0  0  0  0  0
   29.3310   35.1240    7.6120 C   0  0  0  0  0  0  0  0  0  0  0  0
   27.0390   34.8240    7.9960 C   0  0  0  0  0  0  0  0  0  0  0  0
   29.6080   34.3840    8.7370 C   0  0  0  0  0  0  0  0  0  0  0  0
   27.2980   34.0770    9.1310 C   0  0  0  0  0  0  0  0  0  0  0  0
   28.6050   33.8510    9.5120 C   0  0  0  0  0  0  0  0  0  0  0  0
   29.8670   25.5550   16.9770 C   0  0  0  0  0  0  0  0  0  0  0  0
   28.3450   25.7220   17.0260 C   0  0  0  0  0  0  0  0  0  0  0  0
   27.6020   24.4000   16.9130 C   0  0  0  0  0  0  0  0  0  0  0  0
   26.2670   24.4390   17.6050 C   0  0  0  0  0  0  0  0  0  0  0  0
   25.6060   23.0680   17.5130 C   0  0  0  0  0  0  0  0  0  0  0  0
   24.1540   23.2090   17.2510 N   0  0  0  0  0  0  0  0  0  0  0  0
  1  2  1  0  0  0  0
  2  5  2  0  0  0  0
  3  2  1  0  0  0  0
  3  6  1  0  0  0  0
  4  3  1  0  0  0  0
  7 30  1  0  0  0  0
  7  6  1  1  0  0  0
  8 28  1  1  0  0  0
  8  7  1  0  0  0  0
  9  8  1  1  0  0  0
 10 17  1  6  0  0  0
 10 12  1  0  0  0  0
 10 15  1  0  0  0  0
 11 10  1  0  0  0  0
 12  9  1  0  0  0  0
 13 21  1  1  0  0  0
 13 11  1  0  0  0  0
 13 14  1  0  0  0  0
 14 23  1  6  0  0  0
 14  9  1  0  0  0  0
 15 16  1  0  0  0  0
 18 17  2  0  0  0  0
 19 17  1  0  0  0  0
 20 19  1  0  0  0  0
 22 21  1  0  0  0  0
 24 27  2  0  0  0  0
 24 23  1  0  0  0  0
 25 23  1  0  0  0  0
 26 24  1  0  0  0  0
 29 28  1  0  0  0  0
 30 31  1  0  0  0  0
 32  1  1  0  0  0  0
 33 32  1  0  0  0  0
 34 33  2  0  0  0  0
 35 33  1  0  0  0  0
 36 37  1  0  0  0  0
 36 34  1  0  0  0  0
 37 35  2  0  0  0  0
 38 36  1  0  0  0  0
 39 42  1  1  0  0  0
 39 38  1  0  0  0  0
 40 39  1  0  0  0  0
 41 40  1  0  0  0  0
 42 43  1  0  0  0  0
 43 44  1  0  0  0  0
 44 45  2  0  0  0  0
 44 46  1  0  0  0  0
 45 47  1  0  0  0  0
 46 48  2  0  0  0  0
 47 49  2  0  0  0  0
 48 49  1  0  0  0  0
 50 51  1  0  0  0  0
 52 51  1  0  0  0  0
 52 53  1  0  0  0  0
 54 53  1  0  0  0  0
 55 54  1  0  0  0  0
M  END
>  <REMARK>
 VINA RESULT:    -5.660      0.000      0.000
 INTER + INTRA:         -18.056
 INTER:                 -11.795
 INTRA:                  -6.261
 UNBOUND:                -6.771
 SMILES CC(=O)N[C@@H]1[C@@H](O)C[C@](O)(C(=O)O)O[C@H]1C(O)[C@H](O)CNC(=O)OCc1cn(CC(O)CCc2ccccc2)nn1
 SMILES IDX 24 1 22 2 21 3 23 5 20 6 18 7 16 8 15 9 9 10 8 11 14 12 6 13
 SMILES IDX 5 14 10 15 11 17 12 18 13 19 7 21 4 23 2 24 1 26 3 27 17 28
 SMILES IDX 19 30 25 32 26 33 27 34 41 35 28 36 40 37 29 38 30 39 31 40
 SMILES IDX 32 42 33 43 34 44 35 45 39 46 36 47 38 48 37 49
 H PARENT 21 4 10 16 13 20 7 22 4 25 17 29 19 31 31 41
 Flexibility Score: inf
  4 active torsions:
  status: ('A' for Active; 'I' for Inactive)
    1  A    between atoms: CA   and  CB  
    2  A    between atoms: CB   and  CG  
    3  A    between atoms: CG   and  CD  
    4  A    between atoms: CD   and  CE  

>  <TORSDO>
F 20

>  <BEGIN_>
RES LYS A 131

$$$$
ligand_76_pose_0_2HRL.pdbqt
 OpenBabel07062320523D

  6  5  0  0  0  0  0  0  0  0999 V2000
   33.1930   34.6630    9.2900 C   0  0  0  0  0  0  0  0  0  0  0  0
   32.0600   35.3600   10.0340 C   0  0  0  0  0  0  0  0  0  0  0  0
   32.5160   36.1130   11.2570 C   0  0  0  0  0  0  0  0  0  0  0  0
   31.3640   36.3000   12.2320 C   0  0  0  0  0  0  0  0  0  0  0  0
   31.0310   34.9900   12.9210 C   0  0  0  0  0  0  0  0  0  0  0  0
   29.8320   35.1330   13.7940 N   0  0  0  0  0  0  0  0  0  0  0  0
  1  2  1  0  0  0  0
  2  3  1  0  0  0  0
  3  4  1  0  0  0  0
  4  5  1  0  0  0  0
  5  6  1  0  0  0  0
M  END
>  <EGIN_R>
ES LYS A 135

>  <REMARK>
  4 active torsions:
  status: ('A' for Active; 'I' for Inactive)
    5  A    between atoms: CA   and  CB  
    6  A    between atoms: CB   and  CG  
    7  A    between atoms: CG   and  CD  
    8  A    between atoms: CD   and  CE  

$$$$
