ligand_60_pose_0_2HRL.pdbqt
 OpenBabel07062320523D

 55 56  0  0  1  0  0  0  0  0999 V2000
   29.1220   27.8130   19.7860 N   0  0  0  0  0  0  0  0  0  0  0  0
   27.8060   27.4060   19.5270 C   0  0  0  0  0  0  0  0  0  0  0  0
   27.1830   26.7050   20.3420 O   0  0  0  0  0  0  0  0  0  0  0  0
   29.5950   28.4110   19.0540 H   0  0  0  0  0  0  0  0  0  0  0  0
   29.8120   27.4530   20.9740 C   0  0  0  0  0  0  0  0  0  0  0  0
   31.3010   27.7760   20.9240 C   0  0  2  0  0  0  0  0  0  0  0  0
   31.4590   29.2590   20.7490 C   0  0  1  0  0  0  0  0  0  0  0  0
   32.6470   29.8390   21.4150 C   0  0  2  0  0  0  0  0  0  0  0  0
   33.9490   29.5050   23.3180 C   0  0  2  0  0  0  0  0  0  0  0  0
   34.8210   30.4590   22.5400 C   0  0  0  0  0  0  0  0  0  0  0  0
   32.7790   29.2030   22.6780 O   0  0  0  0  0  0  0  0  0  0  0  0
   34.0860   31.6680   22.0520 C   0  0  1  0  0  0  0  0  0  0  0  0
   32.6680   31.2940   21.6980 C   0  0  1  0  0  0  0  0  0  0  0  0
   33.7270   29.9780   24.6340 O   0  0  0  0  0  0  0  0  0  0  0  0
   34.0840   29.3390   25.3010 H   0  0  0  0  0  0  0  0  0  0  0  0
   34.7220   28.2440   23.4780 C   0  0  0  0  0  0  0  0  0  0  0  0
   34.1050   27.1540   23.3650 O   0  0  0  0  0  0  0  0  0  0  0  0
   36.0770   28.1940   23.7440 O   0  0  0  0  0  0  0  0  0  0  0  0
   36.4230   28.1890   24.7000 H   0  0  0  0  0  0  0  0  0  0  0  0
   34.1590   32.6500   23.0310 O   0  0  0  0  0  0  0  0  0  0  0  0
   33.9520   32.2040   23.8910 H   0  0  0  0  0  0  0  0  0  0  0  0
   32.0600   32.1690   20.7690 N   0  0  0  0  0  0  0  0  0  0  0  0
   31.3440   33.3220   21.1630 C   0  0  0  0  0  0  0  0  0  0  0  0
   32.1440   31.9910   19.7480 H   0  0  0  0  0  0  0  0  0  0  0  0
   30.7030   34.2420   20.1610 C   0  0  0  0  0  0  0  0  0  0  0  0
   31.2540   33.5620   22.3800 O   0  0  0  0  0  0  0  0  0  0  0  0
   31.1130   29.7570   19.5210 O   0  0  0  0  0  0  0  0  0  0  0  0
   31.9220   30.0780   19.0630 H   0  0  0  0  0  0  0  0  0  0  0  0
   31.8920   26.9970   19.9650 O   0  0  0  0  0  0  0  0  0  0  0  0
   32.6230   26.4510   20.3650 H   0  0  0  0  0  0  0  0  0  0  0  0
   27.1270   27.7590   18.3510 O   0  0  0  0  0  0  0  0  0  0  0  0
   26.5420   29.0150   18.2080 C   0  0  0  0  0  0  0  0  0  0  0  0
   27.5500   30.0860   18.0470 C   0  0  0  0  0  0  0  0  0  0  0  0
   28.0620   30.6580   16.9070 C   0  0  0  0  0  0  0  0  0  0  0  0
   28.1680   30.7180   19.0780 N   0  0  0  0  0  0  0  0  0  0  0  0
   28.9580   31.6020   17.2440 N   0  0  0  0  0  0  0  0  0  0  0  0
   28.9960   31.6090   18.5610 N   0  0  0  0  0  0  0  0  0  0  0  0
   29.7300   32.4420   16.3920 C   0  0  0  0  0  0  0  0  0  0  0  0
   31.0910   32.5860   16.5540 C   0  0  0  0  0  0  0  0  0  0  0  0
   29.1420   33.1530   15.3620 C   0  0  0  0  0  0  0  0  0  0  0  0
   31.8510   33.3950   15.7390 C   0  0  0  0  0  0  0  0  0  0  0  0
   29.8990   33.9640   14.5440 C   0  0  0  0  0  0  0  0  0  0  0  0
   31.2610   34.1170   14.6960 C   0  0  0  0  0  0  0  0  0  0  0  0
   32.2310   35.1440   13.6640 S   0  0  0  0  0  0  0  0  0  0  0  0
   31.4590   35.3500   12.3910 O   0  0  0  0  0  0  0  0  0  0  0  0
   32.3570   36.5000   14.3190 O   0  0  0  0  0  0  0  0  0  0  0  0
   33.7740   34.4820   13.3290 N   0  0  0  0  0  0  0  0  0  0  0  0
   34.0480   34.4920   12.3400 H   0  0  0  0  0  0  0  0  0  0  0  0
   34.5160   34.8700   13.9530 H   0  0  0  0  0  0  0  0  0  0  0  0
   29.8670   25.5550   16.9770 C   0  0  0  0  0  0  0  0  0  0  0  0
   28.3450   25.7220   17.0260 C   0  0  0  0  0  0  0  0  0  0  0  0
   27.6000   24.4090   16.8410 C   0  0  0  0  0  0  0  0  0  0  0  0
   26.6670   24.1210   17.9830 C   0  0  0  0  0  0  0  0  0  0  0  0
   25.7610   22.9490   17.6180 C   0  0  0  0  0  0  0  0  0  0  0  0
   24.7040   22.7720   18.6410 N   0  0  0  0  0  0  0  0  0  0  0  0
  1  5  1  0  0  0  0
  2  1  1  0  0  0  0
  2  3  2  0  0  0  0
  4  1  1  0  0  0  0
  6  5  1  6  0  0  0
  7 27  1  6  0  0  0
  7  6  1  0  0  0  0
  8  7  1  1  0  0  0
  8 13  1  0  0  0  0
  8 11  1  0  0  0  0
  9 16  1  1  0  0  0
  9 14  1  0  0  0  0
 10  9  1  0  0  0  0
 11  9  1  0  0  0  0
 12 10  1  0  0  0  0
 12 20  1  1  0  0  0
 13 22  1  6  0  0  0
 13 12  1  0  0  0  0
 14 15  1  0  0  0  0
 16 18  1  0  0  0  0
 17 16  2  0  0  0  0
 18 19  1  0  0  0  0
 20 21  1  0  0  0  0
 22 23  1  0  0  0  0
 23 26  2  0  0  0  0
 24 22  1  0  0  0  0
 25 23  1  0  0  0  0
 28 27  1  0  0  0  0
 29 30  1  0  0  0  0
 29  6  1  0  0  0  0
 31  2  1  0  0  0  0
 32 31  1  0  0  0  0
 33 32  1  0  0  0  0
 33 35  1  0  0  0  0
 34 36  1  0  0  0  0
 34 33  2  0  0  0  0
 36 37  1  0  0  0  0
 37 35  2  0  0  0  0
 38 39  1  0  0  0  0
 38 36  1  0  0  0  0
 40 38  2  0  0  0  0
 41 39  2  0  0  0  0
 42 43  2  0  0  0  0
 42 40  1  0  0  0  0
 43 41  1  0  0  0  0
 44 46  2  0  0  0  0
 44 43  1  0  0  0  0
 45 44  2  0  0  0  0
 47 44  1  0  0  0  0
 47 49  1  0  0  0  0
 48 47  1  0  0  0  0
 50 51  1  0  0  0  0
 52 51  1  0  0  0  0
 52 53  1  0  0  0  0
 54 53  1  0  0  0  0
 54 55  1  0  0  0  0
M  END
>  <REMARK>
 VINA RESULT:    -5.362      0.000      0.000
 INTER + INTRA:         -15.714
 INTER:                  -9.637
 INTRA:                  -6.078
 UNBOUND:                -5.964
 SMILES CC(=O)N[C@@H]1[C@@H](O)C[C@](O)(C(=O)O)O[C@H]1C(O)[C@H](O)CNC(=O)OCc1cn(-c2ccc(S(N)(=O)=O)cc2)nn1
 SMILES IDX 21 1 22 2 23 3 20 5 18 6 16 7 15 8 9 9 8 10 14 11 6 12 5 13
 SMILES IDX 10 14 11 16 12 17 13 18 7 20 4 22 2 23 1 25 3 26 17 27 19 29
 SMILES IDX 24 31 25 32 26 33 27 34 40 35 28 36 39 37 29 38 30 39 38 40
 SMILES IDX 31 41 37 42 32 43 33 44 35 45 36 46 34 47
 H PARENT 21 4 10 15 13 19 7 21 4 24 17 28 19 30 34 48 34 49
 Flexibility Score: inf
  4 active torsions:
  status: ('A' for Active; 'I' for Inactive)
    1  A    between atoms: CA   and  CB  
    2  A    between atoms: CB   and  CG  
    3  A    between atoms: CG   and  CD  
    4  A    between atoms: CD   and  CE  

>  <TORSDO>
F 17

>  <BEGIN_>
RES LYS A 131

$$$$
ligand_60_pose_0_2HRL.pdbqt
 OpenBabel07062320523D

  6  5  0  0  0  0  0  0  0  0999 V2000
   33.1930   34.6630    9.2900 C   0  0  0  0  0  0  0  0  0  0  0  0
   32.0600   35.3600   10.0340 C   0  0  0  0  0  0  0  0  0  0  0  0
   30.8760   35.6860    9.1600 C   0  0  0  0  0  0  0  0  0  0  0  0
   30.3520   34.4320    8.4770 C   0  0  0  0  0  0  0  0  0  0  0  0
   28.8370   34.4510    8.4190 C   0  0  0  0  0  0  0  0  0  0  0  0
   28.2450   33.7910    9.6150 N   0  0  0  0  0  0  0  0  0  0  0  0
  1  2  1  0  0  0  0
  3  2  1  0  0  0  0
  4  3  1  0  0  0  0
  5  4  1  0  0  0  0
  5  6  1  0  0  0  0
M  END
>  <EGIN_R>
ES LYS A 135

>  <REMARK>
  4 active torsions:
  status: ('A' for Active; 'I' for Inactive)
    5  A    between atoms: CA   and  CB  
    6  A    between atoms: CB   and  CG  
    7  A    between atoms: CG   and  CD  
    8  A    between atoms: CD   and  CE  

$$$$
