ligand_78_pose_0_2HRL.pdbqt
 OpenBabel07062320523D

 53 54  0  0  1  0  0  0  0  0999 V2000
   27.2280   29.7270   21.9450 N   0  0  0  0  0  0  0  0  0  0  0  0
   27.6500   30.6180   22.9970 C   0  0  0  0  0  0  0  0  0  0  0  0
   27.6640   30.2030   24.1640 O   0  0  0  0  0  0  0  0  0  0  0  0
   27.2510   30.1490   20.9970 H   0  0  0  0  0  0  0  0  0  0  0  0
   26.8250   28.3660   22.2510 C   0  0  0  0  0  0  0  0  0  0  0  0
   27.3110   27.3810   21.2420 C   0  0  2  0  0  0  0  0  0  0  0  0
   27.7250   27.9820   19.9420 C   0  0  2  0  0  0  0  0  0  0  0  0
   26.8220   27.7680   18.7820 C   0  0  2  0  0  0  0  0  0  0  0  0
   27.6070   29.6090   17.5720 C   0  0  2  0  0  0  0  0  0  0  0  0
   26.6040   30.4680   18.2700 C   0  0  0  0  0  0  0  0  0  0  0  0
   27.4000   28.2540   17.6110 O   0  0  0  0  0  0  0  0  0  0  0  0
   25.3780   29.8030   18.7610 C   0  0  1  0  0  0  0  0  0  0  0  0
   25.4460   28.3030   18.8170 C   0  0  1  0  0  0  0  0  0  0  0  0
   28.8960   29.8330   18.0600 O   0  0  0  0  0  0  0  0  0  0  0  0
   29.2420   29.1170   18.6170 H   0  0  0  0  0  0  0  0  0  0  0  0
   27.6290   29.9790   16.1330 C   0  0  0  0  0  0  0  0  0  0  0  0
   26.5760   30.3700   15.5860 O   0  0  0  0  0  0  0  0  0  0  0  0
   28.7750   29.9120   15.3500 O   0  0  0  0  0  0  0  0  0  0  0  0
   28.9190   30.5670   14.5680 H   0  0  0  0  0  0  0  0  0  0  0  0
   25.0320   30.3370   20.0000 O   0  0  0  0  0  0  0  0  0  0  0  0
   25.7930   30.4300   20.6020 H   0  0  0  0  0  0  0  0  0  0  0  0
   24.6920   27.6940   17.7160 N   0  0  0  0  0  0  0  0  0  0  0  0
   23.8150   26.6070   17.9240 C   0  0  0  0  0  0  0  0  0  0  0  0
   24.7970   28.0630   16.7510 H   0  0  0  0  0  0  0  0  0  0  0  0
   23.0390   25.9760   16.8140 C   0  0  0  0  0  0  0  0  0  0  0  0
   23.7020   26.1760   19.0980 O   0  0  0  0  0  0  0  0  0  0  0  0
   28.8790   27.1580   19.5780 O   0  0  0  0  0  0  0  0  0  0  0  0
   29.6580   27.6480   19.8940 H   0  0  0  0  0  0  0  0  0  0  0  0
   26.5500   26.2380   21.1020 O   0  0  0  0  0  0  0  0  0  0  0  0
   26.8870   25.4880   21.6510 H   0  0  0  0  0  0  0  0  0  0  0  0
   28.0370   31.9160   22.7240 O   0  0  0  0  0  0  0  0  0  0  0  0
   27.7300   32.5650   21.5030 C   0  0  0  0  0  0  0  0  0  0  0  0
   28.8430   32.4850   20.5470 C   0  0  0  0  0  0  0  0  0  0  0  0
   29.2570   33.3660   19.5880 C   0  0  0  0  0  0  0  0  0  0  0  0
   29.6950   31.4410   20.4650 N   0  0  0  0  0  0  0  0  0  0  0  0
   30.3350   32.8370   18.9580 N   0  0  0  0  0  0  0  0  0  0  0  0
   30.5780   31.6620   19.5150 N   0  0  0  0  0  0  0  0  0  0  0  0
   31.0520   33.4750   17.8850 C   0  0  0  0  0  0  0  0  0  0  0  0
   30.4750   32.8720   16.3050 S   0  0  0  0  0  0  0  0  0  0  0  0
   28.9730   33.0050   16.2810 O   0  0  0  0  0  0  0  0  0  0  0  0
   30.8600   31.4440   16.1980 O   0  0  0  0  0  0  0  0  0  0  0  0
   31.2020   33.8430   15.0380 C   0  0  0  0  0  0  0  0  0  0  0  0
   32.5140   34.2690   15.2160 C   0  0  0  0  0  0  0  0  0  0  0  0
   30.4850   34.1640   13.9110 C   0  0  0  0  0  0  0  0  0  0  0  0
   33.0820   35.0290   14.2220 C   0  0  0  0  0  0  0  0  0  0  0  0
   31.1010   34.9290   12.9440 C   0  0  0  0  0  0  0  0  0  0  0  0
   32.3940   35.3780   13.0640 C   0  0  0  0  0  0  0  0  0  0  0  0
   29.8670   25.5550   16.9770 C   0  0  0  0  0  0  0  0  0  0  0  0
   28.3450   25.7220   17.0260 C   0  0  0  0  0  0  0  0  0  0  0  0
   27.6000   24.4070   16.8530 C   0  0  0  0  0  0  0  0  0  0  0  0
   26.5690   24.1950   17.9260 C   0  0  0  0  0  0  0  0  0  0  0  0
   25.6850   23.0090   17.5560 C   0  0  0  0  0  0  0  0  0  0  0  0
   24.5860   22.8540   18.5370 N   0  0  0  0  0  0  0  0  0  0  0  0
  1  5  1  0  0  0  0
  1  2  1  0  0  0  0
  2  3  2  0  0  0  0
  4  1  1  0  0  0  0
  6  5  1  6  0  0  0
  7 27  1  6  0  0  0
  7  6  1  0  0  0  0
  8 13  1  0  0  0  0
  8  7  1  1  0  0  0
  9 16  1  6  0  0  0
  9 11  1  0  0  0  0
  9 14  1  0  0  0  0
  9 10  1  0  0  0  0
 10 12  1  0  0  0  0
 11  8  1  0  0  0  0
 12 13  1  0  0  0  0
 12 20  1  1  0  0  0
 13 22  1  6  0  0  0
 14 15  1  0  0  0  0
 17 16  2  0  0  0  0
 18 16  1  0  0  0  0
 19 18  1  0  0  0  0
 20 21  1  0  0  0  0
 22 23  1  0  0  0  0
 23 26  2  0  0  0  0
 24 22  1  0  0  0  0
 25 23  1  0  0  0  0
 27 28  1  0  0  0  0
 29  6  1  0  0  0  0
 29 30  1  0  0  0  0
 31  2  1  0  0  0  0
 32 31  1  0  0  0  0
 33 32  1  0  0  0  0
 34 33  2  0  0  0  0
 35 33  1  0  0  0  0
 36 37  1  0  0  0  0
 36 34  1  0  0  0  0
 37 35  2  0  0  0  0
 38 36  1  0  0  0  0
 39 38  1  0  0  0  0
 40 39  2  0  0  0  0
 41 39  2  0  0  0  0
 42 43  1  0  0  0  0
 42 39  1  0  0  0  0
 44 42  2  0  0  0  0
 45 43  2  0  0  0  0
 46 47  2  0  0  0  0
 46 44  1  0  0  0  0
 47 45  1  0  0  0  0
 48 49  1  0  0  0  0
 50 49  1  0  0  0  0
 50 51  1  0  0  0  0
 52 51  1  0  0  0  0
 52 53  1  0  0  0  0
M  END
>  <REMARK>
 VINA RESULT:    -5.862      0.000      0.000
 INTER + INTRA:         -15.842
 INTER:                  -8.852
 INTRA:                  -6.990
 UNBOUND:                -5.011
 SMILES CC(=O)N[C@@H]1[C@@H](O)C[C@](O)(C(=O)O)O[C@H]1C(O)[C@H](O)CNC(=O)OCc1cn(CS(=O)(=O)c2ccccc2)nn1
 SMILES IDX 21 1 22 2 23 3 20 5 18 6 16 7 15 8 9 9 8 10 14 11 6 12 5 13
 SMILES IDX 10 14 11 16 12 17 13 18 7 20 4 22 2 23 1 25 3 26 17 27 19 29
 SMILES IDX 24 31 25 32 26 33 27 34 40 35 28 36 39 37 29 38 30 39 31 40
 SMILES IDX 32 41 33 42 34 43 38 44 35 45 37 46 36 47
 H PARENT 21 4 10 15 13 19 7 21 4 24 17 28 19 30
 Flexibility Score: inf
  4 active torsions:
  status: ('A' for Active; 'I' for Inactive)
    1  A    between atoms: CA   and  CB  
    2  A    between atoms: CB   and  CG  
    3  A    between atoms: CG   and  CD  
    4  A    between atoms: CD   and  CE  

>  <TORSDO>
F 17

>  <BEGIN_>
RES LYS A 131

$$$$
ligand_78_pose_0_2HRL.pdbqt
 OpenBabel07062320523D

  6  5  0  0  0  0  0  0  0  0999 V2000
   33.1930   34.6630    9.2900 C   0  0  0  0  0  0  0  0  0  0  0  0
   32.0600   35.3600   10.0340 C   0  0  0  0  0  0  0  0  0  0  0  0
   30.8010   35.5030    9.2180 C   0  0  0  0  0  0  0  0  0  0  0  0
   30.1310   34.1520    9.0240 C   0  0  0  0  0  0  0  0  0  0  0  0
   28.6760   34.3300    8.6360 C   0  0  0  0  0  0  0  0  0  0  0  0
   27.7720   33.7280    9.6560 N   0  0  0  0  0  0  0  0  0  0  0  0
  1  2  1  0  0  0  0
  3  2  1  0  0  0  0
  4  3  1  0  0  0  0
  5  4  1  0  0  0  0
  5  6  1  0  0  0  0
M  END
>  <EGIN_R>
ES LYS A 135

>  <REMARK>
  4 active torsions:
  status: ('A' for Active; 'I' for Inactive)
    5  A    between atoms: CA   and  CB  
    6  A    between atoms: CB   and  CG  
    7  A    between atoms: CG   and  CD  
    8  A    between atoms: CD   and  CE  

$$$$
