ligand_18_pose_0_2HRL.pdbqt
 OpenBabel07062320523D

 54 55  0  0  1  0  0  0  0  0999 V2000
   24.8380   36.6170   11.2760 N   0  0  0  0  0  0  0  0  0  0  0  0
   25.1680   35.5650   12.1560 C   0  0  0  0  0  0  0  0  0  0  0  0
   24.6510   34.4380   11.9610 O   0  0  0  0  0  0  0  0  0  0  0  0
   25.2780   37.5460   11.4570 H   0  0  0  0  0  0  0  0  0  0  0  0
   23.9380   36.5050   10.1450 C   0  0  0  0  0  0  0  0  0  0  0  0
   24.6820   36.6670    8.8490 C   0  0  2  0  0  0  0  0  0  0  0  0
   26.1030   37.0950    8.9940 C   0  0  1  0  0  0  0  0  0  0  0  0
   27.0780   36.6340    7.9770 C   0  0  2  0  0  0  0  0  0  0  0  0
   29.2560   35.7800    7.9550 C   0  0  2  0  0  0  0  0  0  0  0  0
   28.8580   35.5000    6.5170 C   0  0  0  0  0  0  0  0  0  0  0  0
   28.2410   36.2590    8.7280 O   0  0  0  0  0  0  0  0  0  0  0  0
   28.3580   36.7700    5.9230 C   0  0  1  0  0  0  0  0  0  0  0  0
   27.5740   37.5890    6.9690 C   0  0  1  0  0  0  0  0  0  0  0  0
   30.3400   36.6750    7.8720 O   0  0  0  0  0  0  0  0  0  0  0  0
   31.0830   36.3220    8.4340 H   0  0  0  0  0  0  0  0  0  0  0  0
   29.7610   34.5400    8.6020 C   0  0  0  0  0  0  0  0  0  0  0  0
   30.9380   34.1840    8.3910 O   0  0  0  0  0  0  0  0  0  0  0  0
   28.9600   33.7650    9.4360 O   0  0  0  0  0  0  0  0  0  0  0  0
   28.0150   33.5750    9.1000 H   0  0  0  0  0  0  0  0  0  0  0  0
   29.3380   37.5380    5.3340 O   0  0  0  0  0  0  0  0  0  0  0  0
   29.2330   37.5630    4.3500 H   0  0  0  0  0  0  0  0  0  0  0  0
   26.6420   38.3540    6.2280 N   0  0  0  0  0  0  0  0  0  0  0  0
   26.5380   39.7460    6.4360 C   0  0  0  0  0  0  0  0  0  0  0  0
   26.0230   37.9260    5.5260 H   0  0  0  0  0  0  0  0  0  0  0  0
   25.5690   40.5960    5.6790 C   0  0  0  0  0  0  0  0  0  0  0  0
   27.2650   40.3660    7.2830 O   0  0  0  0  0  0  0  0  0  0  0  0
   26.2890   38.3790    9.4850 O   0  0  0  0  0  0  0  0  0  0  0  0
   26.5670   39.0270    8.8250 H   0  0  0  0  0  0  0  0  0  0  0  0
   23.9890   37.3750    7.8770 O   0  0  0  0  0  0  0  0  0  0  0  0
   24.5140   38.1090    7.4820 H   0  0  0  0  0  0  0  0  0  0  0  0
   26.0490   35.7340   13.2330 O   0  0  0  0  0  0  0  0  0  0  0  0
   27.1150   36.6630   13.1550 C   0  0  0  0  0  0  0  0  0  0  0  0
   28.3880   35.8970   13.0560 C   0  0  0  0  0  0  0  0  0  0  0  0
   29.4710   35.9300   13.9100 C   0  0  0  0  0  0  0  0  0  0  0  0
   28.7340   35.0160   12.1050 N   0  0  0  0  0  0  0  0  0  0  0  0
   30.4130   35.0890   13.4580 N   0  0  0  0  0  0  0  0  0  0  0  0
   29.9390   34.5450   12.3580 N   0  0  0  0  0  0  0  0  0  0  0  0
   31.7100   34.8530   14.1140 C   0  0  0  0  0  0  0  0  0  0  0  0
   31.5000   33.7530   15.0840 C   0  0  0  0  0  0  0  0  0  0  0  0
   31.8980   33.9210   16.2840 O   0  0  0  0  0  0  0  0  0  0  0  0
   30.8860   32.5130   14.7910 N   0  0  0  0  0  0  0  0  0  0  0  0
   30.5640   32.3780   13.8160 H   0  0  0  0  0  0  0  0  0  0  0  0
   30.7010   31.4680   15.7710 C   0  0  0  0  0  0  0  0  0  0  0  0
   29.2070   31.2260   15.8630 C   0  0  0  0  0  0  0  0  0  0  0  0
   28.5360   30.0830   15.9360 C   0  0  0  0  0  0  0  0  0  0  0  0
   27.9790   32.4490   15.8910 S   0  0  0  0  0  0  0  0  0  0  0  0
   27.1880   30.0790   16.0110 C   0  0  0  0  0  0  0  0  0  0  0  0
   26.5760   31.3420   16.0040 C   0  0  0  0  0  0  0  0  0  0  0  0
   29.8670   25.5550   16.9770 C   0  0  0  0  0  0  0  0  0  0  0  0
   28.3450   25.7220   17.0260 C   0  0  0  0  0  0  0  0  0  0  0  0
   27.6010   24.4010   16.9000 C   0  0  0  0  0  0  0  0  0  0  0  0
   26.1590   24.5220   17.3070 C   0  0  0  0  0  0  0  0  0  0  0  0
   25.8840   23.5940   18.4860 C   0  0  0  0  0  0  0  0  0  0  0  0
   25.4830   24.3750   19.6800 N   0  0  0  0  0  0  0  0  0  0  0  0
  1  4  1  0  0  0  0
  1  2  1  0  0  0  0
  2 31  1  0  0  0  0
  3  2  2  0  0  0  0
  5  1  1  0  0  0  0
  6  7  1  0  0  0  0
  6  5  1  1  0  0  0
  7 27  1  6  0  0  0
  8 11  1  0  0  0  0
  8  7  1  1  0  0  0
  9 14  1  6  0  0  0
  9 16  1  0  0  0  0
  9 11  1  0  0  0  0
 10  9  1  0  0  0  0
 12 20  1  1  0  0  0
 12 10  1  0  0  0  0
 12 13  1  0  0  0  0
 13 22  1  6  0  0  0
 13  8  1  0  0  0  0
 14 15  1  0  0  0  0
 16 18  1  0  0  0  0
 17 16  2  0  0  0  0
 19 18  1  0  0  0  0
 21 20  1  0  0  0  0
 22 23  1  0  0  0  0
 23 26  2  0  0  0  0
 24 22  1  0  0  0  0
 25 23  1  0  0  0  0
 28 27  1  0  0  0  0
 29  6  1  0  0  0  0
 30 29  1  0  0  0  0
 32 31  1  0  0  0  0
 33 32  1  0  0  0  0
 33 34  2  0  0  0  0
 35 37  2  0  0  0  0
 35 33  1  0  0  0  0
 36 34  1  0  0  0  0
 36 38  1  0  0  0  0
 37 36  1  0  0  0  0
 38 39  1  0  0  0  0
 39 40  2  0  0  0  0
 41 39  1  0  0  0  0
 41 43  1  0  0  0  0
 42 41  1  0  0  0  0
 43 44  1  0  0  0  0
 44 46  1  0  0  0  0
 44 45  2  0  0  0  0
 45 47  1  0  0  0  0
 46 48  1  0  0  0  0
 48 47  2  0  0  0  0
 49 50  1  0  0  0  0
 51 50  1  0  0  0  0
 51 52  1  0  0  0  0
 52 53  1  0  0  0  0
 53 54  1  0  0  0  0
M  END
>  <REMARK>
 VINA RESULT:    -4.849      0.000      0.000
 INTER + INTRA:         -16.031
 INTER:                 -11.196
 INTRA:                  -4.835
 UNBOUND:                -6.788
 SMILES CC(=O)N[C@@H]1[C@@H](O)C[C@](O)(C(=O)O)O[C@H]1C(O)[C@H](O)CNC(=O)OCc1cn(CC(=O)NCc2cccs2)nn1
 SMILES IDX 21 1 22 2 23 3 20 5 18 6 16 7 15 8 9 9 8 10 14 11 6 12 5 13
 SMILES IDX 10 14 11 16 12 17 13 18 7 20 4 22 2 23 1 25 3 26 17 27 19 29
 SMILES IDX 24 31 25 32 26 33 27 34 40 35 28 36 39 37 29 38 30 39 31 40
 SMILES IDX 32 41 33 43 34 44 35 45 38 46 36 47 37 48
 H PARENT 21 4 10 15 13 19 7 21 4 24 17 28 19 30 32 42
 Flexibility Score: inf
  4 active torsions:
  status: ('A' for Active; 'I' for Inactive)
    1  A    between atoms: CA   and  CB  
    2  A    between atoms: CB   and  CG  
    3  A    between atoms: CG   and  CD  
    4  A    between atoms: CD   and  CE  

>  <TORSDO>
F 18

>  <BEGIN_>
RES LYS A 131

$$$$
ligand_18_pose_0_2HRL.pdbqt
 OpenBabel07062320523D

  6  5  0  0  0  0  0  0  0  0999 V2000
   33.1930   34.6630    9.2900 C   0  0  0  0  0  0  0  0  0  0  0  0
   32.0600   35.3600   10.0340 C   0  0  0  0  0  0  0  0  0  0  0  0
   32.5290   36.4530   10.9600 C   0  0  0  0  0  0  0  0  0  0  0  0
   31.5940   37.6500   10.8940 C   0  0  0  0  0  0  0  0  0  0  0  0
   31.4950   38.3230   12.2500 C   0  0  0  0  0  0  0  0  0  0  0  0
   31.1350   39.7610   12.1100 N   0  0  0  0  0  0  0  0  0  0  0  0
  1  2  1  0  0  0  0
  2  3  1  0  0  0  0
  4  3  1  0  0  0  0
  4  5  1  0  0  0  0
  6  5  1  0  0  0  0
M  END
>  <EGIN_R>
ES LYS A 135

>  <REMARK>
  4 active torsions:
  status: ('A' for Active; 'I' for Inactive)
    5  A    between atoms: CA   and  CB  
    6  A    between atoms: CB   and  CG  
    7  A    between atoms: CG   and  CD  
    8  A    between atoms: CD   and  CE  

$$$$
