ligand_8_pose_0_2HRL.pdbqt
 OpenBabel07062320523D

 50 51  0  0  1  0  0  0  0  0999 V2000
   26.5890   27.4340   19.6280 C   0  0  0  0  0  0  0  0  0  0  0  0
   27.3170   27.5710   20.9400 C   0  0  2  0  0  0  0  0  0  0  0  0
   28.7560   27.8600   20.6420 C   0  0  1  0  0  0  0  0  0  0  0  0
   29.3970   28.9340   21.4890 C   0  0  2  0  0  0  0  0  0  0  0  0
   30.3150   30.5720   20.0840 C   0  0  2  0  0  0  0  0  0  0  0  0
   31.3440   30.9510   21.1500 C   0  0  0  0  0  0  0  0  0  0  0  0
   29.2400   30.1110   20.7670 O   0  0  0  0  0  0  0  0  0  0  0  0
   31.8260   29.6480   21.7200 C   0  0  1  0  0  0  0  0  0  0  0  0
   30.7420   28.6410   21.9960 C   0  0  1  0  0  0  0  0  0  0  0  0
   30.9340   29.7030   19.2230 O   0  0  0  0  0  0  0  0  0  0  0  0
   30.6690   29.9510   18.3030 H   0  0  0  0  0  0  0  0  0  0  0  0
   29.9330   31.7950   19.3250 C   0  0  0  0  0  0  0  0  0  0  0  0
   30.8120   32.4020   18.6650 O   0  0  0  0  0  0  0  0  0  0  0  0
   28.6290   32.2780   19.3310 O   0  0  0  0  0  0  0  0  0  0  0  0
   27.8480   31.7760   18.9160 H   0  0  0  0  0  0  0  0  0  0  0  0
   32.7270   29.1220   20.7930 O   0  0  0  0  0  0  0  0  0  0  0  0
   32.2730   28.6120   20.0990 H   0  0  0  0  0  0  0  0  0  0  0  0
   30.6520   28.4520   23.4590 N   0  0  0  0  0  0  0  0  0  0  0  0
   30.4750   27.1700   24.0260 C   0  0  0  0  0  0  0  0  0  0  0  0
   30.7230   29.2860   24.1100 H   0  0  0  0  0  0  0  0  0  0  0  0
   30.3740   26.9720   25.5120 C   0  0  0  0  0  0  0  0  0  0  0  0
   30.4000   26.1850   23.2500 O   0  0  0  0  0  0  0  0  0  0  0  0
   29.4730   26.6970   20.5320 O   0  0  0  0  0  0  0  0  0  0  0  0
   29.9030   26.4220   21.3970 H   0  0  0  0  0  0  0  0  0  0  0  0
   27.1890   26.4220   21.6760 O   0  0  0  0  0  0  0  0  0  0  0  0
   26.4890   25.8090   21.3180 H   0  0  0  0  0  0  0  0  0  0  0  0
   27.2530   27.9270   18.4700 N   0  0  0  0  0  0  0  0  0  0  0  0
   27.2050   29.2700   18.0350 C   0  0  0  0  0  0  0  0  0  0  0  0
   27.8390   27.2640   17.8610 H   0  0  0  0  0  0  0  0  0  0  0  0
   26.5550   30.1640   18.6260 O   0  0  0  0  0  0  0  0  0  0  0  0
   27.9200   29.6260   16.8820 O   0  0  0  0  0  0  0  0  0  0  0  0
   27.2840   30.4870   15.9650 C   0  0  0  0  0  0  0  0  0  0  0  0
   27.9900   31.7910   15.9980 C   0  0  0  0  0  0  0  0  0  0  0  0
   29.1470   32.0840   15.2640 C   0  0  0  0  0  0  0  0  0  0  0  0
   27.7430   32.9210   16.6710 N   0  0  0  0  0  0  0  0  0  0  0  0
   29.5420   33.3440   15.5160 N   0  0  0  0  0  0  0  0  0  0  0  0
   28.6660   33.8300   16.3780 N   0  0  0  0  0  0  0  0  0  0  0  0
   30.6780   34.0010   14.9550 C   0  0  0  0  0  0  0  0  0  0  0  0
   31.9360   33.8660   15.5000 C   0  0  0  0  0  0  0  0  0  0  0  0
   30.5590   34.7990   13.8370 C   0  0  0  0  0  0  0  0  0  0  0  0
   33.0370   34.5160   14.9380 C   0  0  0  0  0  0  0  0  0  0  0  0
   31.6490   35.4460   13.2760 C   0  0  0  0  0  0  0  0  0  0  0  0
   28.8110   34.9930   13.0690 Br  0  0  0  0  0  0  0  0  0  0  0  0
   32.9090   35.3130   13.8190 C   0  0  0  0  0  0  0  0  0  0  0  0
   29.8670   25.5550   16.9770 C   0  0  0  0  0  0  0  0  0  0  0  0
   28.3450   25.7220   17.0260 C   0  0  0  0  0  0  0  0  0  0  0  0
   27.6000   24.4120   16.8180 C   0  0  0  0  0  0  0  0  0  0  0  0
   26.8280   23.9990   18.0400 C   0  0  0  0  0  0  0  0  0  0  0  0
   25.5010   23.3780   17.6180 C   0  0  0  0  0  0  0  0  0  0  0  0
   24.6710   24.3700   16.8940 N   0  0  0  0  0  0  0  0  0  0  0  0
  2  1  1  6  0  0  0
  2 25  1  0  0  0  0
  3 23  1  1  0  0  0
  3  2  1  0  0  0  0
  4  3  1  6  0  0  0
  4  9  1  0  0  0  0
  5 10  1  6  0  0  0
  5  7  1  0  0  0  0
  5  6  1  0  0  0  0
  6  8  1  0  0  0  0
  7  4  1  0  0  0  0
  8 16  1  6  0  0  0
  8  9  1  0  0  0  0
  9 18  1  1  0  0  0
 11 10  1  0  0  0  0
 12 14  1  0  0  0  0
 12  5  1  0  0  0  0
 13 12  2  0  0  0  0
 15 14  1  0  0  0  0
 17 16  1  0  0  0  0
 18 19  1  0  0  0  0
 18 20  1  0  0  0  0
 19 21  1  0  0  0  0
 22 19  2  0  0  0  0
 23 24  1  0  0  0  0
 26 25  1  0  0  0  0
 27  1  1  0  0  0  0
 28 27  1  0  0  0  0
 28 30  2  0  0  0  0
 29 27  1  0  0  0  0
 31 28  1  0  0  0  0
 32 33  1  0  0  0  0
 32 31  1  0  0  0  0
 33 35  1  0  0  0  0
 34 36  1  0  0  0  0
 34 33  2  0  0  0  0
 36 37  1  0  0  0  0
 37 35  2  0  0  0  0
 38 39  1  0  0  0  0
 38 36  1  0  0  0  0
 40 38  2  0  0  0  0
 41 39  2  0  0  0  0
 42 44  2  0  0  0  0
 42 40  1  0  0  0  0
 43 40  1  0  0  0  0
 44 41  1  0  0  0  0
 45 46  1  0  0  0  0
 47 46  1  0  0  0  0
 47 48  1  0  0  0  0
 49 48  1  0  0  0  0
 50 49  1  0  0  0  0
M  END
>  <REMARK>
 VINA RESULT:    -6.078      0.000      0.000
 INTER + INTRA:         -14.914
 INTER:                  -8.762
 INTRA:                  -6.153
 UNBOUND:                -4.396
 SMILES CC(=O)N[C@@H]1[C@@H](O)C[C@](O)(C(=O)O)O[C@H]1C(O)[C@H](O)CNC(=O)OCc1cn(-c2ccccc2Br)nn1
 SMILES IDX 20 1 18 2 16 3 15 4 9 5 8 6 14 7 6 8 5 9 10 10 11 12 12 13
 SMILES IDX 13 14 7 16 4 18 2 19 1 21 3 22 17 23 19 25 21 27 22 28 23 30
 SMILES IDX 24 31 25 32 26 33 27 34 37 35 28 36 36 37 29 38 30 39 34 40
 SMILES IDX 31 41 33 42 35 43 32 44
 H PARENT 10 11 13 15 7 17 4 20 17 24 19 26 21 29
 Flexibility Score: inf
  4 active torsions:
  status: ('A' for Active; 'I' for Inactive)
    1  A    between atoms: CA   and  CB  
    2  A    between atoms: CB   and  CG  
    3  A    between atoms: CG   and  CD  
    4  A    between atoms: CD   and  CE  

>  <TORSDO>
F 15

>  <BEGIN_>
RES LYS A 131

$$$$
ligand_8_pose_0_2HRL.pdbqt
 OpenBabel07062320523D

  6  5  0  0  0  0  0  0  0  0999 V2000
   33.1930   34.6630    9.2900 C   0  0  0  0  0  0  0  0  0  0  0  0
   32.0600   35.3600   10.0340 C   0  0  0  0  0  0  0  0  0  0  0  0
   30.7050   34.7530    9.7740 C   0  0  0  0  0  0  0  0  0  0  0  0
   30.1910   35.1570    8.4010 C   0  0  0  0  0  0  0  0  0  0  0  0
   28.8310   34.5400    8.1390 C   0  0  0  0  0  0  0  0  0  0  0  0
   28.2710   33.9310    9.3770 N   0  0  0  0  0  0  0  0  0  0  0  0
  1  2  1  0  0  0  0
  3  2  1  0  0  0  0
  4  3  1  0  0  0  0
  5  4  1  0  0  0  0
  5  6  1  0  0  0  0
M  END
>  <EGIN_R>
ES LYS A 135

>  <REMARK>
  4 active torsions:
  status: ('A' for Active; 'I' for Inactive)
    5  A    between atoms: CA   and  CB  
    6  A    between atoms: CB   and  CG  
    7  A    between atoms: CG   and  CD  
    8  A    between atoms: CD   and  CE  

$$$$
