ligand_92_pose_0_2HRL.pdbqt
 OpenBabel07062320523D

 59 60  0  0  1  0  0  0  0  0999 V2000
   29.7370   27.0510   20.3620 N   0  0  0  0  0  0  0  0  0  0  0  0
   28.4280   27.5490   20.5430 C   0  0  0  0  0  0  0  0  0  0  0  0
   28.0090   27.7450   21.7350 O   0  0  0  0  0  0  0  0  0  0  0  0
   30.0830   26.8910   19.4010 H   0  0  0  0  0  0  0  0  0  0  0  0
   30.5990   26.7630   21.4760 C   0  0  0  0  0  0  0  0  0  0  0  0
   31.9000   27.5250   21.4200 C   0  0  2  0  0  0  0  0  0  0  0  0
   31.9000   28.7150   22.3340 C   0  0  1  0  0  0  0  0  0  0  0  0
   33.0360   29.6860   21.9650 C   0  0  2  0  0  0  0  0  0  0  0  0
   34.6890   29.2280   23.5850 C   0  0  1  0  0  0  0  0  0  0  0  0
   34.6610   30.6860   24.0000 C   0  0  0  0  0  0  0  0  0  0  0  0
   34.2030   29.0890   22.3330 O   0  0  0  0  0  0  0  0  0  0  0  0
   33.2070   31.0930   23.9700 C   0  0  1  0  0  0  0  0  0  0  0  0
   32.7350   31.0140   22.5390 C   0  0  1  0  0  0  0  0  0  0  0  0
   33.8470   28.5630   24.4870 O   0  0  0  0  0  0  0  0  0  0  0  0
   34.1600   28.6110   25.4100 H   0  0  0  0  0  0  0  0  0  0  0  0
   36.0490   28.6540   23.7510 C   0  0  0  0  0  0  0  0  0  0  0  0
   36.9710   29.0420   23.0200 O   0  0  0  0  0  0  0  0  0  0  0  0
   36.2990   27.6910   24.7100 O   0  0  0  0  0  0  0  0  0  0  0  0
   36.8230   27.9350   25.5630 H   0  0  0  0  0  0  0  0  0  0  0  0
   32.4710   30.2900   24.8330 O   0  0  0  0  0  0  0  0  0  0  0  0
   32.8800   29.3760   24.8080 H   0  0  0  0  0  0  0  0  0  0  0  0
   33.2820   32.1340   21.8420 N   0  0  0  0  0  0  0  0  0  0  0  0
   32.4430   33.1790   21.3980 C   0  0  0  0  0  0  0  0  0  0  0  0
   34.2970   32.1890   21.6540 H   0  0  0  0  0  0  0  0  0  0  0  0
   32.9250   34.3780   20.6660 C   0  0  0  0  0  0  0  0  0  0  0  0
   31.2310   33.0880   21.6330 O   0  0  0  0  0  0  0  0  0  0  0  0
   30.6690   29.4110   22.3080 O   0  0  0  0  0  0  0  0  0  0  0  0
   30.6450   29.9300   21.4840 H   0  0  0  0  0  0  0  0  0  0  0  0
   32.0460   27.9140   20.0710 O   0  0  0  0  0  0  0  0  0  0  0  0
   31.6430   27.1900   19.5310 H   0  0  0  0  0  0  0  0  0  0  0  0
   27.5650   27.8380   19.5060 O   0  0  0  0  0  0  0  0  0  0  0  0
   27.1910   29.1860   19.1860 C   0  0  0  0  0  0  0  0  0  0  0  0
   28.4670   29.9400   19.0070 C   0  0  0  0  0  0  0  0  0  0  0  0
   28.7800   30.8210   17.9700 C   0  0  0  0  0  0  0  0  0  0  0  0
   29.5680   29.9380   19.7860 N   0  0  0  0  0  0  0  0  0  0  0  0
   30.0200   31.3030   18.1540 N   0  0  0  0  0  0  0  0  0  0  0  0
   30.4600   30.7430   19.2630 N   0  0  0  0  0  0  0  0  0  0  0  0
   30.6760   32.2270   17.2960 C   0  0  0  0  0  0  0  0  0  0  0  0
   31.0710   33.4760   17.7140 C   0  0  0  0  0  0  0  0  0  0  0  0
   30.9340   31.8780   15.9880 C   0  0  0  0  0  0  0  0  0  0  0  0
   31.7120   34.3690   16.8560 C   0  0  0  0  0  0  0  0  0  0  0  0
   31.5670   32.7570   15.1380 C   0  0  0  0  0  0  0  0  0  0  0  0
   31.9760   34.0300   15.5490 C   0  0  0  0  0  0  0  0  0  0  0  0
   32.7830   35.1040   14.4450 S   0  0  0  0  0  0  0  0  0  0  0  0
   34.0680   34.4080   14.0150 O   0  0  0  0  0  0  0  0  0  0  0  0
   33.1960   36.3160   15.2070 O   0  0  0  0  0  0  0  0  0  0  0  0
   31.8790   35.5090   13.0650 N   0  0  0  0  0  0  0  0  0  0  0  0
   32.4090   35.8510   12.2180 H   0  0  0  0  0  0  0  0  0  0  0  0
   30.4850   35.4420   12.9140 C   0  0  0  0  0  0  0  0  0  0  0  0
   29.5450   34.6650   12.9730 N   0  0  0  0  0  0  0  0  0  0  0  0
   29.5350   37.0130   12.4640 S   0  0  0  0  0  0  0  0  0  0  0  0
   28.2870   34.8970   12.7780 C   0  0  0  0  0  0  0  0  0  0  0  0
   27.8880   36.1490   12.4610 C   0  0  0  0  0  0  0  0  0  0  0  0
   29.8670   25.5550   16.9770 C   0  0  0  0  0  0  0  0  0  0  0  0
   28.3450   25.7220   17.0260 C   0  0  0  0  0  0  0  0  0  0  0  0
   27.6010   24.4020   16.8950 C   0  0  0  0  0  0  0  0  0  0  0  0
   26.6610   24.1650   18.0440 C   0  0  0  0  0  0  0  0  0  0  0  0
   25.5450   23.2240   17.6030 C   0  0  0  0  0  0  0  0  0  0  0  0
   24.4840   23.9760   16.8910 N   0  0  0  0  0  0  0  0  0  0  0  0
  1  2  1  0  0  0  0
  1  5  1  0  0  0  0
  2  3  2  0  0  0  0
  4  1  1  0  0  0  0
  6  5  1  6  0  0  0
  6  7  1  0  0  0  0
  7 27  1  6  0  0  0
  8 11  1  0  0  0  0
  8  7  1  1  0  0  0
  8 13  1  0  0  0  0
  9 16  1  6  0  0  0
  9 10  1  0  0  0  0
 11  9  1  0  0  0  0
 12 10  1  0  0  0  0
 12 20  1  1  0  0  0
 13 22  1  6  0  0  0
 13 12  1  0  0  0  0
 14 15  1  0  0  0  0
 16 18  1  0  0  0  0
 17 16  2  0  0  0  0
 18 19  1  0  0  0  0
 21 20  1  0  0  0  0
 23 26  2  0  0  0  0
 23 22  1  0  0  0  0
 24 22  1  0  0  0  0
 25 23  1  0  0  0  0
 28 27  1  0  0  0  0
 29  6  1  0  0  0  0
 30 29  1  0  0  0  0
 31  2  1  0  0  0  0
 32 31  1  0  0  0  0
 33 32  1  0  0  0  0
 33 35  1  0  0  0  0
 34 36  1  0  0  0  0
 34 33  2  0  0  0  0
 36 37  1  0  0  0  0
 37 35  2  0  0  0  0
 38 39  1  0  0  0  0
 38 36  1  0  0  0  0
 40 38  2  0  0  0  0
 41 39  2  0  0  0  0
 42 43  2  0  0  0  0
 42 40  1  0  0  0  0
 43 41  1  0  0  0  0
 44 46  2  0  0  0  0
 44 43  1  0  0  0  0
 45 44  2  0  0  0  0
 47 44  1  0  0  0  0
 48 47  1  0  0  0  0
 49 50  2  0  0  0  0
 49 47  1  0  0  0  0
 51 49  1  0  0  0  0
 52 50  1  0  0  0  0
 53 51  1  0  0  0  0
 53 52  2  0  0  0  0
 54 55  1  0  0  0  0
 56 55  1  0  0  0  0
 56 57  1  0  0  0  0
 58 57  1  0  0  0  0
 59 58  1  0  0  0  0
M  END
>  <REMARK>
 VINA RESULT:    -5.556      0.000      0.000
 INTER + INTRA:         -16.999
 INTER:                 -10.794
 INTRA:                  -6.205
 UNBOUND:                -6.408
 SMILES CC(=O)N[C@@H]1[C@@H](O)C[C@](O)(C(=O)O)O[C@H]1C(O)[C@H](O)CNC(=O)OCc1cn(-c2ccc(S(=O)(=O)Nc3nccs3)cc2)nn1
 SMILES IDX 21 1 22 2 23 3 20 5 18 6 16 7 15 8 9 9 8 10 14 11 6 12 5 13
 SMILES IDX 10 14 11 16 12 17 13 18 7 20 4 22 2 23 1 25 3 26 17 27 19 29
 SMILES IDX 24 31 25 32 26 33 27 34 45 35 28 36 44 37 29 38 30 39 43 40
 SMILES IDX 31 41 42 42 32 43 33 44 34 45 35 46 36 47 37 49 38 50 41 51
 SMILES IDX 39 52 40 53
 H PARENT 21 4 10 15 13 19 7 21 4 24 17 28 19 30 36 48
 Flexibility Score: inf
  4 active torsions:
  status: ('A' for Active; 'I' for Inactive)
    1  A    between atoms: CA   and  CB  
    2  A    between atoms: CB   and  CG  
    3  A    between atoms: CG   and  CD  
    4  A    between atoms: CD   and  CE  

>  <TORSDO>
F 18

>  <BEGIN_>
RES LYS A 131

$$$$
ligand_92_pose_0_2HRL.pdbqt
 OpenBabel07062320523D

  6  5  0  0  0  0  0  0  0  0999 V2000
   33.1930   34.6630    9.2900 C   0  0  0  0  0  0  0  0  0  0  0  0
   32.0600   35.3600   10.0340 C   0  0  0  0  0  0  0  0  0  0  0  0
   30.8160   35.5410    9.2040 C   0  0  0  0  0  0  0  0  0  0  0  0
   29.9510   34.2910    9.2530 C   0  0  0  0  0  0  0  0  0  0  0  0
   28.4980   34.6380    8.9880 C   0  0  0  0  0  0  0  0  0  0  0  0
   27.5880   33.5940    9.5370 N   0  0  0  0  0  0  0  0  0  0  0  0
  1  2  1  0  0  0  0
  3  4  1  0  0  0  0
  3  2  1  0  0  0  0
  5  4  1  0  0  0  0
  5  6  1  0  0  0  0
M  END
>  <EGIN_R>
ES LYS A 135

>  <REMARK>
  4 active torsions:
  status: ('A' for Active; 'I' for Inactive)
    5  A    between atoms: CA   and  CB  
    6  A    between atoms: CB   and  CG  
    7  A    between atoms: CG   and  CD  
    8  A    between atoms: CD   and  CE  

$$$$
