ligand_0_pose_0_2HRL.pdbqt
 OpenBabel07062320523D

 54 55  0  0  1  0  0  0  0  0999 V2000
   25.2350   28.0240   17.7910 N   0  0  0  0  0  0  0  0  0  0  0  0
   24.6310   29.2780   17.5110 C   0  0  0  0  0  0  0  0  0  0  0  0
   24.4450   30.0810   18.4420 O   0  0  0  0  0  0  0  0  0  0  0  0
   25.3640   27.3870   16.9530 H   0  0  0  0  0  0  0  0  0  0  0  0
   25.6640   27.5910   19.0980 C   0  0  0  0  0  0  0  0  0  0  0  0
   27.1310   27.8870   19.3560 C   0  0  2  0  0  0  0  0  0  0  0  0
   27.3130   28.9320   20.4160 C   0  0  1  0  0  0  0  0  0  0  0  0
   28.4170   28.6680   21.3670 C   0  0  2  0  0  0  0  0  0  0  0  0
   30.4960   27.5930   21.3680 C   0  0  2  0  0  0  0  0  0  0  0  0
   30.5840   28.2410   22.7180 C   0  0  0  0  0  0  0  0  0  0  0  0
   29.3990   27.9390   20.6440 O   0  0  0  0  0  0  0  0  0  0  0  0
   29.3390   28.1370   23.5310 C   0  0  1  0  0  0  0  0  0  0  0  0
   28.1550   27.9010   22.5990 C   0  0  1  0  0  0  0  0  0  0  0  0
   30.6250   26.1920   21.5200 O   0  0  0  0  0  0  0  0  0  0  0  0
   29.7090   25.7970   21.4350 H   0  0  0  0  0  0  0  0  0  0  0  0
   31.7030   28.0240   20.6050 C   0  0  0  0  0  0  0  0  0  0  0  0
   32.2180   29.1480   20.8900 O   0  0  0  0  0  0  0  0  0  0  0  0
   32.2900   27.2720   19.6110 O   0  0  0  0  0  0  0  0  0  0  0  0
   33.2650   27.3790   19.3820 H   0  0  0  0  0  0  0  0  0  0  0  0
   29.4800   27.1030   24.4420 O   0  0  0  0  0  0  0  0  0  0  0  0
   29.5930   26.2140   24.0200 H   0  0  0  0  0  0  0  0  0  0  0  0
   26.9080   28.0370   23.2480 N   0  0  0  0  0  0  0  0  0  0  0  0
   25.9100   27.0440   23.1750 C   0  0  0  0  0  0  0  0  0  0  0  0
   26.6940   28.8750   23.8240 H   0  0  0  0  0  0  0  0  0  0  0  0
   24.5890   27.1340   23.8330 C   0  0  0  0  0  0  0  0  0  0  0  0
   26.1580   26.0160   22.5080 O   0  0  0  0  0  0  0  0  0  0  0  0
   27.1300   30.2320   20.0050 O   0  0  0  0  0  0  0  0  0  0  0  0
   26.3620   30.6440   20.5060 H   0  0  0  0  0  0  0  0  0  0  0  0
   27.8400   28.0730   18.2030 O   0  0  0  0  0  0  0  0  0  0  0  0
   27.4700   28.8280   17.6680 H   0  0  0  0  0  0  0  0  0  0  0  0
   24.2390   29.6440   16.2290 O   0  0  0  0  0  0  0  0  0  0  0  0
   24.8360   30.7270   15.5370 C   0  0  0  0  0  0  0  0  0  0  0  0
   26.3220   30.6790   15.6840 C   0  0  0  0  0  0  0  0  0  0  0  0
   27.1560   31.7780   15.7660 C   0  0  0  0  0  0  0  0  0  0  0  0
   27.1130   29.5980   15.7630 N   0  0  0  0  0  0  0  0  0  0  0  0
   28.4350   31.3120   15.8930 N   0  0  0  0  0  0  0  0  0  0  0  0
   28.3740   30.0120   15.8890 N   0  0  0  0  0  0  0  0  0  0  0  0
   29.6000   32.1380   15.9990 C   0  0  0  0  0  0  0  0  0  0  0  0
   30.2570   32.3230   17.1930 C   0  0  0  0  0  0  0  0  0  0  0  0
   30.0640   32.7620   14.8460 C   0  0  0  0  0  0  0  0  0  0  0  0
   31.3890   33.1450   17.2150 C   0  0  0  0  0  0  0  0  0  0  0  0
   31.1770   33.5650   14.8880 C   0  0  0  0  0  0  0  0  0  0  0  0
   31.8310   33.7500   16.0770 C   0  0  0  0  0  0  0  0  0  0  0  0
   29.8260   31.7000   18.4340 C   0  0  0  0  0  0  0  0  0  0  0  0
   29.1930   32.4280   19.2660 O   0  0  0  0  0  0  0  0  0  0  0  0
   30.0810   30.3370   18.7440 N   0  0  0  0  0  0  0  0  0  0  0  0
   29.5950   29.5590   18.2700 H   0  0  0  0  0  0  0  0  0  0  0  0
   30.8030   30.1540   19.5050 H   0  0  0  0  0  0  0  0  0  0  0  0
   29.8670   25.5550   16.9770 C   0  0  0  0  0  0  0  0  0  0  0  0
   28.3450   25.7220   17.0260 C   0  0  0  0  0  0  0  0  0  0  0  0
   27.6000   24.4080   16.8450 C   0  0  0  0  0  0  0  0  0  0  0  0
   26.5960   24.1710   17.9390 C   0  0  0  0  0  0  0  0  0  0  0  0
   25.2050   24.0240   17.3300 C   0  0  0  0  0  0  0  0  0  0  0  0
   24.7130   22.6360   17.4890 N   0  0  0  0  0  0  0  0  0  0  0  0
  1  5  1  0  0  0  0
  2  1  1  0  0  0  0
  2  3  2  0  0  0  0
  4  1  1  0  0  0  0
  6  5  1  6  0  0  0
  6  7  1  0  0  0  0
  7 27  1  6  0  0  0
  8  7  1  6  0  0  0
  8 13  1  0  0  0  0
  9 16  1  6  0  0  0
  9 14  1  0  0  0  0
  9 10  1  0  0  0  0
 10 12  1  0  0  0  0
 11  8  1  0  0  0  0
 11  9  1  0  0  0  0
 12 20  1  1  0  0  0
 13 22  1  1  0  0  0
 13 12  1  0  0  0  0
 15 14  1  0  0  0  0
 16 17  2  0  0  0  0
 18 16  1  0  0  0  0
 19 18  1  0  0  0  0
 21 20  1  0  0  0  0
 22 24  1  0  0  0  0
 23 22  1  0  0  0  0
 23 25  1  0  0  0  0
 26 23  2  0  0  0  0
 27 28  1  0  0  0  0
 29  6  1  0  0  0  0
 30 29  1  0  0  0  0
 31  2  1  0  0  0  0
 32 33  1  0  0  0  0
 32 31  1  0  0  0  0
 33 35  1  0  0  0  0
 33 34  2  0  0  0  0
 34 36  1  0  0  0  0
 35 37  2  0  0  0  0
 36 38  1  0  0  0  0
 37 36  1  0  0  0  0
 38 39  2  0  0  0  0
 39 41  1  0  0  0  0
 39 44  1  0  0  0  0
 40 42  2  0  0  0  0
 40 38  1  0  0  0  0
 42 43  1  0  0  0  0
 43 41  2  0  0  0  0
 44 46  1  0  0  0  0
 44 45  2  0  0  0  0
 46 48  1  0  0  0  0
 47 46  1  0  0  0  0
 49 50  1  0  0  0  0
 51 50  1  0  0  0  0
 51 52  1  0  0  0  0
 53 54  1  0  0  0  0
 53 52  1  0  0  0  0
M  END
>  <REMARK>
 VINA RESULT:    -6.026      0.000      0.000
 INTER + INTRA:         -16.195
 INTER:                  -8.836
 INTRA:                  -7.359
 UNBOUND:                -5.414
 SMILES CC(=O)N[C@@H]1[C@@H](O)C[C@](O)(C(=O)O)O[C@H]1C(O)[C@H](O)CNC(=O)OCc1cn(-c2ccccc2C(N)=O)nn1
 SMILES IDX 21 1 22 2 23 3 20 5 18 6 16 7 15 8 9 9 8 10 14 11 6 12 5 13
 SMILES IDX 10 14 11 16 12 17 13 18 7 20 4 22 2 23 1 25 3 26 17 27 19 29
 SMILES IDX 24 31 25 32 26 33 27 34 39 35 28 36 38 37 29 38 34 39 30 40
 SMILES IDX 33 41 31 42 32 43 35 44 37 45 36 46
 H PARENT 21 4 10 15 13 19 7 21 4 24 17 28 19 30 36 47 36 48
 Flexibility Score: inf
  4 active torsions:
  status: ('A' for Active; 'I' for Inactive)
    1  A    between atoms: CA   and  CB  
    2  A    between atoms: CB   and  CG  
    3  A    between atoms: CG   and  CD  
    4  A    between atoms: CD   and  CE  

>  <TORSDO>
F 16

>  <BEGIN_>
RES LYS A 131

$$$$
ligand_0_pose_0_2HRL.pdbqt
 OpenBabel07062320523D

  6  5  0  0  0  0  0  0  0  0999 V2000
   33.1930   34.6630    9.2900 C   0  0  0  0  0  0  0  0  0  0  0  0
   32.0600   35.3600   10.0340 C   0  0  0  0  0  0  0  0  0  0  0  0
   30.7060   34.7510    9.7760 C   0  0  0  0  0  0  0  0  0  0  0  0
   30.5210   34.4620    8.2940 C   0  0  0  0  0  0  0  0  0  0  0  0
   29.3500   35.2510    7.7400 C   0  0  0  0  0  0  0  0  0  0  0  0
   28.0530   34.6740    8.1910 N   0  0  0  0  0  0  0  0  0  0  0  0
  1  2  1  0  0  0  0
  3  2  1  0  0  0  0
  4  3  1  0  0  0  0
  5  6  1  0  0  0  0
  5  4  1  0  0  0  0
M  END
>  <EGIN_R>
ES LYS A 135

>  <REMARK>
  4 active torsions:
  status: ('A' for Active; 'I' for Inactive)
    5  A    between atoms: CA   and  CB  
    6  A    between atoms: CB   and  CG  
    7  A    between atoms: CG   and  CD  
    8  A    between atoms: CD   and  CE  

$$$$
ligand_10_pose_0_2HRL.pdbqt
 OpenBabel07062320523D

 53 53  0  0  1  0  0  0  0  0999 V2000
   26.3310   29.6490   16.0440 N   0  0  0  0  0  0  0  0  0  0  0  0
   24.9780   29.4510   16.4520 C   0  0  0  0  0  0  0  0  0  0  0  0
   24.7610   28.8960   17.5350 O   0  0  0  0  0  0  0  0  0  0  0  0
   26.4390   30.1280   15.1110 H   0  0  0  0  0  0  0  0  0  0  0  0
   27.4760   29.2500   16.8000 C   0  0  0  0  0  0  0  0  0  0  0  0
   28.2440   30.4570   17.2990 C   0  0  2  0  0  0  0  0  0  0  0  0
   29.0980   31.0570   16.1970 C   0  0  2  0  0  0  0  0  0  0  0  0
   28.6130   32.3690   15.6930 C   0  0  2  0  0  0  0  0  0  0  0  0
   30.7510   33.1430   15.2190 C   0  0  2  0  0  0  0  0  0  0  0  0
   30.9080   33.5970   16.6090 C   0  0  0  0  0  0  0  0  0  0  0  0
   29.4830   32.9230   14.7490 O   0  0  0  0  0  0  0  0  0  0  0  0
   29.6980   33.7980   17.4330 C   0  0  1  0  0  0  0  0  0  0  0  0
   28.4070   33.3730   16.7930 C   0  0  1  0  0  0  0  0  0  0  0  0
   31.4530   31.9310   14.9950 O   0  0  0  0  0  0  0  0  0  0  0  0
   31.9950   32.0990   14.1790 H   0  0  0  0  0  0  0  0  0  0  0  0
   31.3840   34.1030   14.2720 C   0  0  0  0  0  0  0  0  0  0  0  0
   32.3690   34.8250   14.5510 O   0  0  0  0  0  0  0  0  0  0  0  0
   30.8440   34.1980   12.9990 O   0  0  0  0  0  0  0  0  0  0  0  0
   31.4170   34.0940   12.1510 H   0  0  0  0  0  0  0  0  0  0  0  0
   29.8360   33.1670   18.6660 O   0  0  0  0  0  0  0  0  0  0  0  0
   29.9460   32.2030   18.6180 H   0  0  0  0  0  0  0  0  0  0  0  0
   27.7070   34.5520   16.2280 N   0  0  0  0  0  0  0  0  0  0  0  0
   26.3130   34.7160   16.3910 C   0  0  0  0  0  0  0  0  0  0  0  0
   28.2220   35.2860   15.6980 H   0  0  0  0  0  0  0  0  0  0  0  0
   25.5680   35.8850   15.8390 C   0  0  0  0  0  0  0  0  0  0  0  0
   25.6830   33.8420   17.0240 O   0  0  0  0  0  0  0  0  0  0  0  0
   29.0000   30.0860   15.1590 O   0  0  0  0  0  0  0  0  0  0  0  0
   28.0970   29.6910   15.1420 H   0  0  0  0  0  0  0  0  0  0  0  0
   28.9690   30.0760   18.4200 O   0  0  0  0  0  0  0  0  0  0  0  0
   29.2470   30.8390   18.9860 H   0  0  0  0  0  0  0  0  0  0  0  0
   23.9030   29.8590   15.6800 O   0  0  0  0  0  0  0  0  0  0  0  0
   24.1000   30.2500   14.3450 C   0  0  0  0  0  0  0  0  0  0  0  0
   23.8600   31.6980   14.1310 C   0  0  0  0  0  0  0  0  0  0  0  0
   24.5830   32.4470   13.2350 C   0  0  0  0  0  0  0  0  0  0  0  0
   22.9810   32.5200   14.6980 N   0  0  0  0  0  0  0  0  0  0  0  0
   24.1130   33.7200   13.2850 N   0  0  0  0  0  0  0  0  0  0  0  0
   23.1580   33.7200   14.1710 N   0  0  0  0  0  0  0  0  0  0  0  0
   24.6560   34.7920   12.4570 C   0  0  1  0  0  0  0  0  0  0  0  0
   25.9440   34.3360   11.8270 C   0  0  0  0  0  0  0  0  0  0  0  0
   27.0860   35.1850   12.2020 C   0  0  0  0  0  0  0  0  0  0  0  0
   27.2620   36.2700   11.5940 O   0  0  0  0  0  0  0  0  0  0  0  0
   27.9370   34.7680   13.2140 O   0  0  0  0  0  0  0  0  0  0  0  0
   27.5810   34.1110   13.9260 H   0  0  0  0  0  0  0  0  0  0  0  0
   23.6970   35.0570   11.3490 C   0  0  0  0  0  0  0  0  0  0  0  0
   23.8740   35.9310   10.4630 O   0  0  0  0  0  0  0  0  0  0  0  0
   22.5420   34.2980   11.2910 O   0  0  0  0  0  0  0  0  0  0  0  0
   21.6230   34.6850   11.4730 H   0  0  0  0  0  0  0  0  0  0  0  0
   29.8670   25.5550   16.9770 C   0  0  0  0  0  0  0  0  0  0  0  0
   28.3450   25.7220   17.0260 C   0  0  0  0  0  0  0  0  0  0  0  0
   27.6010   24.4030   16.8800 C   0  0  0  0  0  0  0  0  0  0  0  0
   26.1650   24.5130   17.3110 C   0  0  0  0  0  0  0  0  0  0  0  0
   25.8760   23.4730   18.3890 C   0  0  0  0  0  0  0  0  0  0  0  0
   25.4890   24.1340   19.6580 N   0  0  0  0  0  0  0  0  0  0  0  0
  1  2  1  0  0  0  0
  1  5  1  0  0  0  0
  2  3  2  0  0  0  0
  4  1  1  0  0  0  0
  6  5  1  6  0  0  0
  6 29  1  0  0  0  0
  7 27  1  6  0  0  0
  7  6  1  0  0  0  0
  8  7  1  1  0  0  0
  8 13  1  0  0  0  0
  9 16  1  6  0  0  0
  9 10  1  0  0  0  0
 10 12  1  0  0  0  0
 11  9  1  0  0  0  0
 11  8  1  0  0  0  0
 12 20  1  1  0  0  0
 13 22  1  6  0  0  0
 13 12  1  0  0  0  0
 14  9  1  0  0  0  0
 15 14  1  0  0  0  0
 16 17  2  0  0  0  0
 18 16  1  0  0  0  0
 19 18  1  0  0  0  0
 21 20  1  0  0  0  0
 22 23  1  0  0  0  0
 23 26  2  0  0  0  0
 24 22  1  0  0  0  0
 25 23  1  0  0  0  0
 28 27  1  0  0  0  0
 29 30  1  0  0  0  0
 31  2  1  0  0  0  0
 32 31  1  0  0  0  0
 33 32  1  0  0  0  0
 33 35  1  0  0  0  0
 34 36  1  0  0  0  0
 34 33  2  0  0  0  0
 36 37  1  0  0  0  0
 37 35  2  0  0  0  0
 38 39  1  6  0  0  0
 38 36  1  0  0  0  0
 39 40  1  0  0  0  0
 40 42  1  0  0  0  0
 41 40  2  0  0  0  0
 42 43  1  0  0  0  0
 44 38  1  0  0  0  0
 45 44  2  0  0  0  0
 46 44  1  0  0  0  0
 46 47  1  0  0  0  0
 48 49  1  0  0  0  0
 50 49  1  0  0  0  0
 50 51  1  0  0  0  0
 51 52  1  0  0  0  0
 52 53  1  0  0  0  0
M  END
>  <REMARK>
 VINA RESULT:    -5.014      0.000      0.000
 INTER + INTRA:         -15.595
 INTER:                  -8.362
 INTRA:                  -7.233
 UNBOUND:                -5.744
 SMILES CC(=O)N[C@@H]1[C@@H](O)C[C@](O)(C(=O)O)O[C@H]1C(O)[C@H](O)CNC(=O)OCc1cn([C@@H](CC(=O)O)C(=O)O)nn1
 SMILES IDX 21 1 22 2 23 3 20 5 18 6 16 7 15 8 9 9 8 10 14 11 6 12 5 13
 SMILES IDX 10 14 11 16 12 17 13 18 7 20 4 22 2 23 1 25 3 26 17 27 19 29
 SMILES IDX 24 31 25 32 26 33 27 34 38 35 28 36 37 37 29 38 30 39 31 40
 SMILES IDX 32 41 33 42 34 44 35 45 36 46
 H PARENT 21 4 10 15 13 19 7 21 4 24 17 28 19 30 33 43 36 47
 Flexibility Score: inf
  4 active torsions:
  status: ('A' for Active; 'I' for Inactive)
    1  A    between atoms: CA   and  CB  
    2  A    between atoms: CB   and  CG  
    3  A    between atoms: CG   and  CD  
    4  A    between atoms: CD   and  CE  

>  <TORSDO>
F 20

>  <BEGIN_>
RES LYS A 131

$$$$
ligand_10_pose_0_2HRL.pdbqt
 OpenBabel07062320523D

  6  5  0  0  0  0  0  0  0  0999 V2000
   33.1930   34.6630    9.2900 C   0  0  0  0  0  0  0  0  0  0  0  0
   32.0600   35.3600   10.0340 C   0  0  0  0  0  0  0  0  0  0  0  0
   30.7790   35.4380    9.2440 C   0  0  0  0  0  0  0  0  0  0  0  0
   30.2440   34.0450    8.9500 C   0  0  0  0  0  0  0  0  0  0  0  0
   28.7590   33.9710    9.2480 C   0  0  0  0  0  0  0  0  0  0  0  0
   27.9710   34.7340    8.2410 N   0  0  0  0  0  0  0  0  0  0  0  0
  1  2  1  0  0  0  0
  3  2  1  0  0  0  0
  4  3  1  0  0  0  0
  4  5  1  0  0  0  0
  6  5  1  0  0  0  0
M  END
>  <EGIN_R>
ES LYS A 135

>  <REMARK>
  4 active torsions:
  status: ('A' for Active; 'I' for Inactive)
    5  A    between atoms: CA   and  CB  
    6  A    between atoms: CB   and  CG  
    7  A    between atoms: CG   and  CD  
    8  A    between atoms: CD   and  CE  

$$$$
ligand_11_pose_0_2HRL.pdbqt
 OpenBabel07062320523D

 54 54  0  0  1  0  0  0  0  0999 V2000
   27.1540   34.3540   13.8220 O   0  0  0  0  0  0  0  0  0  0  0  0
   25.7920   34.3460   13.4930 C   0  0  0  0  0  0  0  0  0  0  0  0
   25.1460   35.4520   12.9230 N   0  0  0  0  0  0  0  0  0  0  0  0
   25.7650   36.3150   12.7630 H   0  0  0  0  0  0  0  0  0  0  0  0
   25.1690   33.2990   13.7320 O   0  0  0  0  0  0  0  0  0  0  0  0
   23.7670   35.5470   12.5380 C   0  0  0  0  0  0  0  0  0  0  0  0
   23.4960   34.8220   11.2790 C   0  0  2  0  0  0  0  0  0  0  0  0
   23.8000   35.6390   10.0370 C   0  0  1  0  0  0  0  0  0  0  0  0
   22.8590   36.8450    9.9520 C   0  0  2  0  0  0  0  0  0  0  0  0
   21.2980   36.3990    8.2660 C   0  0  2  0  0  0  0  0  0  0  0  0
   22.4050   36.7820    7.3260 C   0  0  0  0  0  0  0  0  0  0  0  0
   21.5940   36.5200    9.5890 O   0  0  0  0  0  0  0  0  0  0  0  0
   23.2230   37.9520    7.7400 C   0  0  1  0  0  0  0  0  0  0  0  0
   23.4980   37.9840    9.2150 C   0  0  1  0  0  0  0  0  0  0  0  0
   21.0250   35.0540    8.0110 O   0  0  0  0  0  0  0  0  0  0  0  0
   20.1030   34.8170    8.2420 H   0  0  0  0  0  0  0  0  0  0  0  0
   20.0730   37.1710    7.9410 C   0  0  0  0  0  0  0  0  0  0  0  0
   19.7860   38.1990    8.5980 O   0  0  0  0  0  0  0  0  0  0  0  0
   19.2120   36.7930    6.9150 O   0  0  0  0  0  0  0  0  0  0  0  0
   18.2150   36.8300    7.1300 H   0  0  0  0  0  0  0  0  0  0  0  0
   24.4360   37.8910    7.0560 O   0  0  0  0  0  0  0  0  0  0  0  0
   25.1860   37.6770    7.6720 H   0  0  0  0  0  0  0  0  0  0  0  0
   23.0790   39.2080    9.8340 N   0  0  0  0  0  0  0  0  0  0  0  0
   23.7840   39.7020   10.9600 C   0  0  0  0  0  0  0  0  0  0  0  0
   22.2460   39.7430    9.4510 H   0  0  0  0  0  0  0  0  0  0  0  0
   23.3540   40.9620   11.6010 C   0  0  0  0  0  0  0  0  0  0  0  0
   24.7790   39.1020   11.4510 O   0  0  0  0  0  0  0  0  0  0  0  0
   25.1070   36.0840   10.0950 O   0  0  0  0  0  0  0  0  0  0  0  0
   25.6600   35.3820   10.5210 H   0  0  0  0  0  0  0  0  0  0  0  0
   22.2740   34.2330   11.2510 O   0  0  0  0  0  0  0  0  0  0  0  0
   21.5240   34.7910   11.5570 H   0  0  0  0  0  0  0  0  0  0  0  0
   27.9490   35.4910   13.4980 C   0  0  0  0  0  0  0  0  0  0  0  0
   28.1200   35.6520   12.0600 C   0  0  0  0  0  0  0  0  0  0  0  0
   28.6180   34.7550   11.1540 C   0  0  0  0  0  0  0  0  0  0  0  0
   27.8080   36.7410   11.3420 N   0  0  0  0  0  0  0  0  0  0  0  0
   28.6040   35.2920    9.9260 N   0  0  0  0  0  0  0  0  0  0  0  0
   28.1040   36.5040   10.0760 N   0  0  0  0  0  0  0  0  0  0  0  0
   29.0240   34.7570    8.6430 C   0  0  1  0  0  0  0  0  0  0  0  0
   27.9860   35.0100    7.6120 C   0  0  0  0  0  0  0  0  0  0  0  0
   28.4540   35.6180    6.3440 C   0  0  0  0  0  0  0  0  0  0  0  0
   28.0610   37.0160    6.1770 C   0  0  0  0  0  0  0  0  0  0  0  0
   28.6810   37.9600    6.7790 O   0  0  0  0  0  0  0  0  0  0  0  0
   26.9850   37.3430    5.3480 O   0  0  0  0  0  0  0  0  0  0  0  0
   26.0860   37.4810    5.7880 H   0  0  0  0  0  0  0  0  0  0  0  0
   30.4010   35.0680    8.3010 C   0  0  0  0  0  0  0  0  0  0  0  0
   31.2590   34.2640    7.9410 O   0  0  0  0  0  0  0  0  0  0  0  0
   30.7890   36.4180    8.3980 O   0  0  0  0  0  0  0  0  0  0  0  0
   31.4020   36.6900    9.1470 H   0  0  0  0  0  0  0  0  0  0  0  0
   29.8670   25.5550   16.9770 C   0  0  0  0  0  0  0  0  0  0  0  0
   28.3450   25.7220   17.0260 C   0  0  0  0  0  0  0  0  0  0  0  0
   27.6010   24.4010   16.9030 C   0  0  0  0  0  0  0  0  0  0  0  0
   26.1530   24.5290   17.2840 C   0  0  0  0  0  0  0  0  0  0  0  0
   25.6720   23.2220   17.9060 C   0  0  0  0  0  0  0  0  0  0  0  0
   24.4200   22.7670   17.2550 N   0  0  0  0  0  0  0  0  0  0  0  0
  2  5  2  0  0  0  0
  2  1  1  0  0  0  0
  3  2  1  0  0  0  0
  4  3  1  0  0  0  0
  6  3  1  0  0  0  0
  7  6  1  1  0  0  0
  8 28  1  1  0  0  0
  8  7  1  0  0  0  0
  9  8  1  6  0  0  0
 10 17  1  6  0  0  0
 10 12  1  0  0  0  0
 11 13  1  0  0  0  0
 11 10  1  0  0  0  0
 12  9  1  0  0  0  0
 13 21  1  6  0  0  0
 13 14  1  0  0  0  0
 14 23  1  1  0  0  0
 14  9  1  0  0  0  0
 15 16  1  0  0  0  0
 15 10  1  0  0  0  0
 17 18  2  0  0  0  0
 19 20  1  0  0  0  0
 19 17  1  0  0  0  0
 21 22  1  0  0  0  0
 23 24  1  0  0  0  0
 24 27  2  0  0  0  0
 24 26  1  0  0  0  0
 25 23  1  0  0  0  0
 28 29  1  0  0  0  0
 30  7  1  0  0  0  0
 30 31  1  0  0  0  0
 32  1  1  0  0  0  0
 33 32  1  0  0  0  0
 34 33  2  0  0  0  0
 35 33  1  0  0  0  0
 36 37  1  0  0  0  0
 36 34  1  0  0  0  0
 37 35  2  0  0  0  0
 38 39  1  6  0  0  0
 38 36  1  0  0  0  0
 40 39  1  0  0  0  0
 41 40  1  0  0  0  0
 41 42  2  0  0  0  0
 43 44  1  0  0  0  0
 43 41  1  0  0  0  0
 45 47  1  0  0  0  0
 45 38  1  0  0  0  0
 46 45  2  0  0  0  0
 47 48  1  0  0  0  0
 49 50  1  0  0  0  0
 51 50  1  0  0  0  0
 51 52  1  0  0  0  0
 52 53  1  0  0  0  0
 54 53  1  0  0  0  0
M  END
>  <REMARK>
 VINA RESULT:    -4.298      0.000      0.000
 INTER + INTRA:         -16.132
 INTER:                 -10.596
 INTRA:                  -5.537
 UNBOUND:                -7.438
 SMILES CC(=O)N[C@@H]1[C@@H](O)C[C@](O)(C(=O)O)O[C@H]1C(O)[C@H](O)CNC(=O)OCc1cn([C@@H](CCC(=O)O)C(=O)O)nn1
 SMILES IDX 24 1 22 2 21 3 23 5 20 6 18 7 16 8 15 9 9 10 8 11 14 12 6 13
 SMILES IDX 5 14 10 15 11 17 12 18 13 19 7 21 4 23 2 24 1 26 3 27 17 28
 SMILES IDX 19 30 25 32 26 33 27 34 39 35 28 36 38 37 29 38 30 39 31 40
 SMILES IDX 32 41 33 42 34 43 35 45 36 46 37 47
 H PARENT 21 4 10 16 13 20 7 22 4 25 17 29 19 31 34 44 37 48
 Flexibility Score: inf
  4 active torsions:
  status: ('A' for Active; 'I' for Inactive)
    1  A    between atoms: CA   and  CB  
    2  A    between atoms: CB   and  CG  
    3  A    between atoms: CG   and  CD  
    4  A    between atoms: CD   and  CE  

>  <TORSDO>
F 21

>  <BEGIN_>
RES LYS A 131

$$$$
ligand_11_pose_0_2HRL.pdbqt
 OpenBabel07062320523D

  6  5  0  0  0  0  0  0  0  0999 V2000
   33.1930   34.6630    9.2900 C   0  0  0  0  0  0  0  0  0  0  0  0
   32.0600   35.3600   10.0340 C   0  0  0  0  0  0  0  0  0  0  0  0
   32.4100   35.7320   11.4520 C   0  0  0  0  0  0  0  0  0  0  0  0
   31.6370   36.9680   11.8880 C   0  0  0  0  0  0  0  0  0  0  0  0
   31.6940   37.1270   13.3950 C   0  0  0  0  0  0  0  0  0  0  0  0
   30.6510   38.0750   13.8750 N   0  0  0  0  0  0  0  0  0  0  0  0
  1  2  1  0  0  0  0
  2  3  1  0  0  0  0
  3  4  1  0  0  0  0
  4  5  1  0  0  0  0
  5  6  1  0  0  0  0
M  END
>  <EGIN_R>
ES LYS A 135

>  <REMARK>
  4 active torsions:
  status: ('A' for Active; 'I' for Inactive)
    5  A    between atoms: CA   and  CB  
    6  A    between atoms: CB   and  CG  
    7  A    between atoms: CG   and  CD  
    8  A    between atoms: CD   and  CE  

$$$$
ligand_12_pose_0_2HRL.pdbqt
 OpenBabel07062320523D

 52 53  0  0  1  0  0  0  0  0999 V2000
   22.1470   38.4680    7.8740 N   0  0  0  0  0  0  0  0  0  0  0  0
   21.4690   38.1490    9.0870 C   0  0  0  0  0  0  0  0  0  0  0  0
   21.5640   38.8950   10.1090 O   0  0  0  0  0  0  0  0  0  0  0  0
   22.0460   37.8380    7.0620 H   0  0  0  0  0  0  0  0  0  0  0  0
   22.9450   39.6770    7.8610 C   0  0  0  0  0  0  0  0  0  0  0  0
   24.3280   39.4390    7.3170 C   0  0  2  0  0  0  0  0  0  0  0  0
   25.3060   39.2520    8.4570 C   0  0  2  0  0  0  0  0  0  0  0  0
   26.5790   38.6030    8.0260 C   0  0  2  0  0  0  0  0  0  0  0  0
   27.5610   37.6250    6.1530 C   0  0  2  0  0  0  0  0  0  0  0  0
   28.4790   36.9380    7.1550 C   0  0  0  0  0  0  0  0  0  0  0  0
   26.3990   38.1180    6.7350 O   0  0  0  0  0  0  0  0  0  0  0  0
   27.5890   36.3340    8.2190 C   0  0  1  0  0  0  0  0  0  0  0  0
   27.0040   37.5110    8.9830 C   0  0  1  0  0  0  0  0  0  0  0  0
   27.1550   36.6240    5.2730 O   0  0  0  0  0  0  0  0  0  0  0  0
   27.8140   36.4740    4.5490 H   0  0  0  0  0  0  0  0  0  0  0  0
   28.2930   38.6490    5.3980 C   0  0  0  0  0  0  0  0  0  0  0  0
   29.5040   38.8610    5.6580 O   0  0  0  0  0  0  0  0  0  0  0  0
   27.7200   39.4180    4.3920 O   0  0  0  0  0  0  0  0  0  0  0  0
   28.3400   39.9640    3.8020 H   0  0  0  0  0  0  0  0  0  0  0  0
   26.5740   35.5630    7.6600 O   0  0  0  0  0  0  0  0  0  0  0  0
   26.0270   36.1510    7.0540 H   0  0  0  0  0  0  0  0  0  0  0  0
   28.0530   38.0170    9.8430 N   0  0  0  0  0  0  0  0  0  0  0  0
   27.7980   38.2380   11.2230 C   0  0  0  0  0  0  0  0  0  0  0  0
   29.0220   38.2370    9.5050 H   0  0  0  0  0  0  0  0  0  0  0  0
   28.8400   38.7550   12.1520 C   0  0  0  0  0  0  0  0  0  0  0  0
   26.6640   37.9990   11.7120 O   0  0  0  0  0  0  0  0  0  0  0  0
   24.6750   38.6450    9.5150 O   0  0  0  0  0  0  0  0  0  0  0  0
   25.3320   38.0240    9.9400 H   0  0  0  0  0  0  0  0  0  0  0  0
   24.6860   40.5100    6.5080 O   0  0  0  0  0  0  0  0  0  0  0  0
   23.9700   41.1990    6.5250 H   0  0  0  0  0  0  0  0  0  0  0  0
   20.6760   37.0160    9.2160 O   0  0  0  0  0  0  0  0  0  0  0  0
   21.1670   35.6960    9.1060 C   0  0  0  0  0  0  0  0  0  0  0  0
   22.4780   35.5140    9.7670 C   0  0  0  0  0  0  0  0  0  0  0  0
   22.7930   35.1640   11.0630 C   0  0  0  0  0  0  0  0  0  0  0  0
   23.6630   35.6760    9.1530 N   0  0  0  0  0  0  0  0  0  0  0  0
   24.1410   35.1240   11.2010 N   0  0  0  0  0  0  0  0  0  0  0  0
   24.6280   35.4410   10.0160 N   0  0  0  0  0  0  0  0  0  0  0  0
   24.9060   34.7960   12.4140 C   0  0  0  0  0  0  0  0  0  0  0  0
   25.1020   33.4200   12.4750 O   0  0  0  0  0  0  0  0  0  0  0  0
   24.4180   32.8330   13.5140 C   0  0  0  0  0  0  0  0  0  0  0  0
   23.6670   31.6160   13.1450 C   0  0  0  0  0  0  0  0  0  0  0  0
   22.3250   31.7070   12.8350 C   0  0  0  0  0  0  0  0  0  0  0  0
   24.2790   30.3890   13.0970 C   0  0  0  0  0  0  0  0  0  0  0  0
   21.5960   30.5700   12.4770 C   0  0  0  0  0  0  0  0  0  0  0  0
   23.5510   29.2650   12.7410 C   0  0  0  0  0  0  0  0  0  0  0  0
   22.2290   29.3430   12.4350 C   0  0  0  0  0  0  0  0  0  0  0  0
   29.8670   25.5550   16.9770 C   0  0  0  0  0  0  0  0  0  0  0  0
   28.3450   25.7220   17.0260 C   0  0  0  0  0  0  0  0  0  0  0  0
   27.5990   24.4320   16.7210 C   0  0  0  0  0  0  0  0  0  0  0  0
   26.9820   23.8300   17.9530 C   0  0  0  0  0  0  0  0  0  0  0  0
   25.5950   23.2920   17.6170 C   0  0  0  0  0  0  0  0  0  0  0  0
   24.7470   24.3640   17.0460 N   0  0  0  0  0  0  0  0  0  0  0  0
  1  2  1  0  0  0  0
  2 31  1  0  0  0  0
  2  3  2  0  0  0  0
  4  1  1  0  0  0  0
  5  1  1  0  0  0  0
  6  5  1  1  0  0  0
  6  7  1  0  0  0  0
  7 27  1  1  0  0  0
  8  7  1  1  0  0  0
  8 13  1  0  0  0  0
  9 14  1  6  0  0  0
  9 11  1  0  0  0  0
  9 10  1  0  0  0  0
 10 12  1  0  0  0  0
 11  8  1  0  0  0  0
 12 20  1  6  0  0  0
 12 13  1  0  0  0  0
 13 22  1  1  0  0  0
 15 14  1  0  0  0  0
 16 17  2  0  0  0  0
 16  9  1  0  0  0  0
 18 16  1  0  0  0  0
 19 18  1  0  0  0  0
 21 20  1  0  0  0  0
 22 23  1  0  0  0  0
 23 26  2  0  0  0  0
 23 25  1  0  0  0  0
 24 22  1  0  0  0  0
 27 28  1  0  0  0  0
 29 30  1  0  0  0  0
 29  6  1  0  0  0  0
 32 31  1  0  0  0  0
 32 33  1  0  0  0  0
 33 34  2  0  0  0  0
 34 36  1  0  0  0  0
 35 33  1  0  0  0  0
 35 37  2  0  0  0  0
 36 38  1  0  0  0  0
 37 36  1  0  0  0  0
 38 39  1  0  0  0  0
 39 40  1  0  0  0  0
 41 40  1  0  0  0  0
 42 41  2  0  0  0  0
 43 41  1  0  0  0  0
 44 42  1  0  0  0  0
 45 43  2  0  0  0  0
 46 44  2  0  0  0  0
 46 45  1  0  0  0  0
 47 48  1  0  0  0  0
 49 48  1  0  0  0  0
 49 50  1  0  0  0  0
 51 50  1  0  0  0  0
 52 51  1  0  0  0  0
M  END
>  <REMARK>
 VINA RESULT:    -6.674      0.000      0.000
 INTER + INTRA:         -16.495
 INTER:                 -10.086
 INTRA:                  -6.409
 UNBOUND:                -3.774
 SMILES CC(=O)N[C@@H]1[C@@H](O)C[C@](O)(C(=O)O)O[C@H]1C(O)[C@H](O)CNC(=O)OCc1cn(COCc2ccccc2)nn1
 SMILES IDX 21 1 22 2 23 3 20 5 18 6 16 7 15 8 9 9 8 10 14 11 6 12 5 13
 SMILES IDX 10 14 11 16 12 17 13 18 7 20 4 22 2 23 1 25 3 26 17 27 19 29
 SMILES IDX 24 31 25 32 26 33 27 34 39 35 28 36 38 37 29 38 30 39 31 40
 SMILES IDX 32 41 33 42 37 43 34 44 36 45 35 46
 H PARENT 21 4 10 15 13 19 7 21 4 24 17 28 19 30
 Flexibility Score: inf
  4 active torsions:
  status: ('A' for Active; 'I' for Inactive)
    1  A    between atoms: CA   and  CB  
    2  A    between atoms: CB   and  CG  
    3  A    between atoms: CG   and  CD  
    4  A    between atoms: CD   and  CE  

>  <TORSDO>
F 18

>  <BEGIN_>
RES LYS A 131

$$$$
ligand_12_pose_0_2HRL.pdbqt
 OpenBabel07062320523D

  6  5  0  0  0  0  0  0  0  0999 V2000
   33.1930   34.6630    9.2900 C   0  0  0  0  0  0  0  0  0  0  0  0
   32.0600   35.3600   10.0340 C   0  0  0  0  0  0  0  0  0  0  0  0
   30.6890   34.9780    9.5390 C   0  0  0  0  0  0  0  0  0  0  0  0
   29.7440   34.7380   10.7060 C   0  0  0  0  0  0  0  0  0  0  0  0
   30.3140   35.3280   11.9820 C   0  0  0  0  0  0  0  0  0  0  0  0
   29.9800   34.4810   13.1600 N   0  0  0  0  0  0  0  0  0  0  0  0
  1  2  1  0  0  0  0
  3  2  1  0  0  0  0
  3  4  1  0  0  0  0
  4  5  1  0  0  0  0
  5  6  1  0  0  0  0
M  END
>  <EGIN_R>
ES LYS A 135

>  <REMARK>
  4 active torsions:
  status: ('A' for Active; 'I' for Inactive)
    5  A    between atoms: CA   and  CB  
    6  A    between atoms: CB   and  CG  
    7  A    between atoms: CG   and  CD  
    8  A    between atoms: CD   and  CE  

$$$$
ligand_13_pose_0_2HRL.pdbqt
 OpenBabel07062320523D

 49 49  0  0  1  0  0  0  0  0999 V2000
   27.8480   29.0760   17.8480 N   0  0  0  0  0  0  0  0  0  0  0  0
   27.1140   28.7090   18.9980 C   0  0  0  0  0  0  0  0  0  0  0  0
   25.8840   28.5940   18.9940 O   0  0  0  0  0  0  0  0  0  0  0  0
   28.9080   29.1260   18.0150 H   0  0  0  0  0  0  0  0  0  0  0  0
   27.3150   29.3680   16.5570 C   0  0  0  0  0  0  0  0  0  0  0  0
   27.3210   30.7930   16.1250 C   0  0  2  0  0  0  0  0  0  0  0  0
   28.6440   31.2900   15.6630 C   0  0  1  0  0  0  0  0  0  0  0  0
   28.9840   32.7090   16.0310 C   0  0  2  0  0  0  0  0  0  0  0  0
   30.5300   33.6300   14.5370 C   0  0  2  0  0  0  0  0  0  0  0  0
   31.0580   34.6630   15.5090 C   0  0  0  0  0  0  0  0  0  0  0  0
   29.2270   33.3700   14.8290 O   0  0  0  0  0  0  0  0  0  0  0  0
   30.7260   34.2540   16.8960 C   0  0  1  0  0  0  0  0  0  0  0  0
   30.1360   32.8370   16.9870 C   0  0  1  0  0  0  0  0  0  0  0  0
   31.3980   32.5540   14.5850 O   0  0  0  0  0  0  0  0  0  0  0  0
   31.2650   32.0240   13.7660 H   0  0  0  0  0  0  0  0  0  0  0  0
   30.5930   34.2470   13.1930 C   0  0  0  0  0  0  0  0  0  0  0  0
   29.5230   34.5230   12.6100 O   0  0  0  0  0  0  0  0  0  0  0  0
   31.7890   34.5210   12.5800 O   0  0  0  0  0  0  0  0  0  0  0  0
   32.2950   35.3920   12.7380 H   0  0  0  0  0  0  0  0  0  0  0  0
   31.8010   34.3410   17.7770 O   0  0  0  0  0  0  0  0  0  0  0  0
   32.5990   33.8610   17.4770 H   0  0  0  0  0  0  0  0  0  0  0  0
   29.7030   32.7290   18.3650 N   0  0  0  0  0  0  0  0  0  0  0  0
   29.8920   31.6080   19.1910 C   0  0  0  0  0  0  0  0  0  0  0  0
   29.2130   33.5540   18.7730 H   0  0  0  0  0  0  0  0  0  0  0  0
   29.4410   31.5180   20.6010 C   0  0  0  0  0  0  0  0  0  0  0  0
   30.4910   30.6100   18.6820 O   0  0  0  0  0  0  0  0  0  0  0  0
   29.6500   30.4040   15.9660 O   0  0  0  0  0  0  0  0  0  0  0  0
   29.9780   29.8760   15.1960 H   0  0  0  0  0  0  0  0  0  0  0  0
   26.9760   31.5850   17.2400 O   0  0  0  0  0  0  0  0  0  0  0  0
   27.8000   31.9800   17.6520 H   0  0  0  0  0  0  0  0  0  0  0  0
   27.7730   28.4560   20.2230 O   0  0  0  0  0  0  0  0  0  0  0  0
   28.7080   27.4000   20.3420 C   0  0  0  0  0  0  0  0  0  0  0  0
   29.4670   27.6390   21.5980 C   0  0  0  0  0  0  0  0  0  0  0  0
   30.6230   27.0250   22.0210 C   0  0  0  0  0  0  0  0  0  0  0  0
   29.1630   28.5220   22.5890 N   0  0  0  0  0  0  0  0  0  0  0  0
   30.9540   27.5610   23.2290 N   0  0  0  0  0  0  0  0  0  0  0  0
   30.0460   28.4680   23.5440 N   0  0  0  0  0  0  0  0  0  0  0  0
   32.0890   27.2310   24.0590 C   0  0  0  0  0  0  0  0  0  0  0  0
   33.3520   27.4570   23.3410 C   0  0  0  0  0  0  0  0  0  0  0  0
   34.2550   26.5950   23.4080 O   0  0  0  0  0  0  0  0  0  0  0  0
   33.4970   28.6340   22.6060 O   0  0  0  0  0  0  0  0  0  0  0  0
   34.6300   29.4400   22.9450 C   0  0  0  0  0  0  0  0  0  0  0  0
   34.5330   30.7240   22.1610 C   0  0  0  0  0  0  0  0  0  0  0  0
   29.8670   25.5550   16.9770 C   0  0  0  0  0  0  0  0  0  0  0  0
   28.3450   25.7220   17.0260 C   0  0  0  0  0  0  0  0  0  0  0  0
   27.6010   24.4020   16.8890 C   0  0  0  0  0  0  0  0  0  0  0  0
   26.1720   24.5080   17.3460 C   0  0  0  0  0  0  0  0  0  0  0  0
   26.1330   25.0260   18.7800 C   0  0  0  0  0  0  0  0  0  0  0  0
   24.7430   25.3520   19.1760 N   0  0  0  0  0  0  0  0  0  0  0  0
  1  4  1  0  0  0  0
  1  2  1  0  0  0  0
  2 31  1  0  0  0  0
  3  2  2  0  0  0  0
  5  1  1  0  0  0  0
  6  5  1  1  0  0  0
  6 29  1  0  0  0  0
  7 27  1  1  0  0  0
  7  6  1  0  0  0  0
  8  7  1  6  0  0  0
  8 13  1  0  0  0  0
  9 16  1  6  0  0  0
  9 14  1  0  0  0  0
  9 11  1  0  0  0  0
  9 10  1  0  0  0  0
 10 12  1  0  0  0  0
 11  8  1  0  0  0  0
 12 13  1  0  0  0  0
 12 20  1  1  0  0  0
 13 22  1  1  0  0  0
 15 14  1  0  0  0  0
 17 16  2  0  0  0  0
 18 19  1  0  0  0  0
 18 16  1  0  0  0  0
 21 20  1  0  0  0  0
 22 24  1  0  0  0  0
 22 23  1  0  0  0  0
 23 25  1  0  0  0  0
 26 23  2  0  0  0  0
 28 27  1  0  0  0  0
 29 30  1  0  0  0  0
 31 32  1  0  0  0  0
 32 33  1  0  0  0  0
 33 34  2  0  0  0  0
 33 35  1  0  0  0  0
 34 36  1  0  0  0  0
 35 37  2  0  0  0  0
 36 37  1  0  0  0  0
 36 38  1  0  0  0  0
 39 40  2  0  0  0  0
 39 38  1  0  0  0  0
 41 42  1  0  0  0  0
 41 39  1  0  0  0  0
 43 42  1  0  0  0  0
 44 45  1  0  0  0  0
 46 45  1  0  0  0  0
 46 47  1  0  0  0  0
 47 48  1  0  0  0  0
 48 49  1  0  0  0  0
M  END
>  <REMARK>
 VINA RESULT:    -4.566      0.000      0.000
 INTER + INTRA:         -14.654
 INTER:                  -8.738
 INTRA:                  -5.916
 UNBOUND:                -5.949
 SMILES CCOC(=O)Cn1cc(COC(=O)NC[C@@H](O)C(O)[C@@H]2O[C@@](O)(C(=O)O)C[C@H](O)[C@H]2NC(C)=O)nn1
 SMILES IDX 14 1 12 2 13 3 15 5 16 6 18 7 20 8 22 9 27 10 21 11 28 12
 SMILES IDX 30 13 23 14 24 16 25 17 26 18 29 20 31 22 32 23 33 25 34 26
 SMILES IDX 19 27 17 29 11 31 10 32 9 33 8 34 35 35 7 36 36 37 6 38 4 39
 SMILES IDX 5 40 3 41 2 42 1 43
 H PARENT 14 4 23 15 26 19 29 21 31 24 19 28 17 30
 Flexibility Score: inf
  4 active torsions:
  status: ('A' for Active; 'I' for Inactive)
    1  A    between atoms: CA   and  CB  
    2  A    between atoms: CB   and  CG  
    3  A    between atoms: CG   and  CD  
    4  A    between atoms: CD   and  CE  

>  <TORSDO>
F 18

>  <BEGIN_>
RES LYS A 131

$$$$
ligand_13_pose_0_2HRL.pdbqt
 OpenBabel07062320523D

  6  5  0  0  0  0  0  0  0  0999 V2000
   33.1930   34.6630    9.2900 C   0  0  0  0  0  0  0  0  0  0  0  0
   32.0600   35.3600   10.0340 C   0  0  0  0  0  0  0  0  0  0  0  0
   30.8090   35.5240    9.2100 C   0  0  0  0  0  0  0  0  0  0  0  0
   30.0990   34.1890    9.0410 C   0  0  0  0  0  0  0  0  0  0  0  0
   28.6270   34.4030    8.7470 C   0  0  0  0  0  0  0  0  0  0  0  0
   27.7740   33.6080    9.6730 N   0  0  0  0  0  0  0  0  0  0  0  0
  1  2  1  0  0  0  0
  3  2  1  0  0  0  0
  4  3  1  0  0  0  0
  5  4  1  0  0  0  0
  5  6  1  0  0  0  0
M  END
>  <EGIN_R>
ES LYS A 135

>  <REMARK>
  4 active torsions:
  status: ('A' for Active; 'I' for Inactive)
    5  A    between atoms: CA   and  CB  
    6  A    between atoms: CB   and  CG  
    7  A    between atoms: CG   and  CD  
    8  A    between atoms: CD   and  CE  

$$$$
ligand_14_pose_0_2HRL.pdbqt
 OpenBabel07062320523D

 50 51  0  0  1  0  0  0  0  0999 V2000
   27.4500   37.9520    8.8600 N   0  0  0  0  0  0  0  0  0  0  0  0
   26.3130   37.5260    9.5690 C   0  0  0  0  0  0  0  0  0  0  0  0
   25.3110   37.1190    8.9680 O   0  0  0  0  0  0  0  0  0  0  0  0
   28.2560   38.2950    9.4850 H   0  0  0  0  0  0  0  0  0  0  0  0
   27.6210   37.9680    7.4420 C   0  0  0  0  0  0  0  0  0  0  0  0
   29.0540   37.7220    7.0690 C   0  0  2  0  0  0  0  0  0  0  0  0
   29.7950   39.0320    6.8130 C   0  0  1  0  0  0  0  0  0  0  0  0
   30.9390   39.0900    7.8410 C   0  0  2  0  0  0  0  0  0  0  0  0
   30.3400   40.0220    9.9080 C   0  0  2  0  0  0  0  0  0  0  0  0
   30.4620   41.3620    9.2100 C   0  0  0  0  0  0  0  0  0  0  0  0
   30.4600   38.9380    9.0950 O   0  0  0  0  0  0  0  0  0  0  0  0
   31.7220   41.4230    8.4190 C   0  0  1  0  0  0  0  0  0  0  0  0
   31.8800   40.2050    7.5670 C   0  0  1  0  0  0  0  0  0  0  0  0
   29.0110   39.9980   10.3980 O   0  0  0  0  0  0  0  0  0  0  0  0
   28.5430   39.2110    9.9830 H   0  0  0  0  0  0  0  0  0  0  0  0
   31.2270   39.9490   11.0930 C   0  0  0  0  0  0  0  0  0  0  0  0
   31.3920   40.9640   11.8050 O   0  0  0  0  0  0  0  0  0  0  0  0
   31.8760   38.7750   11.4260 O   0  0  0  0  0  0  0  0  0  0  0  0
   31.3710   38.0690   11.9440 H   0  0  0  0  0  0  0  0  0  0  0  0
   31.6900   42.5770    7.6450 O   0  0  0  0  0  0  0  0  0  0  0  0
   31.0210   42.4830    6.9140 H   0  0  0  0  0  0  0  0  0  0  0  0
   33.2660   39.7390    7.5370 N   0  0  0  0  0  0  0  0  0  0  0  0
   33.9630   39.5120    6.3450 C   0  0  0  0  0  0  0  0  0  0  0  0
   33.7200   39.5800    8.4560 H   0  0  0  0  0  0  0  0  0  0  0  0
   35.3690   39.0380    6.4090 C   0  0  0  0  0  0  0  0  0  0  0  0
   33.3980   39.7080    5.2200 O   0  0  0  0  0  0  0  0  0  0  0  0
   30.3140   38.9750    5.5240 O   0  0  0  0  0  0  0  0  0  0  0  0
   30.8960   39.7180    5.2910 H   0  0  0  0  0  0  0  0  0  0  0  0
   29.2390   36.8310    6.0370 O   0  0  0  0  0  0  0  0  0  0  0  0
   28.5530   36.1270    5.9640 H   0  0  0  0  0  0  0  0  0  0  0  0
   26.2520   37.5410   10.9660 O   0  0  0  0  0  0  0  0  0  0  0  0
   26.5760   36.3850   11.7120 C   0  0  0  0  0  0  0  0  0  0  0  0
   28.0200   36.3160   12.0480 C   0  0  0  0  0  0  0  0  0  0  0  0
   28.7220   35.2070   12.5250 C   0  0  0  0  0  0  0  0  0  0  0  0
   28.9490   37.2850   11.9700 N   0  0  0  0  0  0  0  0  0  0  0  0
   30.0140   35.5230   12.7180 N   0  0  0  0  0  0  0  0  0  0  0  0
   30.1080   36.8140   12.3630 N   0  0  0  0  0  0  0  0  0  0  0  0
   31.0970   34.6920   13.2020 C   0  0  0  0  0  0  0  0  0  0  0  0
   31.2270   34.7120   14.6880 C   0  0  0  0  0  0  0  0  0  0  0  0
   31.4630   33.4220   15.2860 N   0  0  0  0  0  0  0  0  0  0  0  0
   31.5290   33.6020   16.7270 C   0  0  0  0  0  0  0  0  0  0  0  0
   30.3670   32.5020   15.0530 C   0  0  0  0  0  0  0  0  0  0  0  0
   30.7490   32.4970   17.3620 C   0  0  0  0  0  0  0  0  0  0  0  0
   30.5290   31.5380   16.2110 C   0  0  0  0  0  0  0  0  0  0  0  0
   29.8670   25.5550   16.9770 C   0  0  0  0  0  0  0  0  0  0  0  0
   28.3450   25.7220   17.0260 C   0  0  0  0  0  0  0  0  0  0  0  0
   27.5990   24.4360   16.7040 C   0  0  0  0  0  0  0  0  0  0  0  0
   26.9630   23.8300   17.9240 C   0  0  0  0  0  0  0  0  0  0  0  0
   25.5650   23.3310   17.5750 C   0  0  0  0  0  0  0  0  0  0  0  0
   24.5390   24.0970   18.3220 N   0  0  0  0  0  0  0  0  0  0  0  0
  1  4  1  0  0  0  0
  1  2  1  0  0  0  0
  2 31  1  0  0  0  0
  3  2  2  0  0  0  0
  5  1  1  0  0  0  0
  6  5  1  6  0  0  0
  7 27  1  6  0  0  0
  7  6  1  0  0  0  0
  8  7  1  6  0  0  0
  8 11  1  0  0  0  0
  9 14  1  1  0  0  0
  9 16  1  0  0  0  0
 10  9  1  0  0  0  0
 11  9  1  0  0  0  0
 12 20  1  6  0  0  0
 12 10  1  0  0  0  0
 13 22  1  1  0  0  0
 13  8  1  0  0  0  0
 13 12  1  0  0  0  0
 15 14  1  0  0  0  0
 16 18  1  0  0  0  0
 16 17  2  0  0  0  0
 18 19  1  0  0  0  0
 21 20  1  0  0  0  0
 22 24  1  0  0  0  0
 23 25  1  0  0  0  0
 23 22  1  0  0  0  0
 26 23  2  0  0  0  0
 28 27  1  0  0  0  0
 29  6  1  0  0  0  0
 30 29  1  0  0  0  0
 31 32  1  0  0  0  0
 32 33  1  0  0  0  0
 33 34  2  0  0  0  0
 34 36  1  0  0  0  0
 35 33  1  0  0  0  0
 35 37  2  0  0  0  0
 36 38  1  0  0  0  0
 37 36  1  0  0  0  0
 38 39  1  0  0  0  0
 39 40  1  0  0  0  0
 40 41  1  0  0  0  0
 41 43  1  0  0  0  0
 42 40  1  0  0  0  0
 42 44  1  0  0  0  0
 44 43  1  0  0  0  0
 45 46  1  0  0  0  0
 47 46  1  0  0  0  0
 47 48  1  0  0  0  0
 49 48  1  0  0  0  0
 49 50  1  0  0  0  0
M  END
>  <REMARK>
 VINA RESULT:    -4.688      0.000      0.000
 INTER + INTRA:         -14.655
 INTER:                  -8.425
 INTRA:                  -6.230
 UNBOUND:                -5.994
 SMILES CC(=O)N[C@@H]1[C@@H](O)C[C@](O)(C(=O)O)O[C@H]1C(O)[C@H](O)CNC(=O)OCc1cn(CCN2CCCC2)nn1
 SMILES IDX 21 1 22 2 23 3 20 5 18 6 16 7 15 8 9 9 8 10 14 11 6 12 5 13
 SMILES IDX 10 14 11 16 12 17 13 18 7 20 4 22 2 23 1 25 3 26 17 27 19 29
 SMILES IDX 24 31 25 32 26 33 27 34 37 35 28 36 36 37 29 38 30 39 31 40
 SMILES IDX 32 41 35 42 33 43 34 44
 H PARENT 21 4 10 15 13 19 7 21 4 24 17 28 19 30
 Flexibility Score: inf
  4 active torsions:
  status: ('A' for Active; 'I' for Inactive)
    1  A    between atoms: CA   and  CB  
    2  A    between atoms: CB   and  CG  
    3  A    between atoms: CG   and  CD  
    4  A    between atoms: CD   and  CE  

>  <TORSDO>
F 17

>  <BEGIN_>
RES LYS A 131

$$$$
ligand_14_pose_0_2HRL.pdbqt
 OpenBabel07062320523D

  6  5  0  0  0  0  0  0  0  0999 V2000
   33.1930   34.6630    9.2900 C   0  0  0  0  0  0  0  0  0  0  0  0
   32.0600   35.3600   10.0340 C   0  0  0  0  0  0  0  0  0  0  0  0
   30.8010   35.5030    9.2180 C   0  0  0  0  0  0  0  0  0  0  0  0
   30.0390   34.1880    9.1730 C   0  0  0  0  0  0  0  0  0  0  0  0
   28.6200   34.4110    8.6860 C   0  0  0  0  0  0  0  0  0  0  0  0
   27.6420   33.6590    9.5190 N   0  0  0  0  0  0  0  0  0  0  0  0
  1  2  1  0  0  0  0
  3  2  1  0  0  0  0
  4  3  1  0  0  0  0
  5  4  1  0  0  0  0
  5  6  1  0  0  0  0
M  END
>  <EGIN_R>
ES LYS A 135

>  <REMARK>
  4 active torsions:
  status: ('A' for Active; 'I' for Inactive)
    5  A    between atoms: CA   and  CB  
    6  A    between atoms: CB   and  CG  
    7  A    between atoms: CG   and  CD  
    8  A    between atoms: CD   and  CE  

$$$$
ligand_15_pose_0_2HRL.pdbqt
 OpenBabel07062320523D

 50 51  0  0  1  0  0  0  0  0999 V2000
   30.2040   27.3800   21.2550 C   0  0  0  0  0  0  0  0  0  0  0  0
   31.6550   27.6650   21.0050 C   0  0  2  0  0  0  0  0  0  0  0  0
   31.9930   29.0900   20.7450 C   0  0  2  0  0  0  0  0  0  0  0  0
   32.9090   29.7110   21.7800 C   0  0  2  0  0  0  0  0  0  0  0  0
   34.0390   28.9700   23.6980 C   0  0  2  0  0  0  0  0  0  0  0  0
   33.7870   30.3490   24.2400 C   0  0  0  0  0  0  0  0  0  0  0  0
   33.2210   28.6840   22.6610 O   0  0  0  0  0  0  0  0  0  0  0  0
   32.3370   30.6900   23.9880 C   0  0  1  0  0  0  0  0  0  0  0  0
   32.1620   30.8190   22.4680 C   0  0  1  0  0  0  0  0  0  0  0  0
   33.7550   28.0200   24.7180 O   0  0  0  0  0  0  0  0  0  0  0  0
   33.4130   28.5600   25.4770 H   0  0  0  0  0  0  0  0  0  0  0  0
   35.4580   28.7970   23.2800 C   0  0  0  0  0  0  0  0  0  0  0  0
   36.0320   27.6950   23.2450 O   0  0  0  0  0  0  0  0  0  0  0  0
   36.1850   29.9160   22.9120 O   0  0  0  0  0  0  0  0  0  0  0  0
   36.3180   30.1950   21.9390 H   0  0  0  0  0  0  0  0  0  0  0  0
   31.5750   29.5890   24.3730 O   0  0  0  0  0  0  0  0  0  0  0  0
   32.0260   28.7350   24.2340 H   0  0  0  0  0  0  0  0  0  0  0  0
   32.7590   32.0800   22.1250 N   0  0  0  0  0  0  0  0  0  0  0  0
   32.1290   33.0700   21.3350 C   0  0  0  0  0  0  0  0  0  0  0  0
   33.7270   32.3130   22.4690 H   0  0  0  0  0  0  0  0  0  0  0  0
   32.7930   34.3650   21.0020 C   0  0  0  0  0  0  0  0  0  0  0  0
   30.9790   32.8550   20.9000 O   0  0  0  0  0  0  0  0  0  0  0  0
   30.7810   29.8210   20.6800 O   0  0  0  0  0  0  0  0  0  0  0  0
   30.2130   29.5020   21.4140 H   0  0  0  0  0  0  0  0  0  0  0  0
   32.0470   26.8980   19.8860 O   0  0  0  0  0  0  0  0  0  0  0  0
   32.1920   27.4770   19.0970 H   0  0  0  0  0  0  0  0  0  0  0  0
   29.4030   27.1860   20.0910 N   0  0  0  0  0  0  0  0  0  0  0  0
   28.1820   27.9350   19.9220 C   0  0  0  0  0  0  0  0  0  0  0  0
   29.6030   26.5280   19.3110 H   0  0  0  0  0  0  0  0  0  0  0  0
   27.8670   28.7450   20.8260 O   0  0  0  0  0  0  0  0  0  0  0  0
   27.3840   27.7670   18.8010 O   0  0  0  0  0  0  0  0  0  0  0  0
   26.7150   28.9290   18.3290 C   0  0  0  0  0  0  0  0  0  0  0  0
   27.6760   29.6520   17.4470 C   0  0  0  0  0  0  0  0  0  0  0  0
   28.4710   30.7260   17.7990 C   0  0  0  0  0  0  0  0  0  0  0  0
   27.9630   29.4080   16.1540 N   0  0  0  0  0  0  0  0  0  0  0  0
   29.2000   31.0960   16.7330 N   0  0  0  0  0  0  0  0  0  0  0  0
   28.8630   30.2760   15.7640 N   0  0  0  0  0  0  0  0  0  0  0  0
   30.1560   32.1450   16.6050 C   0  0  0  0  0  0  0  0  0  0  0  0
   30.4030   33.0470   17.6210 C   0  0  0  0  0  0  0  0  0  0  0  0
   30.8830   32.3010   15.4430 C   0  0  0  0  0  0  0  0  0  0  0  0
   31.3350   34.0590   17.4830 C   0  0  0  0  0  0  0  0  0  0  0  0
   31.8210   33.3160   15.2980 C   0  0  0  0  0  0  0  0  0  0  0  0
   32.0620   34.2100   16.3150 C   0  0  0  0  0  0  0  0  0  0  0  0
   33.3330   35.6230   16.1780 Br  0  0  0  0  0  0  0  0  0  0  0  0
   29.8670   25.5550   16.9770 C   0  0  0  0  0  0  0  0  0  0  0  0
   28.3450   25.7220   17.0260 C   0  0  0  0  0  0  0  0  0  0  0  0
   27.5990   24.4250   16.7500 C   0  0  0  0  0  0  0  0  0  0  0  0
   26.9210   23.8900   17.9800 C   0  0  0  0  0  0  0  0  0  0  0  0
   25.6860   24.7310   18.2880 C   0  0  0  0  0  0  0  0  0  0  0  0
   25.5610   24.9530   19.7480 N   0  0  0  0  0  0  0  0  0  0  0  0
  2  1  1  6  0  0  0
  3 23  1  1  0  0  0
  3  2  1  0  0  0  0
  4  3  1  6  0  0  0
  4  9  1  0  0  0  0
  4  7  1  0  0  0  0
  5 12  1  6  0  0  0
  5  6  1  0  0  0  0
  5 10  1  0  0  0  0
  7  5  1  0  0  0  0
  8  6  1  0  0  0  0
  8 16  1  6  0  0  0
  9 18  1  6  0  0  0
  9  8  1  0  0  0  0
 10 11  1  0  0  0  0
 13 12  2  0  0  0  0
 14 12  1  0  0  0  0
 15 14  1  0  0  0  0
 17 16  1  0  0  0  0
 18 20  1  0  0  0  0
 19 18  1  0  0  0  0
 21 19  1  0  0  0  0
 22 19  2  0  0  0  0
 23 24  1  0  0  0  0
 25  2  1  0  0  0  0
 26 25  1  0  0  0  0
 27  1  1  0  0  0  0
 28 27  1  0  0  0  0
 28 30  2  0  0  0  0
 29 27  1  0  0  0  0
 31 28  1  0  0  0  0
 32 31  1  0  0  0  0
 33 34  2  0  0  0  0
 33 32  1  0  0  0  0
 35 33  1  0  0  0  0
 36 34  1  0  0  0  0
 37 35  2  0  0  0  0
 37 36  1  0  0  0  0
 38 36  1  0  0  0  0
 38 39  2  0  0  0  0
 40 38  1  0  0  0  0
 41 39  1  0  0  0  0
 42 40  2  0  0  0  0
 42 43  1  0  0  0  0
 43 41  2  0  0  0  0
 44 43  1  0  0  0  0
 45 46  1  0  0  0  0
 47 46  1  0  0  0  0
 47 48  1  0  0  0  0
 48 49  1  0  0  0  0
 49 50  1  0  0  0  0
M  END
>  <REMARK>
 VINA RESULT:    -5.978      0.000      0.000
 INTER + INTRA:         -15.508
 INTER:                  -9.621
 INTRA:                  -5.886
 UNBOUND:                -5.161
 SMILES CC(=O)N[C@@H]1[C@@H](O)C[C@](O)(C(=O)O)O[C@H]1C(O)[C@H](O)CNC(=O)OCc1cn(-c2ccc(Br)cc2)nn1
 SMILES IDX 20 1 18 2 16 3 15 4 9 5 8 6 14 7 6 8 5 9 10 10 11 12 12 13
 SMILES IDX 13 14 7 16 4 18 2 19 1 21 3 22 17 23 19 25 21 27 22 28 23 30
 SMILES IDX 24 31 25 32 26 33 27 34 37 35 28 36 36 37 29 38 30 39 35 40
 SMILES IDX 31 41 34 42 32 43 33 44
 H PARENT 10 11 13 15 7 17 4 20 17 24 19 26 21 29
 Flexibility Score: inf
  4 active torsions:
  status: ('A' for Active; 'I' for Inactive)
    1  A    between atoms: CA   and  CB  
    2  A    between atoms: CB   and  CG  
    3  A    between atoms: CG   and  CD  
    4  A    between atoms: CD   and  CE  

>  <TORSDO>
F 15

>  <BEGIN_>
RES LYS A 131

$$$$
ligand_15_pose_0_2HRL.pdbqt
 OpenBabel07062320523D

  6  5  0  0  0  0  0  0  0  0999 V2000
   33.1930   34.6630    9.2900 C   0  0  0  0  0  0  0  0  0  0  0  0
   32.0600   35.3600   10.0340 C   0  0  0  0  0  0  0  0  0  0  0  0
   30.8330   35.5850    9.1890 C   0  0  0  0  0  0  0  0  0  0  0  0
   30.2300   34.2580    8.7540 C   0  0  0  0  0  0  0  0  0  0  0  0
   28.7400   34.4030    8.5140 C   0  0  0  0  0  0  0  0  0  0  0  0
   27.9560   33.6800    9.5530 N   0  0  0  0  0  0  0  0  0  0  0  0
  1  2  1  0  0  0  0
  3  2  1  0  0  0  0
  4  3  1  0  0  0  0
  5  4  1  0  0  0  0
  5  6  1  0  0  0  0
M  END
>  <EGIN_R>
ES LYS A 135

>  <REMARK>
  4 active torsions:
  status: ('A' for Active; 'I' for Inactive)
    5  A    between atoms: CA   and  CB  
    6  A    between atoms: CB   and  CG  
    7  A    between atoms: CG   and  CD  
    8  A    between atoms: CD   and  CE  

$$$$
ligand_16_pose_0_2HRL.pdbqt
 OpenBabel07062320523D

 54 55  0  0  1  0  0  0  0  0999 V2000
   25.9090   27.9160   18.1380 N   0  0  0  0  0  0  0  0  0  0  0  0
   25.3940   29.0740   17.5340 C   0  0  0  0  0  0  0  0  0  0  0  0
   24.9330   29.9880   18.2380 O   0  0  0  0  0  0  0  0  0  0  0  0
   26.2810   27.1790   17.4640 H   0  0  0  0  0  0  0  0  0  0  0  0
   25.9520   27.7020   19.5600 C   0  0  0  0  0  0  0  0  0  0  0  0
   27.3830   27.5590   20.0050 C   0  0  2  0  0  0  0  0  0  0  0  0
   28.1060   28.8580   20.1640 C   0  0  1  0  0  0  0  0  0  0  0  0
   29.3590   28.6680   21.0380 C   0  0  2  0  0  0  0  0  0  0  0  0
   31.4430   27.6760   20.9080 C   0  0  2  0  0  0  0  0  0  0  0  0
   31.1000   26.5670   21.8910 C   0  0  0  0  0  0  0  0  0  0  0  0
   30.2780   28.0020   20.2560 O   0  0  0  0  0  0  0  0  0  0  0  0
   30.0370   27.0220   22.8380 C   0  0  1  0  0  0  0  0  0  0  0  0
   28.9440   27.8240   22.1880 C   0  0  1  0  0  0  0  0  0  0  0  0
   32.2880   27.0370   19.9540 O   0  0  0  0  0  0  0  0  0  0  0  0
   33.0910   26.6840   20.4510 H   0  0  0  0  0  0  0  0  0  0  0  0
   32.1630   28.7780   21.5500 C   0  0  0  0  0  0  0  0  0  0  0  0
   32.3000   29.8790   20.9140 O   0  0  0  0  0  0  0  0  0  0  0  0
   32.7330   28.7670   22.8070 O   0  0  0  0  0  0  0  0  0  0  0  0
   32.1480   29.0510   23.5810 H   0  0  0  0  0  0  0  0  0  0  0  0
   29.4330   25.8540   23.3610 O   0  0  0  0  0  0  0  0  0  0  0  0
   29.1500   25.3240   22.5750 H   0  0  0  0  0  0  0  0  0  0  0  0
   28.2170   28.5550   23.2060 N   0  0  0  0  0  0  0  0  0  0  0  0
   26.9990   28.0780   23.7500 C   0  0  0  0  0  0  0  0  0  0  0  0
   28.5740   29.4640   23.5720 H   0  0  0  0  0  0  0  0  0  0  0  0
   26.2600   28.8550   24.8090 C   0  0  0  0  0  0  0  0  0  0  0  0
   26.5440   26.9940   23.3370 O   0  0  0  0  0  0  0  0  0  0  0  0
   28.4020   29.5040   18.9880 O   0  0  0  0  0  0  0  0  0  0  0  0
   28.9040   30.3380   19.1770 H   0  0  0  0  0  0  0  0  0  0  0  0
   28.1160   26.7070   19.1680 O   0  0  0  0  0  0  0  0  0  0  0  0
   27.6330   25.8360   19.0890 H   0  0  0  0  0  0  0  0  0  0  0  0
   25.3650   29.2700   16.1590 O   0  0  0  0  0  0  0  0  0  0  0  0
   25.7690   30.4600   15.5260 C   0  0  0  0  0  0  0  0  0  0  0  0
   27.1490   30.8000   15.9310 C   0  0  0  0  0  0  0  0  0  0  0  0
   27.5400   31.9880   16.5510 C   0  0  0  0  0  0  0  0  0  0  0  0
   28.2910   30.0970   15.8030 N   0  0  0  0  0  0  0  0  0  0  0  0
   28.8610   31.9510   16.7640 N   0  0  0  0  0  0  0  0  0  0  0  0
   29.2910   30.8010   16.3040 N   0  0  0  0  0  0  0  0  0  0  0  0
   29.6760   33.0060   17.3840 C   0  0  0  0  0  0  0  0  0  0  0  0
   30.3970   33.6670   16.2500 C   0  0  0  0  0  0  0  0  0  0  0  0
   31.7500   33.5120   16.1340 C   0  0  0  0  0  0  0  0  0  0  0  0
   29.7360   34.4330   15.3230 C   0  0  0  0  0  0  0  0  0  0  0  0
   32.4540   34.1200   15.0890 C   0  0  0  0  0  0  0  0  0  0  0  0
   30.4340   35.0380   14.2840 C   0  0  0  0  0  0  0  0  0  0  0  0
   31.8010   34.8880   14.1560 C   0  0  0  0  0  0  0  0  0  0  0  0
   32.5210   35.5250   13.0620 C   0  0  0  0  0  0  0  0  0  0  0  0
   32.1880   36.6280   12.5760 O   0  0  0  0  0  0  0  0  0  0  0  0
   33.6350   34.8900   12.5230 O   0  0  0  0  0  0  0  0  0  0  0  0
   33.7080   34.7100   11.5360 H   0  0  0  0  0  0  0  0  0  0  0  0
   29.8670   25.5550   16.9770 C   0  0  0  0  0  0  0  0  0  0  0  0
   28.3450   25.7220   17.0260 C   0  0  0  0  0  0  0  0  0  0  0  0
   27.5990   24.4330   16.7160 C   0  0  0  0  0  0  0  0  0  0  0  0
   26.2080   24.4330   17.2880 C   0  0  0  0  0  0  0  0  0  0  0  0
   26.1570   23.5100   18.5010 C   0  0  0  0  0  0  0  0  0  0  0  0
   25.4810   24.1820   19.6360 N   0  0  0  0  0  0  0  0  0  0  0  0
  1  5  1  0  0  0  0
  2  1  1  0  0  0  0
  2  3  2  0  0  0  0
  4  1  1  0  0  0  0
  6  5  1  6  0  0  0
  6  7  1  0  0  0  0
  7 27  1  6  0  0  0
  8  7  1  6  0  0  0
  8 13  1  0  0  0  0
  9 14  1  6  0  0  0
  9 16  1  0  0  0  0
  9 10  1  0  0  0  0
 10 12  1  0  0  0  0
 11  9  1  0  0  0  0
 11  8  1  0  0  0  0
 12 20  1  6  0  0  0
 13 12  1  0  0  0  0
 13 22  1  1  0  0  0
 14 15  1  0  0  0  0
 16 18  1  0  0  0  0
 17 16  2  0  0  0  0
 18 19  1  0  0  0  0
 21 20  1  0  0  0  0
 22 24  1  0  0  0  0
 22 23  1  0  0  0  0
 23 25  1  0  0  0  0
 26 23  2  0  0  0  0
 27 28  1  0  0  0  0
 29  6  1  0  0  0  0
 30 29  1  0  0  0  0
 31  2  1  0  0  0  0
 32 33  1  0  0  0  0
 32 31  1  0  0  0  0
 33 34  2  0  0  0  0
 34 36  1  0  0  0  0
 35 33  1  0  0  0  0
 35 37  2  0  0  0  0
 36 38  1  0  0  0  0
 37 36  1  0  0  0  0
 39 38  1  0  0  0  0
 40 39  1  0  0  0  0
 41 39  2  0  0  0  0
 42 40  2  0  0  0  0
 43 41  1  0  0  0  0
 44 43  2  0  0  0  0
 44 42  1  0  0  0  0
 45 44  1  0  0  0  0
 46 45  2  0  0  0  0
 47 45  1  0  0  0  0
 48 47  1  0  0  0  0
 49 50  1  0  0  0  0
 51 50  1  0  0  0  0
 51 52  1  0  0  0  0
 52 53  1  0  0  0  0
 53 54  1  0  0  0  0
M  END
>  <REMARK>
 VINA RESULT:    -6.311      0.000      0.000
 INTER + INTRA:         -15.838
 INTER:                 -10.696
 INTRA:                  -5.141
 UNBOUND:                -3.993
 SMILES CC(=O)N[C@@H]1[C@@H](O)C[C@](O)(C(=O)O)O[C@H]1C(O)[C@H](O)CNC(=O)OCc1cn(Cc2ccc(C(=O)O)cc2)nn1
 SMILES IDX 21 1 22 2 23 3 20 5 18 6 16 7 15 8 9 9 8 10 14 11 6 12 5 13
 SMILES IDX 10 14 11 16 12 17 13 18 7 20 4 22 2 23 1 25 3 26 17 27 19 29
 SMILES IDX 24 31 25 32 26 33 27 34 40 35 28 36 39 37 29 38 30 39 31 40
 SMILES IDX 38 41 32 42 37 43 33 44 34 45 35 46 36 47
 H PARENT 21 4 10 15 13 19 7 21 4 24 17 28 19 30 36 48
 Flexibility Score: inf
  4 active torsions:
  status: ('A' for Active; 'I' for Inactive)
    1  A    between atoms: CA   and  CB  
    2  A    between atoms: CB   and  CG  
    3  A    between atoms: CG   and  CD  
    4  A    between atoms: CD   and  CE  

>  <TORSDO>
F 18

>  <BEGIN_>
RES LYS A 131

$$$$
ligand_16_pose_0_2HRL.pdbqt
 OpenBabel07062320523D

  6  5  0  0  0  0  0  0  0  0999 V2000
   33.1930   34.6630    9.2900 C   0  0  0  0  0  0  0  0  0  0  0  0
   32.0600   35.3600   10.0340 C   0  0  0  0  0  0  0  0  0  0  0  0
   30.6940   35.0540    9.4750 C   0  0  0  0  0  0  0  0  0  0  0  0
   29.6870   34.8570   10.5980 C   0  0  0  0  0  0  0  0  0  0  0  0
   28.2710   34.9840   10.0710 C   0  0  0  0  0  0  0  0  0  0  0  0
   27.7720   33.6800    9.5520 N   0  0  0  0  0  0  0  0  0  0  0  0
  1  2  1  0  0  0  0
  3  2  1  0  0  0  0
  3  4  1  0  0  0  0
  5  4  1  0  0  0  0
  6  5  1  0  0  0  0
M  END
>  <EGIN_R>
ES LYS A 135

>  <REMARK>
  4 active torsions:
  status: ('A' for Active; 'I' for Inactive)
    5  A    between atoms: CA   and  CB  
    6  A    between atoms: CB   and  CG  
    7  A    between atoms: CG   and  CD  
    8  A    between atoms: CD   and  CE  

$$$$
ligand_17_pose_0_2HRL.pdbqt
 OpenBabel07062320523D

 50 50  0  0  1  0  0  0  0  0999 V2000
   28.8600   33.2200   19.5070 N   0  0  0  0  0  0  0  0  0  0  0  0
   27.4980   32.8000   19.4080 C   0  0  0  0  0  0  0  0  0  0  0  0
   27.0060   32.0640   20.2810 O   0  0  0  0  0  0  0  0  0  0  0  0
   29.2020   33.8300   18.7440 H   0  0  0  0  0  0  0  0  0  0  0  0
   29.7320   32.8430   20.5750 C   0  0  0  0  0  0  0  0  0  0  0  0
   31.0300   32.2370   20.1190 C   0  0  2  0  0  0  0  0  0  0  0  0
   30.8420   30.7700   19.7990 C   0  0  1  0  0  0  0  0  0  0  0  0
   29.9750   30.0890   20.8190 C   0  0  2  0  0  0  0  0  0  0  0  0
   31.6400   28.6780   21.6980 C   0  0  2  0  0  0  0  0  0  0  0  0
   31.0800   27.5430   20.8530 C   0  0  0  0  0  0  0  0  0  0  0  0
   30.7540   29.6990   21.8790 O   0  0  0  0  0  0  0  0  0  0  0  0
   29.5550   27.6740   20.9130 C   0  0  1  0  0  0  0  0  0  0  0  0
   29.1980   28.9550   20.2480 C   0  0  1  0  0  0  0  0  0  0  0  0
   32.8640   29.0420   21.1420 O   0  0  0  0  0  0  0  0  0  0  0  0
   33.3780   29.6310   21.7640 H   0  0  0  0  0  0  0  0  0  0  0  0
   31.9230   28.1160   23.0570 C   0  0  0  0  0  0  0  0  0  0  0  0
   31.9590   26.8860   23.2780 O   0  0  0  0  0  0  0  0  0  0  0  0
   32.1520   28.9860   24.1020 O   0  0  0  0  0  0  0  0  0  0  0  0
   31.9350   28.7710   25.0700 H   0  0  0  0  0  0  0  0  0  0  0  0
   29.0120   26.5540   20.2840 O   0  0  0  0  0  0  0  0  0  0  0  0
   28.0270   26.5660   20.5050 H   0  0  0  0  0  0  0  0  0  0  0  0
   27.7690   29.2050   20.2220 N   0  0  0  0  0  0  0  0  0  0  0  0
   26.9250   28.7920   19.1520 C   0  0  0  0  0  0  0  0  0  0  0  0
   27.2840   29.7140   21.0140 H   0  0  0  0  0  0  0  0  0  0  0  0
   25.4560   29.0780   19.1760 C   0  0  0  0  0  0  0  0  0  0  0  0
   27.4040   28.1860   18.1740 O   0  0  0  0  0  0  0  0  0  0  0  0
   30.2550   30.7590   18.5210 O   0  0  0  0  0  0  0  0  0  0  0  0
   30.6540   29.9780   18.0540 H   0  0  0  0  0  0  0  0  0  0  0  0
   32.0290   32.5100   21.0080 O   0  0  0  0  0  0  0  0  0  0  0  0
   32.0380   33.4760   21.2200 H   0  0  0  0  0  0  0  0  0  0  0  0
   26.6770   33.1840   18.3600 O   0  0  0  0  0  0  0  0  0  0  0  0
   26.3390   32.2990   17.3010 C   0  0  0  0  0  0  0  0  0  0  0  0
   27.5800   31.9990   16.5420 C   0  0  0  0  0  0  0  0  0  0  0  0
   28.3740   32.9770   15.9430 C   0  0  0  0  0  0  0  0  0  0  0  0
   28.1850   30.8350   16.2720 N   0  0  0  0  0  0  0  0  0  0  0  0
   29.3990   32.3670   15.3540 N   0  0  0  0  0  0  0  0  0  0  0  0
   29.2740   31.0740   15.5600 N   0  0  0  0  0  0  0  0  0  0  0  0
   30.4580   33.0030   14.6180 C   0  0  0  0  0  0  0  0  0  0  0  0
   31.6500   33.1860   15.5400 C   0  0  0  0  0  0  0  0  0  0  0  0
   32.4530   34.3210   15.2200 N   0  0  0  0  0  0  0  0  0  0  0  0
   32.7160   35.2020   16.3080 C   0  0  0  0  0  0  0  0  0  0  0  0
   31.9450   34.6580   17.5200 C   0  0  0  0  0  0  0  0  0  0  0  0
   32.1210   34.9250   13.9740 C   0  0  0  0  0  0  0  0  0  0  0  0
   32.0640   36.4210   14.0120 C   0  0  0  0  0  0  0  0  0  0  0  0
   29.8670   25.5550   16.9770 C   0  0  0  0  0  0  0  0  0  0  0  0
   28.3450   25.7220   17.0260 C   0  0  0  0  0  0  0  0  0  0  0  0
   27.6000   24.4090   16.8390 C   0  0  0  0  0  0  0  0  0  0  0  0
   26.7880   24.0410   18.0500 C   0  0  0  0  0  0  0  0  0  0  0  0
   25.7970   25.1590   18.3570 C   0  0  0  0  0  0  0  0  0  0  0  0
   25.6950   25.3750   19.8190 N   0  0  0  0  0  0  0  0  0  0  0  0
  1  5  1  0  0  0  0
  2  1  1  0  0  0  0
  2  3  2  0  0  0  0
  4  1  1  0  0  0  0
  6  5  1  1  0  0  0
  6 29  1  0  0  0  0
  7 27  1  6  0  0  0
  7  6  1  0  0  0  0
  8  7  1  6  0  0  0
  8 11  1  0  0  0  0
  9 14  1  6  0  0  0
  9 11  1  0  0  0  0
  9 16  1  0  0  0  0
 10 12  1  0  0  0  0
 10  9  1  0  0  0  0
 12 20  1  6  0  0  0
 13 22  1  1  0  0  0
 13  8  1  0  0  0  0
 13 12  1  0  0  0  0
 14 15  1  0  0  0  0
 16 17  2  0  0  0  0
 16 18  1  0  0  0  0
 18 19  1  0  0  0  0
 20 21  1  0  0  0  0
 22 24  1  0  0  0  0
 23 25  1  0  0  0  0
 23 22  1  0  0  0  0
 26 23  2  0  0  0  0
 28 27  1  0  0  0  0
 29 30  1  0  0  0  0
 31  2  1  0  0  0  0
 32 31  1  0  0  0  0
 33 32  1  0  0  0  0
 34 33  2  0  0  0  0
 35 33  1  0  0  0  0
 36 37  1  0  0  0  0
 36 34  1  0  0  0  0
 37 35  2  0  0  0  0
 38 36  1  0  0  0  0
 38 39  1  0  0  0  0
 40 39  1  0  0  0  0
 40 41  1  0  0  0  0
 41 42  1  0  0  0  0
 43 44  1  0  0  0  0
 43 40  1  0  0  0  0
 45 46  1  0  0  0  0
 47 46  1  0  0  0  0
 47 48  1  0  0  0  0
 48 49  1  0  0  0  0
 49 50  1  0  0  0  0
M  END
>  <REMARK>
 VINA RESULT:    -4.036      0.000      0.000
 INTER + INTRA:         -15.087
 INTER:                  -8.117
 INTRA:                  -6.970
 UNBOUND:                -7.158
 SMILES CCN(CC)CCn1cc(COC(=O)NC[C@@H](O)C(O)[C@@H]2O[C@@](O)(C(=O)O)C[C@H](O)[C@H]2NC(C)=O)nn1
 SMILES IDX 15 1 13 2 14 3 16 5 17 6 19 7 21 8 23 9 28 10 22 11 29 12
 SMILES IDX 31 13 24 14 25 16 26 17 27 18 30 20 32 22 33 23 34 25 35 26
 SMILES IDX 20 27 18 29 12 31 11 32 10 33 9 34 36 35 8 36 37 37 7 38
 SMILES IDX 6 39 3 40 2 41 1 42 4 43 5 44
 H PARENT 15 4 24 15 27 19 30 21 32 24 20 28 18 30
 Flexibility Score: inf
  4 active torsions:
  status: ('A' for Active; 'I' for Inactive)
    1  A    between atoms: CA   and  CB  
    2  A    between atoms: CB   and  CG  
    3  A    between atoms: CG   and  CD  
    4  A    between atoms: CD   and  CE  

>  <TORSDO>
F 19

>  <BEGIN_>
RES LYS A 131

$$$$
ligand_17_pose_0_2HRL.pdbqt
 OpenBabel07062320523D

  6  5  0  0  0  0  0  0  0  0999 V2000
   33.1930   34.6630    9.2900 C   0  0  0  0  0  0  0  0  0  0  0  0
   32.0600   35.3600   10.0340 C   0  0  0  0  0  0  0  0  0  0  0  0
   30.7320   34.6600    9.9020 C   0  0  0  0  0  0  0  0  0  0  0  0
   30.3490   34.5080    8.4380 C   0  0  0  0  0  0  0  0  0  0  0  0
   28.8430   34.5650    8.2720 C   0  0  0  0  0  0  0  0  0  0  0  0
   28.1530   33.8710    9.3940 N   0  0  0  0  0  0  0  0  0  0  0  0
  1  2  1  0  0  0  0
  3  2  1  0  0  0  0
  4  3  1  0  0  0  0
  5  4  1  0  0  0  0
  5  6  1  0  0  0  0
M  END
>  <EGIN_R>
ES LYS A 135

>  <REMARK>
  4 active torsions:
  status: ('A' for Active; 'I' for Inactive)
    5  A    between atoms: CA   and  CB  
    6  A    between atoms: CB   and  CG  
    7  A    between atoms: CG   and  CD  
    8  A    between atoms: CD   and  CE  

$$$$
ligand_18_pose_0_2HRL.pdbqt
 OpenBabel07062320523D

 54 55  0  0  1  0  0  0  0  0999 V2000
   24.8380   36.6170   11.2760 N   0  0  0  0  0  0  0  0  0  0  0  0
   25.1680   35.5650   12.1560 C   0  0  0  0  0  0  0  0  0  0  0  0
   24.6510   34.4380   11.9610 O   0  0  0  0  0  0  0  0  0  0  0  0
   25.2780   37.5460   11.4570 H   0  0  0  0  0  0  0  0  0  0  0  0
   23.9380   36.5050   10.1450 C   0  0  0  0  0  0  0  0  0  0  0  0
   24.6820   36.6670    8.8490 C   0  0  2  0  0  0  0  0  0  0  0  0
   26.1030   37.0950    8.9940 C   0  0  1  0  0  0  0  0  0  0  0  0
   27.0780   36.6340    7.9770 C   0  0  2  0  0  0  0  0  0  0  0  0
   29.2560   35.7800    7.9550 C   0  0  2  0  0  0  0  0  0  0  0  0
   28.8580   35.5000    6.5170 C   0  0  0  0  0  0  0  0  0  0  0  0
   28.2410   36.2590    8.7280 O   0  0  0  0  0  0  0  0  0  0  0  0
   28.3580   36.7700    5.9230 C   0  0  1  0  0  0  0  0  0  0  0  0
   27.5740   37.5890    6.9690 C   0  0  1  0  0  0  0  0  0  0  0  0
   30.3400   36.6750    7.8720 O   0  0  0  0  0  0  0  0  0  0  0  0
   31.0830   36.3220    8.4340 H   0  0  0  0  0  0  0  0  0  0  0  0
   29.7610   34.5400    8.6020 C   0  0  0  0  0  0  0  0  0  0  0  0
   30.9380   34.1840    8.3910 O   0  0  0  0  0  0  0  0  0  0  0  0
   28.9600   33.7650    9.4360 O   0  0  0  0  0  0  0  0  0  0  0  0
   28.0150   33.5750    9.1000 H   0  0  0  0  0  0  0  0  0  0  0  0
   29.3380   37.5380    5.3340 O   0  0  0  0  0  0  0  0  0  0  0  0
   29.2330   37.5630    4.3500 H   0  0  0  0  0  0  0  0  0  0  0  0
   26.6420   38.3540    6.2280 N   0  0  0  0  0  0  0  0  0  0  0  0
   26.5380   39.7460    6.4360 C   0  0  0  0  0  0  0  0  0  0  0  0
   26.0230   37.9260    5.5260 H   0  0  0  0  0  0  0  0  0  0  0  0
   25.5690   40.5960    5.6790 C   0  0  0  0  0  0  0  0  0  0  0  0
   27.2650   40.3660    7.2830 O   0  0  0  0  0  0  0  0  0  0  0  0
   26.2890   38.3790    9.4850 O   0  0  0  0  0  0  0  0  0  0  0  0
   26.5670   39.0270    8.8250 H   0  0  0  0  0  0  0  0  0  0  0  0
   23.9890   37.3750    7.8770 O   0  0  0  0  0  0  0  0  0  0  0  0
   24.5140   38.1090    7.4820 H   0  0  0  0  0  0  0  0  0  0  0  0
   26.0490   35.7340   13.2330 O   0  0  0  0  0  0  0  0  0  0  0  0
   27.1150   36.6630   13.1550 C   0  0  0  0  0  0  0  0  0  0  0  0
   28.3880   35.8970   13.0560 C   0  0  0  0  0  0  0  0  0  0  0  0
   29.4710   35.9300   13.9100 C   0  0  0  0  0  0  0  0  0  0  0  0
   28.7340   35.0160   12.1050 N   0  0  0  0  0  0  0  0  0  0  0  0
   30.4130   35.0890   13.4580 N   0  0  0  0  0  0  0  0  0  0  0  0
   29.9390   34.5450   12.3580 N   0  0  0  0  0  0  0  0  0  0  0  0
   31.7100   34.8530   14.1140 C   0  0  0  0  0  0  0  0  0  0  0  0
   31.5000   33.7530   15.0840 C   0  0  0  0  0  0  0  0  0  0  0  0
   31.8980   33.9210   16.2840 O   0  0  0  0  0  0  0  0  0  0  0  0
   30.8860   32.5130   14.7910 N   0  0  0  0  0  0  0  0  0  0  0  0
   30.5640   32.3780   13.8160 H   0  0  0  0  0  0  0  0  0  0  0  0
   30.7010   31.4680   15.7710 C   0  0  0  0  0  0  0  0  0  0  0  0
   29.2070   31.2260   15.8630 C   0  0  0  0  0  0  0  0  0  0  0  0
   28.5360   30.0830   15.9360 C   0  0  0  0  0  0  0  0  0  0  0  0
   27.9790   32.4490   15.8910 S   0  0  0  0  0  0  0  0  0  0  0  0
   27.1880   30.0790   16.0110 C   0  0  0  0  0  0  0  0  0  0  0  0
   26.5760   31.3420   16.0040 C   0  0  0  0  0  0  0  0  0  0  0  0
   29.8670   25.5550   16.9770 C   0  0  0  0  0  0  0  0  0  0  0  0
   28.3450   25.7220   17.0260 C   0  0  0  0  0  0  0  0  0  0  0  0
   27.6010   24.4010   16.9000 C   0  0  0  0  0  0  0  0  0  0  0  0
   26.1590   24.5220   17.3070 C   0  0  0  0  0  0  0  0  0  0  0  0
   25.8840   23.5940   18.4860 C   0  0  0  0  0  0  0  0  0  0  0  0
   25.4830   24.3750   19.6800 N   0  0  0  0  0  0  0  0  0  0  0  0
  1  4  1  0  0  0  0
  1  2  1  0  0  0  0
  2 31  1  0  0  0  0
  3  2  2  0  0  0  0
  5  1  1  0  0  0  0
  6  7  1  0  0  0  0
  6  5  1  1  0  0  0
  7 27  1  6  0  0  0
  8 11  1  0  0  0  0
  8  7  1  1  0  0  0
  9 14  1  6  0  0  0
  9 16  1  0  0  0  0
  9 11  1  0  0  0  0
 10  9  1  0  0  0  0
 12 20  1  1  0  0  0
 12 10  1  0  0  0  0
 12 13  1  0  0  0  0
 13 22  1  6  0  0  0
 13  8  1  0  0  0  0
 14 15  1  0  0  0  0
 16 18  1  0  0  0  0
 17 16  2  0  0  0  0
 19 18  1  0  0  0  0
 21 20  1  0  0  0  0
 22 23  1  0  0  0  0
 23 26  2  0  0  0  0
 24 22  1  0  0  0  0
 25 23  1  0  0  0  0
 28 27  1  0  0  0  0
 29  6  1  0  0  0  0
 30 29  1  0  0  0  0
 32 31  1  0  0  0  0
 33 32  1  0  0  0  0
 33 34  2  0  0  0  0
 35 37  2  0  0  0  0
 35 33  1  0  0  0  0
 36 34  1  0  0  0  0
 36 38  1  0  0  0  0
 37 36  1  0  0  0  0
 38 39  1  0  0  0  0
 39 40  2  0  0  0  0
 41 39  1  0  0  0  0
 41 43  1  0  0  0  0
 42 41  1  0  0  0  0
 43 44  1  0  0  0  0
 44 46  1  0  0  0  0
 44 45  2  0  0  0  0
 45 47  1  0  0  0  0
 46 48  1  0  0  0  0
 48 47  2  0  0  0  0
 49 50  1  0  0  0  0
 51 50  1  0  0  0  0
 51 52  1  0  0  0  0
 52 53  1  0  0  0  0
 53 54  1  0  0  0  0
M  END
>  <REMARK>
 VINA RESULT:    -4.849      0.000      0.000
 INTER + INTRA:         -16.031
 INTER:                 -11.196
 INTRA:                  -4.835
 UNBOUND:                -6.788
 SMILES CC(=O)N[C@@H]1[C@@H](O)C[C@](O)(C(=O)O)O[C@H]1C(O)[C@H](O)CNC(=O)OCc1cn(CC(=O)NCc2cccs2)nn1
 SMILES IDX 21 1 22 2 23 3 20 5 18 6 16 7 15 8 9 9 8 10 14 11 6 12 5 13
 SMILES IDX 10 14 11 16 12 17 13 18 7 20 4 22 2 23 1 25 3 26 17 27 19 29
 SMILES IDX 24 31 25 32 26 33 27 34 40 35 28 36 39 37 29 38 30 39 31 40
 SMILES IDX 32 41 33 43 34 44 35 45 38 46 36 47 37 48
 H PARENT 21 4 10 15 13 19 7 21 4 24 17 28 19 30 32 42
 Flexibility Score: inf
  4 active torsions:
  status: ('A' for Active; 'I' for Inactive)
    1  A    between atoms: CA   and  CB  
    2  A    between atoms: CB   and  CG  
    3  A    between atoms: CG   and  CD  
    4  A    between atoms: CD   and  CE  

>  <TORSDO>
F 18

>  <BEGIN_>
RES LYS A 131

$$$$
ligand_18_pose_0_2HRL.pdbqt
 OpenBabel07062320523D

  6  5  0  0  0  0  0  0  0  0999 V2000
   33.1930   34.6630    9.2900 C   0  0  0  0  0  0  0  0  0  0  0  0
   32.0600   35.3600   10.0340 C   0  0  0  0  0  0  0  0  0  0  0  0
   32.5290   36.4530   10.9600 C   0  0  0  0  0  0  0  0  0  0  0  0
   31.5940   37.6500   10.8940 C   0  0  0  0  0  0  0  0  0  0  0  0
   31.4950   38.3230   12.2500 C   0  0  0  0  0  0  0  0  0  0  0  0
   31.1350   39.7610   12.1100 N   0  0  0  0  0  0  0  0  0  0  0  0
  1  2  1  0  0  0  0
  2  3  1  0  0  0  0
  4  3  1  0  0  0  0
  4  5  1  0  0  0  0
  6  5  1  0  0  0  0
M  END
>  <EGIN_R>
ES LYS A 135

>  <REMARK>
  4 active torsions:
  status: ('A' for Active; 'I' for Inactive)
    5  A    between atoms: CA   and  CB  
    6  A    between atoms: CB   and  CG  
    7  A    between atoms: CG   and  CD  
    8  A    between atoms: CD   and  CE  

$$$$
ligand_19_pose_0_2HRL.pdbqt
 OpenBabel07062320523D

 49 49  0  0  1  0  0  0  0  0999 V2000
   32.3250   33.7790   14.9420 N   0  0  0  0  0  0  0  0  0  0  0  0
   32.8390   35.0490   14.5990 C   0  0  0  0  0  0  0  0  0  0  0  0
   32.8730   35.9620   15.4360 O   0  0  0  0  0  0  0  0  0  0  0  0
   32.3280   33.0590   14.1670 H   0  0  0  0  0  0  0  0  0  0  0  0
   31.8150   33.4160   16.2470 C   0  0  0  0  0  0  0  0  0  0  0  0
   30.3550   33.6440   16.3560 C   0  0  2  0  0  0  0  0  0  0  0  0
   29.4680   32.4620   16.0370 C   0  0  2  0  0  0  0  0  0  0  0  0
   29.7210   31.2370   16.8630 C   0  0  2  0  0  0  0  0  0  0  0  0
   27.5070   30.5440   16.6870 C   0  0  2  0  0  0  0  0  0  0  0  0
   27.1540   31.3970   17.8440 C   0  0  0  0  0  0  0  0  0  0  0  0
   28.8290   30.2110   16.5540 O   0  0  0  0  0  0  0  0  0  0  0  0
   28.2550   31.7590   18.7730 C   0  0  1  0  0  0  0  0  0  0  0  0
   29.6360   31.3990   18.3470 C   0  0  1  0  0  0  0  0  0  0  0  0
   27.1250   31.1390   15.4600 O   0  0  0  0  0  0  0  0  0  0  0  0
   27.8370   31.7230   15.1060 H   0  0  0  0  0  0  0  0  0  0  0  0
   26.7480   29.2620   16.7320 C   0  0  0  0  0  0  0  0  0  0  0  0
   27.3430   28.1520   16.9480 O   0  0  0  0  0  0  0  0  0  0  0  0
   25.3770   29.1720   16.5500 O   0  0  0  0  0  0  0  0  0  0  0  0
   25.0340   29.1330   15.5840 H   0  0  0  0  0  0  0  0  0  0  0  0
   28.2130   33.1420   18.9770 O   0  0  0  0  0  0  0  0  0  0  0  0
   29.0980   33.4790   19.3180 H   0  0  0  0  0  0  0  0  0  0  0  0
   30.1360   30.1760   18.9300 N   0  0  0  0  0  0  0  0  0  0  0  0
   30.9620   30.1450   20.0580 C   0  0  0  0  0  0  0  0  0  0  0  0
   29.8560   29.2890   18.4710 H   0  0  0  0  0  0  0  0  0  0  0  0
   31.4890   28.9030   20.6790 C   0  0  0  0  0  0  0  0  0  0  0  0
   31.2710   31.2400   20.5660 O   0  0  0  0  0  0  0  0  0  0  0  0
   29.9420   32.0680   14.7270 O   0  0  0  0  0  0  0  0  0  0  0  0
   29.8440   32.9210   14.2040 H   0  0  0  0  0  0  0  0  0  0  0  0
   29.8540   34.8350   15.9240 O   0  0  0  0  0  0  0  0  0  0  0  0
   28.8860   34.8650   15.9000 H   0  0  0  0  0  0  0  0  0  0  0  0
   33.3220   35.2930   13.2930 O   0  0  0  0  0  0  0  0  0  0  0  0
   32.5320   36.0500   12.3750 C   0  0  0  0  0  0  0  0  0  0  0  0
   31.1210   35.6580   12.5630 C   0  0  0  0  0  0  0  0  0  0  0  0
   30.0430   36.5240   12.6570 C   0  0  0  0  0  0  0  0  0  0  0  0
   30.6180   34.4220   12.6840 N   0  0  0  0  0  0  0  0  0  0  0  0
   28.9400   35.7810   12.8290 N   0  0  0  0  0  0  0  0  0  0  0  0
   29.3130   34.5220   12.8420 N   0  0  0  0  0  0  0  0  0  0  0  0
   27.6030   36.3120   12.9700 C   0  0  0  0  0  0  0  0  0  0  0  0
   26.8900   35.5320   14.0490 C   0  0  0  0  0  0  0  0  0  0  0  0
   26.2230   34.4410   13.4810 O   0  0  0  0  0  0  0  0  0  0  0  0
   25.3160   33.7090   14.1880 C   0  0  0  0  0  0  0  0  0  0  0  0
   24.9600   32.5770   13.8120 O   0  0  0  0  0  0  0  0  0  0  0  0
   24.7160   34.2570   15.4540 C   0  0  0  0  0  0  0  0  0  0  0  0
   29.8670   25.5550   16.9770 C   0  0  0  0  0  0  0  0  0  0  0  0
   28.3450   25.7220   17.0260 C   0  0  0  0  0  0  0  0  0  0  0  0
   27.6010   24.4000   16.9080 C   0  0  0  0  0  0  0  0  0  0  0  0
   26.1530   24.5290   17.2910 C   0  0  0  0  0  0  0  0  0  0  0  0
   26.0460   25.1660   18.6730 C   0  0  0  0  0  0  0  0  0  0  0  0
   25.0510   26.2640   18.6630 N   0  0  0  0  0  0  0  0  0  0  0  0
  1  5  1  0  0  0  0
  2  1  1  0  0  0  0
  2  3  2  0  0  0  0
  4  1  1  0  0  0  0
  6  5  1  6  0  0  0
  7 27  1  6  0  0  0
  7  6  1  0  0  0  0
  8  7  1  6  0  0  0
  8 13  1  0  0  0  0
  9 14  1  6  0  0  0
  9 16  1  0  0  0  0
  9 10  1  0  0  0  0
 10 12  1  0  0  0  0
 11  9  1  0  0  0  0
 11  8  1  0  0  0  0
 12 20  1  6  0  0  0
 13 12  1  0  0  0  0
 13 22  1  1  0  0  0
 15 14  1  0  0  0  0
 16 17  2  0  0  0  0
 18 16  1  0  0  0  0
 19 18  1  0  0  0  0
 20 21  1  0  0  0  0
 22 23  1  0  0  0  0
 23 26  2  0  0  0  0
 23 25  1  0  0  0  0
 24 22  1  0  0  0  0
 28 27  1  0  0  0  0
 29  6  1  0  0  0  0
 30 29  1  0  0  0  0
 31  2  1  0  0  0  0
 32 33  1  0  0  0  0
 32 31  1  0  0  0  0
 33 34  2  0  0  0  0
 33 35  1  0  0  0  0
 34 36  1  0  0  0  0
 35 37  2  0  0  0  0
 36 37  1  0  0  0  0
 36 38  1  0  0  0  0
 38 39  1  0  0  0  0
 40 39  1  0  0  0  0
 40 41  1  0  0  0  0
 41 43  1  0  0  0  0
 42 41  2  0  0  0  0
 44 45  1  0  0  0  0
 46 45  1  0  0  0  0
 46 47  1  0  0  0  0
 47 48  1  0  0  0  0
 49 48  1  0  0  0  0
M  END
>  <REMARK>
 VINA RESULT:    -4.406      0.000      0.000
 INTER + INTRA:         -14.457
 INTER:                  -8.298
 INTRA:                  -6.159
 UNBOUND:                -6.059
 SMILES CC(=O)N[C@@H]1[C@@H](O)C[C@](O)(C(=O)O)O[C@H]1C(O)[C@H](O)CNC(=O)OCc1cn(CCOC(C)=O)nn1
 SMILES IDX 21 1 22 2 23 3 20 5 18 6 16 7 15 8 9 9 8 10 14 11 6 12 5 13
 SMILES IDX 10 14 11 16 12 17 13 18 7 20 4 22 2 23 1 25 3 26 17 27 19 29
 SMILES IDX 24 31 25 32 26 33 27 34 36 35 28 36 35 37 29 38 30 39 31 40
 SMILES IDX 32 41 34 42 33 43
 H PARENT 21 4 10 15 13 19 7 21 4 24 17 28 19 30
 Flexibility Score: inf
  4 active torsions:
  status: ('A' for Active; 'I' for Inactive)
    1  A    between atoms: CA   and  CB  
    2  A    between atoms: CB   and  CG  
    3  A    between atoms: CG   and  CD  
    4  A    between atoms: CD   and  CE  

>  <TORSDO>
F 18

>  <BEGIN_>
RES LYS A 131

$$$$
ligand_19_pose_0_2HRL.pdbqt
 OpenBabel07062320523D

  6  5  0  0  0  0  0  0  0  0999 V2000
   33.1930   34.6630    9.2900 C   0  0  0  0  0  0  0  0  0  0  0  0
   32.0600   35.3600   10.0340 C   0  0  0  0  0  0  0  0  0  0  0  0
   30.8030   35.5080    9.2160 C   0  0  0  0  0  0  0  0  0  0  0  0
   30.1150   34.1630    9.0420 C   0  0  0  0  0  0  0  0  0  0  0  0
   28.6480   34.3550    8.7090 C   0  0  0  0  0  0  0  0  0  0  0  0
   27.7770   33.7150    9.7330 N   0  0  0  0  0  0  0  0  0  0  0  0
  1  2  1  0  0  0  0
  3  2  1  0  0  0  0
  4  3  1  0  0  0  0
  5  4  1  0  0  0  0
  5  6  1  0  0  0  0
M  END
>  <EGIN_R>
ES LYS A 135

>  <REMARK>
  4 active torsions:
  status: ('A' for Active; 'I' for Inactive)
    5  A    between atoms: CA   and  CB  
    6  A    between atoms: CB   and  CG  
    7  A    between atoms: CG   and  CD  
    8  A    between atoms: CD   and  CE  

$$$$
ligand_1_pose_0_2HRL.pdbqt
 OpenBabel07062320523D

 47 47  0  0  1  0  0  0  0  0999 V2000
   29.6320   38.2170    5.6040 N   0  0  0  0  0  0  0  0  0  0  0  0
   29.5640   39.6140    5.6400 C   0  0  0  0  0  0  0  0  0  0  0  0
   28.5190   40.1880    5.3470 O   0  0  0  0  0  0  0  0  0  0  0  0
   30.5900   37.8100    5.8740 H   0  0  0  0  0  0  0  0  0  0  0  0
   28.6390   37.2710    5.2670 C   0  0  0  0  0  0  0  0  0  0  0  0
   28.3680   36.1680    6.2400 C   0  0  2  0  0  0  0  0  0  0  0  0
   27.4640   36.5990    7.3560 C   0  0  1  0  0  0  0  0  0  0  0  0
   27.9100   37.6620    8.2660 C   0  0  2  0  0  0  0  0  0  0  0  0
   29.6650   38.5670    9.4550 C   0  0  2  0  0  0  0  0  0  0  0  0
   28.7860   39.7980    9.4050 C   0  0  0  0  0  0  0  0  0  0  0  0
   29.2320   37.5420    8.6140 O   0  0  0  0  0  0  0  0  0  0  0  0
   27.3620   39.4490    9.8160 C   0  0  1  0  0  0  0  0  0  0  0  0
   27.0890   37.9710    9.4710 C   0  0  1  0  0  0  0  0  0  0  0  0
   29.6920   38.0370   10.7420 O   0  0  0  0  0  0  0  0  0  0  0  0
   30.1810   37.1860   10.7950 H   0  0  0  0  0  0  0  0  0  0  0  0
   31.0510   38.8820    9.0400 C   0  0  0  0  0  0  0  0  0  0  0  0
   31.7550   39.7510    9.6160 O   0  0  0  0  0  0  0  0  0  0  0  0
   31.6060   38.1980    7.9740 O   0  0  0  0  0  0  0  0  0  0  0  0
   31.4510   37.1840    7.8830 H   0  0  0  0  0  0  0  0  0  0  0  0
   27.2160   39.6680   11.1790 O   0  0  0  0  0  0  0  0  0  0  0  0
   27.8870   39.0960   11.6360 H   0  0  0  0  0  0  0  0  0  0  0  0
   25.6620   37.8010    9.2860 N   0  0  0  0  0  0  0  0  0  0  0  0
   24.8950   37.2750   10.3570 C   0  0  0  0  0  0  0  0  0  0  0  0
   25.1850   38.0530    8.3860 H   0  0  0  0  0  0  0  0  0  0  0  0
   23.4260   37.0630   10.2580 C   0  0  0  0  0  0  0  0  0  0  0  0
   25.4640   36.9740   11.4310 O   0  0  0  0  0  0  0  0  0  0  0  0
   26.2670   37.0190    6.6650 O   0  0  0  0  0  0  0  0  0  0  0  0
   26.1400   36.4370    5.8960 H   0  0  0  0  0  0  0  0  0  0  0  0
   29.5080   35.5690    6.6610 O   0  0  0  0  0  0  0  0  0  0  0  0
   30.2760   36.1560    6.8100 H   0  0  0  0  0  0  0  0  0  0  0  0
   30.6630   40.3880    6.0040 O   0  0  0  0  0  0  0  0  0  0  0  0
   31.5420   40.9330    5.0430 C   0  0  0  0  0  0  0  0  0  0  0  0
   32.8180   40.1790    5.0550 C   0  0  0  0  0  0  0  0  0  0  0  0
   33.6230   39.8840    3.9830 C   0  0  0  0  0  0  0  0  0  0  0  0
   33.4030   39.6570    6.1240 N   0  0  0  0  0  0  0  0  0  0  0  0
   34.6630   39.1890    4.4800 N   0  0  0  0  0  0  0  0  0  0  0  0
   34.5350   39.0460    5.7880 N   0  0  0  0  0  0  0  0  0  0  0  0
   35.7570   38.6780    3.6790 C   0  0  0  0  0  0  0  0  0  0  0  0
   36.6110   37.7610    4.5500 C   0  0  0  0  0  0  0  0  0  0  0  0
   37.4130   36.9640    3.7090 O   0  0  0  0  0  0  0  0  0  0  0  0
   38.2690   36.7300    4.1800 H   0  0  0  0  0  0  0  0  0  0  0  0
   29.8670   25.5550   16.9770 C   0  0  0  0  0  0  0  0  0  0  0  0
   28.3450   25.7220   17.0260 C   0  0  0  0  0  0  0  0  0  0  0  0
   27.5990   24.4380   16.6960 C   0  0  0  0  0  0  0  0  0  0  0  0
   26.5950   24.0780   17.7570 C   0  0  0  0  0  0  0  0  0  0  0  0
   25.1850   24.2640   17.2070 C   0  0  0  0  0  0  0  0  0  0  0  0
   24.3850   23.0320   17.4010 N   0  0  0  0  0  0  0  0  0  0  0  0
  1  2  1  0  0  0  0
  1  4  1  0  0  0  0
  2 31  1  0  0  0  0
  3  2  2  0  0  0  0
  5  1  1  0  0  0  0
  6  5  1  1  0  0  0
  6 29  1  0  0  0  0
  6  7  1  0  0  0  0
  7 27  1  6  0  0  0
  8  7  1  1  0  0  0
  8 11  1  0  0  0  0
  8 13  1  0  0  0  0
  9 16  1  6  0  0  0
  9 14  1  0  0  0  0
 10  9  1  0  0  0  0
 10 12  1  0  0  0  0
 11  9  1  0  0  0  0
 12 20  1  1  0  0  0
 13 22  1  6  0  0  0
 13 12  1  0  0  0  0
 14 15  1  0  0  0  0
 16 17  2  0  0  0  0
 18 16  1  0  0  0  0
 19 18  1  0  0  0  0
 20 21  1  0  0  0  0
 22 23  1  0  0  0  0
 23 26  2  0  0  0  0
 24 22  1  0  0  0  0
 25 23  1  0  0  0  0
 28 27  1  0  0  0  0
 29 30  1  0  0  0  0
 32 33  1  0  0  0  0
 32 31  1  0  0  0  0
 33 35  1  0  0  0  0
 34 36  1  0  0  0  0
 34 33  2  0  0  0  0
 36 37  1  0  0  0  0
 37 35  2  0  0  0  0
 38 36  1  0  0  0  0
 38 39  1  0  0  0  0
 40 41  1  0  0  0  0
 40 39  1  0  0  0  0
 42 43  1  0  0  0  0
 44 43  1  0  0  0  0
 44 45  1  0  0  0  0
 46 47  1  0  0  0  0
 46 45  1  0  0  0  0
M  END
>  <REMARK>
 VINA RESULT:    -3.567      0.000      0.000
 INTER + INTRA:         -14.059
 INTER:                  -8.611
 INTRA:                  -5.448
 UNBOUND:                -7.572
 SMILES CC(=O)N[C@@H]1[C@@H](O)C[C@](O)(C(=O)O)O[C@H]1C(O)[C@H](O)CNC(=O)OCc1cn(CCO)nn1
 SMILES IDX 21 1 22 2 23 3 20 5 18 6 16 7 15 8 9 9 8 10 14 11 6 12 5 13
 SMILES IDX 10 14 11 16 12 17 13 18 7 20 4 22 2 23 1 25 3 26 17 27 19 29
 SMILES IDX 24 31 25 32 26 33 27 34 33 35 28 36 32 37 29 38 30 39 31 40
 H PARENT 21 4 10 15 13 19 7 21 4 24 17 28 19 30 31 41
 Flexibility Score: inf
  4 active torsions:
  status: ('A' for Active; 'I' for Inactive)
    1  A    between atoms: CA   and  CB  
    2  A    between atoms: CB   and  CG  
    3  A    between atoms: CG   and  CD  
    4  A    between atoms: CD   and  CE  

>  <TORSDO>
F 17

>  <BEGIN_>
RES LYS A 131

$$$$
ligand_1_pose_0_2HRL.pdbqt
 OpenBabel07062320523D

  6  5  0  0  0  0  0  0  0  0999 V2000
   33.1930   34.6630    9.2900 C   0  0  0  0  0  0  0  0  0  0  0  0
   32.0600   35.3600   10.0340 C   0  0  0  0  0  0  0  0  0  0  0  0
   30.7130   34.7210    9.8150 C   0  0  0  0  0  0  0  0  0  0  0  0
   29.8620   34.8190   11.0720 C   0  0  0  0  0  0  0  0  0  0  0  0
   28.4050   34.5460   10.7520 C   0  0  0  0  0  0  0  0  0  0  0  0
   28.2680   33.8060    9.4660 N   0  0  0  0  0  0  0  0  0  0  0  0
  1  2  1  0  0  0  0
  3  2  1  0  0  0  0
  3  4  1  0  0  0  0
  5  4  1  0  0  0  0
  6  5  1  0  0  0  0
M  END
>  <EGIN_R>
ES LYS A 135

>  <REMARK>
  4 active torsions:
  status: ('A' for Active; 'I' for Inactive)
    5  A    between atoms: CA   and  CB  
    6  A    between atoms: CB   and  CG  
    7  A    between atoms: CG   and  CD  
    8  A    between atoms: CD   and  CE  

$$$$
ligand_20_pose_0_2HRL.pdbqt
 OpenBabel07062320523D

 53 55  0  0  1  0  0  0  0  0999 V2000
   28.1030   32.4550   16.5080 C   0  0  0  0  0  0  0  0  0  0  0  0
   29.4120   31.9450   16.0880 C   0  0  2  0  0  0  0  0  0  0  0  0
   29.9240   32.7040   14.8430 C   0  0  1  0  0  0  0  0  0  0  0  0
   30.0990   34.1430   15.0610 C   0  0  2  0  0  0  0  0  0  0  0  0
   28.7800   35.2280   13.4640 C   0  0  2  0  0  0  0  0  0  0  0  0
   29.9300   35.0290   12.5180 C   0  0  0  0  0  0  0  0  0  0  0  0
   29.0600   34.9790   14.7750 O   0  0  0  0  0  0  0  0  0  0  0  0
   31.2640   35.2770   13.1300 C   0  0  1  0  0  0  0  0  0  0  0  0
   31.4240   34.6530   14.4800 C   0  0  1  0  0  0  0  0  0  0  0  0
   27.7050   34.4410   13.0520 O   0  0  0  0  0  0  0  0  0  0  0  0
   27.3600   34.7120   12.1670 H   0  0  0  0  0  0  0  0  0  0  0  0
   28.3720   36.6480   13.3530 C   0  0  0  0  0  0  0  0  0  0  0  0
   28.7410   37.4700   14.2070 O   0  0  0  0  0  0  0  0  0  0  0  0
   27.5820   37.0550   12.2990 O   0  0  0  0  0  0  0  0  0  0  0  0
   26.6660   36.6350   12.0870 H   0  0  0  0  0  0  0  0  0  0  0  0
   32.2440   34.8140   12.2320 O   0  0  0  0  0  0  0  0  0  0  0  0
   32.9190   35.5330   12.1890 H   0  0  0  0  0  0  0  0  0  0  0  0
   32.1340   35.4900   15.4100 N   0  0  0  0  0  0  0  0  0  0  0  0
   33.5540   35.5330   15.4660 C   0  0  0  0  0  0  0  0  0  0  0  0
   31.5930   36.1050   16.0900 H   0  0  0  0  0  0  0  0  0  0  0  0
   34.2350   36.4080   16.4390 C   0  0  0  0  0  0  0  0  0  0  0  0
   34.2090   34.8130   14.6710 O   0  0  0  0  0  0  0  0  0  0  0  0
   31.2540   32.1590   14.7370 O   0  0  0  0  0  0  0  0  0  0  0  0
   31.3960   31.7900   13.8350 H   0  0  0  0  0  0  0  0  0  0  0  0
   29.1520   30.6140   15.5840 O   0  0  0  0  0  0  0  0  0  0  0  0
   28.7310   30.0750   16.3090 H   0  0  0  0  0  0  0  0  0  0  0  0
   27.0930   32.5500   15.4910 N   0  0  0  0  0  0  0  0  0  0  0  0
   26.0610   31.5840   15.3620 C   0  0  0  0  0  0  0  0  0  0  0  0
   27.0660   33.3610   14.8530 H   0  0  0  0  0  0  0  0  0  0  0  0
   26.0440   30.6210   16.1710 O   0  0  0  0  0  0  0  0  0  0  0  0
   25.0780   31.6410   14.4010 O   0  0  0  0  0  0  0  0  0  0  0  0
   23.9270   32.4610   14.4730 C   0  0  0  0  0  0  0  0  0  0  0  0
   24.1690   33.6620   13.6040 C   0  0  0  0  0  0  0  0  0  0  0  0
   23.6110   33.9580   12.3800 C   0  0  0  0  0  0  0  0  0  0  0  0
   25.0050   34.7060   13.8690 N   0  0  0  0  0  0  0  0  0  0  0  0
   24.1360   35.1520   11.9780 N   0  0  0  0  0  0  0  0  0  0  0  0
   24.9770   35.5810   12.9020 N   0  0  0  0  0  0  0  0  0  0  0  0
   23.8120   35.8040   10.7610 C   0  0  0  0  0  0  0  0  0  0  0  0
   22.7930   35.3030    9.9740 C   0  0  0  0  0  0  0  0  0  0  0  0
   24.4650   36.9300   10.3060 C   0  0  0  0  0  0  0  0  0  0  0  0
   22.4330   35.8930    8.7800 C   0  0  0  0  0  0  0  0  0  0  0  0
   24.1260   37.5310    9.1290 C   0  0  0  0  0  0  0  0  0  0  0  0
   23.0970   37.0240    8.3360 C   0  0  0  0  0  0  0  0  0  0  0  0
   24.5930   38.6320    8.4510 C   0  0  0  0  0  0  0  0  0  0  0  0
   22.9790   37.8010    7.2480 N   0  0  0  0  0  0  0  0  0  0  0  0
   23.8670   38.7670    7.3030 N   0  0  0  0  0  0  0  0  0  0  0  0
   22.2900   37.6540    6.4880 H   0  0  0  0  0  0  0  0  0  0  0  0
   29.8670   25.5550   16.9770 C   0  0  0  0  0  0  0  0  0  0  0  0
   28.3450   25.7220   17.0260 C   0  0  0  0  0  0  0  0  0  0  0  0
   27.6010   24.4030   16.8810 C   0  0  0  0  0  0  0  0  0  0  0  0
   26.2690   24.4250   17.5780 C   0  0  0  0  0  0  0  0  0  0  0  0
   25.6560   23.0290   17.5470 C   0  0  0  0  0  0  0  0  0  0  0  0
   24.2270   23.0810   17.9380 N   0  0  0  0  0  0  0  0  0  0  0  0
  2  1  1  6  0  0  0
  3 23  1  1  0  0  0
  3  2  1  0  0  0  0
  4  3  1  6  0  0  0
  5 10  1  6  0  0  0
  5  7  1  0  0  0  0
  6  8  1  0  0  0  0
  6  5  1  0  0  0  0
  7  4  1  0  0  0  0
  8 16  1  6  0  0  0
  8  9  1  0  0  0  0
  9  4  1  0  0  0  0
  9 18  1  1  0  0  0
 11 10  1  0  0  0  0
 12  5  1  0  0  0  0
 12 13  2  0  0  0  0
 14 12  1  0  0  0  0
 15 14  1  0  0  0  0
 17 16  1  0  0  0  0
 18 19  1  0  0  0  0
 18 20  1  0  0  0  0
 19 21  1  0  0  0  0
 22 19  2  0  0  0  0
 24 23  1  0  0  0  0
 25  2  1  0  0  0  0
 25 26  1  0  0  0  0
 27  1  1  0  0  0  0
 28 27  1  0  0  0  0
 28 30  2  0  0  0  0
 29 27  1  0  0  0  0
 31 32  1  0  0  0  0
 31 28  1  0  0  0  0
 33 35  1  0  0  0  0
 33 32  1  0  0  0  0
 34 33  2  0  0  0  0
 36 34  1  0  0  0  0
 36 37  1  0  0  0  0
 37 35  2  0  0  0  0
 38 36  1  0  0  0  0
 39 38  2  0  0  0  0
 40 38  1  0  0  0  0
 41 39  1  0  0  0  0
 42 40  2  0  0  0  0
 43 41  2  0  0  0  0
 43 42  1  0  0  0  0
 44 42  1  0  0  0  0
 45 46  1  0  0  0  0
 45 43  1  0  0  0  0
 46 44  2  0  0  0  0
 47 45  1  0  0  0  0
 48 49  1  0  0  0  0
 50 49  1  0  0  0  0
 50 51  1  0  0  0  0
 52 51  1  0  0  0  0
 52 53  1  0  0  0  0
M  END
>  <REMARK>
 VINA RESULT:    -5.196      0.000      0.000
 INTER + INTRA:         -15.483
 INTER:                  -9.085
 INTRA:                  -6.398
 UNBOUND:                -6.490
 SMILES CC(=O)N[C@@H]1[C@@H](O)C[C@](O)(C(=O)O)O[C@H]1C(O)[C@H](O)CNC(=O)OCc1cn(-c2ccc3[nH]ncc3c2)nn1
 SMILES IDX 20 1 18 2 16 3 15 4 9 5 8 6 14 7 6 8 5 9 10 10 11 12 12 13
 SMILES IDX 13 14 7 16 4 18 2 19 1 21 3 22 17 23 19 25 21 27 22 28 23 30
 SMILES IDX 24 31 25 32 26 33 27 34 39 35 28 36 38 37 29 38 30 39 37 40
 SMILES IDX 31 41 36 42 32 43 35 44 33 45 34 46
 H PARENT 10 11 13 15 7 17 4 20 17 24 19 26 21 29 33 47
 Flexibility Score: inf
  4 active torsions:
  status: ('A' for Active; 'I' for Inactive)
    1  A    between atoms: CA   and  CB  
    2  A    between atoms: CB   and  CG  
    3  A    between atoms: CG   and  CD  
    4  A    between atoms: CD   and  CE  

>  <TORSDO>
F 15

>  <BEGIN_>
RES LYS A 131

$$$$
ligand_20_pose_0_2HRL.pdbqt
 OpenBabel07062320523D

  6  5  0  0  0  0  0  0  0  0999 V2000
   33.1930   34.6630    9.2900 C   0  0  0  0  0  0  0  0  0  0  0  0
   32.0600   35.3600   10.0340 C   0  0  0  0  0  0  0  0  0  0  0  0
   30.8620   35.6540    9.1680 C   0  0  0  0  0  0  0  0  0  0  0  0
   30.3330   34.3780    8.5320 C   0  0  0  0  0  0  0  0  0  0  0  0
   28.8220   34.4260    8.4180 C   0  0  0  0  0  0  0  0  0  0  0  0
   28.1740   33.7700    9.5880 N   0  0  0  0  0  0  0  0  0  0  0  0
  1  2  1  0  0  0  0
  3  2  1  0  0  0  0
  4  3  1  0  0  0  0
  5  4  1  0  0  0  0
  5  6  1  0  0  0  0
M  END
>  <EGIN_R>
ES LYS A 135

>  <REMARK>
  4 active torsions:
  status: ('A' for Active; 'I' for Inactive)
    5  A    between atoms: CA   and  CB  
    6  A    between atoms: CB   and  CG  
    7  A    between atoms: CG   and  CD  
    8  A    between atoms: CD   and  CE  

$$$$
ligand_21_pose_0_2HRL.pdbqt
 OpenBabel07062320523D

 54 55  0  0  1  0  0  0  0  0999 V2000
   25.1700   40.5290    5.8020 N   0  0  0  0  0  0  0  0  0  0  0  0
   26.0310   41.0970    4.8160 C   0  0  0  0  0  0  0  0  0  0  0  0
   25.9840   42.3310    4.6320 O   0  0  0  0  0  0  0  0  0  0  0  0
   25.2160   39.5010    5.9450 H   0  0  0  0  0  0  0  0  0  0  0  0
   24.2680   41.3540    6.5610 C   0  0  0  0  0  0  0  0  0  0  0  0
   23.5270   40.4580    7.5590 C   0  0  2  0  0  0  0  0  0  0  0  0
   24.2530   39.1460    7.6690 C   0  0  2  0  0  0  0  0  0  0  0  0
   23.4000   38.1750    8.4400 C   0  0  2  0  0  0  0  0  0  0  0  0
   21.5160   36.8310    8.2070 C   0  0  2  0  0  0  0  0  0  0  0  0
   20.7150   37.7010    9.1470 C   0  0  0  0  0  0  0  0  0  0  0  0
   22.4570   37.6560    7.6120 O   0  0  0  0  0  0  0  0  0  0  0  0
   21.6240   38.2060   10.2140 C   0  0  1  0  0  0  0  0  0  0  0  0
   22.9000   38.8050    9.6900 C   0  0  1  0  0  0  0  0  0  0  0  0
   20.6200   36.4600    7.1830 O   0  0  0  0  0  0  0  0  0  0  0  0
   19.8530   37.0740    7.1310 H   0  0  0  0  0  0  0  0  0  0  0  0
   22.0860   35.6310    8.8500 C   0  0  0  0  0  0  0  0  0  0  0  0
   23.2710   35.2480    8.6990 O   0  0  0  0  0  0  0  0  0  0  0  0
   21.2830   34.8640    9.6730 O   0  0  0  0  0  0  0  0  0  0  0  0
   21.4430   33.8710    9.8590 H   0  0  0  0  0  0  0  0  0  0  0  0
   20.9000   39.1690   10.9510 O   0  0  0  0  0  0  0  0  0  0  0  0
   21.4250   39.3890   11.7770 H   0  0  0  0  0  0  0  0  0  0  0  0
   23.9160   38.6690   10.7170 N   0  0  0  0  0  0  0  0  0  0  0  0
   24.4030   39.7900   11.4550 C   0  0  0  0  0  0  0  0  0  0  0  0
   24.3190   37.7350   10.9440 H   0  0  0  0  0  0  0  0  0  0  0  0
   25.4410   39.5930   12.4920 C   0  0  0  0  0  0  0  0  0  0  0  0
   23.9500   40.9300   11.2190 O   0  0  0  0  0  0  0  0  0  0  0  0
   25.5000   39.2920    8.2890 O   0  0  0  0  0  0  0  0  0  0  0  0
   25.7820   38.4140    8.6370 H   0  0  0  0  0  0  0  0  0  0  0  0
   22.2270   40.3490    7.1200 O   0  0  0  0  0  0  0  0  0  0  0  0
   22.1090   39.7370    6.3640 H   0  0  0  0  0  0  0  0  0  0  0  0
   26.8900   40.2830    4.0960 O   0  0  0  0  0  0  0  0  0  0  0  0
   28.1530   39.9070    4.5930 C   0  0  0  0  0  0  0  0  0  0  0  0
   27.9710   38.8770    5.6270 C   0  0  0  0  0  0  0  0  0  0  0  0
   27.5960   37.5470    5.4200 C   0  0  0  0  0  0  0  0  0  0  0  0
   28.1200   38.9890    6.9720 N   0  0  0  0  0  0  0  0  0  0  0  0
   27.5420   36.9570    6.6080 N   0  0  0  0  0  0  0  0  0  0  0  0
   27.8600   37.8320    7.5460 N   0  0  0  0  0  0  0  0  0  0  0  0
   27.1970   35.5720    6.8530 C   0  0  0  0  0  0  0  0  0  0  0  0
   28.2570   35.0340    7.7710 C   0  0  0  0  0  0  0  0  0  0  0  0
   27.8830   34.5960    9.0150 C   0  0  0  0  0  0  0  0  0  0  0  0
   29.5620   34.9920    7.3530 C   0  0  0  0  0  0  0  0  0  0  0  0
   28.8140   34.0990    9.8890 C   0  0  0  0  0  0  0  0  0  0  0  0
   30.5240   34.4860    8.2340 C   0  0  0  0  0  0  0  0  0  0  0  0
   30.1280   34.0560    9.4710 C   0  0  0  0  0  0  0  0  0  0  0  0
   26.5520   34.6550    9.4000 O   0  0  0  0  0  0  0  0  0  0  0  0
   26.2110   35.5700   10.3950 C   0  0  0  0  0  0  0  0  0  0  0  0
   26.2100   36.7960   10.1320 O   0  0  0  0  0  0  0  0  0  0  0  0
   25.8490   35.1120   11.7580 C   0  0  0  0  0  0  0  0  0  0  0  0
   29.8670   25.5550   16.9770 C   0  0  0  0  0  0  0  0  0  0  0  0
   28.3450   25.7220   17.0260 C   0  0  0  0  0  0  0  0  0  0  0  0
   27.6010   24.4010   16.9000 C   0  0  0  0  0  0  0  0  0  0  0  0
   26.1610   24.5210   17.3140 C   0  0  0  0  0  0  0  0  0  0  0  0
   25.9650   23.8560   18.6730 C   0  0  0  0  0  0  0  0  0  0  0  0
   24.6140   23.2540   18.7660 N   0  0  0  0  0  0  0  0  0  0  0  0
  1  4  1  0  0  0  0
  1  5  1  0  0  0  0
  2  1  1  0  0  0  0
  3  2  2  0  0  0  0
  6  5  1  6  0  0  0
  6  7  1  0  0  0  0
  7 27  1  1  0  0  0
  8  7  1  6  0  0  0
  8 13  1  0  0  0  0
  9 14  1  6  0  0  0
  9 16  1  0  0  0  0
  9 10  1  0  0  0  0
 10 12  1  0  0  0  0
 11  9  1  0  0  0  0
 11  8  1  0  0  0  0
 12 20  1  6  0  0  0
 13 12  1  0  0  0  0
 13 22  1  1  0  0  0
 15 14  1  0  0  0  0
 16 18  1  0  0  0  0
 17 16  2  0  0  0  0
 18 19  1  0  0  0  0
 20 21  1  0  0  0  0
 22 24  1  0  0  0  0
 22 23  1  0  0  0  0
 23 25  1  0  0  0  0
 26 23  2  0  0  0  0
 27 28  1  0  0  0  0
 29  6  1  0  0  0  0
 30 29  1  0  0  0  0
 31 32  1  0  0  0  0
 31  2  1  0  0  0  0
 32 33  1  0  0  0  0
 33 35  1  0  0  0  0
 34 33  2  0  0  0  0
 34 36  1  0  0  0  0
 35 37  2  0  0  0  0
 36 38  1  0  0  0  0
 36 37  1  0  0  0  0
 38 39  1  0  0  0  0
 39 40  1  0  0  0  0
 40 45  1  0  0  0  0
 40 42  2  0  0  0  0
 41 39  2  0  0  0  0
 41 43  1  0  0  0  0
 43 44  2  0  0  0  0
 44 42  1  0  0  0  0
 45 46  1  0  0  0  0
 46 48  1  0  0  0  0
 47 46  2  0  0  0  0
 49 50  1  0  0  0  0
 51 50  1  0  0  0  0
 51 52  1  0  0  0  0
 52 53  1  0  0  0  0
 53 54  1  0  0  0  0
M  END
>  <REMARK>
 VINA RESULT:    -4.981      0.000      0.000
 INTER + INTRA:         -15.769
 INTER:                 -10.164
 INTRA:                  -5.605
 UNBOUND:                -6.275
 SMILES CC(=O)N[C@@H]1[C@@H](O)C[C@](O)(C(=O)O)O[C@H]1C(O)[C@H](O)CNC(=O)OCc1cn(Cc2ccccc2OC(C)=O)nn1
 SMILES IDX 21 1 22 2 23 3 20 5 18 6 16 7 15 8 9 9 8 10 14 11 6 12 5 13
 SMILES IDX 10 14 11 16 12 17 13 18 7 20 4 22 2 23 1 25 3 26 17 27 19 29
 SMILES IDX 24 31 25 32 26 33 27 34 41 35 28 36 40 37 29 38 30 39 35 40
 SMILES IDX 31 41 34 42 32 43 33 44 36 45 37 46 39 47 38 48
 H PARENT 21 4 10 15 13 19 7 21 4 24 17 28 19 30
 Flexibility Score: inf
  4 active torsions:
  status: ('A' for Active; 'I' for Inactive)
    1  A    between atoms: CA   and  CB  
    2  A    between atoms: CB   and  CG  
    3  A    between atoms: CG   and  CD  
    4  A    between atoms: CD   and  CE  

>  <TORSDO>
F 18

>  <BEGIN_>
RES LYS A 131

$$$$
ligand_21_pose_0_2HRL.pdbqt
 OpenBabel07062320523D

  6  5  0  0  0  0  0  0  0  0999 V2000
   33.1930   34.6630    9.2900 C   0  0  0  0  0  0  0  0  0  0  0  0
   32.0600   35.3600   10.0340 C   0  0  0  0  0  0  0  0  0  0  0  0
   32.5040   36.0500   11.2980 C   0  0  0  0  0  0  0  0  0  0  0  0
   31.8970   35.3750   12.5190 C   0  0  0  0  0  0  0  0  0  0  0  0
   30.9650   36.3260   13.2450 C   0  0  0  0  0  0  0  0  0  0  0  0
   31.4360   37.7340   13.1250 N   0  0  0  0  0  0  0  0  0  0  0  0
  1  2  1  0  0  0  0
  2  3  1  0  0  0  0
  3  4  1  0  0  0  0
  4  5  1  0  0  0  0
  6  5  1  0  0  0  0
M  END
>  <EGIN_R>
ES LYS A 135

>  <REMARK>
  4 active torsions:
  status: ('A' for Active; 'I' for Inactive)
    5  A    between atoms: CA   and  CB  
    6  A    between atoms: CB   and  CG  
    7  A    between atoms: CG   and  CD  
    8  A    between atoms: CD   and  CE  

$$$$
ligand_22_pose_0_2HRL.pdbqt
 OpenBabel07062320523D

 50 50  0  0  1  0  0  0  0  0999 V2000
   25.1130   35.2700   14.1500 N   0  0  0  0  0  0  0  0  0  0  0  0
   24.9820   33.8770   13.9410 C   0  0  0  0  0  0  0  0  0  0  0  0
   25.2910   33.3550   12.8150 O   0  0  0  0  0  0  0  0  0  0  0  0
   24.8620   35.6840   15.0670 H   0  0  0  0  0  0  0  0  0  0  0  0
   25.6060   36.0730   13.0600 C   0  0  0  0  0  0  0  0  0  0  0  0
   27.0170   36.5270   13.1900 C   0  0  2  0  0  0  0  0  0  0  0  0
   28.0090   35.6120   12.5170 C   0  0  1  0  0  0  0  0  0  0  0  0
   29.3060   36.4020   12.3060 C   0  0  2  0  0  0  0  0  0  0  0  0
   31.2830   36.8280   13.4550 C   0  0  2  0  0  0  0  0  0  0  0  0
   31.1710   38.3070   13.1590 C   0  0  0  0  0  0  0  0  0  0  0  0
   30.0770   36.1710   13.4400 O   0  0  0  0  0  0  0  0  0  0  0  0
   29.7280   38.7200   13.1420 C   0  0  1  0  0  0  0  0  0  0  0  0
   28.9830   37.8700   12.1310 C   0  0  1  0  0  0  0  0  0  0  0  0
   31.7690   36.7300   14.7680 O   0  0  0  0  0  0  0  0  0  0  0  0
   32.0490   35.8160   14.9540 H   0  0  0  0  0  0  0  0  0  0  0  0
   32.2710   36.1900   12.5570 C   0  0  0  0  0  0  0  0  0  0  0  0
   32.7500   36.8310   11.6000 O   0  0  0  0  0  0  0  0  0  0  0  0
   32.6940   34.8820   12.7390 O   0  0  0  0  0  0  0  0  0  0  0  0
   32.2640   34.2630   13.4110 H   0  0  0  0  0  0  0  0  0  0  0  0
   29.1400   38.6970   14.3830 O   0  0  0  0  0  0  0  0  0  0  0  0
   28.6350   39.5070   14.6160 H   0  0  0  0  0  0  0  0  0  0  0  0
   29.3950   38.3400   10.8090 N   0  0  0  0  0  0  0  0  0  0  0  0
   28.4890   38.3540    9.7140 C   0  0  0  0  0  0  0  0  0  0  0  0
   30.3700   38.6730   10.6540 H   0  0  0  0  0  0  0  0  0  0  0  0
   28.8930   38.8300    8.3580 C   0  0  0  0  0  0  0  0  0  0  0  0
   27.3120   37.9370    9.9560 O   0  0  0  0  0  0  0  0  0  0  0  0
   28.2410   34.4300   13.1610 O   0  0  0  0  0  0  0  0  0  0  0  0
   27.4110   33.9350   13.2970 H   0  0  0  0  0  0  0  0  0  0  0  0
   27.2920   36.5480   14.5820 O   0  0  0  0  0  0  0  0  0  0  0  0
   26.5730   36.0310   15.0490 H   0  0  0  0  0  0  0  0  0  0  0  0
   24.5230   32.9970   14.9000 O   0  0  0  0  0  0  0  0  0  0  0  0
   25.3890   32.0120   15.4900 C   0  0  0  0  0  0  0  0  0  0  0  0
   26.6790   32.6810   15.8040 C   0  0  0  0  0  0  0  0  0  0  0  0
   27.9090   32.0500   15.9000 C   0  0  0  0  0  0  0  0  0  0  0  0
   26.9370   33.9780   16.0550 N   0  0  0  0  0  0  0  0  0  0  0  0
   28.8610   32.9630   16.2010 N   0  0  0  0  0  0  0  0  0  0  0  0
   28.2340   34.1210   16.2860 N   0  0  0  0  0  0  0  0  0  0  0  0
   30.2720   32.6860   16.3810 C   0  0  0  0  0  0  0  0  0  0  0  0
   30.7570   33.2750   17.6900 C   0  0  0  0  0  0  0  0  0  0  0  0
   30.4940   31.1880   16.3810 C   0  0  0  0  0  0  0  0  0  0  0  0
   31.0820   33.3140   15.2970 C   0  0  0  0  0  0  0  0  0  0  0  0
   32.1870   33.8190   15.6200 O   0  0  0  0  0  0  0  0  0  0  0  0
   30.6560   33.3510   13.9830 O   0  0  0  0  0  0  0  0  0  0  0  0
   29.7070   33.0450   13.7920 H   0  0  0  0  0  0  0  0  0  0  0  0
   29.8670   25.5550   16.9770 C   0  0  0  0  0  0  0  0  0  0  0  0
   28.3450   25.7220   17.0260 C   0  0  0  0  0  0  0  0  0  0  0  0
   27.6010   24.4010   16.9030 C   0  0  0  0  0  0  0  0  0  0  0  0
   26.1560   24.5260   17.2970 C   0  0  0  0  0  0  0  0  0  0  0  0
   25.9630   23.9730   18.7060 C   0  0  0  0  0  0  0  0  0  0  0  0
   24.9650   22.8780   18.7010 N   0  0  0  0  0  0  0  0  0  0  0  0
  1  4  1  0  0  0  0
  2  1  1  0  0  0  0
  2 31  1  0  0  0  0
  3  2  2  0  0  0  0
  5  1  1  0  0  0  0
  6  5  1  1  0  0  0
  6 29  1  0  0  0  0
  7 27  1  1  0  0  0
  7  6  1  0  0  0  0
  8  7  1  1  0  0  0
  8 11  1  0  0  0  0
  9 16  1  6  0  0  0
  9 14  1  0  0  0  0
 10  9  1  0  0  0  0
 11  9  1  0  0  0  0
 12 10  1  0  0  0  0
 12 20  1  1  0  0  0
 13 22  1  6  0  0  0
 13  8  1  0  0  0  0
 13 12  1  0  0  0  0
 14 15  1  0  0  0  0
 16 18  1  0  0  0  0
 17 16  2  0  0  0  0
 18 19  1  0  0  0  0
 20 21  1  0  0  0  0
 23 26  2  0  0  0  0
 23 22  1  0  0  0  0
 24 22  1  0  0  0  0
 25 23  1  0  0  0  0
 27 28  1  0  0  0  0
 29 30  1  0  0  0  0
 31 32  1  0  0  0  0
 32 33  1  0  0  0  0
 33 34  2  0  0  0  0
 33 35  1  0  0  0  0
 34 36  1  0  0  0  0
 35 37  2  0  0  0  0
 36 37  1  0  0  0  0
 36 38  1  0  0  0  0
 38 39  1  0  0  0  0
 40 38  1  0  0  0  0
 41 42  2  0  0  0  0
 41 38  1  0  0  0  0
 43 41  1  0  0  0  0
 44 43  1  0  0  0  0
 45 46  1  0  0  0  0
 47 46  1  0  0  0  0
 47 48  1  0  0  0  0
 48 49  1  0  0  0  0
 50 49  1  0  0  0  0
M  END
>  <REMARK>
 VINA RESULT:    -5.152      0.000      0.000
 INTER + INTRA:         -14.946
 INTER:                  -7.284
 INTRA:                  -7.662
 UNBOUND:                -5.578
 SMILES CC(=O)N[C@@H]1[C@@H](O)C[C@](O)(C(=O)O)O[C@H]1C(O)[C@H](O)CNC(=O)OCc1cn(C(C)(C)C(=O)O)nn1
 SMILES IDX 21 1 22 2 23 3 20 5 18 6 16 7 15 8 9 9 8 10 14 11 6 12 5 13
 SMILES IDX 10 14 11 16 12 17 13 18 7 20 4 22 2 23 1 25 3 26 17 27 19 29
 SMILES IDX 24 31 25 32 26 33 27 34 36 35 28 36 35 37 29 38 30 39 31 40
 SMILES IDX 32 41 33 42 34 43
 H PARENT 21 4 10 15 13 19 7 21 4 24 17 28 19 30 34 44
 Flexibility Score: inf
  4 active torsions:
  status: ('A' for Active; 'I' for Inactive)
    1  A    between atoms: CA   and  CB  
    2  A    between atoms: CB   and  CG  
    3  A    between atoms: CG   and  CD  
    4  A    between atoms: CD   and  CE  

>  <TORSDO>
F 17

>  <BEGIN_>
RES LYS A 131

$$$$
ligand_22_pose_0_2HRL.pdbqt
 OpenBabel07062320523D

  6  5  0  0  0  0  0  0  0  0999 V2000
   33.1930   34.6630    9.2900 C   0  0  0  0  0  0  0  0  0  0  0  0
   32.0600   35.3600   10.0340 C   0  0  0  0  0  0  0  0  0  0  0  0
   30.7600   35.3780    9.2720 C   0  0  0  0  0  0  0  0  0  0  0  0
   30.0570   34.0340    9.3780 C   0  0  0  0  0  0  0  0  0  0  0  0
   28.5880   34.1730    9.0260 C   0  0  0  0  0  0  0  0  0  0  0  0
   28.3970   35.0920    7.8700 N   0  0  0  0  0  0  0  0  0  0  0  0
  1  2  1  0  0  0  0
  3  4  1  0  0  0  0
  3  2  1  0  0  0  0
  5  4  1  0  0  0  0
  6  5  1  0  0  0  0
M  END
>  <EGIN_R>
ES LYS A 135

>  <REMARK>
  4 active torsions:
  status: ('A' for Active; 'I' for Inactive)
    5  A    between atoms: CA   and  CB  
    6  A    between atoms: CB   and  CG  
    7  A    between atoms: CG   and  CD  
    8  A    between atoms: CD   and  CE  

$$$$
ligand_23_pose_0_2HRL.pdbqt
 OpenBabel07062320523D

 55 56  0  0  1  0  0  0  0  0999 V2000
   25.6770   37.1720   10.8040 N   0  0  0  0  0  0  0  0  0  0  0  0
   26.1170   38.3350   11.4860 C   0  0  0  0  0  0  0  0  0  0  0  0
   25.3300   39.2890   11.6130 O   0  0  0  0  0  0  0  0  0  0  0  0
   26.3950   36.4010   10.7340 H   0  0  0  0  0  0  0  0  0  0  0  0
   24.3540   37.0440   10.2470 C   0  0  0  0  0  0  0  0  0  0  0  0
   24.4140   36.5710    8.8100 C   0  0  2  0  0  0  0  0  0  0  0  0
   25.2940   37.5200    8.0080 C   0  0  1  0  0  0  0  0  0  0  0  0
   26.3340   36.6920    7.2560 C   0  0  2  0  0  0  0  0  0  0  0  0
   28.0580   35.6820    8.4310 C   0  0  2  0  0  0  0  0  0  0  0  0
   29.0350   35.8240    7.2880 C   0  0  0  0  0  0  0  0  0  0  0  0
   26.7440   35.6370    8.0110 O   0  0  0  0  0  0  0  0  0  0  0  0
   28.5370   36.7140    6.2000 C   0  0  1  0  0  0  0  0  0  0  0  0
   27.4250   37.5950    6.7690 C   0  0  1  0  0  0  0  0  0  0  0  0
   28.2160   36.6900    9.3780 O   0  0  0  0  0  0  0  0  0  0  0  0
   27.8060   37.5360    9.0170 H   0  0  0  0  0  0  0  0  0  0  0  0
   28.3570   34.3870    9.0980 C   0  0  0  0  0  0  0  0  0  0  0  0
   29.4540   33.7940    8.9280 O   0  0  0  0  0  0  0  0  0  0  0  0
   27.4360   33.7650    9.9430 O   0  0  0  0  0  0  0  0  0  0  0  0
   26.4410   33.8760    9.7890 H   0  0  0  0  0  0  0  0  0  0  0  0
   29.5190   37.4880    5.6070 O   0  0  0  0  0  0  0  0  0  0  0  0
   29.5500   38.4230    5.9580 H   0  0  0  0  0  0  0  0  0  0  0  0
   26.8760   38.4110    5.6990 N   0  0  0  0  0  0  0  0  0  0  0  0
   27.2620   39.7690    5.4980 C   0  0  0  0  0  0  0  0  0  0  0  0
   26.1640   37.9800    5.0470 H   0  0  0  0  0  0  0  0  0  0  0  0
   26.6350   40.5060    4.3710 C   0  0  0  0  0  0  0  0  0  0  0  0
   28.1010   40.2600    6.2730 O   0  0  0  0  0  0  0  0  0  0  0  0
   24.4910   38.1550    7.0770 O   0  0  0  0  0  0  0  0  0  0  0  0
   23.5390   37.9360    7.2150 H   0  0  0  0  0  0  0  0  0  0  0  0
   23.1060   36.5850    8.2930 O   0  0  0  0  0  0  0  0  0  0  0  0
   22.4350   36.3600    9.0100 H   0  0  0  0  0  0  0  0  0  0  0  0
   27.4080   38.4260   12.0140 O   0  0  0  0  0  0  0  0  0  0  0  0
   27.6980   37.9800   13.3230 C   0  0  0  0  0  0  0  0  0  0  0  0
   28.2100   36.5870   13.2840 C   0  0  0  0  0  0  0  0  0  0  0  0
   28.6170   35.8620   14.3870 C   0  0  0  0  0  0  0  0  0  0  0  0
   28.3750   35.7840   12.2260 N   0  0  0  0  0  0  0  0  0  0  0  0
   29.0010   34.6660   13.9130 N   0  0  0  0  0  0  0  0  0  0  0  0
   28.8580   34.6080   12.5980 N   0  0  0  0  0  0  0  0  0  0  0  0
   29.5000   33.5880   14.7010 C   0  0  0  0  0  0  0  0  0  0  0  0
   28.6770   32.7250   15.3910 C   0  0  0  0  0  0  0  0  0  0  0  0
   30.8640   33.3690   14.8030 C   0  0  0  0  0  0  0  0  0  0  0  0
   29.1730   31.6740   16.1600 C   0  0  0  0  0  0  0  0  0  0  0  0
   31.3750   32.3430   15.5510 C   0  0  0  0  0  0  0  0  0  0  0  0
   30.5280   31.4980   16.2270 C   0  0  0  0  0  0  0  0  0  0  0  0
   28.1320   30.5910   17.0250 S   0  0  0  0  0  0  0  0  0  0  0  0
   27.7670   29.4510   16.1080 O   0  0  0  0  0  0  0  0  0  0  0  0
   26.8400   31.3000   17.3580 O   0  0  0  0  0  0  0  0  0  0  0  0
   28.8910   29.9620   18.4300 N   0  0  0  0  0  0  0  0  0  0  0  0
   29.6710   29.3380   18.1570 H   0  0  0  0  0  0  0  0  0  0  0  0
   28.2210   29.4790   19.0640 H   0  0  0  0  0  0  0  0  0  0  0  0
   29.8670   25.5550   16.9770 C   0  0  0  0  0  0  0  0  0  0  0  0
   28.3450   25.7220   17.0260 C   0  0  0  0  0  0  0  0  0  0  0  0
   27.6020   24.3990   16.9180 C   0  0  0  0  0  0  0  0  0  0  0  0
   26.1540   24.5300   17.3030 C   0  0  0  0  0  0  0  0  0  0  0  0
   25.7910   23.4320   18.2980 C   0  0  0  0  0  0  0  0  0  0  0  0
   24.9400   22.4060   17.6490 N   0  0  0  0  0  0  0  0  0  0  0  0
  1  2  1  0  0  0  0
  2  3  2  0  0  0  0
  2 31  1  0  0  0  0
  4  1  1  0  0  0  0
  5  1  1  0  0  0  0
  6  5  1  1  0  0  0
  7 27  1  6  0  0  0
  7  6  1  0  0  0  0
  8  7  1  1  0  0  0
  8 11  1  0  0  0  0
  9 16  1  1  0  0  0
  9 14  1  0  0  0  0
 10  9  1  0  0  0  0
 11  9  1  0  0  0  0
 12 20  1  1  0  0  0
 12 13  1  0  0  0  0
 12 10  1  0  0  0  0
 13 22  1  6  0  0  0
 13  8  1  0  0  0  0
 15 14  1  0  0  0  0
 16 18  1  0  0  0  0
 17 16  2  0  0  0  0
 19 18  1  0  0  0  0
 20 21  1  0  0  0  0
 23 22  1  0  0  0  0
 23 26  2  0  0  0  0
 24 22  1  0  0  0  0
 25 23  1  0  0  0  0
 27 28  1  0  0  0  0
 29  6  1  0  0  0  0
 29 30  1  0  0  0  0
 31 32  1  0  0  0  0
 33 32  1  0  0  0  0
 33 34  2  0  0  0  0
 35 37  2  0  0  0  0
 35 33  1  0  0  0  0
 36 34  1  0  0  0  0
 36 38  1  0  0  0  0
 37 36  1  0  0  0  0
 38 40  2  0  0  0  0
 38 39  1  0  0  0  0
 39 41  2  0  0  0  0
 40 42  1  0  0  0  0
 41 43  1  0  0  0  0
 41 44  1  0  0  0  0
 42 43  2  0  0  0  0
 44 46  2  0  0  0  0
 44 47  1  0  0  0  0
 45 44  2  0  0  0  0
 47 49  1  0  0  0  0
 48 47  1  0  0  0  0
 50 51  1  0  0  0  0
 52 51  1  0  0  0  0
 52 53  1  0  0  0  0
 53 54  1  0  0  0  0
 55 54  1  0  0  0  0
M  END
>  <REMARK>
 VINA RESULT:    -5.024      0.000      0.000
 INTER + INTRA:         -15.759
 INTER:                 -10.923
 INTRA:                  -4.836
 UNBOUND:                -6.624
 SMILES CC(=O)N[C@@H]1[C@@H](O)C[C@](O)(C(=O)O)O[C@H]1C(O)[C@H](O)CNC(=O)OCc1cn(-c2cccc(S(N)(=O)=O)c2)nn1
 SMILES IDX 21 1 22 2 23 3 20 5 18 6 16 7 15 8 9 9 8 10 14 11 6 12 5 13
 SMILES IDX 10 14 11 16 12 17 13 18 7 20 4 22 2 23 1 25 3 26 17 27 19 29
 SMILES IDX 24 31 25 32 26 33 27 34 40 35 28 36 39 37 29 38 38 39 30 40
 SMILES IDX 33 41 31 42 32 43 34 44 36 45 37 46 35 47
 H PARENT 21 4 10 15 13 19 7 21 4 24 17 28 19 30 35 48 35 49
 Flexibility Score: inf
  4 active torsions:
  status: ('A' for Active; 'I' for Inactive)
    1  A    between atoms: CA   and  CB  
    2  A    between atoms: CB   and  CG  
    3  A    between atoms: CG   and  CD  
    4  A    between atoms: CD   and  CE  

>  <TORSDO>
F 17

>  <BEGIN_>
RES LYS A 131

$$$$
ligand_23_pose_0_2HRL.pdbqt
 OpenBabel07062320523D

  6  5  0  0  0  0  0  0  0  0999 V2000
   33.1930   34.6630    9.2900 C   0  0  0  0  0  0  0  0  0  0  0  0
   32.0600   35.3600   10.0340 C   0  0  0  0  0  0  0  0  0  0  0  0
   32.5360   36.3490   11.0660 C   0  0  0  0  0  0  0  0  0  0  0  0
   31.4880   37.4260   11.3010 C   0  0  0  0  0  0  0  0  0  0  0  0
   31.5090   37.8840   12.7470 C   0  0  0  0  0  0  0  0  0  0  0  0
   31.9300   36.7800   13.6530 N   0  0  0  0  0  0  0  0  0  0  0  0
  1  2  1  0  0  0  0
  2  3  1  0  0  0  0
  3  4  1  0  0  0  0
  4  5  1  0  0  0  0
  5  6  1  0  0  0  0
M  END
>  <EGIN_R>
ES LYS A 135

>  <REMARK>
  4 active torsions:
  status: ('A' for Active; 'I' for Inactive)
    5  A    between atoms: CA   and  CB  
    6  A    between atoms: CB   and  CG  
    7  A    between atoms: CG   and  CD  
    8  A    between atoms: CD   and  CE  

$$$$
ligand_24_pose_0_2HRL.pdbqt
 OpenBabel07062320523D

 52 53  0  0  1  0  0  0  0  0999 V2000
   25.0550   28.8610   18.9350 N   0  0  0  0  0  0  0  0  0  0  0  0
   24.6000   28.5890   17.6260 C   0  0  0  0  0  0  0  0  0  0  0  0
   24.2820   27.4410   17.2330 O   0  0  0  0  0  0  0  0  0  0  0  0
   25.2980   29.8560   19.1520 H   0  0  0  0  0  0  0  0  0  0  0  0
   25.1970   27.8770   19.9600 C   0  0  0  0  0  0  0  0  0  0  0  0
   26.5730   27.7420   20.5150 C   0  0  2  0  0  0  0  0  0  0  0  0
   27.6380   28.2600   19.5740 C   0  0  1  0  0  0  0  0  0  0  0  0
   28.8780   28.7290   20.2470 C   0  0  2  0  0  0  0  0  0  0  0  0
   30.6250   28.0870   21.6240 C   0  0  2  0  0  0  0  0  0  0  0  0
   30.5590   29.3660   22.4100 C   0  0  0  0  0  0  0  0  0  0  0  0
   29.4780   27.7190   20.9950 O   0  0  0  0  0  0  0  0  0  0  0  0
   29.7350   30.4340   21.7210 C   0  0  1  0  0  0  0  0  0  0  0  0
   28.4670   29.7890   21.2750 C   0  0  1  0  0  0  0  0  0  0  0  0
   30.8860   27.0790   22.5890 O   0  0  0  0  0  0  0  0  0  0  0  0
   30.0190   26.9100   23.0290 H   0  0  0  0  0  0  0  0  0  0  0  0
   31.8260   28.1490   20.7580 C   0  0  0  0  0  0  0  0  0  0  0  0
   32.6870   29.0730   20.8570 O   0  0  0  0  0  0  0  0  0  0  0  0
   32.0780   27.1880   19.7810 O   0  0  0  0  0  0  0  0  0  0  0  0
   31.8020   27.3370   18.8290 H   0  0  0  0  0  0  0  0  0  0  0  0
   29.5440   31.5020   22.5760 O   0  0  0  0  0  0  0  0  0  0  0  0
   30.3130   31.5940   23.1600 H   0  0  0  0  0  0  0  0  0  0  0  0
   27.4700   30.6930   20.7980 N   0  0  0  0  0  0  0  0  0  0  0  0
   26.4620   31.2750   21.5780 C   0  0  0  0  0  0  0  0  0  0  0  0
   27.4940   30.9490   19.7730 H   0  0  0  0  0  0  0  0  0  0  0  0
   25.4840   32.2010   20.9600 C   0  0  0  0  0  0  0  0  0  0  0  0
   26.3820   31.0190   22.7830 O   0  0  0  0  0  0  0  0  0  0  0  0
   27.9200   27.2960   18.6310 O   0  0  0  0  0  0  0  0  0  0  0  0
   28.5450   27.5670   17.9220 H   0  0  0  0  0  0  0  0  0  0  0  0
   26.8600   26.4920   20.9790 O   0  0  0  0  0  0  0  0  0  0  0  0
   26.4580   26.4060   21.8960 H   0  0  0  0  0  0  0  0  0  0  0  0
   24.4900   29.6430   16.6990 O   0  0  0  0  0  0  0  0  0  0  0  0
   25.6120   29.9510   15.9040 C   0  0  0  0  0  0  0  0  0  0  0  0
   26.7050   30.5580   16.6840 C   0  0  0  0  0  0  0  0  0  0  0  0
   28.0670   30.2520   16.6100 C   0  0  0  0  0  0  0  0  0  0  0  0
   26.6170   31.5190   17.6210 N   0  0  0  0  0  0  0  0  0  0  0  0
   28.7310   31.0230   17.4830 N   0  0  0  0  0  0  0  0  0  0  0  0
   27.8310   31.7790   18.0820 N   0  0  0  0  0  0  0  0  0  0  0  0
   30.1460   31.0450   17.7420 C   0  0  0  0  0  0  0  0  0  0  0  0
   30.8070   32.1730   17.0510 C   0  0  0  0  0  0  0  0  0  0  0  0
   31.1260   33.3220   17.7380 C   0  0  0  0  0  0  0  0  0  0  0  0
   31.1020   32.0730   15.7160 C   0  0  0  0  0  0  0  0  0  0  0  0
   31.7490   34.3790   17.0780 C   0  0  0  0  0  0  0  0  0  0  0  0
   31.7250   33.1240   15.0440 C   0  0  0  0  0  0  0  0  0  0  0  0
   32.0450   34.2680   15.7290 C   0  0  0  0  0  0  0  0  0  0  0  0
   32.6680   35.3390   15.0860 O   0  0  0  0  0  0  0  0  0  0  0  0
   32.7180   35.3680   13.6700 C   0  0  0  0  0  0  0  0  0  0  0  0
   29.8670   25.5550   16.9770 C   0  0  0  0  0  0  0  0  0  0  0  0
   28.3450   25.7220   17.0260 C   0  0  0  0  0  0  0  0  0  0  0  0
   27.5990   24.4610   16.6170 C   0  0  0  0  0  0  0  0  0  0  0  0
   27.0580   23.7130   17.8040 C   0  0  0  0  0  0  0  0  0  0  0  0
   25.8050   24.4130   18.3200 C   0  0  0  0  0  0  0  0  0  0  0  0
   25.3790   23.8270   19.6130 N   0  0  0  0  0  0  0  0  0  0  0  0
  1  4  1  0  0  0  0
  1  5  1  0  0  0  0
  2  1  1  0  0  0  0
  3  2  2  0  0  0  0
  6  5  1  6  0  0  0
  6 29  1  0  0  0  0
  7 27  1  6  0  0  0
  7  6  1  0  0  0  0
  8  7  1  1  0  0  0
  8 11  1  0  0  0  0
  8 13  1  0  0  0  0
  9 16  1  6  0  0  0
  9 10  1  0  0  0  0
  9 14  1  0  0  0  0
 11  9  1  0  0  0  0
 12 10  1  0  0  0  0
 12 20  1  1  0  0  0
 13 22  1  6  0  0  0
 13 12  1  0  0  0  0
 14 15  1  0  0  0  0
 16 17  2  0  0  0  0
 18 16  1  0  0  0  0
 19 18  1  0  0  0  0
 20 21  1  0  0  0  0
 22 23  1  0  0  0  0
 23 26  2  0  0  0  0
 24 22  1  0  0  0  0
 25 23  1  0  0  0  0
 28 27  1  0  0  0  0
 29 30  1  0  0  0  0
 31  2  1  0  0  0  0
 32 33  1  0  0  0  0
 32 31  1  0  0  0  0
 33 35  1  0  0  0  0
 34 33  2  0  0  0  0
 34 36  1  0  0  0  0
 35 37  2  0  0  0  0
 36 38  1  0  0  0  0
 36 37  1  0  0  0  0
 39 40  2  0  0  0  0
 39 38  1  0  0  0  0
 41 39  1  0  0  0  0
 42 40  1  0  0  0  0
 43 41  2  0  0  0  0
 43 44  1  0  0  0  0
 44 42  2  0  0  0  0
 45 44  1  0  0  0  0
 46 45  1  0  0  0  0
 47 48  1  0  0  0  0
 49 48  1  0  0  0  0
 49 50  1  0  0  0  0
 50 51  1  0  0  0  0
 51 52  1  0  0  0  0
M  END
>  <REMARK>
 VINA RESULT:    -5.612      0.000      0.000
 INTER + INTRA:         -15.646
 INTER:                  -9.188
 INTRA:                  -6.458
 UNBOUND:                -5.276
 SMILES COc1ccc(Cn2cc(COC(=O)NC[C@@H](O)C(O)[C@@H]3O[C@@](O)(C(=O)O)C[C@H](O)[C@H]3NC(C)=O)nn2)cc1
 SMILES IDX 15 1 13 2 14 3 16 5 17 6 19 7 21 8 23 9 28 10 22 11 29 12
 SMILES IDX 31 13 24 14 25 16 26 17 27 18 30 20 32 22 33 23 34 25 35 26
 SMILES IDX 20 27 18 29 12 31 11 32 10 33 9 34 36 35 8 36 37 37 7 38
 SMILES IDX 6 39 5 40 38 41 4 42 39 43 3 44 2 45 1 46
 H PARENT 15 4 24 15 27 19 30 21 32 24 20 28 18 30
 Flexibility Score: inf
  4 active torsions:
  status: ('A' for Active; 'I' for Inactive)
    1  A    between atoms: CA   and  CB  
    2  A    between atoms: CB   and  CG  
    3  A    between atoms: CG   and  CD  
    4  A    between atoms: CD   and  CE  

>  <TORSDO>
F 17

>  <BEGIN_>
RES LYS A 131

$$$$
ligand_24_pose_0_2HRL.pdbqt
 OpenBabel07062320523D

  6  5  0  0  0  0  0  0  0  0999 V2000
   33.1930   34.6630    9.2900 C   0  0  0  0  0  0  0  0  0  0  0  0
   32.0600   35.3600   10.0340 C   0  0  0  0  0  0  0  0  0  0  0  0
   30.7670   34.5860   10.0250 C   0  0  0  0  0  0  0  0  0  0  0  0
   30.3290   34.2900    8.5990 C   0  0  0  0  0  0  0  0  0  0  0  0
   28.8310   34.4750    8.4520 C   0  0  0  0  0  0  0  0  0  0  0  0
   28.0940   33.7500    9.5230 N   0  0  0  0  0  0  0  0  0  0  0  0
  1  2  1  0  0  0  0
  3  2  1  0  0  0  0
  4  3  1  0  0  0  0
  5  4  1  0  0  0  0
  5  6  1  0  0  0  0
M  END
>  <EGIN_R>
ES LYS A 135

>  <REMARK>
  4 active torsions:
  status: ('A' for Active; 'I' for Inactive)
    5  A    between atoms: CA   and  CB  
    6  A    between atoms: CB   and  CG  
    7  A    between atoms: CG   and  CD  
    8  A    between atoms: CD   and  CE  

$$$$
ligand_25_pose_0_2HRL.pdbqt
 OpenBabel07062320523D

 56 59  0  0  1  0  0  0  0  0999 V2000
   25.9380   36.1240   16.7150 C   0  0  0  0  0  0  0  0  0  0  0  0
   26.1470   34.6560   16.7800 C   0  0  2  0  0  0  0  0  0  0  0  0
   27.3530   34.1890   16.0300 C   0  0  1  0  0  0  0  0  0  0  0  0
   28.1170   33.0540   16.6530 C   0  0  2  0  0  0  0  0  0  0  0  0
   30.2810   32.8910   15.7730 C   0  0  2  0  0  0  0  0  0  0  0  0
   30.4610   31.4280   16.1200 C   0  0  0  0  0  0  0  0  0  0  0  0
   29.4510   33.4660   16.6810 O   0  0  0  0  0  0  0  0  0  0  0  0
   29.1260   30.8070   16.3150 C   0  0  1  0  0  0  0  0  0  0  0  0
   27.9600   31.7370   15.9430 C   0  0  1  0  0  0  0  0  0  0  0  0
   29.9160   32.9550   14.4550 O   0  0  0  0  0  0  0  0  0  0  0  0
   30.6670   33.2000   13.8700 H   0  0  0  0  0  0  0  0  0  0  0  0
   31.6270   33.5210   15.9370 C   0  0  0  0  0  0  0  0  0  0  0  0
   31.9700   33.9520   17.0620 O   0  0  0  0  0  0  0  0  0  0  0  0
   32.5250   33.6520   14.8880 O   0  0  0  0  0  0  0  0  0  0  0  0
   32.2660   33.3470   13.9390 H   0  0  0  0  0  0  0  0  0  0  0  0
   28.9450   29.6270   15.6110 O   0  0  0  0  0  0  0  0  0  0  0  0
   28.2040   29.6650   14.9650 H   0  0  0  0  0  0  0  0  0  0  0  0
   26.7930   31.0470   16.4440 N   0  0  0  0  0  0  0  0  0  0  0  0
   25.5660   30.9130   15.7420 C   0  0  0  0  0  0  0  0  0  0  0  0
   26.8560   30.6130   17.3880 H   0  0  0  0  0  0  0  0  0  0  0  0
   24.3990   30.1810   16.3310 C   0  0  0  0  0  0  0  0  0  0  0  0
   25.4900   31.4330   14.6000 O   0  0  0  0  0  0  0  0  0  0  0  0
   27.1410   33.9560   14.6770 O   0  0  0  0  0  0  0  0  0  0  0  0
   26.8980   34.7380   14.1560 H   0  0  0  0  0  0  0  0  0  0  0  0
   25.0490   34.0050   16.2220 O   0  0  0  0  0  0  0  0  0  0  0  0
   24.1970   34.4280   16.4430 H   0  0  0  0  0  0  0  0  0  0  0  0
   26.4930   36.7840   15.5930 N   0  0  0  0  0  0  0  0  0  0  0  0
   27.4520   37.8080   15.6720 C   0  0  0  0  0  0  0  0  0  0  0  0
   26.1750   36.5000   14.6090 H   0  0  0  0  0  0  0  0  0  0  0  0
   27.8990   38.2100   16.7420 O   0  0  0  0  0  0  0  0  0  0  0  0
   27.9510   38.4290   14.5130 O   0  0  0  0  0  0  0  0  0  0  0  0
   29.0820   37.9830   13.8290 C   0  0  0  0  0  0  0  0  0  0  0  0
   28.8630   36.7310   13.0630 C   0  0  0  0  0  0  0  0  0  0  0  0
   28.0340   36.4970   11.9930 C   0  0  0  0  0  0  0  0  0  0  0  0
   29.4910   35.5860   13.3340 N   0  0  0  0  0  0  0  0  0  0  0  0
   28.1880   35.2210   11.6550 N   0  0  0  0  0  0  0  0  0  0  0  0
   29.0700   34.6860   12.4740 N   0  0  0  0  0  0  0  0  0  0  0  0
   27.5190   34.5060   10.5780 C   0  0  0  0  0  0  0  0  0  0  0  0
   28.1440   34.7770    9.2720 C   0  0  0  0  0  0  0  0  0  0  0  0
   26.1200   34.8780   10.4380 C   0  0  0  0  0  0  0  0  0  0  0  0
   29.4730   34.6010    8.8490 C   0  0  0  0  0  0  0  0  0  0  0  0
   27.1780   35.2690    8.4420 C   0  0  0  0  0  0  0  0  0  0  0  0
   25.9090   35.3350    9.1650 C   0  0  0  0  0  0  0  0  0  0  0  0
   25.0240   34.8520   11.3240 C   0  0  0  0  0  0  0  0  0  0  0  0
   29.7930   34.9390    7.5580 C   0  0  0  0  0  0  0  0  0  0  0  0
   27.5420   35.6020    7.1370 C   0  0  0  0  0  0  0  0  0  0  0  0
   24.6620   35.7730    8.7050 C   0  0  0  0  0  0  0  0  0  0  0  0
   23.7940   35.2760   10.8960 C   0  0  0  0  0  0  0  0  0  0  0  0
   28.8360   35.4390    6.6970 C   0  0  0  0  0  0  0  0  0  0  0  0
   23.6180   35.7320    9.6000 C   0  0  0  0  0  0  0  0  0  0  0  0
   29.8670   25.5550   16.9770 C   0  0  0  0  0  0  0  0  0  0  0  0
   28.3450   25.7220   17.0260 C   0  0  0  0  0  0  0  0  0  0  0  0
   27.6010   24.4030   16.8850 C   0  0  0  0  0  0  0  0  0  0  0  0
   26.1580   24.5200   17.2920 C   0  0  0  0  0  0  0  0  0  0  0  0
   26.0750   24.9750   18.7450 C   0  0  0  0  0  0  0  0  0  0  0  0
   25.4490   23.9250   19.5830 N   0  0  0  0  0  0  0  0  0  0  0  0
  2  1  1  6  0  0  0
  3 23  1  6  0  0  0
  3  2  1  0  0  0  0
  4  3  1  6  0  0  0
  4  7  1  0  0  0  0
  5 10  1  6  0  0  0
  5 12  1  0  0  0  0
  5  6  1  0  0  0  0
  5  7  1  0  0  0  0
  6  8  1  0  0  0  0
  8 16  1  6  0  0  0
  9  8  1  0  0  0  0
  9 18  1  1  0  0  0
  9  4  1  0  0  0  0
 11 10  1  0  0  0  0
 12 13  2  0  0  0  0
 14 12  1  0  0  0  0
 15 14  1  0  0  0  0
 17 16  1  0  0  0  0
 18 20  1  0  0  0  0
 19 21  1  0  0  0  0
 19 18  1  0  0  0  0
 22 19  2  0  0  0  0
 24 23  1  0  0  0  0
 25 26  1  0  0  0  0
 25  2  1  0  0  0  0
 27 28  1  0  0  0  0
 27  1  1  0  0  0  0
 28 30  2  0  0  0  0
 29 27  1  0  0  0  0
 31 28  1  0  0  0  0
 32 31  1  0  0  0  0
 33 35  1  0  0  0  0
 33 32  1  0  0  0  0
 34 33  2  0  0  0  0
 36 34  1  0  0  0  0
 36 37  1  0  0  0  0
 37 35  2  0  0  0  0
 38 36  1  0  0  0  0
 39 38  1  0  0  0  0
 40 38  1  0  0  0  0
 40 44  2  0  0  0  0
 41 39  1  0  0  0  0
 42 43  1  0  0  0  0
 42 39  2  0  0  0  0
 43 40  1  0  0  0  0
 45 41  2  0  0  0  0
 46 42  1  0  0  0  0
 47 43  2  0  0  0  0
 47 50  1  0  0  0  0
 48 44  1  0  0  0  0
 49 46  2  0  0  0  0
 49 45  1  0  0  0  0
 50 48  2  0  0  0  0
 51 52  1  0  0  0  0
 53 52  1  0  0  0  0
 53 54  1  0  0  0  0
 54 55  1  0  0  0  0
 55 56  1  0  0  0  0
M  END
>  <REMARK>
 VINA RESULT:    -7.591      0.000      0.000
 INTER + INTRA:         -17.715
 INTER:                 -11.465
 INTRA:                  -6.251
 UNBOUND:                -4.578
 SMILES CC(=O)N[C@@H]1[C@@H](O)C[C@](O)(C(=O)O)O[C@H]1C(O)[C@H](O)CNC(=O)OCc1cn(C2c3ccccc3-c3ccccc32)nn1
 SMILES IDX 20 1 18 2 16 3 15 4 9 5 8 6 14 7 6 8 5 9 10 10 11 12 12 13
 SMILES IDX 13 14 7 16 4 18 2 19 1 21 3 22 17 23 19 25 21 27 22 28 23 30
 SMILES IDX 24 31 25 32 26 33 27 34 43 35 28 36 42 37 29 38 30 39 41 40
 SMILES IDX 31 41 35 42 36 43 40 44 32 45 34 46 37 47 39 48 33 49 38 50
 H PARENT 10 11 13 15 7 17 4 20 17 24 19 26 21 29
 Flexibility Score: inf
  4 active torsions:
  status: ('A' for Active; 'I' for Inactive)
    1  A    between atoms: CA   and  CB  
    2  A    between atoms: CB   and  CG  
    3  A    between atoms: CG   and  CD  
    4  A    between atoms: CD   and  CE  

>  <TORSDO>
F 15

>  <BEGIN_>
RES LYS A 131

$$$$
ligand_25_pose_0_2HRL.pdbqt
 OpenBabel07062320523D

  6  5  0  0  0  0  0  0  0  0999 V2000
   33.1930   34.6630    9.2900 C   0  0  0  0  0  0  0  0  0  0  0  0
   32.0600   35.3600   10.0340 C   0  0  0  0  0  0  0  0  0  0  0  0
   32.5070   36.0630   11.2900 C   0  0  0  0  0  0  0  0  0  0  0  0
   31.9370   37.4720   11.3480 C   0  0  0  0  0  0  0  0  0  0  0  0
   31.2320   37.8150   10.0500 C   0  0  0  0  0  0  0  0  0  0  0  0
   31.9070   38.9460    9.3550 N   0  0  0  0  0  0  0  0  0  0  0  0
  1  2  1  0  0  0  0
  2  3  1  0  0  0  0
  3  4  1  0  0  0  0
  5  4  1  0  0  0  0
  6  5  1  0  0  0  0
M  END
>  <EGIN_R>
ES LYS A 135

>  <REMARK>
  4 active torsions:
  status: ('A' for Active; 'I' for Inactive)
    5  A    between atoms: CA   and  CB  
    6  A    between atoms: CB   and  CG  
    7  A    between atoms: CG   and  CD  
    8  A    between atoms: CD   and  CE  

$$$$
ligand_26_pose_0_2HRL.pdbqt
 OpenBabel07062320523D

 54 55  0  0  1  0  0  0  0  0999 V2000
   27.7340   28.4970   18.0200 N   0  0  0  0  0  0  0  0  0  0  0  0
   27.3330   29.2110   16.8550 C   0  0  0  0  0  0  0  0  0  0  0  0
   26.1250   29.2340   16.5540 O   0  0  0  0  0  0  0  0  0  0  0  0
   28.7820   28.5280   18.2100 H   0  0  0  0  0  0  0  0  0  0  0  0
   26.8290   27.7830   18.8930 C   0  0  0  0  0  0  0  0  0  0  0  0
   27.3770   27.6610   20.2980 C   0  0  2  0  0  0  0  0  0  0  0  0
   28.8790   27.8520   20.3360 C   0  0  1  0  0  0  0  0  0  0  0  0
   29.3110   28.9250   21.2890 C   0  0  2  0  0  0  0  0  0  0  0  0
   30.2750   30.5940   19.9720 C   0  0  2  0  0  0  0  0  0  0  0  0
   31.6590   30.2940   20.4920 C   0  0  0  0  0  0  0  0  0  0  0  0
   29.2460   30.1900   20.7690 O   0  0  0  0  0  0  0  0  0  0  0  0
   31.8090   28.8860   20.9840 C   0  0  1  0  0  0  0  0  0  0  0  0
   30.6550   28.6170   21.9240 C   0  0  1  0  0  0  0  0  0  0  0  0
   30.1720   30.1430   18.6360 O   0  0  0  0  0  0  0  0  0  0  0  0
   30.9600   29.6420   18.3530 H   0  0  0  0  0  0  0  0  0  0  0  0
   30.1920   32.0980   19.8890 C   0  0  0  0  0  0  0  0  0  0  0  0
   29.6060   32.7990   20.7250 O   0  0  0  0  0  0  0  0  0  0  0  0
   30.8410   32.6610   18.7770 O   0  0  0  0  0  0  0  0  0  0  0  0
   31.4920   32.1200   18.2300 H   0  0  0  0  0  0  0  0  0  0  0  0
   31.8980   27.9640   19.9690 O   0  0  0  0  0  0  0  0  0  0  0  0
   32.3400   28.3680   19.1850 H   0  0  0  0  0  0  0  0  0  0  0  0
   30.8080   29.5890   23.0190 N   0  0  0  0  0  0  0  0  0  0  0  0
   31.2820   29.1380   24.2810 C   0  0  0  0  0  0  0  0  0  0  0  0
   30.5800   30.5940   22.9000 H   0  0  0  0  0  0  0  0  0  0  0  0
   31.4310   30.1330   25.3750 C   0  0  0  0  0  0  0  0  0  0  0  0
   31.5560   27.9270   24.4260 O   0  0  0  0  0  0  0  0  0  0  0  0
   29.4310   26.6150   20.6770 O   0  0  0  0  0  0  0  0  0  0  0  0
   29.7610   26.6590   21.6240 H   0  0  0  0  0  0  0  0  0  0  0  0
   27.0370   26.3920   20.8080 O   0  0  0  0  0  0  0  0  0  0  0  0
   26.2600   26.4380   21.4190 H   0  0  0  0  0  0  0  0  0  0  0  0
   28.2240   29.8800   16.0470 O   0  0  0  0  0  0  0  0  0  0  0  0
   28.1440   31.2400   15.6820 C   0  0  0  0  0  0  0  0  0  0  0  0
   29.4350   31.9280   15.6020 C   0  0  0  0  0  0  0  0  0  0  0  0
   29.6530   33.1980   15.0500 C   0  0  0  0  0  0  0  0  0  0  0  0
   30.6580   31.5170   16.0250 N   0  0  0  0  0  0  0  0  0  0  0  0
   30.9360   33.4830   15.1610 N   0  0  0  0  0  0  0  0  0  0  0  0
   31.5200   32.4750   15.7410 N   0  0  0  0  0  0  0  0  0  0  0  0
   31.5780   34.7520   14.6920 C   0  0  1  0  0  0  0  0  0  0  0  0
   30.8790   35.0600   13.3940 C   0  0  0  0  0  0  0  0  0  0  0  0
   31.3410   35.7490   15.7260 C   0  0  0  0  0  0  0  0  0  0  0  0
   32.0280   35.6840   16.9770 C   0  0  2  0  0  0  0  0  0  0  0  0
   31.2010   35.4340   17.9980 O   0  0  0  0  0  0  0  0  0  0  0  0
   33.3930   35.8270   17.3770 C   0  0  0  0  0  0  0  0  0  0  0  0
   33.7070   35.7260   18.7550 C   0  0  0  0  0  0  0  0  0  0  0  0
   34.4540   36.0390   16.5330 C   0  0  0  0  0  0  0  0  0  0  0  0
   34.9980   35.8370   19.2060 C   0  0  0  0  0  0  0  0  0  0  0  0
   35.7480   36.1460   17.0240 C   0  0  0  0  0  0  0  0  0  0  0  0
   36.0450   36.0510   18.3440 C   0  0  0  0  0  0  0  0  0  0  0  0
   29.8670   25.5550   16.9770 C   0  0  0  0  0  0  0  0  0  0  0  0
   28.3450   25.7220   17.0260 C   0  0  0  0  0  0  0  0  0  0  0  0
   27.6010   24.4030   16.8870 C   0  0  0  0  0  0  0  0  0  0  0  0
   26.6320   24.1770   18.0140 C   0  0  0  0  0  0  0  0  0  0  0  0
   25.2340   24.6050   17.5760 C   0  0  0  0  0  0  0  0  0  0  0  0
   24.2140   24.0830   18.5170 N   0  0  0  0  0  0  0  0  0  0  0  0
  1  4  1  0  0  0  0
  1  5  1  0  0  0  0
  2  1  1  0  0  0  0
  3  2  2  0  0  0  0
  6  5  1  6  0  0  0
  6  7  1  0  0  0  0
  6 29  1  0  0  0  0
  7 27  1  1  0  0  0
  8  7  1  6  0  0  0
  8 13  1  0  0  0  0
  9 14  1  6  0  0  0
  9 10  1  0  0  0  0
  9 11  1  0  0  0  0
 10 12  1  0  0  0  0
 11  8  1  0  0  0  0
 12 20  1  6  0  0  0
 12 13  1  0  0  0  0
 13 22  1  1  0  0  0
 15 14  1  0  0  0  0
 16  9  1  0  0  0  0
 16 17  2  0  0  0  0
 18 16  1  0  0  0  0
 19 18  1  0  0  0  0
 21 20  1  0  0  0  0
 22 23  1  0  0  0  0
 23 26  2  0  0  0  0
 23 25  1  0  0  0  0
 24 22  1  0  0  0  0
 27 28  1  0  0  0  0
 29 30  1  0  0  0  0
 31  2  1  0  0  0  0
 32 31  1  0  0  0  0
 33 32  1  0  0  0  0
 33 35  1  0  0  0  0
 34 36  1  0  0  0  0
 34 33  2  0  0  0  0
 36 37  1  0  0  0  0
 37 35  2  0  0  0  0
 38 39  1  6  0  0  0
 38 36  1  0  0  0  0
 38 40  1  0  0  0  0
 40 41  1  0  0  0  0
 41 43  1  0  0  0  0
 41 42  1  1  0  0  0
 43 44  2  0  0  0  0
 44 46  1  0  0  0  0
 45 47  2  0  0  0  0
 45 43  1  0  0  0  0
 47 48  1  0  0  0  0
 48 46  2  0  0  0  0
 49 50  1  0  0  0  0
 51 50  1  0  0  0  0
 51 52  1  0  0  0  0
 53 52  1  0  0  0  0
 53 54  1  0  0  0  0
M  END
>  <REMARK>
 VINA RESULT:    -5.157      0.000      0.000
 INTER + INTRA:         -16.765
 INTER:                  -9.934
 INTRA:                  -6.830
 UNBOUND:                -6.934
 SMILES CC(=O)N[C@@H]1[C@@H](O)C[C@](O)(C(=O)O)O[C@H]1C(O)[C@H](O)CNC(=O)OCc1cn(C(C)CC(=O)c2ccccc2)nn1
 SMILES IDX 21 1 22 2 23 3 20 5 18 6 16 7 15 8 9 9 8 10 14 11 6 12 5 13
 SMILES IDX 10 14 11 16 12 17 13 18 7 20 4 22 2 23 1 25 3 26 17 27 19 29
 SMILES IDX 24 31 25 32 26 33 27 34 41 35 28 36 40 37 29 38 30 39 31 40
 SMILES IDX 32 41 33 42 34 43 35 44 39 45 36 46 38 47 37 48
 H PARENT 21 4 10 15 13 19 7 21 4 24 17 28 19 30
 Flexibility Score: inf
  4 active torsions:
  status: ('A' for Active; 'I' for Inactive)
    1  A    between atoms: CA   and  CB  
    2  A    between atoms: CB   and  CG  
    3  A    between atoms: CG   and  CD  
    4  A    between atoms: CD   and  CE  

>  <TORSDO>
F 18

>  <BEGIN_>
RES LYS A 131

$$$$
ligand_26_pose_0_2HRL.pdbqt
 OpenBabel07062320523D

  6  5  0  0  0  0  0  0  0  0999 V2000
   33.1930   34.6630    9.2900 C   0  0  0  0  0  0  0  0  0  0  0  0
   32.0600   35.3600   10.0340 C   0  0  0  0  0  0  0  0  0  0  0  0
   30.7090   34.7370    9.7940 C   0  0  0  0  0  0  0  0  0  0  0  0
   30.4670   34.5380    8.3060 C   0  0  0  0  0  0  0  0  0  0  0  0
   29.0200   34.8310    7.9580 C   0  0  0  0  0  0  0  0  0  0  0  0
   28.9160   35.5570    6.6610 N   0  0  0  0  0  0  0  0  0  0  0  0
  1  2  1  0  0  0  0
  3  2  1  0  0  0  0
  4  3  1  0  0  0  0
  5  4  1  0  0  0  0
  6  5  1  0  0  0  0
M  END
>  <EGIN_R>
ES LYS A 135

>  <REMARK>
  4 active torsions:
  status: ('A' for Active; 'I' for Inactive)
    5  A    between atoms: CA   and  CB  
    6  A    between atoms: CB   and  CG  
    7  A    between atoms: CG   and  CD  
    8  A    between atoms: CD   and  CE  

$$$$
ligand_27_pose_0_2HRL.pdbqt
 OpenBabel07062320523D

 50 51  0  0  1  0  0  0  0  0999 V2000
   27.2780   27.6970   19.5210 C   0  0  0  0  0  0  0  0  0  0  0  0
   27.8460   28.3710   20.7360 C   0  0  2  0  0  0  0  0  0  0  0  0
   28.9820   27.6110   21.3560 C   0  0  2  0  0  0  0  0  0  0  0  0
   29.9370   28.5580   22.0860 C   0  0  2  0  0  0  0  0  0  0  0  0
   30.7600   30.2570   20.6850 C   0  0  2  0  0  0  0  0  0  0  0  0
   32.1610   29.9750   21.2100 C   0  0  0  0  0  0  0  0  0  0  0  0
   29.8300   29.7730   21.5370 O   0  0  0  0  0  0  0  0  0  0  0  0
   32.2740   28.4520   21.1470 C   0  0  1  0  0  0  0  0  0  0  0  0
   31.2760   27.9110   22.1340 C   0  0  1  0  0  0  0  0  0  0  0  0
   30.7150   29.7110   19.4090 O   0  0  0  0  0  0  0  0  0  0  0  0
   29.7680   29.6190   19.1400 H   0  0  0  0  0  0  0  0  0  0  0  0
   30.5690   31.7220   20.5710 C   0  0  0  0  0  0  0  0  0  0  0  0
   30.7080   32.4350   21.5910 O   0  0  0  0  0  0  0  0  0  0  0  0
   30.2410   32.3460   19.3760 O   0  0  0  0  0  0  0  0  0  0  0  0
   30.0090   31.7560   18.5690 H   0  0  0  0  0  0  0  0  0  0  0  0
   31.9380   27.9680   19.8870 O   0  0  0  0  0  0  0  0  0  0  0  0
   32.4660   27.1560   19.6410 H   0  0  0  0  0  0  0  0  0  0  0  0
   31.8700   28.0450   23.4470 N   0  0  0  0  0  0  0  0  0  0  0  0
   31.5580   27.1000   24.4580 C   0  0  0  0  0  0  0  0  0  0  0  0
   32.5350   28.8400   23.6740 H   0  0  0  0  0  0  0  0  0  0  0  0
   32.1700   27.2440   25.8040 C   0  0  0  0  0  0  0  0  0  0  0  0
   30.7700   26.1520   24.2080 O   0  0  0  0  0  0  0  0  0  0  0  0
   29.6660   26.9850   20.2920 O   0  0  0  0  0  0  0  0  0  0  0  0
   29.0460   26.6320   19.6370 H   0  0  0  0  0  0  0  0  0  0  0  0
   26.8240   28.5140   21.6920 O   0  0  0  0  0  0  0  0  0  0  0  0
   27.2130   28.8520   22.5180 H   0  0  0  0  0  0  0  0  0  0  0  0
   27.8200   28.3120   18.3150 N   0  0  0  0  0  0  0  0  0  0  0  0
   26.9730   28.6480   17.2300 C   0  0  0  0  0  0  0  0  0  0  0  0
   28.8430   28.4940   18.2780 H   0  0  0  0  0  0  0  0  0  0  0  0
   25.7420   28.4090   17.3180 O   0  0  0  0  0  0  0  0  0  0  0  0
   27.4460   29.2330   16.0660 O   0  0  0  0  0  0  0  0  0  0  0  0
   27.3920   30.6380   15.9550 C   0  0  0  0  0  0  0  0  0  0  0  0
   28.7560   31.1970   16.1500 C   0  0  0  0  0  0  0  0  0  0  0  0
   29.2240   32.4140   15.6860 C   0  0  0  0  0  0  0  0  0  0  0  0
   29.7980   30.6520   16.8030 N   0  0  0  0  0  0  0  0  0  0  0  0
   30.5150   32.5730   16.0640 N   0  0  0  0  0  0  0  0  0  0  0  0
   30.8290   31.4820   16.7410 N   0  0  0  0  0  0  0  0  0  0  0  0
   31.3540   33.6870   15.7840 C   0  0  0  0  0  0  0  0  0  0  0  0
   31.9580   34.3520   16.8300 C   0  0  0  0  0  0  0  0  0  0  0  0
   31.6010   34.1480   14.5080 C   0  0  0  0  0  0  0  0  0  0  0  0
   32.7840   35.4420   16.6090 C   0  0  0  0  0  0  0  0  0  0  0  0
   32.4170   35.2290   14.2520 C   0  0  0  0  0  0  0  0  0  0  0  0
   33.0070   35.8730   15.3200 C   0  0  0  0  0  0  0  0  0  0  0  0
   32.7070   35.7890   12.5980 Cl  0  0  0  0  0  0  0  0  0  0  0  0
   29.8670   25.5550   16.9770 C   0  0  0  0  0  0  0  0  0  0  0  0
   28.3450   25.7220   17.0260 C   0  0  0  0  0  0  0  0  0  0  0  0
   27.6010   24.4010   16.9000 C   0  0  0  0  0  0  0  0  0  0  0  0
   26.5930   24.2120   17.9990 C   0  0  0  0  0  0  0  0  0  0  0  0
   25.3030   24.9420   17.6380 C   0  0  0  0  0  0  0  0  0  0  0  0
   24.4170   24.0640   16.8380 N   0  0  0  0  0  0  0  0  0  0  0  0
  2  1  1  6  0  0  0
  2  3  1  0  0  0  0
  2 25  1  0  0  0  0
  3 23  1  6  0  0  0
  4  3  1  6  0  0  0
  4  9  1  0  0  0  0
  5 10  1  6  0  0  0
  5  6  1  0  0  0  0
  5  7  1  0  0  0  0
  7  4  1  0  0  0  0
  8 16  1  6  0  0  0
  8  6  1  0  0  0  0
  8  9  1  0  0  0  0
  9 18  1  1  0  0  0
 11 10  1  0  0  0  0
 12  5  1  0  0  0  0
 12 13  2  0  0  0  0
 14 12  1  0  0  0  0
 15 14  1  0  0  0  0
 17 16  1  0  0  0  0
 18 20  1  0  0  0  0
 18 19  1  0  0  0  0
 19 21  1  0  0  0  0
 22 19  2  0  0  0  0
 24 23  1  0  0  0  0
 25 26  1  0  0  0  0
 27  1  1  0  0  0  0
 28 30  2  0  0  0  0
 28 27  1  0  0  0  0
 29 27  1  0  0  0  0
 31 28  1  0  0  0  0
 32 31  1  0  0  0  0
 32 33  1  0  0  0  0
 33 35  1  0  0  0  0
 34 36  1  0  0  0  0
 34 33  2  0  0  0  0
 36 37  1  0  0  0  0
 37 35  2  0  0  0  0
 38 36  1  0  0  0  0
 38 39  2  0  0  0  0
 40 38  1  0  0  0  0
 41 39  1  0  0  0  0
 42 40  2  0  0  0  0
 42 43  1  0  0  0  0
 43 41  2  0  0  0  0
 44 42  1  0  0  0  0
 45 46  1  0  0  0  0
 47 46  1  0  0  0  0
 47 48  1  0  0  0  0
 49 48  1  0  0  0  0
 50 49  1  0  0  0  0
M  END
>  <REMARK>
 VINA RESULT:    -6.177      0.000      0.000
 INTER + INTRA:         -15.188
 INTER:                  -9.128
 INTRA:                  -6.060
 UNBOUND:                -4.497
 SMILES CC(=O)N[C@@H]1[C@@H](O)C[C@](O)(C(=O)O)O[C@H]1C(O)[C@H](O)CNC(=O)OCc1cn(-c2cccc(Cl)c2)nn1
 SMILES IDX 20 1 18 2 16 3 15 4 9 5 8 6 14 7 6 8 5 9 10 10 11 12 12 13
 SMILES IDX 13 14 7 16 4 18 2 19 1 21 3 22 17 23 19 25 21 27 22 28 23 30
 SMILES IDX 24 31 25 32 26 33 27 34 37 35 28 36 36 37 29 38 30 39 35 40
 SMILES IDX 31 41 33 42 32 43 34 44
 H PARENT 10 11 13 15 7 17 4 20 17 24 19 26 21 29
 Flexibility Score: inf
  4 active torsions:
  status: ('A' for Active; 'I' for Inactive)
    1  A    between atoms: CA   and  CB  
    2  A    between atoms: CB   and  CG  
    3  A    between atoms: CG   and  CD  
    4  A    between atoms: CD   and  CE  

>  <TORSDO>
F 15

>  <BEGIN_>
RES LYS A 131

$$$$
ligand_27_pose_0_2HRL.pdbqt
 OpenBabel07062320523D

  6  5  0  0  0  0  0  0  0  0999 V2000
   33.1930   34.6630    9.2900 C   0  0  0  0  0  0  0  0  0  0  0  0
   32.0600   35.3600   10.0340 C   0  0  0  0  0  0  0  0  0  0  0  0
   30.7080   34.7400    9.7910 C   0  0  0  0  0  0  0  0  0  0  0  0
   30.4860   34.5040    8.3050 C   0  0  0  0  0  0  0  0  0  0  0  0
   29.0530   34.8260    7.9230 C   0  0  0  0  0  0  0  0  0  0  0  0
   28.0950   34.2630    8.9140 N   0  0  0  0  0  0  0  0  0  0  0  0
  1  2  1  0  0  0  0
  3  2  1  0  0  0  0
  4  3  1  0  0  0  0
  5  4  1  0  0  0  0
  5  6  1  0  0  0  0
M  END
>  <EGIN_R>
ES LYS A 135

>  <REMARK>
  4 active torsions:
  status: ('A' for Active; 'I' for Inactive)
    5  A    between atoms: CA   and  CB  
    6  A    between atoms: CB   and  CG  
    7  A    between atoms: CG   and  CD  
    8  A    between atoms: CD   and  CE  

$$$$
ligand_28_pose_0_2HRL.pdbqt
 OpenBabel07062320523D

 53 55  0  0  1  0  0  0  0  0999 V2000
   26.3240   36.4090   11.2040 N   0  0  0  0  0  0  0  0  0  0  0  0
   26.4870   35.1820   11.9060 C   0  0  0  0  0  0  0  0  0  0  0  0
   25.4840   34.4120   12.0650 O   0  0  0  0  0  0  0  0  0  0  0  0
   27.1530   37.0110   11.0910 H   0  0  0  0  0  0  0  0  0  0  0  0
   25.0090   36.7150   10.7020 C   0  0  0  0  0  0  0  0  0  0  0  0
   24.8030   36.3110    9.2760 C   0  0  2  0  0  0  0  0  0  0  0  0
   25.4740   37.2500    8.3000 C   0  0  2  0  0  0  0  0  0  0  0  0
   26.4920   36.5000    7.4460 C   0  0  2  0  0  0  0  0  0  0  0  0
   28.3840   35.5700    8.4160 C   0  0  2  0  0  0  0  0  0  0  0  0
   29.2670   35.8750    7.2280 C   0  0  0  0  0  0  0  0  0  0  0  0
   27.0580   35.4530    8.1110 O   0  0  0  0  0  0  0  0  0  0  0  0
   28.5120   36.5870    6.1240 C   0  0  1  0  0  0  0  0  0  0  0  0
   27.4660   37.4460    6.7950 C   0  0  1  0  0  0  0  0  0  0  0  0
   28.5910   36.5140    9.4400 O   0  0  0  0  0  0  0  0  0  0  0  0
   28.1080   37.3460    9.2840 H   0  0  0  0  0  0  0  0  0  0  0  0
   28.8440   34.2650    8.9650 C   0  0  0  0  0  0  0  0  0  0  0  0
   30.0580   33.9150    8.8530 O   0  0  0  0  0  0  0  0  0  0  0  0
   28.0080   33.3710    9.6130 O   0  0  0  0  0  0  0  0  0  0  0  0
   27.9150   32.4320    9.2130 H   0  0  0  0  0  0  0  0  0  0  0  0
   29.3670   37.3220    5.3100 O   0  0  0  0  0  0  0  0  0  0  0  0
   29.5620   36.7730    4.5120 H   0  0  0  0  0  0  0  0  0  0  0  0
   26.7900   38.3280    5.9120 N   0  0  0  0  0  0  0  0  0  0  0  0
   26.8360   39.7380    6.0590 C   0  0  0  0  0  0  0  0  0  0  0  0
   26.2350   37.8890    5.1190 H   0  0  0  0  0  0  0  0  0  0  0  0
   26.1110   40.6410    5.1080 C   0  0  0  0  0  0  0  0  0  0  0  0
   27.5130   40.1820    7.0210 O   0  0  0  0  0  0  0  0  0  0  0  0
   26.1830   38.1940    9.0410 O   0  0  0  0  0  0  0  0  0  0  0  0
   26.5340   38.8970    8.4400 H   0  0  0  0  0  0  0  0  0  0  0  0
   23.4290   36.2840    9.0380 O   0  0  0  0  0  0  0  0  0  0  0  0
   23.1700   35.5520    8.4280 H   0  0  0  0  0  0  0  0  0  0  0  0
   27.7060   34.7760   12.4370 O   0  0  0  0  0  0  0  0  0  0  0  0
   28.6650   35.7730   12.7740 C   0  0  0  0  0  0  0  0  0  0  0  0
   29.6120   35.2600   13.7900 C   0  0  0  0  0  0  0  0  0  0  0  0
   30.0010   33.9560   13.9040 C   0  0  0  0  0  0  0  0  0  0  0  0
   30.2440   35.9270   14.7540 N   0  0  0  0  0  0  0  0  0  0  0  0
   30.8560   33.8710   14.9330 N   0  0  0  0  0  0  0  0  0  0  0  0
   30.9950   35.0740   15.4390 N   0  0  0  0  0  0  0  0  0  0  0  0
   31.5000   32.6570   15.3860 C   0  0  0  0  0  0  0  0  0  0  0  0
   30.5290   31.9550   16.2710 C   0  0  0  0  0  0  0  0  0  0  0  0
   30.5820   32.1880   17.6260 C   0  0  0  0  0  0  0  0  0  0  0  0
   29.5890   31.0850   15.7790 C   0  0  0  0  0  0  0  0  0  0  0  0
   29.6860   31.5430   18.4720 C   0  0  0  0  0  0  0  0  0  0  0  0
   28.7010   30.4460   16.6210 C   0  0  0  0  0  0  0  0  0  0  0  0
   28.7420   30.6690   17.9710 C   0  0  0  0  0  0  0  0  0  0  0  0
   27.6890   29.5460   16.3490 O   0  0  0  0  0  0  0  0  0  0  0  0
   27.7620   29.9200   18.5870 O   0  0  0  0  0  0  0  0  0  0  0  0
   26.9570   29.3860   17.5440 C   0  0  0  0  0  0  0  0  0  0  0  0
   29.8670   25.5550   16.9770 C   0  0  0  0  0  0  0  0  0  0  0  0
   28.3450   25.7220   17.0260 C   0  0  0  0  0  0  0  0  0  0  0  0
   27.6020   24.3980   16.9290 C   0  0  0  0  0  0  0  0  0  0  0  0
   26.1390   24.5460   17.2440 C   0  0  0  0  0  0  0  0  0  0  0  0
   25.5820   23.2050   17.7140 C   0  0  0  0  0  0  0  0  0  0  0  0
   25.5290   23.1550   19.1940 N   0  0  0  0  0  0  0  0  0  0  0  0
  1  2  1  0  0  0  0
  2  3  2  0  0  0  0
  2 31  1  0  0  0  0
  4  1  1  0  0  0  0
  5  1  1  0  0  0  0
  6  5  1  1  0  0  0
  7 27  1  1  0  0  0
  7  6  1  0  0  0  0
  8 11  1  0  0  0  0
  8  7  1  1  0  0  0
  9 16  1  1  0  0  0
  9 14  1  0  0  0  0
 10  9  1  0  0  0  0
 11  9  1  0  0  0  0
 12 20  1  1  0  0  0
 12 13  1  0  0  0  0
 12 10  1  0  0  0  0
 13 22  1  6  0  0  0
 13  8  1  0  0  0  0
 15 14  1  0  0  0  0
 16 18  1  0  0  0  0
 17 16  2  0  0  0  0
 19 18  1  0  0  0  0
 21 20  1  0  0  0  0
 22 23  1  0  0  0  0
 23 26  2  0  0  0  0
 24 22  1  0  0  0  0
 25 23  1  0  0  0  0
 28 27  1  0  0  0  0
 29  6  1  0  0  0  0
 30 29  1  0  0  0  0
 31 32  1  0  0  0  0
 32 33  1  0  0  0  0
 33 34  2  0  0  0  0
 33 35  1  0  0  0  0
 34 36  1  0  0  0  0
 35 37  2  0  0  0  0
 36 38  1  0  0  0  0
 36 37  1  0  0  0  0
 38 39  1  0  0  0  0
 39 40  1  0  0  0  0
 40 42  2  0  0  0  0
 41 39  2  0  0  0  0
 41 43  1  0  0  0  0
 43 44  2  0  0  0  0
 44 42  1  0  0  0  0
 44 46  1  0  0  0  0
 45 43  1  0  0  0  0
 45 47  1  0  0  0  0
 47 46  1  0  0  0  0
 48 49  1  0  0  0  0
 50 49  1  0  0  0  0
 50 51  1  0  0  0  0
 51 52  1  0  0  0  0
 52 53  1  0  0  0  0
M  END
>  <REMARK>
 VINA RESULT:    -5.511      0.000      0.000
 INTER + INTRA:         -15.863
 INTER:                 -10.979
 INTRA:                  -4.884
 UNBOUND:                -6.003
 SMILES CC(=O)N[C@@H]1[C@@H](O)C[C@](O)(C(=O)O)O[C@H]1C(O)[C@H](O)CNC(=O)OCc1cn(Cc2ccc3c(c2)OCO3)nn1
 SMILES IDX 21 1 22 2 23 3 20 5 18 6 16 7 15 8 9 9 8 10 14 11 6 12 5 13
 SMILES IDX 10 14 11 16 12 17 13 18 7 20 4 22 2 23 1 25 3 26 17 27 19 29
 SMILES IDX 24 31 25 32 26 33 27 34 40 35 28 36 39 37 29 38 30 39 31 40
 SMILES IDX 35 41 32 42 34 43 33 44 36 45 38 46 37 47
 H PARENT 21 4 10 15 13 19 7 21 4 24 17 28 19 30
 Flexibility Score: inf
  4 active torsions:
  status: ('A' for Active; 'I' for Inactive)
    1  A    between atoms: CA   and  CB  
    2  A    between atoms: CB   and  CG  
    3  A    between atoms: CG   and  CD  
    4  A    between atoms: CD   and  CE  

>  <TORSDO>
F 16

>  <BEGIN_>
RES LYS A 131

$$$$
ligand_28_pose_0_2HRL.pdbqt
 OpenBabel07062320523D

  6  5  0  0  0  0  0  0  0  0999 V2000
   33.1930   34.6630    9.2900 C   0  0  0  0  0  0  0  0  0  0  0  0
   32.0600   35.3600   10.0340 C   0  0  0  0  0  0  0  0  0  0  0  0
   32.4830   35.9600   11.3500 C   0  0  0  0  0  0  0  0  0  0  0  0
   31.7780   37.2870   11.5860 C   0  0  0  0  0  0  0  0  0  0  0  0
   31.8610   38.1610   10.3500 C   0  0  0  0  0  0  0  0  0  0  0  0
   31.5210   39.5750   10.6690 N   0  0  0  0  0  0  0  0  0  0  0  0
  1  2  1  0  0  0  0
  2  3  1  0  0  0  0
  3  4  1  0  0  0  0
  5  6  1  0  0  0  0
  5  4  1  0  0  0  0
M  END
>  <EGIN_R>
ES LYS A 135

>  <REMARK>
  4 active torsions:
  status: ('A' for Active; 'I' for Inactive)
    5  A    between atoms: CA   and  CB  
    6  A    between atoms: CB   and  CG  
    7  A    between atoms: CG   and  CD  
    8  A    between atoms: CD   and  CE  

$$$$
ligand_29_pose_0_2HRL.pdbqt
 OpenBabel07062320523D

 54 55  0  0  1  0  0  0  0  0999 V2000
   30.6270   32.5070   14.6810 N   0  0  0  0  0  0  0  0  0  0  0  0
   30.7130   33.8890   14.4650 C   0  0  0  0  0  0  0  0  0  0  0  0
   30.8680   34.6880   15.4130 O   0  0  0  0  0  0  0  0  0  0  0  0
   30.4850   31.8960   13.8200 H   0  0  0  0  0  0  0  0  0  0  0  0
   30.7160   31.8370   15.9670 C   0  0  0  0  0  0  0  0  0  0  0  0
   29.4950   31.0320   16.2310 C   0  0  2  0  0  0  0  0  0  0  0  0
   29.2450   30.7390   17.6900 C   0  0  2  0  0  0  0  0  0  0  0  0
   27.8130   30.7970   18.1030 C   0  0  2  0  0  0  0  0  0  0  0  0
   27.0310   28.6010   18.0310 C   0  0  2  0  0  0  0  0  0  0  0  0
   25.5970   28.9740   17.6820 C   0  0  0  0  0  0  0  0  0  0  0  0
   27.5300   29.6100   18.8090 O   0  0  0  0  0  0  0  0  0  0  0  0
   25.4670   30.4690   17.6720 C   0  0  1  0  0  0  0  0  0  0  0  0
   26.7820   31.1300   17.1140 C   0  0  1  0  0  0  0  0  0  0  0  0
   27.7700   28.3150   16.8880 O   0  0  0  0  0  0  0  0  0  0  0  0
   28.5050   27.6710   17.0600 H   0  0  0  0  0  0  0  0  0  0  0  0
   27.0210   27.3540   18.8510 C   0  0  0  0  0  0  0  0  0  0  0  0
   25.9200   26.8230   19.1300 O   0  0  0  0  0  0  0  0  0  0  0  0
   28.1810   26.7580   19.3190 O   0  0  0  0  0  0  0  0  0  0  0  0
   29.0360   27.2970   19.5070 H   0  0  0  0  0  0  0  0  0  0  0  0
   24.3990   30.9030   16.8950 O   0  0  0  0  0  0  0  0  0  0  0  0
   24.4640   30.5700   15.9750 H   0  0  0  0  0  0  0  0  0  0  0  0
   26.4400   32.5600   17.1390 N   0  0  0  0  0  0  0  0  0  0  0  0
   26.8050   33.4790   16.1270 C   0  0  0  0  0  0  0  0  0  0  0  0
   25.8840   32.9610   17.9510 H   0  0  0  0  0  0  0  0  0  0  0  0
   26.4490   34.9190   16.1820 C   0  0  0  0  0  0  0  0  0  0  0  0
   27.4600   33.0760   15.1330 O   0  0  0  0  0  0  0  0  0  0  0  0
   29.8860   31.8060   18.4400 O   0  0  0  0  0  0  0  0  0  0  0  0
   30.8590   31.6510   18.3770 H   0  0  0  0  0  0  0  0  0  0  0  0
   29.2640   29.9810   15.3820 O   0  0  0  0  0  0  0  0  0  0  0  0
   29.0070   29.1520   15.8280 H   0  0  0  0  0  0  0  0  0  0  0  0
   30.6260   34.4250   13.1620 O   0  0  0  0  0  0  0  0  0  0  0  0
   30.2710   35.8110   13.0360 C   0  0  0  0  0  0  0  0  0  0  0  0
   28.8290   35.9810   12.8720 C   0  0  0  0  0  0  0  0  0  0  0  0
   28.0040   35.2380   12.0670 C   0  0  0  0  0  0  0  0  0  0  0  0
   28.0690   36.8960   13.4940 N   0  0  0  0  0  0  0  0  0  0  0  0
   26.7690   35.7080   12.2110 N   0  0  0  0  0  0  0  0  0  0  0  0
   26.8260   36.7030   13.0710 N   0  0  0  0  0  0  0  0  0  0  0  0
   25.5600   35.2350   11.5480 C   0  0  0  0  0  0  0  0  0  0  0  0
   24.7310   34.5010   12.5540 C   0  0  0  0  0  0  0  0  0  0  0  0
   24.9930   33.1540   12.8000 C   0  0  0  0  0  0  0  0  0  0  0  0
   23.7140   35.1050   13.2620 C   0  0  0  0  0  0  0  0  0  0  0  0
   24.2610   32.4460   13.7210 C   0  0  0  0  0  0  0  0  0  0  0  0
   22.9610   34.4200   14.1950 C   0  0  0  0  0  0  0  0  0  0  0  0
   23.2500   33.0930   14.4090 C   0  0  0  0  0  0  0  0  0  0  0  0
   24.5100   31.1000   13.9770 O   0  0  0  0  0  0  0  0  0  0  0  0
   24.0130   30.1390   13.0630 C   0  0  0  0  0  0  0  0  0  0  0  0
   22.5170   32.3700   15.3370 O   0  0  0  0  0  0  0  0  0  0  0  0
   21.2020   31.9210   15.0680 C   0  0  0  0  0  0  0  0  0  0  0  0
   29.8670   25.5550   16.9770 C   0  0  0  0  0  0  0  0  0  0  0  0
   28.3450   25.7220   17.0260 C   0  0  0  0  0  0  0  0  0  0  0  0
   27.5990   24.4500   16.6520 C   0  0  0  0  0  0  0  0  0  0  0  0
   27.0330   23.7510   17.8570 C   0  0  0  0  0  0  0  0  0  0  0  0
   25.6340   23.2350   17.5350 C   0  0  0  0  0  0  0  0  0  0  0  0
   24.8030   24.3150   16.9520 N   0  0  0  0  0  0  0  0  0  0  0  0
  1  5  1  0  0  0  0
  2  1  1  0  0  0  0
  2  3  2  0  0  0  0
  4  1  1  0  0  0  0
  6  5  1  1  0  0  0
  6  7  1  0  0  0  0
  7 27  1  1  0  0  0
  8  7  1  6  0  0  0
  8 11  1  0  0  0  0
  9 14  1  6  0  0  0
  9 11  1  0  0  0  0
  9 16  1  0  0  0  0
 10  9  1  0  0  0  0
 12 20  1  6  0  0  0
 12 10  1  0  0  0  0
 13 22  1  1  0  0  0
 13 12  1  0  0  0  0
 13  8  1  0  0  0  0
 14 15  1  0  0  0  0
 16 17  2  0  0  0  0
 16 18  1  0  0  0  0
 18 19  1  0  0  0  0
 21 20  1  0  0  0  0
 22 24  1  0  0  0  0
 23 25  1  0  0  0  0
 23 22  1  0  0  0  0
 26 23  2  0  0  0  0
 28 27  1  0  0  0  0
 29 30  1  0  0  0  0
 29  6  1  0  0  0  0
 31  2  1  0  0  0  0
 32 31  1  0  0  0  0
 33 32  1  0  0  0  0
 33 35  1  0  0  0  0
 34 36  1  0  0  0  0
 34 33  2  0  0  0  0
 36 37  1  0  0  0  0
 37 35  2  0  0  0  0
 38 36  1  0  0  0  0
 38 39  1  0  0  0  0
 39 40  2  0  0  0  0
 39 41  1  0  0  0  0
 40 42  1  0  0  0  0
 41 43  2  0  0  0  0
 42 45  1  0  0  0  0
 42 44  2  0  0  0  0
 43 44  1  0  0  0  0
 44 47  1  0  0  0  0
 46 45  1  0  0  0  0
 48 47  1  0  0  0  0
 49 50  1  0  0  0  0
 51 50  1  0  0  0  0
 51 52  1  0  0  0  0
 53 52  1  0  0  0  0
 54 53  1  0  0  0  0
M  END
>  <REMARK>
 VINA RESULT:    -5.508      0.000      0.000
 INTER + INTRA:         -15.616
 INTER:                  -8.590
 INTRA:                  -7.026
 UNBOUND:                -5.118
 SMILES COc1ccc(Cn2cc(COC(=O)NC[C@@H](O)C(O)[C@@H]3O[C@@](O)(C(=O)O)C[C@H](O)[C@H]3NC(C)=O)nn2)cc1OC
 SMILES IDX 15 1 13 2 14 3 16 5 17 6 19 7 21 8 23 9 28 10 22 11 29 12
 SMILES IDX 31 13 24 14 25 16 26 17 27 18 30 20 32 22 33 23 34 25 35 26
 SMILES IDX 20 27 18 29 12 31 11 32 10 33 9 34 36 35 8 36 37 37 7 38
 SMILES IDX 6 39 38 40 5 41 39 42 4 43 3 44 40 45 41 46 2 47 1 48
 H PARENT 15 4 24 15 27 19 30 21 32 24 20 28 18 30
 Flexibility Score: inf
  4 active torsions:
  status: ('A' for Active; 'I' for Inactive)
    1  A    between atoms: CA   and  CB  
    2  A    between atoms: CB   and  CG  
    3  A    between atoms: CG   and  CD  
    4  A    between atoms: CD   and  CE  

>  <TORSDO>
F 18

>  <BEGIN_>
RES LYS A 131

$$$$
ligand_29_pose_0_2HRL.pdbqt
 OpenBabel07062320523D

  6  5  0  0  0  0  0  0  0  0999 V2000
   33.1930   34.6630    9.2900 C   0  0  0  0  0  0  0  0  0  0  0  0
   32.0600   35.3600   10.0340 C   0  0  0  0  0  0  0  0  0  0  0  0
   30.8130   35.5360    9.2060 C   0  0  0  0  0  0  0  0  0  0  0  0
   30.2060   34.1860    8.8580 C   0  0  0  0  0  0  0  0  0  0  0  0
   28.7040   34.3070    8.6830 C   0  0  0  0  0  0  0  0  0  0  0  0
   28.3670   35.2150    7.5510 N   0  0  0  0  0  0  0  0  0  0  0  0
  1  2  1  0  0  0  0
  3  2  1  0  0  0  0
  4  3  1  0  0  0  0
  5  4  1  0  0  0  0
  6  5  1  0  0  0  0
M  END
>  <EGIN_R>
ES LYS A 135

>  <REMARK>
  4 active torsions:
  status: ('A' for Active; 'I' for Inactive)
    5  A    between atoms: CA   and  CB  
    6  A    between atoms: CB   and  CG  
    7  A    between atoms: CG   and  CD  
    8  A    between atoms: CD   and  CE  

$$$$
ligand_2_pose_0_2HRL.pdbqt
 OpenBabel07062320523D

 50 51  0  0  1  0  0  0  0  0999 V2000
   30.2710   27.2420   21.0470 C   0  0  0  0  0  0  0  0  0  0  0  0
   31.7380   27.4840   20.8800 C   0  0  2  0  0  0  0  0  0  0  0  0
   31.9850   28.9950   21.0190 C   0  0  2  0  0  0  0  0  0  0  0  0
   33.1550   29.2740   21.9590 C   0  0  2  0  0  0  0  0  0  0  0  0
   32.7950   28.4690   24.1340 C   0  0  2  0  0  0  0  0  0  0  0  0
   33.5240   29.5930   24.8380 C   0  0  0  0  0  0  0  0  0  0  0  0
   33.1820   28.2300   22.8610 O   0  0  0  0  0  0  0  0  0  0  0  0
   34.0030   30.5690   23.8240 C   0  0  1  0  0  0  0  0  0  0  0  0
   33.0360   30.5670   22.6560 C   0  0  1  0  0  0  0  0  0  0  0  0
   31.4350   28.7300   24.2890 O   0  0  0  0  0  0  0  0  0  0  0  0
   31.1320   29.1290   23.4350 H   0  0  0  0  0  0  0  0  0  0  0  0
   33.0910   27.2450   24.9230 C   0  0  0  0  0  0  0  0  0  0  0  0
   34.2290   27.1360   25.4350 O   0  0  0  0  0  0  0  0  0  0  0  0
   32.1670   26.2530   25.1010 O   0  0  0  0  0  0  0  0  0  0  0  0
   31.6500   25.8940   24.2940 H   0  0  0  0  0  0  0  0  0  0  0  0
   34.2050   31.8450   24.3330 O   0  0  0  0  0  0  0  0  0  0  0  0
   33.7200   32.5120   23.8060 H   0  0  0  0  0  0  0  0  0  0  0  0
   33.2690   31.7520   21.9050 N   0  0  0  0  0  0  0  0  0  0  0  0
   32.2770   32.7330   21.6700 C   0  0  0  0  0  0  0  0  0  0  0  0
   34.2450   31.8640   21.5210 H   0  0  0  0  0  0  0  0  0  0  0  0
   32.5560   33.9530   20.8850 C   0  0  0  0  0  0  0  0  0  0  0  0
   31.1530   32.4770   22.1830 O   0  0  0  0  0  0  0  0  0  0  0  0
   30.8290   29.6170   21.5010 O   0  0  0  0  0  0  0  0  0  0  0  0
   31.0440   30.4600   21.9910 H   0  0  0  0  0  0  0  0  0  0  0  0
   32.2380   27.0060   19.6900 O   0  0  0  0  0  0  0  0  0  0  0  0
   32.2530   26.0400   19.5780 H   0  0  0  0  0  0  0  0  0  0  0  0
   29.4430   27.5800   19.9390 N   0  0  0  0  0  0  0  0  0  0  0  0
   28.0260   27.5340   19.9370 C   0  0  0  0  0  0  0  0  0  0  0  0
   29.8990   27.8930   19.0370 H   0  0  0  0  0  0  0  0  0  0  0  0
   27.3810   27.1900   20.9410 O   0  0  0  0  0  0  0  0  0  0  0  0
   27.3110   27.8840   18.7750 O   0  0  0  0  0  0  0  0  0  0  0  0
   26.7670   29.1920   18.6240 C   0  0  0  0  0  0  0  0  0  0  0  0
   27.9080   30.1380   18.6700 C   0  0  0  0  0  0  0  0  0  0  0  0
   28.5280   30.7020   17.5940 C   0  0  0  0  0  0  0  0  0  0  0  0
   28.5150   30.5930   19.7560 N   0  0  0  0  0  0  0  0  0  0  0  0
   29.5090   31.4940   18.0740 N   0  0  0  0  0  0  0  0  0  0  0  0
   29.4890   31.4170   19.3920 N   0  0  0  0  0  0  0  0  0  0  0  0
   30.3800   32.2560   17.2320 C   0  0  0  0  0  0  0  0  0  0  0  0
   30.6440   31.8150   15.9580 C   0  0  0  0  0  0  0  0  0  0  0  0
   30.9200   33.4080   17.7450 C   0  0  0  0  0  0  0  0  0  0  0  0
   31.4910   32.5800   15.1790 C   0  0  0  0  0  0  0  0  0  0  0  0
   31.7620   34.1510   16.9400 C   0  0  0  0  0  0  0  0  0  0  0  0
   32.0570   33.7520   15.6600 C   0  0  0  0  0  0  0  0  0  0  0  0
   33.1270   34.7330   14.6960 Cl  0  0  0  0  0  0  0  0  0  0  0  0
   29.8670   25.5550   16.9770 C   0  0  0  0  0  0  0  0  0  0  0  0
   28.3450   25.7220   17.0260 C   0  0  0  0  0  0  0  0  0  0  0  0
   27.5990   24.4690   16.5930 C   0  0  0  0  0  0  0  0  0  0  0  0
   27.0390   23.7100   17.7630 C   0  0  0  0  0  0  0  0  0  0  0  0
   26.1470   24.6320   18.5880 C   0  0  0  0  0  0  0  0  0  0  0  0
   25.5010   23.8790   19.6900 N   0  0  0  0  0  0  0  0  0  0  0  0
  2  3  1  0  0  0  0
  2  1  1  6  0  0  0
  3 23  1  1  0  0  0
  4  3  1  6  0  0  0
  4  9  1  0  0  0  0
  4  7  1  0  0  0  0
  5 10  1  1  0  0  0
  5  6  1  0  0  0  0
  5 12  1  0  0  0  0
  7  5  1  0  0  0  0
  8 16  1  1  0  0  0
  8  6  1  0  0  0  0
  9 18  1  6  0  0  0
  9  8  1  0  0  0  0
 11 10  1  0  0  0  0
 12 14  1  0  0  0  0
 12 13  2  0  0  0  0
 15 14  1  0  0  0  0
 17 16  1  0  0  0  0
 19 18  1  0  0  0  0
 19 22  2  0  0  0  0
 20 18  1  0  0  0  0
 21 19  1  0  0  0  0
 23 24  1  0  0  0  0
 25  2  1  0  0  0  0
 26 25  1  0  0  0  0
 27  1  1  0  0  0  0
 28 27  1  0  0  0  0
 28 30  2  0  0  0  0
 29 27  1  0  0  0  0
 31 28  1  0  0  0  0
 32 33  1  0  0  0  0
 32 31  1  0  0  0  0
 33 35  1  0  0  0  0
 34 36  1  0  0  0  0
 34 33  2  0  0  0  0
 36 37  1  0  0  0  0
 37 35  2  0  0  0  0
 38 40  1  0  0  0  0
 38 36  1  0  0  0  0
 39 38  2  0  0  0  0
 41 43  2  0  0  0  0
 41 39  1  0  0  0  0
 42 40  2  0  0  0  0
 43 42  1  0  0  0  0
 44 43  1  0  0  0  0
 45 46  1  0  0  0  0
 47 46  1  0  0  0  0
 47 48  1  0  0  0  0
 48 49  1  0  0  0  0
 49 50  1  0  0  0  0
M  END
>  <REMARK>
 VINA RESULT:    -4.713      0.000      0.000
 INTER + INTRA:         -15.165
 INTER:                  -8.917
 INTRA:                  -6.247
 UNBOUND:                -7.007
 SMILES CC(=O)N[C@@H]1[C@@H](O)C[C@](O)(C(=O)O)O[C@H]1C(O)[C@H](O)CNC(=O)OCc1cn(-c2ccc(Cl)cc2)nn1
 SMILES IDX 20 1 18 2 16 3 15 4 9 5 8 6 14 7 6 8 5 9 10 10 11 12 12 13
 SMILES IDX 13 14 7 16 4 18 2 19 1 21 3 22 17 23 19 25 21 27 22 28 23 30
 SMILES IDX 24 31 25 32 26 33 27 34 37 35 28 36 36 37 29 38 30 39 35 40
 SMILES IDX 31 41 34 42 32 43 33 44
 H PARENT 10 11 13 15 7 17 4 20 17 24 19 26 21 29
 Flexibility Score: inf
  4 active torsions:
  status: ('A' for Active; 'I' for Inactive)
    1  A    between atoms: CA   and  CB  
    2  A    between atoms: CB   and  CG  
    3  A    between atoms: CG   and  CD  
    4  A    between atoms: CD   and  CE  

>  <TORSDO>
F 15

>  <BEGIN_>
RES LYS A 131

$$$$
ligand_2_pose_0_2HRL.pdbqt
 OpenBabel07062320523D

  6  5  0  0  0  0  0  0  0  0999 V2000
   33.1930   34.6630    9.2900 C   0  0  0  0  0  0  0  0  0  0  0  0
   32.0600   35.3600   10.0340 C   0  0  0  0  0  0  0  0  0  0  0  0
   30.7920   35.4760    9.2280 C   0  0  0  0  0  0  0  0  0  0  0  0
   30.1620   34.1080    9.0190 C   0  0  0  0  0  0  0  0  0  0  0  0
   28.7150   34.1130    9.4720 C   0  0  0  0  0  0  0  0  0  0  0  0
   27.8100   34.5540    8.3740 N   0  0  0  0  0  0  0  0  0  0  0  0
  1  2  1  0  0  0  0
  3  2  1  0  0  0  0
  4  3  1  0  0  0  0
  4  5  1  0  0  0  0
  6  5  1  0  0  0  0
M  END
>  <EGIN_R>
ES LYS A 135

>  <REMARK>
  4 active torsions:
  status: ('A' for Active; 'I' for Inactive)
    5  A    between atoms: CA   and  CB  
    6  A    between atoms: CB   and  CG  
    7  A    between atoms: CG   and  CD  
    8  A    between atoms: CD   and  CE  

$$$$
ligand_30_pose_0_2HRL.pdbqt
 OpenBabel07062320523D

 57 57  0  0  1  0  0  0  0  0999 V2000
   27.5400   35.9690   13.5870 C   0  0  0  0  0  0  0  0  0  0  0  0
   26.6660   34.8950   13.9730 N   0  0  0  0  0  0  0  0  0  0  0  0
   25.1950   33.2690   14.0400 C   0  0  0  0  0  0  0  0  0  0  0  0
   25.7920   34.1790   13.2100 C   0  0  0  0  0  0  0  0  0  0  0  0
   25.7120   33.4480   15.2750 N   0  0  0  0  0  0  0  0  0  0  0  0
   26.5810   34.4190   15.1990 N   0  0  0  0  0  0  0  0  0  0  0  0
   24.1730   32.2840   13.6270 C   0  0  0  0  0  0  0  0  0  0  0  0
   24.7320   30.9920   13.5410 O   0  0  0  0  0  0  0  0  0  0  0  0
   24.7190   30.1390   14.6360 C   0  0  0  0  0  0  0  0  0  0  0  0
   25.7360   30.1810   15.6260 N   0  0  0  0  0  0  0  0  0  0  0  0
   26.5220   30.8620   15.5470 H   0  0  0  0  0  0  0  0  0  0  0  0
   23.7570   29.3020   14.7360 O   0  0  0  0  0  0  0  0  0  0  0  0
   25.6840   29.2860   16.7380 C   0  0  0  0  0  0  0  0  0  0  0  0
   26.9870   29.2330   17.5070 C   0  0  2  0  0  0  0  0  0  0  0  0
   27.0930   30.4170   18.4200 C   0  0  2  0  0  0  0  0  0  0  0  0
   27.8750   30.0430   19.6610 C   0  0  2  0  0  0  0  0  0  0  0  0
   30.0430   29.6340   20.3690 C   0  0  2  0  0  0  0  0  0  0  0  0
   29.3470   28.8610   21.4670 C   0  0  0  0  0  0  0  0  0  0  0  0
   29.1950   29.9350   19.3160 O   0  0  0  0  0  0  0  0  0  0  0  0
   28.3750   27.9090   20.8290 C   0  0  1  0  0  0  0  0  0  0  0  0
   27.2680   28.7770   20.2130 C   0  0  1  0  0  0  0  0  0  0  0  0
   31.0390   28.8020   19.8650 O   0  0  0  0  0  0  0  0  0  0  0  0
   31.7950   28.7280   20.4910 H   0  0  0  0  0  0  0  0  0  0  0  0
   30.6640   30.8120   20.9740 C   0  0  0  0  0  0  0  0  0  0  0  0
   31.1410   31.7050   20.2330 O   0  0  0  0  0  0  0  0  0  0  0  0
   30.7670   31.0220   22.3430 O   0  0  0  0  0  0  0  0  0  0  0  0
   31.6410   31.4270   22.7130 H   0  0  0  0  0  0  0  0  0  0  0  0
   28.9950   27.1180   19.8850 O   0  0  0  0  0  0  0  0  0  0  0  0
   28.3800   27.0170   19.1170 H   0  0  0  0  0  0  0  0  0  0  0  0
   26.3520   29.0630   21.2950 N   0  0  0  0  0  0  0  0  0  0  0  0
   24.9690   28.8450   21.0850 C   0  0  0  0  0  0  0  0  0  0  0  0
   26.6810   29.4240   22.2250 H   0  0  0  0  0  0  0  0  0  0  0  0
   23.9890   29.1290   22.1780 C   0  0  0  0  0  0  0  0  0  0  0  0
   24.5630   28.4170   19.9870 O   0  0  0  0  0  0  0  0  0  0  0  0
   25.7960   30.8430   18.7250 O   0  0  0  0  0  0  0  0  0  0  0  0
   25.6940   31.8100   18.7140 H   0  0  0  0  0  0  0  0  0  0  0  0
   28.0860   29.2490   16.6490 O   0  0  0  0  0  0  0  0  0  0  0  0
   27.9440   29.8540   15.8970 H   0  0  0  0  0  0  0  0  0  0  0  0
   28.9570   35.5980   13.9350 C   0  0  0  0  0  0  0  0  0  0  0  0
   29.5210   34.5350   13.0360 C   0  0  0  0  0  0  0  0  0  0  0  0
   30.8820   34.8980   12.4970 C   0  0  0  0  0  0  0  0  0  0  0  0
   31.6540   35.6900   13.5480 C   0  0  0  0  0  0  0  0  0  0  0  0
   32.8180   34.8610   14.0230 C   0  0  0  0  0  0  0  0  0  0  0  0
   32.8820   34.8030   15.5220 C   0  0  0  0  0  0  0  0  0  0  0  0
   31.6440   34.1810   16.0780 C   0  0  0  0  0  0  0  0  0  0  0  0
   31.4880   32.7420   15.5930 C   0  0  0  0  0  0  0  0  0  0  0  0
   30.7090   31.8970   16.5650 C   0  0  0  0  0  0  0  0  0  0  0  0
   29.3150   32.4410   16.5790 C   0  0  0  0  0  0  0  0  0  0  0  0
   28.8830   33.2000   17.4710 O   0  0  0  0  0  0  0  0  0  0  0  0
   28.4410   32.0910   15.5490 O   0  0  0  0  0  0  0  0  0  0  0  0
   27.6200   31.5550   15.7680 H   0  0  0  0  0  0  0  0  0  0  0  0
   29.8670   25.5550   16.9770 C   0  0  0  0  0  0  0  0  0  0  0  0
   28.3450   25.7220   17.0260 C   0  0  0  0  0  0  0  0  0  0  0  0
   27.6000   24.4140   16.8110 C   0  0  0  0  0  0  0  0  0  0  0  0
   26.5360   24.1900   17.8500 C   0  0  0  0  0  0  0  0  0  0  0  0
   26.1780   25.5200   18.5050 C   0  0  0  0  0  0  0  0  0  0  0  0
   25.7340   25.3070   19.9030 N   0  0  0  0  0  0  0  0  0  0  0  0
  1 39  1  0  0  0  0
  1  2  1  0  0  0  0
  2  6  1  0  0  0  0
  3  5  1  0  0  0  0
  4  2  1  0  0  0  0
  4  3  2  0  0  0  0
  6  5  2  0  0  0  0
  7  3  1  0  0  0  0
  8  7  1  0  0  0  0
  8  9  1  0  0  0  0
  9 12  2  0  0  0  0
  9 10  1  0  0  0  0
 10 13  1  0  0  0  0
 11 10  1  0  0  0  0
 14 13  1  6  0  0  0
 14 15  1  0  0  0  0
 15 35  1  1  0  0  0
 16 15  1  6  0  0  0
 16 21  1  0  0  0  0
 17 22  1  6  0  0  0
 17 24  1  0  0  0  0
 17 18  1  0  0  0  0
 19 16  1  0  0  0  0
 19 17  1  0  0  0  0
 20 28  1  6  0  0  0
 20 18  1  0  0  0  0
 21 20  1  0  0  0  0
 21 30  1  1  0  0  0
 22 23  1  0  0  0  0
 24 26  1  0  0  0  0
 25 24  2  0  0  0  0
 26 27  1  0  0  0  0
 29 28  1  0  0  0  0
 30 32  1  0  0  0  0
 31 30  1  0  0  0  0
 31 33  1  0  0  0  0
 34 31  2  0  0  0  0
 36 35  1  0  0  0  0
 37 14  1  0  0  0  0
 38 37  1  0  0  0  0
 40 39  1  0  0  0  0
 41 40  1  0  0  0  0
 41 42  1  0  0  0  0
 42 43  1  0  0  0  0
 43 44  1  0  0  0  0
 44 45  1  0  0  0  0
 46 45  1  0  0  0  0
 46 47  1  0  0  0  0
 47 48  1  0  0  0  0
 48 49  2  0  0  0  0
 50 51  1  0  0  0  0
 50 48  1  0  0  0  0
 52 53  1  0  0  0  0
 54 53  1  0  0  0  0
 54 55  1  0  0  0  0
 55 56  1  0  0  0  0
 56 57  1  0  0  0  0
M  END
>  <REMARK>
 VINA RESULT:    -4.203      0.000      0.000
 INTER + INTRA:         -18.153
 INTER:                  -9.838
 INTRA:                  -8.315
 UNBOUND:                -8.298
 SMILES CC(=O)N[C@@H]1[C@@H](O)C[C@](O)(C(=O)O)O[C@H]1C(O)[C@H](O)CNC(=O)OCc1cn(CCCCCCCCCCC(=O)O)nn1
 SMILES IDX 29 1 28 2 26 3 27 4 43 5 42 6 25 7 24 8 22 9 21 10 23 12
 SMILES IDX 20 13 18 14 16 15 15 16 9 17 8 18 14 19 6 20 5 21 10 22
 SMILES IDX 11 24 12 25 13 26 7 28 4 30 2 31 1 33 3 34 17 35 19 37 30 39
 SMILES IDX 31 40 32 41 33 42 34 43 35 44 36 45 37 46 38 47 39 48 40 49
 SMILES IDX 41 50
 H PARENT 21 11 10 23 13 27 7 29 4 32 17 36 19 38 41 51
 Flexibility Score: inf
  4 active torsions:
  status: ('A' for Active; 'I' for Inactive)
    1  A    between atoms: CA   and  CB  
    2  A    between atoms: CB   and  CG  
    3  A    between atoms: CG   and  CD  
    4  A    between atoms: CD   and  CE  

>  <TORSDO>
F 26

>  <BEGIN_>
RES LYS A 131

$$$$
ligand_30_pose_0_2HRL.pdbqt
 OpenBabel07062320523D

  6  5  0  0  0  0  0  0  0  0999 V2000
   33.1930   34.6630    9.2900 C   0  0  0  0  0  0  0  0  0  0  0  0
   32.0600   35.3600   10.0340 C   0  0  0  0  0  0  0  0  0  0  0  0
   30.8540   35.6350    9.1740 C   0  0  0  0  0  0  0  0  0  0  0  0
   30.2160   34.3330    8.7130 C   0  0  0  0  0  0  0  0  0  0  0  0
   28.7090   34.4820    8.6220 C   0  0  0  0  0  0  0  0  0  0  0  0
   28.0260   33.6730    9.6700 N   0  0  0  0  0  0  0  0  0  0  0  0
  1  2  1  0  0  0  0
  3  2  1  0  0  0  0
  4  3  1  0  0  0  0
  5  4  1  0  0  0  0
  5  6  1  0  0  0  0
M  END
>  <EGIN_R>
ES LYS A 135

>  <REMARK>
  4 active torsions:
  status: ('A' for Active; 'I' for Inactive)
    5  A    between atoms: CA   and  CB  
    6  A    between atoms: CB   and  CG  
    7  A    between atoms: CG   and  CD  
    8  A    between atoms: CD   and  CE  

$$$$
ligand_31_pose_0_2HRL.pdbqt
 OpenBabel07062320523D

 57 58  0  0  1  0  0  0  0  0999 V2000
   33.7390   36.0630   19.0540 O   0  0  0  0  0  0  0  0  0  0  0  0
   34.0960   35.2680   20.1380 C   0  0  0  0  0  0  0  0  0  0  0  0
   33.1850   34.7090   21.0460 N   0  0  0  0  0  0  0  0  0  0  0  0
   32.1750   34.8780   20.9310 H   0  0  0  0  0  0  0  0  0  0  0  0
   35.3220   35.0410   20.3080 O   0  0  0  0  0  0  0  0  0  0  0  0
   33.6700   33.8850   22.1570 C   0  0  0  0  0  0  0  0  0  0  0  0
   33.5960   32.4360   21.7550 C   0  0  2  0  0  0  0  0  0  0  0  0
   32.4570   31.7120   22.4190 C   0  0  1  0  0  0  0  0  0  0  0  0
   31.9390   30.5670   21.5980 C   0  0  2  0  0  0  0  0  0  0  0  0
   29.8830   29.6560   20.9630 C   0  0  2  0  0  0  0  0  0  0  0  0
   30.5010   28.3130   20.7460 C   0  0  0  0  0  0  0  0  0  0  0  0
   30.5510   30.4820   21.8090 O   0  0  0  0  0  0  0  0  0  0  0  0
   31.9560   28.2310   20.9720 C   0  0  1  0  0  0  0  0  0  0  0  0
   32.4600   29.2140   22.0140 C   0  0  1  0  0  0  0  0  0  0  0  0
   28.6280   29.3970   21.5720 O   0  0  0  0  0  0  0  0  0  0  0  0
   27.9650   30.0830   21.3130 H   0  0  0  0  0  0  0  0  0  0  0  0
   29.5920   30.3690   19.6950 C   0  0  0  0  0  0  0  0  0  0  0  0
   28.5330   31.0400   19.5420 O   0  0  0  0  0  0  0  0  0  0  0  0
   30.4530   30.3440   18.6040 O   0  0  0  0  0  0  0  0  0  0  0  0
   31.1700   31.0550   18.5080 H   0  0  0  0  0  0  0  0  0  0  0  0
   32.3080   26.9190   21.3520 O   0  0  0  0  0  0  0  0  0  0  0  0
   33.0100   26.5510   20.7790 H   0  0  0  0  0  0  0  0  0  0  0  0
   33.8700   29.1110   22.1640 N   0  0  0  0  0  0  0  0  0  0  0  0
   34.3940   28.4060   23.2920 C   0  0  0  0  0  0  0  0  0  0  0  0
   34.5670   29.5100   21.5000 H   0  0  0  0  0  0  0  0  0  0  0  0
   35.8430   28.2430   23.5370 C   0  0  0  0  0  0  0  0  0  0  0  0
   33.5990   27.8890   24.1300 O   0  0  0  0  0  0  0  0  0  0  0  0
   32.6970   31.3960   23.7440 O   0  0  0  0  0  0  0  0  0  0  0  0
   32.2640   30.5560   24.0400 H   0  0  0  0  0  0  0  0  0  0  0  0
   34.7730   31.8370   22.2800 O   0  0  0  0  0  0  0  0  0  0  0  0
   34.7440   30.8980   21.9160 H   0  0  0  0  0  0  0  0  0  0  0  0
   32.3880   36.2510   18.6910 C   0  0  0  0  0  0  0  0  0  0  0  0
   31.9080   35.0130   18.0390 C   0  0  0  0  0  0  0  0  0  0  0  0
   32.1300   34.6210   16.7470 C   0  0  0  0  0  0  0  0  0  0  0  0
   31.1660   34.0520   18.6120 N   0  0  0  0  0  0  0  0  0  0  0  0
   31.5180   33.4360   16.5700 N   0  0  0  0  0  0  0  0  0  0  0  0
   30.9340   33.0930   17.7070 N   0  0  0  0  0  0  0  0  0  0  0  0
   31.4850   32.6340   15.3440 C   0  0  0  0  0  0  0  0  0  0  0  0
   30.0430   32.3160   15.0500 C   0  0  0  0  0  0  0  0  0  0  0  0
   29.6830   31.0820   15.7010 N   0  0  0  0  0  0  0  0  0  0  0  0
   28.3540   30.6920   15.9920 C   0  0  0  0  0  0  0  0  0  0  0  0
   30.4410   30.4030   15.9920 H   0  0  0  0  0  0  0  0  0  0  0  0
   27.4140   31.4750   15.6590 O   0  0  0  0  0  0  0  0  0  0  0  0
   28.1020   29.4550   16.6400 N   0  0  0  0  0  0  0  0  0  0  0  0
   28.8510   28.7980   16.9230 H   0  0  0  0  0  0  0  0  0  0  0  0
   26.7310   29.0910   16.9210 C   0  0  0  0  0  0  0  0  0  0  0  0
   26.7090   28.2580   18.1420 C   0  0  0  0  0  0  0  0  0  0  0  0
   25.5880   28.0950   18.9490 C   0  0  0  0  0  0  0  0  0  0  0  0
   27.6870   27.5710   18.6430 O   0  0  0  0  0  0  0  0  0  0  0  0
   25.9880   27.2550   19.9660 C   0  0  0  0  0  0  0  0  0  0  0  0
   27.3130   26.9580   19.7240 C   0  0  0  0  0  0  0  0  0  0  0  0
   29.8670   25.5550   16.9770 C   0  0  0  0  0  0  0  0  0  0  0  0
   28.3450   25.7220   17.0260 C   0  0  0  0  0  0  0  0  0  0  0  0
   27.6000   24.4080   16.8450 C   0  0  0  0  0  0  0  0  0  0  0  0
   26.1660   24.5040   17.2860 C   0  0  0  0  0  0  0  0  0  0  0  0
   25.9740   23.7020   18.5690 C   0  0  0  0  0  0  0  0  0  0  0  0
   24.9540   22.6450   18.3720 N   0  0  0  0  0  0  0  0  0  0  0  0
  1  2  1  0  0  0  0
  2  5  2  0  0  0  0
  2  3  1  0  0  0  0
  3  6  1  0  0  0  0
  4  3  1  0  0  0  0
  7  6  1  1  0  0  0
  7 30  1  0  0  0  0
  7  8  1  0  0  0  0
  8 28  1  1  0  0  0
  9 12  1  0  0  0  0
  9 14  1  0  0  0  0
  9  8  1  1  0  0  0
 10 17  1  6  0  0  0
 10 15  1  0  0  0  0
 10 12  1  0  0  0  0
 11 10  1  0  0  0  0
 11 13  1  0  0  0  0
 13 21  1  1  0  0  0
 13 14  1  0  0  0  0
 14 23  1  6  0  0  0
 16 15  1  0  0  0  0
 18 17  2  0  0  0  0
 19 17  1  0  0  0  0
 20 19  1  0  0  0  0
 22 21  1  0  0  0  0
 23 24  1  0  0  0  0
 24 26  1  0  0  0  0
 24 27  2  0  0  0  0
 25 23  1  0  0  0  0
 28 29  1  0  0  0  0
 31 30  1  0  0  0  0
 32  1  1  0  0  0  0
 33 35  1  0  0  0  0
 33 32  1  0  0  0  0
 34 33  2  0  0  0  0
 36 34  1  0  0  0  0
 36 37  1  0  0  0  0
 37 35  2  0  0  0  0
 38 36  1  0  0  0  0
 39 38  1  0  0  0  0
 39 40  1  0  0  0  0
 40 42  1  0  0  0  0
 40 41  1  0  0  0  0
 41 44  1  0  0  0  0
 43 41  2  0  0  0  0
 44 46  1  0  0  0  0
 44 45  1  0  0  0  0
 46 47  1  0  0  0  0
 47 49  1  0  0  0  0
 47 48  2  0  0  0  0
 48 50  1  0  0  0  0
 49 51  1  0  0  0  0
 51 50  2  0  0  0  0
 52 53  1  0  0  0  0
 54 53  1  0  0  0  0
 54 55  1  0  0  0  0
 55 56  1  0  0  0  0
 57 56  1  0  0  0  0
M  END
>  <REMARK>
 VINA RESULT:    -5.374      0.000      0.000
 INTER + INTRA:         -16.467
 INTER:                  -9.082
 INTRA:                  -7.385
 UNBOUND:                -5.909
 SMILES CC(=O)N[C@@H]1[C@@H](O)C[C@](O)(C(=O)O)O[C@H]1C(O)[C@H](O)CNC(=O)OCc1cn(CCNC(=O)NCc2ccco2)nn1
 SMILES IDX 24 1 22 2 21 3 23 5 20 6 18 7 16 8 15 9 9 10 8 11 14 12 6 13
 SMILES IDX 5 14 10 15 11 17 12 18 13 19 7 21 4 23 2 24 1 26 3 27 17 28
 SMILES IDX 19 30 25 32 26 33 27 34 42 35 28 36 41 37 29 38 30 39 31 40
 SMILES IDX 32 41 33 43 34 44 35 46 36 47 37 48 40 49 38 50 39 51
 H PARENT 21 4 10 16 13 20 7 22 4 25 17 29 19 31 31 42 34 45
 Flexibility Score: inf
  4 active torsions:
  status: ('A' for Active; 'I' for Inactive)
    1  A    between atoms: CA   and  CB  
    2  A    between atoms: CB   and  CG  
    3  A    between atoms: CG   and  CD  
    4  A    between atoms: CD   and  CE  

>  <TORSDO>
F 19

>  <BEGIN_>
RES LYS A 131

$$$$
ligand_31_pose_0_2HRL.pdbqt
 OpenBabel07062320523D

  6  5  0  0  0  0  0  0  0  0999 V2000
   33.1930   34.6630    9.2900 C   0  0  0  0  0  0  0  0  0  0  0  0
   32.0600   35.3600   10.0340 C   0  0  0  0  0  0  0  0  0  0  0  0
   30.7310   34.6620    9.8990 C   0  0  0  0  0  0  0  0  0  0  0  0
   30.3260   34.5570    8.4370 C   0  0  0  0  0  0  0  0  0  0  0  0
   28.8160   34.5430    8.3030 C   0  0  0  0  0  0  0  0  0  0  0  0
   28.1830   33.8120    9.4360 N   0  0  0  0  0  0  0  0  0  0  0  0
  1  2  1  0  0  0  0
  3  2  1  0  0  0  0
  4  3  1  0  0  0  0
  5  4  1  0  0  0  0
  5  6  1  0  0  0  0
M  END
>  <EGIN_R>
ES LYS A 135

>  <REMARK>
  4 active torsions:
  status: ('A' for Active; 'I' for Inactive)
    5  A    between atoms: CA   and  CB  
    6  A    between atoms: CB   and  CG  
    7  A    between atoms: CG   and  CD  
    8  A    between atoms: CD   and  CE  

$$$$
ligand_32_pose_0_2HRL.pdbqt
 OpenBabel07062320523D

 49 49  0  0  1  0  0  0  0  0999 V2000
   31.1450   33.5990   19.8240 N   0  0  0  0  0  0  0  0  0  0  0  0
   30.2050   34.4880   19.2450 C   0  0  0  0  0  0  0  0  0  0  0  0
   29.1340   34.7960   19.8490 O   0  0  0  0  0  0  0  0  0  0  0  0
   32.0120   33.3720   19.2980 H   0  0  0  0  0  0  0  0  0  0  0  0
   30.9290   33.0010   21.1190 C   0  0  0  0  0  0  0  0  0  0  0  0
   30.3900   31.5980   21.0580 C   0  0  2  0  0  0  0  0  0  0  0  0
   31.1550   30.7620   20.0320 C   0  0  1  0  0  0  0  0  0  0  0  0
   31.0740   29.2920   20.4010 C   0  0  2  0  0  0  0  0  0  0  0  0
   29.5580   27.9590   21.5750 C   0  0  2  0  0  0  0  0  0  0  0  0
   30.6260   26.9190   21.7680 C   0  0  0  0  0  0  0  0  0  0  0  0
   29.8050   28.8330   20.5390 O   0  0  0  0  0  0  0  0  0  0  0  0
   32.0180   27.4010   21.5700 C   0  0  1  0  0  0  0  0  0  0  0  0
   31.9740   28.9370   21.5560 C   0  0  1  0  0  0  0  0  0  0  0  0
   29.3500   28.6060   22.7880 O   0  0  0  0  0  0  0  0  0  0  0  0
   28.8690   29.4500   22.5650 H   0  0  0  0  0  0  0  0  0  0  0  0
   28.3150   27.2300   21.2340 C   0  0  0  0  0  0  0  0  0  0  0  0
   27.3540   27.0930   22.0220 O   0  0  0  0  0  0  0  0  0  0  0  0
   28.1900   26.6600   19.9800 O   0  0  0  0  0  0  0  0  0  0  0  0
   28.9280   26.1350   19.5280 H   0  0  0  0  0  0  0  0  0  0  0  0
   32.9010   26.9490   22.5470 O   0  0  0  0  0  0  0  0  0  0  0  0
   33.4850   27.6780   22.8940 H   0  0  0  0  0  0  0  0  0  0  0  0
   33.3080   29.4770   21.3840 N   0  0  0  0  0  0  0  0  0  0  0  0
   33.8380   30.4030   22.3260 C   0  0  0  0  0  0  0  0  0  0  0  0
   33.9190   29.2140   20.5750 H   0  0  0  0  0  0  0  0  0  0  0  0
   35.2140   30.9890   22.1890 C   0  0  0  0  0  0  0  0  0  0  0  0
   33.1410   30.7610   23.3290 O   0  0  0  0  0  0  0  0  0  0  0  0
   30.5550   30.9530   18.7900 O   0  0  0  0  0  0  0  0  0  0  0  0
   29.5610   30.8960   18.8350 H   0  0  0  0  0  0  0  0  0  0  0  0
   29.0420   31.6910   20.7020 O   0  0  0  0  0  0  0  0  0  0  0  0
   28.9220   32.4840   20.1210 H   0  0  0  0  0  0  0  0  0  0  0  0
   30.4640   35.0250   18.0050 O   0  0  0  0  0  0  0  0  0  0  0  0
   29.6700   34.7670   16.8600 C   0  0  0  0  0  0  0  0  0  0  0  0
   29.7840   33.3210   16.4690 C   0  0  0  0  0  0  0  0  0  0  0  0
   28.7580   32.4610   16.1760 C   0  0  0  0  0  0  0  0  0  0  0  0
   30.9390   32.6370   16.3520 N   0  0  0  0  0  0  0  0  0  0  0  0
   29.3160   31.2610   15.8850 N   0  0  0  0  0  0  0  0  0  0  0  0
   30.6290   31.4000   15.9990 N   0  0  0  0  0  0  0  0  0  0  0  0
   28.5600   30.0830   15.5180 C   0  0  0  0  0  0  0  0  0  0  0  0
   27.2400   30.1210   16.2850 C   0  0  0  0  0  0  0  0  0  0  0  0
   27.4930   29.4570   17.5990 C   0  0  0  0  0  0  0  0  0  0  0  0
   27.6910   30.0840   18.6470 O   0  0  0  0  0  0  0  0  0  0  0  0
   27.4960   28.0620   17.6010 O   0  0  0  0  0  0  0  0  0  0  0  0
   27.6880   27.5600   18.4660 H   0  0  0  0  0  0  0  0  0  0  0  0
   29.8670   25.5550   16.9770 C   0  0  0  0  0  0  0  0  0  0  0  0
   28.3450   25.7220   17.0260 C   0  0  0  0  0  0  0  0  0  0  0  0
   27.6010   24.4020   16.8910 C   0  0  0  0  0  0  0  0  0  0  0  0
   26.1590   24.5210   17.2980 C   0  0  0  0  0  0  0  0  0  0  0  0
   25.9720   23.9250   18.6900 C   0  0  0  0  0  0  0  0  0  0  0  0
   25.2980   24.8970   19.5830 N   0  0  0  0  0  0  0  0  0  0  0  0
  1  5  1  0  0  0  0
  2  1  1  0  0  0  0
  2  3  2  0  0  0  0
  4  1  1  0  0  0  0
  6  5  1  6  0  0  0
  7 27  1  6  0  0  0
  7  6  1  0  0  0  0
  8  7  1  1  0  0  0
  8 11  1  0  0  0  0
  8 13  1  0  0  0  0
  9 16  1  6  0  0  0
  9 10  1  0  0  0  0
  9 14  1  0  0  0  0
 11  9  1  0  0  0  0
 12 10  1  0  0  0  0
 12 20  1  1  0  0  0
 13 22  1  6  0  0  0
 13 12  1  0  0  0  0
 15 14  1  0  0  0  0
 16 17  2  0  0  0  0
 18 16  1  0  0  0  0
 19 18  1  0  0  0  0
 20 21  1  0  0  0  0
 22 23  1  0  0  0  0
 23 26  2  0  0  0  0
 24 22  1  0  0  0  0
 25 23  1  0  0  0  0
 27 28  1  0  0  0  0
 29  6  1  0  0  0  0
 30 29  1  0  0  0  0
 31  2  1  0  0  0  0
 32 31  1  0  0  0  0
 33 32  1  0  0  0  0
 34 33  2  0  0  0  0
 35 33  1  0  0  0  0
 36 37  1  0  0  0  0
 36 34  1  0  0  0  0
 37 35  2  0  0  0  0
 38 36  1  0  0  0  0
 38 39  1  0  0  0  0
 39 40  1  0  0  0  0
 40 42  1  0  0  0  0
 40 41  2  0  0  0  0
 42 43  1  0  0  0  0
 44 45  1  0  0  0  0
 46 45  1  0  0  0  0
 46 47  1  0  0  0  0
 47 48  1  0  0  0  0
 48 49  1  0  0  0  0
M  END
>  <REMARK>
 VINA RESULT:    -4.618      0.000      0.000
 INTER + INTRA:         -14.312
 INTER:                  -7.384
 INTRA:                  -6.928
 UNBOUND:                -5.644
 SMILES CC(=O)N[C@@H]1[C@@H](O)C[C@](O)(C(=O)O)O[C@H]1C(O)[C@H](O)CNC(=O)OCc1cn(CCC(=O)O)nn1
 SMILES IDX 21 1 22 2 23 3 20 5 18 6 16 7 15 8 9 9 8 10 14 11 6 12 5 13
 SMILES IDX 10 14 11 16 12 17 13 18 7 20 4 22 2 23 1 25 3 26 17 27 19 29
 SMILES IDX 24 31 25 32 26 33 27 34 35 35 28 36 34 37 29 38 30 39 31 40
 SMILES IDX 32 41 33 42
 H PARENT 21 4 10 15 13 19 7 21 4 24 17 28 19 30 33 43
 Flexibility Score: inf
  4 active torsions:
  status: ('A' for Active; 'I' for Inactive)
    1  A    between atoms: CA   and  CB  
    2  A    between atoms: CB   and  CG  
    3  A    between atoms: CG   and  CD  
    4  A    between atoms: CD   and  CE  

>  <TORSDO>
F 18

>  <BEGIN_>
RES LYS A 131

$$$$
ligand_32_pose_0_2HRL.pdbqt
 OpenBabel07062320523D

  6  5  0  0  0  0  0  0  0  0999 V2000
   33.1930   34.6630    9.2900 C   0  0  0  0  0  0  0  0  0  0  0  0
   32.0600   35.3600   10.0340 C   0  0  0  0  0  0  0  0  0  0  0  0
   30.7760   35.4280    9.2490 C   0  0  0  0  0  0  0  0  0  0  0  0
   30.2250   34.0330    8.9970 C   0  0  0  0  0  0  0  0  0  0  0  0
   28.7280   34.0000    9.2360 C   0  0  0  0  0  0  0  0  0  0  0  0
   27.9950   34.6980    8.1430 N   0  0  0  0  0  0  0  0  0  0  0  0
  1  2  1  0  0  0  0
  3  2  1  0  0  0  0
  4  5  1  0  0  0  0
  4  3  1  0  0  0  0
  6  5  1  0  0  0  0
M  END
>  <EGIN_R>
ES LYS A 135

>  <REMARK>
  4 active torsions:
  status: ('A' for Active; 'I' for Inactive)
    5  A    between atoms: CA   and  CB  
    6  A    between atoms: CB   and  CG  
    7  A    between atoms: CG   and  CD  
    8  A    between atoms: CD   and  CE  

$$$$
ligand_33_pose_0_2HRL.pdbqt
 OpenBabel07062320523D

 52 52  0  0  1  0  0  0  0  0999 V2000
   25.7280   37.7010   11.1220 C   0  0  0  0  0  0  0  0  0  0  0  0
   25.7180   38.7920   10.2080 O   0  0  0  0  0  0  0  0  0  0  0  0
   24.4930   39.1440    9.6290 C   0  0  0  0  0  0  0  0  0  0  0  0
   24.1020   38.4810    8.4310 N   0  0  0  0  0  0  0  0  0  0  0  0
   24.7560   37.7530    8.0400 H   0  0  0  0  0  0  0  0  0  0  0  0
   23.8020   40.0260   10.1950 O   0  0  0  0  0  0  0  0  0  0  0  0
   22.8590   38.8270    7.8190 C   0  0  0  0  0  0  0  0  0  0  0  0
   21.6550   38.1170    8.3900 C   0  0  2  0  0  0  0  0  0  0  0  0
   21.3670   36.9040    7.5270 C   0  0  2  0  0  0  0  0  0  0  0  0
   21.2790   35.6150    8.2730 C   0  0  2  0  0  0  0  0  0  0  0  0
   18.9650   35.4290    7.9630 C   0  0  2  0  0  0  0  0  0  0  0  0
   18.8170   35.9650    9.3970 C   0  0  0  0  0  0  0  0  0  0  0  0
   20.2090   34.8950    7.7840 O   0  0  0  0  0  0  0  0  0  0  0  0
   19.8330   35.2000   10.2090 C   0  0  1  0  0  0  0  0  0  0  0  0
   21.2200   35.6950    9.7560 C   0  0  1  0  0  0  0  0  0  0  0  0
   18.6030   36.4160    7.0490 O   0  0  0  0  0  0  0  0  0  0  0  0
   17.6020   36.5470    7.0270 H   0  0  0  0  0  0  0  0  0  0  0  0
   17.9820   34.3230    7.8410 C   0  0  0  0  0  0  0  0  0  0  0  0
   17.1060   34.1550    8.7420 O   0  0  0  0  0  0  0  0  0  0  0  0
   18.0430   33.4930    6.7370 O   0  0  0  0  0  0  0  0  0  0  0  0
   18.1340   32.4860    6.9360 H   0  0  0  0  0  0  0  0  0  0  0  0
   19.6710   35.4040   11.5790 O   0  0  0  0  0  0  0  0  0  0  0  0
   18.7760   35.0450   11.8150 H   0  0  0  0  0  0  0  0  0  0  0  0
   22.2460   34.8820   10.3950 N   0  0  0  0  0  0  0  0  0  0  0  0
   22.8270   35.2140   11.6340 C   0  0  0  0  0  0  0  0  0  0  0  0
   22.5630   33.9990    9.9010 H   0  0  0  0  0  0  0  0  0  0  0  0
   23.8900   34.3520   12.2670 C   0  0  0  0  0  0  0  0  0  0  0  0
   22.4390   36.2700   12.2200 O   0  0  0  0  0  0  0  0  0  0  0  0
   22.5330   36.7860    6.7150 O   0  0  0  0  0  0  0  0  0  0  0  0
   22.7150   35.8190    6.6590 H   0  0  0  0  0  0  0  0  0  0  0  0
   20.6110   39.0140    8.4410 O   0  0  0  0  0  0  0  0  0  0  0  0
   20.6010   39.6040    7.6470 H   0  0  0  0  0  0  0  0  0  0  0  0
   26.0560   36.4980   10.3230 C   0  0  0  0  0  0  0  0  0  0  0  0
   27.2430   35.8030   10.4390 C   0  0  0  0  0  0  0  0  0  0  0  0
   25.3200   35.8860    9.3970 N   0  0  0  0  0  0  0  0  0  0  0  0
   27.1540   34.7870    9.5530 N   0  0  0  0  0  0  0  0  0  0  0  0
   25.9970   34.8450    8.9320 N   0  0  0  0  0  0  0  0  0  0  0  0
   28.2400   33.8200    9.3810 C   0  0  0  0  0  0  0  0  0  0  0  0
   29.5350   34.5870    9.3330 C   0  0  0  0  0  0  0  0  0  0  0  0
   30.0500   34.7870    7.9240 C   0  0  0  0  0  0  0  0  0  0  0  0
   28.9930   35.2550    6.9850 C   0  0  0  0  0  0  0  0  0  0  0  0
   28.7110   36.7310    7.0680 C   0  0  0  0  0  0  0  0  0  0  0  0
   27.5470   37.1610    6.2800 C   0  0  0  0  0  0  0  0  0  0  0  0
   27.6830   37.6790    5.1600 O   0  0  0  0  0  0  0  0  0  0  0  0
   26.2430   36.9940    6.7780 O   0  0  0  0  0  0  0  0  0  0  0  0
   26.0370   37.2050    7.7600 H   0  0  0  0  0  0  0  0  0  0  0  0
   29.8670   25.5550   16.9770 C   0  0  0  0  0  0  0  0  0  0  0  0
   28.3450   25.7220   17.0260 C   0  0  0  0  0  0  0  0  0  0  0  0
   27.5990   24.4210   16.7730 C   0  0  0  0  0  0  0  0  0  0  0  0
   26.8110   23.9770   17.9740 C   0  0  0  0  0  0  0  0  0  0  0  0
   25.6710   24.9590   18.2260 C   0  0  0  0  0  0  0  0  0  0  0  0
   24.6400   24.8390   17.1680 N   0  0  0  0  0  0  0  0  0  0  0  0
  2  1  1  0  0  0  0
  3  6  2  0  0  0  0
  3  2  1  0  0  0  0
  4  3  1  0  0  0  0
  5  4  1  0  0  0  0
  7  4  1  0  0  0  0
  8  7  1  6  0  0  0
  8 31  1  0  0  0  0
  9 29  1  6  0  0  0
  9  8  1  0  0  0  0
 10  9  1  6  0  0  0
 10 15  1  0  0  0  0
 11 16  1  6  0  0  0
 11 12  1  0  0  0  0
 12 14  1  0  0  0  0
 13 11  1  0  0  0  0
 13 10  1  0  0  0  0
 14 22  1  1  0  0  0
 15 14  1  0  0  0  0
 15 24  1  1  0  0  0
 17 16  1  0  0  0  0
 18 11  1  0  0  0  0
 18 19  2  0  0  0  0
 20 21  1  0  0  0  0
 20 18  1  0  0  0  0
 22 23  1  0  0  0  0
 24 25  1  0  0  0  0
 25 28  2  0  0  0  0
 25 27  1  0  0  0  0
 26 24  1  0  0  0  0
 30 29  1  0  0  0  0
 32 31  1  0  0  0  0
 33 34  2  0  0  0  0
 33  1  1  0  0  0  0
 35 33  1  0  0  0  0
 36 34  1  0  0  0  0
 37 35  2  0  0  0  0
 37 36  1  0  0  0  0
 38 36  1  0  0  0  0
 39 38  1  0  0  0  0
 40 39  1  0  0  0  0
 41 42  1  0  0  0  0
 41 40  1  0  0  0  0
 43 45  1  0  0  0  0
 43 42  1  0  0  0  0
 44 43  2  0  0  0  0
 45 46  1  0  0  0  0
 47 48  1  0  0  0  0
 49 48  1  0  0  0  0
 49 50  1  0  0  0  0
 50 51  1  0  0  0  0
 52 51  1  0  0  0  0
M  END
>  <REMARK>
 VINA RESULT:    -4.629      0.000      0.000
 INTER + INTRA:         -15.418
 INTER:                 -10.428
 INTRA:                  -4.990
 UNBOUND:                -5.918
 SMILES CC(=O)N[C@@H]1[C@@H](O)C[C@](O)(C(=O)O)O[C@H]1C(O)[C@H](O)CNC(=O)OCc1cn(CCCCCC(=O)O)nn1
 SMILES IDX 25 1 24 2 22 3 21 4 23 6 20 7 18 8 16 9 15 10 9 11 8 12
 SMILES IDX 14 13 6 14 5 15 10 16 11 18 12 19 13 20 7 22 4 24 2 25 1 27
 SMILES IDX 3 28 17 29 19 31 26 33 27 34 38 35 28 36 37 37 29 38 30 39
 SMILES IDX 31 40 32 41 33 42 34 43 35 44 36 45
 H PARENT 21 5 10 17 13 21 7 23 4 26 17 30 19 32 36 46
 Flexibility Score: inf
  4 active torsions:
  status: ('A' for Active; 'I' for Inactive)
    1  A    between atoms: CA   and  CB  
    2  A    between atoms: CB   and  CG  
    3  A    between atoms: CG   and  CD  
    4  A    between atoms: CD   and  CE  

>  <TORSDO>
F 21

>  <BEGIN_>
RES LYS A 131

$$$$
ligand_33_pose_0_2HRL.pdbqt
 OpenBabel07062320523D

  6  5  0  0  0  0  0  0  0  0999 V2000
   33.1930   34.6630    9.2900 C   0  0  0  0  0  0  0  0  0  0  0  0
   32.0600   35.3600   10.0340 C   0  0  0  0  0  0  0  0  0  0  0  0
   32.4580   35.8730   11.3940 C   0  0  0  0  0  0  0  0  0  0  0  0
   31.5520   35.2960   12.4710 C   0  0  0  0  0  0  0  0  0  0  0  0
   30.3020   36.1400   12.6240 C   0  0  0  0  0  0  0  0  0  0  0  0
   29.5290   35.7400   13.8330 N   0  0  0  0  0  0  0  0  0  0  0  0
  1  2  1  0  0  0  0
  2  3  1  0  0  0  0
  3  4  1  0  0  0  0
  4  5  1  0  0  0  0
  5  6  1  0  0  0  0
M  END
>  <EGIN_R>
ES LYS A 135

>  <REMARK>
  4 active torsions:
  status: ('A' for Active; 'I' for Inactive)
    5  A    between atoms: CA   and  CB  
    6  A    between atoms: CB   and  CG  
    7  A    between atoms: CG   and  CD  
    8  A    between atoms: CD   and  CE  

$$$$
ligand_34_pose_0_2HRL.pdbqt
 OpenBabel07062320523D

 69 73  0  0  1  0  0  0  0  0999 V2000
   30.6640   36.9060   16.8970 N   0  0  0  0  0  0  0  0  0  0  0  0
   31.5890   37.8600   16.3500 C   0  0  0  0  0  0  0  0  0  0  0  0
   32.2390   38.5580   17.1760 O   0  0  0  0  0  0  0  0  0  0  0  0
   30.1030   36.3060   16.2640 H   0  0  0  0  0  0  0  0  0  0  0  0
   30.4950   36.7620   18.3220 C   0  0  0  0  0  0  0  0  0  0  0  0
   31.2790   35.5820   18.7940 C   0  0  2  0  0  0  0  0  0  0  0  0
   30.4490   34.2990   18.7730 C   0  0  2  0  0  0  0  0  0  0  0  0
   31.0960   33.2650   17.8650 C   0  0  2  0  0  0  0  0  0  0  0  0
   31.5080   33.8350   15.6450 C   0  0  2  0  0  0  0  0  0  0  0  0
   31.5040   32.3860   15.2090 C   0  0  0  0  0  0  0  0  0  0  0  0
   31.8770   33.9290   16.9630 O   0  0  0  0  0  0  0  0  0  0  0  0
   30.6220   31.5710   16.0830 C   0  0  1  0  0  0  0  0  0  0  0  0
   30.1050   32.3150   17.2890 C   0  0  1  0  0  0  0  0  0  0  0  0
   30.2740   34.3620   15.3580 O   0  0  0  0  0  0  0  0  0  0  0  0
   29.8230   34.7780   16.1140 H   0  0  0  0  0  0  0  0  0  0  0  0
   32.5420   34.5240   14.8350 C   0  0  0  0  0  0  0  0  0  0  0  0
   33.4920   35.1170   15.4040 O   0  0  0  0  0  0  0  0  0  0  0  0
   32.5210   34.5520   13.4500 O   0  0  0  0  0  0  0  0  0  0  0  0
   32.9480   33.7990   12.8890 H   0  0  0  0  0  0  0  0  0  0  0  0
   29.5250   31.0630   15.3910 O   0  0  0  0  0  0  0  0  0  0  0  0
   28.8490   31.7410   15.1710 H   0  0  0  0  0  0  0  0  0  0  0  0
   29.7590   31.2830   18.2780 N   0  0  0  0  0  0  0  0  0  0  0  0
   28.4470   30.8300   18.5020 C   0  0  0  0  0  0  0  0  0  0  0  0
   30.5490   30.8780   18.8310 H   0  0  0  0  0  0  0  0  0  0  0  0
   28.1800   29.7860   19.5170 C   0  0  0  0  0  0  0  0  0  0  0  0
   27.5290   31.3600   17.7950 O   0  0  0  0  0  0  0  0  0  0  0  0
   29.1880   34.6690   18.2920 O   0  0  0  0  0  0  0  0  0  0  0  0
   29.0620   35.6240   18.5410 H   0  0  0  0  0  0  0  0  0  0  0  0
   31.8310   35.7940   20.0550 O   0  0  0  0  0  0  0  0  0  0  0  0
   31.1440   35.9180   20.7520 H   0  0  0  0  0  0  0  0  0  0  0  0
   31.7840   38.0310   15.0120 O   0  0  0  0  0  0  0  0  0  0  0  0
   30.7650   38.5180   14.1720 C   0  0  0  0  0  0  0  0  0  0  0  0
   30.0280   37.3730   13.6020 C   0  0  0  0  0  0  0  0  0  0  0  0
   28.6770   37.0670   13.7820 C   0  0  0  0  0  0  0  0  0  0  0  0
   30.5060   36.4020   12.8110 N   0  0  0  0  0  0  0  0  0  0  0  0
   28.3940   35.9410   13.1030 N   0  0  0  0  0  0  0  0  0  0  0  0
   29.5170   35.5640   12.5290 N   0  0  0  0  0  0  0  0  0  0  0  0
   27.1080   35.3420   13.0730 C   0  0  0  0  0  0  0  0  0  0  0  0
   26.2530   35.2720   14.1320 C   0  0  0  0  0  0  0  0  0  0  0  0
   26.6830   34.7760   11.8680 C   0  0  0  0  0  0  0  0  0  0  0  0
   25.0010   34.6710   14.0560 C   0  0  0  0  0  0  0  0  0  0  0  0
   25.4550   34.1810   11.7680 C   0  0  0  0  0  0  0  0  0  0  0  0
   24.6060   34.1280   12.8730 C   0  0  0  0  0  0  0  0  0  0  0  0
   24.1100   34.6150   15.2130 C   0  0  0  0  0  0  0  0  0  0  0  0
   24.1650   33.6510   16.0400 O   0  0  0  0  0  0  0  0  0  0  0  0
   23.1950   35.6090   15.4320 O   0  0  0  0  0  0  0  0  0  0  0  0
   23.3240   33.4730   12.6650 C   0  0  0  0  0  0  0  0  0  0  0  0
   22.1800   34.1160   12.2480 C   0  0  0  0  0  0  0  0  0  0  0  0
   23.2380   32.1100   12.8980 C   0  0  0  0  0  0  0  0  0  0  0  0
   22.2260   35.4760   12.0060 C   0  0  0  0  0  0  0  0  0  0  0  0
   20.9840   33.4330   12.0650 C   0  0  0  0  0  0  0  0  0  0  0  0
   21.9630   31.4400   12.6910 C   0  0  0  0  0  0  0  0  0  0  0  0
   24.3220   31.3730   13.3170 C   0  0  0  0  0  0  0  0  0  0  0  0
   21.1000   36.1670   11.5840 C   0  0  0  0  0  0  0  0  0  0  0  0
   19.8500   34.0910   11.6470 C   0  0  0  0  0  0  0  0  0  0  0  0
   20.9080   32.1430   12.2860 O   0  0  0  0  0  0  0  0  0  0  0  0
   21.8680   30.0990   12.9170 C   0  0  0  0  0  0  0  0  0  0  0  0
   24.1760   30.0320   13.5300 C   0  0  0  0  0  0  0  0  0  0  0  0
   19.9270   35.4620   11.4110 C   0  0  0  0  0  0  0  0  0  0  0  0
   22.9670   29.3820   13.3360 C   0  0  0  0  0  0  0  0  0  0  0  0
   22.8840   28.1420   13.5450 O   0  0  0  0  0  0  0  0  0  0  0  0
   18.7970   36.1440   10.9910 O   0  0  0  0  0  0  0  0  0  0  0  0
   18.6880   37.1400   11.0420 H   0  0  0  0  0  0  0  0  0  0  0  0
   29.8670   25.5550   16.9770 C   0  0  0  0  0  0  0  0  0  0  0  0
   28.3450   25.7220   17.0260 C   0  0  0  0  0  0  0  0  0  0  0  0
   27.6050   24.3930   17.0280 C   0  0  0  0  0  0  0  0  0  0  0  0
   26.1210   24.5720   17.1940 C   0  0  0  0  0  0  0  0  0  0  0  0
   25.5010   23.2640   17.6750 C   0  0  0  0  0  0  0  0  0  0  0  0
   25.5500   23.1810   19.1540 N   0  0  0  0  0  0  0  0  0  0  0  0
  1  5  1  0  0  0  0
  2  1  1  0  0  0  0
  2  3  2  0  0  0  0
  4  1  1  0  0  0  0
  6  5  1  1  0  0  0
  6 29  1  0  0  0  0
  7 27  1  6  0  0  0
  7  6  1  0  0  0  0
  8  7  1  6  0  0  0
  9 16  1  6  0  0  0
  9 11  1  0  0  0  0
 10  9  1  0  0  0  0
 10 12  1  0  0  0  0
 11  8  1  0  0  0  0
 12 20  1  6  0  0  0
 12 13  1  0  0  0  0
 13  8  1  0  0  0  0
 13 22  1  1  0  0  0
 14  9  1  0  0  0  0
 14 15  1  0  0  0  0
 16 17  2  0  0  0  0
 18 16  1  0  0  0  0
 19 18  1  0  0  0  0
 21 20  1  0  0  0  0
 22 23  1  0  0  0  0
 22 24  1  0  0  0  0
 23 25  1  0  0  0  0
 26 23  2  0  0  0  0
 27 28  1  0  0  0  0
 29 30  1  0  0  0  0
 31  2  1  0  0  0  0
 32 31  1  0  0  0  0
 33 34  2  0  0  0  0
 33 32  1  0  0  0  0
 35 33  1  0  0  0  0
 36 34  1  0  0  0  0
 37 35  2  0  0  0  0
 37 36  1  0  0  0  0
 38 36  1  0  0  0  0
 38 39  2  0  0  0  0
 40 38  1  0  0  0  0
 41 39  1  0  0  0  0
 41 44  1  0  0  0  0
 42 40  2  0  0  0  0
 42 43  1  0  0  0  0
 43 41  2  0  0  0  0
 44 46  2  0  0  0  0
 44 45  1  0  0  0  0
 47 43  1  0  0  0  0
 47 49  2  0  0  0  0
 48 47  1  0  0  0  0
 49 53  1  0  0  0  0
 50 48  2  0  0  0  0
 51 48  1  0  0  0  0
 51 56  1  0  0  0  0
 52 49  1  0  0  0  0
 52 57  2  0  0  0  0
 53 58  2  0  0  0  0
 54 50  1  0  0  0  0
 55 51  2  0  0  0  0
 56 52  1  0  0  0  0
 57 60  1  0  0  0  0
 59 54  2  0  0  0  0
 59 55  1  0  0  0  0
 60 58  1  0  0  0  0
 60 61  2  0  0  0  0
 62 63  1  0  0  0  0
 62 59  1  0  0  0  0
 64 65  1  0  0  0  0
 65 66  1  0  0  0  0
 66 67  1  0  0  0  0
 67 68  1  0  0  0  0
 68 69  1  0  0  0  0
M  END
>  <REMARK>
 VINA RESULT:    -5.750      0.000      0.000
 INTER + INTRA:         -18.510
 INTER:                 -10.002
 INTRA:                  -8.509
 UNBOUND:                -7.717
 SMILES CC(=O)N[C@@H]1[C@@H](O)C[C@](O)(C(=O)O)O[C@H]1C(O)[C@H](O)CNC(=O)OCc1cn(-c2ccc(-c3c4ccc(=O)cc-4oc4cc(O)ccc34)c(C(=O)[O-])c2)nn1
 SMILES IDX 21 1 22 2 23 3 20 5 18 6 16 7 15 8 9 9 8 10 14 11 6 12 5 13
 SMILES IDX 10 14 11 16 12 17 13 18 7 20 4 22 2 23 1 25 3 26 17 27 19 29
 SMILES IDX 24 31 25 32 26 33 27 34 55 35 28 36 54 37 29 38 53 39 30 40
 SMILES IDX 49 41 31 42 32 43 50 44 51 45 52 46 33 47 48 48 34 49 47 50
 SMILES IDX 42 51 40 52 35 53 46 54 43 55 41 56 39 57 36 58 44 59 37 60
 SMILES IDX 38 61 45 62
 H PARENT 21 4 10 15 13 19 7 21 4 24 17 28 19 30 45 63
 Flexibility Score: inf
  4 active torsions:
  status: ('A' for Active; 'I' for Inactive)
    1  A    between atoms: CA   and  CB  
    2  A    between atoms: CB   and  CG  
    3  A    between atoms: CG   and  CD  
    4  A    between atoms: CD   and  CE  

>  <TORSDO>
F 18

>  <BEGIN_>
RES LYS A 131

$$$$
ligand_34_pose_0_2HRL.pdbqt
 OpenBabel07062320523D

  6  5  0  0  0  0  0  0  0  0999 V2000
   33.1930   34.6630    9.2900 C   0  0  0  0  0  0  0  0  0  0  0  0
   32.0600   35.3600   10.0340 C   0  0  0  0  0  0  0  0  0  0  0  0
   30.8420   35.6070    9.1820 C   0  0  0  0  0  0  0  0  0  0  0  0
   30.3240   34.3020    8.5960 C   0  0  0  0  0  0  0  0  0  0  0  0
   28.9050   34.0360    9.0620 C   0  0  0  0  0  0  0  0  0  0  0  0
   27.9150   34.7170    8.1830 N   0  0  0  0  0  0  0  0  0  0  0  0
  1  2  1  0  0  0  0
  3  2  1  0  0  0  0
  4  5  1  0  0  0  0
  4  3  1  0  0  0  0
  6  5  1  0  0  0  0
M  END
>  <EGIN_R>
ES LYS A 135

>  <REMARK>
  4 active torsions:
  status: ('A' for Active; 'I' for Inactive)
    5  A    between atoms: CA   and  CB  
    6  A    between atoms: CB   and  CG  
    7  A    between atoms: CG   and  CD  
    8  A    between atoms: CD   and  CE  

$$$$
ligand_35_pose_0_2HRL.pdbqt
 OpenBabel07062320523D

 49 49  0  0  1  0  0  0  0  0999 V2000
   29.4390   29.8500   19.2010 N   0  0  0  0  0  0  0  0  0  0  0  0
   28.1630   29.7040   19.7930 C   0  0  0  0  0  0  0  0  0  0  0  0
   27.6140   30.6430   20.4220 O   0  0  0  0  0  0  0  0  0  0  0  0
   29.8480   29.0440   18.6930 H   0  0  0  0  0  0  0  0  0  0  0  0
   30.1780   31.0760   19.2820 C   0  0  0  0  0  0  0  0  0  0  0  0
   30.3820   31.7400   17.9160 C   0  0  2  0  0  0  0  0  0  0  0  0
   29.2500   32.6860   17.7100 C   0  0  2  0  0  0  0  0  0  0  0  0
   29.5850   34.0050   17.1020 C   0  0  2  0  0  0  0  0  0  0  0  0
   28.1960   33.9000   15.2280 C   0  0  2  0  0  0  0  0  0  0  0  0
   29.2700   33.1200   14.5810 C   0  0  0  0  0  0  0  0  0  0  0  0
   28.4480   34.4620   16.4510 O   0  0  0  0  0  0  0  0  0  0  0  0
   30.6740   33.4840   14.9110 C   0  0  1  0  0  0  0  0  0  0  0  0
   30.8120   34.0920   16.2780 C   0  0  1  0  0  0  0  0  0  0  0  0
   27.1280   32.9900   15.4500 O   0  0  0  0  0  0  0  0  0  0  0  0
   26.3700   33.3010   14.9120 H   0  0  0  0  0  0  0  0  0  0  0  0
   27.6760   34.9130   14.2690 C   0  0  0  0  0  0  0  0  0  0  0  0
   28.2050   36.0520   14.1500 O   0  0  0  0  0  0  0  0  0  0  0  0
   26.5830   34.6360   13.4660 O   0  0  0  0  0  0  0  0  0  0  0  0
   26.6220   34.6230   12.4520 H   0  0  0  0  0  0  0  0  0  0  0  0
   31.4500   32.3160   14.7850 O   0  0  0  0  0  0  0  0  0  0  0  0
   30.9290   31.5950   15.2160 H   0  0  0  0  0  0  0  0  0  0  0  0
   31.1020   35.5310   16.1180 N   0  0  0  0  0  0  0  0  0  0  0  0
   32.4230   36.0240   16.1960 C   0  0  0  0  0  0  0  0  0  0  0  0
   30.3540   36.2270   15.9450 H   0  0  0  0  0  0  0  0  0  0  0  0
   32.7610   37.4510   16.0420 C   0  0  0  0  0  0  0  0  0  0  0  0
   33.3880   35.2170   16.4070 O   0  0  0  0  0  0  0  0  0  0  0  0
   28.7930   33.0040   19.0300 O   0  0  0  0  0  0  0  0  0  0  0  0
   28.2180   33.8000   18.9010 H   0  0  0  0  0  0  0  0  0  0  0  0
   30.3590   30.6970   16.9990 O   0  0  0  0  0  0  0  0  0  0  0  0
   29.8470   31.0110   16.2110 H   0  0  0  0  0  0  0  0  0  0  0  0
   27.4570   28.4890   19.6980 O   0  0  0  0  0  0  0  0  0  0  0  0
   27.3560   27.8080   18.4610 C   0  0  0  0  0  0  0  0  0  0  0  0
   26.8560   28.7080   17.3910 C   0  0  0  0  0  0  0  0  0  0  0  0
   25.5180   28.9170   17.0470 C   0  0  0  0  0  0  0  0  0  0  0  0
   27.5520   29.4970   16.5430 N   0  0  0  0  0  0  0  0  0  0  0  0
   25.4630   29.7940   16.0400 N   0  0  0  0  0  0  0  0  0  0  0  0
   26.6900   30.1390   15.7420 N   0  0  0  0  0  0  0  0  0  0  0  0
   24.2550   30.2940   15.3730 C   0  0  1  0  0  0  0  0  0  0  0  0
   23.5610   31.3100   16.2640 C   0  0  0  0  0  0  0  0  0  0  0  0
   24.5540   30.8760   14.0660 C   0  0  0  0  0  0  0  0  0  0  0  0
   24.4090   30.1910   13.0280 O   0  0  0  0  0  0  0  0  0  0  0  0
   25.0050   32.1820   13.8850 O   0  0  0  0  0  0  0  0  0  0  0  0
   25.9920   32.3830   13.7690 H   0  0  0  0  0  0  0  0  0  0  0  0
   29.8670   25.5550   16.9770 C   0  0  0  0  0  0  0  0  0  0  0  0
   28.3450   25.7220   17.0260 C   0  0  0  0  0  0  0  0  0  0  0  0
   27.6010   24.4070   16.8570 C   0  0  0  0  0  0  0  0  0  0  0  0
   26.1500   24.5240   17.2350 C   0  0  0  0  0  0  0  0  0  0  0  0
   25.6000   23.1430   17.5780 C   0  0  0  0  0  0  0  0  0  0  0  0
   24.2010   23.0110   17.1100 N   0  0  0  0  0  0  0  0  0  0  0  0
  1  5  1  0  0  0  0
  1  2  1  0  0  0  0
  2  3  2  0  0  0  0
  4  1  1  0  0  0  0
  6  5  1  1  0  0  0
  7  6  1  0  0  0  0
  7 27  1  1  0  0  0
  8  7  1  6  0  0  0
  9 16  1  6  0  0  0
  9 14  1  0  0  0  0
  9 11  1  0  0  0  0
 10 12  1  0  0  0  0
 10  9  1  0  0  0  0
 11  8  1  0  0  0  0
 12 20  1  1  0  0  0
 12 13  1  0  0  0  0
 13 22  1  6  0  0  0
 13  8  1  0  0  0  0
 15 14  1  0  0  0  0
 17 16  2  0  0  0  0
 18 16  1  0  0  0  0
 19 18  1  0  0  0  0
 20 21  1  0  0  0  0
 22 23  1  0  0  0  0
 23 26  2  0  0  0  0
 24 22  1  0  0  0  0
 25 23  1  0  0  0  0
 28 27  1  0  0  0  0
 29  6  1  0  0  0  0
 30 29  1  0  0  0  0
 31  2  1  0  0  0  0
 32 31  1  0  0  0  0
 33 32  1  0  0  0  0
 34 33  2  0  0  0  0
 35 33  1  0  0  0  0
 36 34  1  0  0  0  0
 37 36  1  0  0  0  0
 37 35  2  0  0  0  0
 38 36  1  0  0  0  0
 38 39  1  1  0  0  0
 40 38  1  0  0  0  0
 41 40  2  0  0  0  0
 42 40  1  0  0  0  0
 43 42  1  0  0  0  0
 44 45  1  0  0  0  0
 46 45  1  0  0  0  0
 46 47  1  0  0  0  0
 47 48  1  0  0  0  0
 49 48  1  0  0  0  0
M  END
>  <REMARK>
 VINA RESULT:    -5.314      0.000      0.000
 INTER + INTRA:         -14.387
 INTER:                  -7.454
 INTRA:                  -6.933
 UNBOUND:                -4.724
 SMILES CC(=O)N[C@@H]1[C@@H](O)C[C@](O)(C(=O)O)O[C@H]1C(O)[C@H](O)CNC(=O)OCc1cn([C@@H](C)C(=O)O)nn1
 SMILES IDX 21 1 22 2 23 3 20 5 18 6 16 7 15 8 9 9 8 10 14 11 6 12 5 13
 SMILES IDX 10 14 11 16 12 17 13 18 7 20 4 22 2 23 1 25 3 26 17 27 19 29
 SMILES IDX 24 31 25 32 26 33 27 34 35 35 28 36 34 37 29 38 30 39 31 40
 SMILES IDX 32 41 33 42
 H PARENT 21 4 10 15 13 19 7 21 4 24 17 28 19 30 33 43
 Flexibility Score: inf
  4 active torsions:
  status: ('A' for Active; 'I' for Inactive)
    1  A    between atoms: CA   and  CB  
    2  A    between atoms: CB   and  CG  
    3  A    between atoms: CG   and  CD  
    4  A    between atoms: CD   and  CE  

>  <TORSDO>
F 17

>  <BEGIN_>
RES LYS A 131

$$$$
ligand_35_pose_0_2HRL.pdbqt
 OpenBabel07062320523D

  6  5  0  0  0  0  0  0  0  0999 V2000
   33.1930   34.6630    9.2900 C   0  0  0  0  0  0  0  0  0  0  0  0
   32.0600   35.3600   10.0340 C   0  0  0  0  0  0  0  0  0  0  0  0
   30.7150   34.7140    9.8250 C   0  0  0  0  0  0  0  0  0  0  0  0
   30.4690   34.4510    8.3480 C   0  0  0  0  0  0  0  0  0  0  0  0
   29.4110   35.3950    7.8080 C   0  0  0  0  0  0  0  0  0  0  0  0
   28.0490   34.8100    7.9490 N   0  0  0  0  0  0  0  0  0  0  0  0
  1  2  1  0  0  0  0
  3  2  1  0  0  0  0
  4  3  1  0  0  0  0
  5  6  1  0  0  0  0
  5  4  1  0  0  0  0
M  END
>  <EGIN_R>
ES LYS A 135

>  <REMARK>
  4 active torsions:
  status: ('A' for Active; 'I' for Inactive)
    5  A    between atoms: CA   and  CB  
    6  A    between atoms: CB   and  CG  
    7  A    between atoms: CG   and  CD  
    8  A    between atoms: CD   and  CE  

$$$$
ligand_36_pose_0_2HRL.pdbqt
 OpenBabel07062320523D

 52 53  0  0  1  0  0  0  0  0999 V2000
   25.1950   28.6550   17.3130 N   0  0  0  0  0  0  0  0  0  0  0  0
   24.5780   29.9400   17.2900 C   0  0  0  0  0  0  0  0  0  0  0  0
   24.1850   30.4600   18.3920 O   0  0  0  0  0  0  0  0  0  0  0  0
   25.5070   28.2560   16.4080 H   0  0  0  0  0  0  0  0  0  0  0  0
   25.3590   27.9790   18.5480 C   0  0  0  0  0  0  0  0  0  0  0  0
   26.7680   27.8970   19.0850 C   0  0  2  0  0  0  0  0  0  0  0  0
   27.1670   29.1080   19.9040 C   0  0  2  0  0  0  0  0  0  0  0  0
   28.2160   28.8020   20.9180 C   0  0  2  0  0  0  0  0  0  0  0  0
   30.2670   27.7270   21.1500 C   0  0  2  0  0  0  0  0  0  0  0  0
   30.1700   28.2760   22.5560 C   0  0  0  0  0  0  0  0  0  0  0  0
   29.3410   28.2480   20.2960 O   0  0  0  0  0  0  0  0  0  0  0  0
   28.8230   28.0970   23.1620 C   0  0  1  0  0  0  0  0  0  0  0  0
   27.8220   27.8650   22.0160 C   0  0  1  0  0  0  0  0  0  0  0  0
   30.2010   26.3180   21.2200 O   0  0  0  0  0  0  0  0  0  0  0  0
   29.7250   26.0850   22.0700 H   0  0  0  0  0  0  0  0  0  0  0  0
   31.6130   28.0750   20.6490 C   0  0  0  0  0  0  0  0  0  0  0  0
   32.2000   29.0810   21.1080 O   0  0  0  0  0  0  0  0  0  0  0  0
   32.2210   27.3030   19.6860 O   0  0  0  0  0  0  0  0  0  0  0  0
   33.1650   26.9640   19.7280 H   0  0  0  0  0  0  0  0  0  0  0  0
   28.7500   27.0820   24.0950 O   0  0  0  0  0  0  0  0  0  0  0  0
   28.0950   26.4060   23.7400 H   0  0  0  0  0  0  0  0  0  0  0  0
   26.4790   27.9780   22.4930 N   0  0  0  0  0  0  0  0  0  0  0  0
   25.7130   26.8140   22.8440 C   0  0  0  0  0  0  0  0  0  0  0  0
   25.9960   28.9130   22.6160 H   0  0  0  0  0  0  0  0  0  0  0  0
   24.3110   26.9430   23.3400 C   0  0  0  0  0  0  0  0  0  0  0  0
   26.2060   25.6640   22.7400 O   0  0  0  0  0  0  0  0  0  0  0  0
   26.0680   29.7550   20.3690 O   0  0  0  0  0  0  0  0  0  0  0  0
   25.2570   29.2460   20.4190 H   0  0  0  0  0  0  0  0  0  0  0  0
   27.5780   27.8410   17.9220 O   0  0  0  0  0  0  0  0  0  0  0  0
   28.0490   28.6800   17.7640 H   0  0  0  0  0  0  0  0  0  0  0  0
   24.3640   30.6870   16.1460 O   0  0  0  0  0  0  0  0  0  0  0  0
   25.3490   31.6140   15.7450 C   0  0  0  0  0  0  0  0  0  0  0  0
   26.7190   31.1330   16.0410 C   0  0  0  0  0  0  0  0  0  0  0  0
   27.6530   31.6880   16.9020 C   0  0  0  0  0  0  0  0  0  0  0  0
   27.2970   30.0470   15.5130 N   0  0  0  0  0  0  0  0  0  0  0  0
   28.7520   30.9290   16.8680 N   0  0  0  0  0  0  0  0  0  0  0  0
   28.5060   29.9510   16.0230 N   0  0  0  0  0  0  0  0  0  0  0  0
   29.9770   31.1230   17.6120 C   0  0  0  0  0  0  0  0  0  0  0  0
   30.7280   32.3170   17.2220 C   0  0  0  0  0  0  0  0  0  0  0  0
   30.9630   33.3100   18.1380 C   0  0  0  0  0  0  0  0  0  0  0  0
   31.1960   32.4460   15.9240 C   0  0  0  0  0  0  0  0  0  0  0  0
   31.6660   34.4460   17.7830 C   0  0  0  0  0  0  0  0  0  0  0  0
   31.9040   33.5770   15.5410 C   0  0  0  0  0  0  0  0  0  0  0  0
   32.1310   34.5750   16.4910 C   0  0  0  0  0  0  0  0  0  0  0  0
   32.8590   35.7500   16.1110 C   0  0  0  0  0  0  0  0  0  0  0  0
   33.4390   36.7180   15.7980 N   0  0  0  0  0  0  0  0  0  0  0  0
   29.8670   25.5550   16.9770 C   0  0  0  0  0  0  0  0  0  0  0  0
   28.3450   25.7220   17.0260 C   0  0  0  0  0  0  0  0  0  0  0  0
   27.6020   24.4000   16.9150 C   0  0  0  0  0  0  0  0  0  0  0  0
   26.1650   24.5200   17.3410 C   0  0  0  0  0  0  0  0  0  0  0  0
   25.9630   23.7900   18.6640 C   0  0  0  0  0  0  0  0  0  0  0  0
   24.9150   24.4580   19.4720 N   0  0  0  0  0  0  0  0  0  0  0  0
  1  5  1  0  0  0  0
  2  1  1  0  0  0  0
  2  3  2  0  0  0  0
  4  1  1  0  0  0  0
  6  5  1  6  0  0  0
  6  7  1  0  0  0  0
  7 27  1  1  0  0  0
  8  7  1  6  0  0  0
  8 13  1  0  0  0  0
  9 16  1  6  0  0  0
  9 14  1  0  0  0  0
  9 10  1  0  0  0  0
 10 12  1  0  0  0  0
 11  8  1  0  0  0  0
 11  9  1  0  0  0  0
 12 20  1  1  0  0  0
 13 22  1  1  0  0  0
 13 12  1  0  0  0  0
 14 15  1  0  0  0  0
 16 17  2  0  0  0  0
 18 19  1  0  0  0  0
 18 16  1  0  0  0  0
 21 20  1  0  0  0  0
 22 24  1  0  0  0  0
 22 23  1  0  0  0  0
 23 25  1  0  0  0  0
 26 23  2  0  0  0  0
 27 28  1  0  0  0  0
 29  6  1  0  0  0  0
 30 29  1  0  0  0  0
 31  2  1  0  0  0  0
 32 33  1  0  0  0  0
 32 31  1  0  0  0  0
 33 34  2  0  0  0  0
 35 37  2  0  0  0  0
 35 33  1  0  0  0  0
 36 34  1  0  0  0  0
 36 38  1  0  0  0  0
 37 36  1  0  0  0  0
 39 38  1  0  0  0  0
 39 40  2  0  0  0  0
 41 39  1  0  0  0  0
 42 40  1  0  0  0  0
 43 41  2  0  0  0  0
 43 44  1  0  0  0  0
 44 42  2  0  0  0  0
 45 44  1  0  0  0  0
 46 45  3  0  0  0  0
 47 48  1  0  0  0  0
 49 48  1  0  0  0  0
 49 50  1  0  0  0  0
 50 51  1  0  0  0  0
 51 52  1  0  0  0  0
M  END
>  <REMARK>
 VINA RESULT:    -4.622      0.000      0.000
 INTER + INTRA:         -15.520
 INTER:                  -9.326
 INTRA:                  -6.194
 UNBOUND:                -6.980
 SMILES CC(=O)N[C@@H]1[C@@H](O)C[C@](O)(C(=O)O)O[C@H]1C(O)[C@H](O)CNC(=O)OCc1cn(Cc2ccc(C#N)cc2)nn1
 SMILES IDX 21 1 22 2 23 3 20 5 18 6 16 7 15 8 9 9 8 10 14 11 6 12 5 13
 SMILES IDX 10 14 11 16 12 17 13 18 7 20 4 22 2 23 1 25 3 26 17 27 19 29
 SMILES IDX 24 31 25 32 26 33 27 34 39 35 28 36 38 37 29 38 30 39 31 40
 SMILES IDX 37 41 32 42 36 43 33 44 34 45 35 46
 H PARENT 21 4 10 15 13 19 7 21 4 24 17 28 19 30
 Flexibility Score: inf
  4 active torsions:
  status: ('A' for Active; 'I' for Inactive)
    1  A    between atoms: CA   and  CB  
    2  A    between atoms: CB   and  CG  
    3  A    between atoms: CG   and  CD  
    4  A    between atoms: CD   and  CE  

>  <TORSDO>
F 17

>  <BEGIN_>
RES LYS A 131

$$$$
ligand_36_pose_0_2HRL.pdbqt
 OpenBabel07062320523D

  6  5  0  0  0  0  0  0  0  0999 V2000
   33.1930   34.6630    9.2900 C   0  0  0  0  0  0  0  0  0  0  0  0
   32.0600   35.3600   10.0340 C   0  0  0  0  0  0  0  0  0  0  0  0
   30.6990   34.7870    9.7320 C   0  0  0  0  0  0  0  0  0  0  0  0
   30.5590   34.4910    8.2470 C   0  0  0  0  0  0  0  0  0  0  0  0
   29.2050   34.9480    7.7380 C   0  0  0  0  0  0  0  0  0  0  0  0
   28.1900   34.9320    8.8280 N   0  0  0  0  0  0  0  0  0  0  0  0
  1  2  1  0  0  0  0
  3  2  1  0  0  0  0
  4  3  1  0  0  0  0
  5  4  1  0  0  0  0
  5  6  1  0  0  0  0
M  END
>  <EGIN_R>
ES LYS A 135

>  <REMARK>
  4 active torsions:
  status: ('A' for Active; 'I' for Inactive)
    5  A    between atoms: CA   and  CB  
    6  A    between atoms: CB   and  CG  
    7  A    between atoms: CG   and  CD  
    8  A    between atoms: CD   and  CE  

$$$$
ligand_37_pose_0_2HRL.pdbqt
 OpenBabel07062320523D

 55 56  0  0  1  0  0  0  0  0999 V2000
   24.7790   38.4020   11.6110 O   0  0  0  0  0  0  0  0  0  0  0  0
   24.4870   37.4370   10.6190 C   0  0  0  0  0  0  0  0  0  0  0  0
   24.2440   37.8340    9.2870 N   0  0  0  0  0  0  0  0  0  0  0  0
   24.2840   38.8860    9.1080 H   0  0  0  0  0  0  0  0  0  0  0  0
   24.4640   36.2550   11.0090 O   0  0  0  0  0  0  0  0  0  0  0  0
   23.9610   36.9150    8.2300 C   0  0  0  0  0  0  0  0  0  0  0  0
   22.5180   36.9190    7.8490 C   0  0  2  0  0  0  0  0  0  0  0  0
   21.8150   35.7060    8.4520 C   0  0  2  0  0  0  0  0  0  0  0  0
   20.6730   36.0630    9.3510 C   0  0  2  0  0  0  0  0  0  0  0  0
   18.9150   35.4270    7.9400 C   0  0  2  0  0  0  0  0  0  0  0  0
   18.7020   36.8670    7.6000 C   0  0  0  0  0  0  0  0  0  0  0  0
   19.5720   35.2190    9.1280 O   0  0  0  0  0  0  0  0  0  0  0  0
   18.8410   37.6960    8.8600 C   0  0  1  0  0  0  0  0  0  0  0  0
   20.2670   37.5000    9.3510 C   0  0  1  0  0  0  0  0  0  0  0  0
   19.5350   34.7750    6.8990 O   0  0  0  0  0  0  0  0  0  0  0  0
   19.6470   35.3490    6.0910 H   0  0  0  0  0  0  0  0  0  0  0  0
   17.5600   34.7880    8.1140 C   0  0  0  0  0  0  0  0  0  0  0  0
   17.4540   33.6230    8.5750 O   0  0  0  0  0  0  0  0  0  0  0  0
   16.3870   35.4480    7.7780 O   0  0  0  0  0  0  0  0  0  0  0  0
   15.9020   35.2740    6.8840 H   0  0  0  0  0  0  0  0  0  0  0  0
   18.5580   39.0240    8.6090 O   0  0  0  0  0  0  0  0  0  0  0  0
   18.4690   39.5660    9.4330 H   0  0  0  0  0  0  0  0  0  0  0  0
   20.4100   38.1330   10.6670 N   0  0  0  0  0  0  0  0  0  0  0  0
   21.2640   39.2530   10.8920 C   0  0  0  0  0  0  0  0  0  0  0  0
   19.8770   37.7710   11.5010 H   0  0  0  0  0  0  0  0  0  0  0  0
   21.3680   39.8540   12.2570 C   0  0  0  0  0  0  0  0  0  0  0  0
   21.9240   39.7290    9.9400 O   0  0  0  0  0  0  0  0  0  0  0  0
   22.7470   34.9710    9.1950 O   0  0  0  0  0  0  0  0  0  0  0  0
   23.6300   35.0110    8.7360 H   0  0  0  0  0  0  0  0  0  0  0  0
   22.3980   36.8840    6.4600 O   0  0  0  0  0  0  0  0  0  0  0  0
   22.9650   36.1680    6.0480 H   0  0  0  0  0  0  0  0  0  0  0  0
   26.0630   38.3990   12.2000 C   0  0  0  0  0  0  0  0  0  0  0  0
   27.1320   38.2160   11.2000 C   0  0  0  0  0  0  0  0  0  0  0  0
   27.4280   38.9860   10.1000 C   0  0  0  0  0  0  0  0  0  0  0  0
   28.0380   37.2240   11.2000 N   0  0  0  0  0  0  0  0  0  0  0  0
   28.4940   38.4500    9.4610 N   0  0  0  0  0  0  0  0  0  0  0  0
   28.8400   37.3930   10.1440 N   0  0  0  0  0  0  0  0  0  0  0  0
   29.1050   38.9670    8.2660 C   0  0  1  0  0  0  0  0  0  0  0  0
   30.5750   38.6100    8.2350 C   0  0  0  0  0  0  0  0  0  0  0  0
   28.3740   38.4750    7.0910 C   0  0  0  0  0  0  0  0  0  0  0  0
   27.2460   38.9750    6.8030 O   0  0  0  0  0  0  0  0  0  0  0  0
   28.8630   37.4790    6.2720 O   0  0  0  0  0  0  0  0  0  0  0  0
   28.2650   36.2490    6.0080 C   0  0  0  0  0  0  0  0  0  0  0  0
   28.3350   35.3990    7.2290 C   0  0  0  0  0  0  0  0  0  0  0  0
   29.5510   34.9480    7.6940 C   0  0  0  0  0  0  0  0  0  0  0  0
   27.1890   35.0660    7.8980 C   0  0  0  0  0  0  0  0  0  0  0  0
   29.6200   34.1670    8.8220 C   0  0  0  0  0  0  0  0  0  0  0  0
   27.2280   34.2900    9.0230 C   0  0  0  0  0  0  0  0  0  0  0  0
   28.4430   33.8420    9.4830 C   0  0  0  0  0  0  0  0  0  0  0  0
   29.8670   25.5550   16.9770 C   0  0  0  0  0  0  0  0  0  0  0  0
   28.3450   25.7220   17.0260 C   0  0  0  0  0  0  0  0  0  0  0  0
   27.6010   24.4040   16.8780 C   0  0  0  0  0  0  0  0  0  0  0  0
   26.5630   24.2160   17.9490 C   0  0  0  0  0  0  0  0  0  0  0  0
   25.3960   25.1650   17.6990 C   0  0  0  0  0  0  0  0  0  0  0  0
   24.4000   24.5380   16.7990 N   0  0  0  0  0  0  0  0  0  0  0  0
  1 32  1  0  0  0  0
  2  5  2  0  0  0  0
  2  1  1  0  0  0  0
  3  2  1  0  0  0  0
  4  3  1  0  0  0  0
  6  3  1  0  0  0  0
  7  6  1  6  0  0  0
  7  8  1  0  0  0  0
  8 28  1  1  0  0  0
  9  8  1  6  0  0  0
 10 15  1  6  0  0  0
 10 17  1  0  0  0  0
 10 12  1  0  0  0  0
 11 10  1  0  0  0  0
 11 13  1  0  0  0  0
 12  9  1  0  0  0  0
 13 21  1  6  0  0  0
 13 14  1  0  0  0  0
 14  9  1  0  0  0  0
 14 23  1  1  0  0  0
 16 15  1  0  0  0  0
 17 18  2  0  0  0  0
 19 17  1  0  0  0  0
 20 19  1  0  0  0  0
 21 22  1  0  0  0  0
 23 24  1  0  0  0  0
 23 25  1  0  0  0  0
 24 26  1  0  0  0  0
 27 24  2  0  0  0  0
 29 28  1  0  0  0  0
 30  7  1  0  0  0  0
 31 30  1  0  0  0  0
 33 32  1  0  0  0  0
 34 33  2  0  0  0  0
 35 33  1  0  0  0  0
 36 34  1  0  0  0  0
 36 37  1  0  0  0  0
 37 35  2  0  0  0  0
 38 39  1  6  0  0  0
 38 36  1  0  0  0  0
 40 38  1  0  0  0  0
 41 40  2  0  0  0  0
 42 40  1  0  0  0  0
 43 42  1  0  0  0  0
 43 44  1  0  0  0  0
 44 45  2  0  0  0  0
 44 46  1  0  0  0  0
 45 47  1  0  0  0  0
 46 48  2  0  0  0  0
 47 49  2  0  0  0  0
 48 49  1  0  0  0  0
 50 51  1  0  0  0  0
 52 51  1  0  0  0  0
 52 53  1  0  0  0  0
 54 53  1  0  0  0  0
 55 54  1  0  0  0  0
M  END
>  <REMARK>
 VINA RESULT:    -6.104      0.000      0.000
 INTER + INTRA:         -17.101
 INTER:                 -11.704
 INTRA:                  -5.397
 UNBOUND:                -5.110
 SMILES CC(=O)N[C@@H]1[C@@H](O)C[C@](O)(C(=O)O)O[C@H]1C(O)[C@H](O)CNC(=O)OCc1cn([C@@H](C)C(=O)OCc2ccccc2)nn1
 SMILES IDX 24 1 22 2 21 3 23 5 20 6 18 7 16 8 15 9 9 10 8 11 14 12 6 13
 SMILES IDX 5 14 10 15 11 17 12 18 13 19 7 21 4 23 2 24 1 26 3 27 17 28
 SMILES IDX 19 30 25 32 26 33 27 34 42 35 28 36 41 37 29 38 30 39 31 40
 SMILES IDX 32 41 33 42 34 43 35 44 36 45 40 46 37 47 39 48 38 49
 H PARENT 21 4 10 16 13 20 7 22 4 25 17 29 19 31
 Flexibility Score: inf
  4 active torsions:
  status: ('A' for Active; 'I' for Inactive)
    1  A    between atoms: CA   and  CB  
    2  A    between atoms: CB   and  CG  
    3  A    between atoms: CG   and  CD  
    4  A    between atoms: CD   and  CE  

>  <TORSDO>
F 19

>  <BEGIN_>
RES LYS A 131

$$$$
ligand_37_pose_0_2HRL.pdbqt
 OpenBabel07062320523D

  6  5  0  0  0  0  0  0  0  0999 V2000
   33.1930   34.6630    9.2900 C   0  0  0  0  0  0  0  0  0  0  0  0
   32.0600   35.3600   10.0340 C   0  0  0  0  0  0  0  0  0  0  0  0
   32.5260   36.1840   11.2060 C   0  0  0  0  0  0  0  0  0  0  0  0
   31.5160   36.1220   12.3420 C   0  0  0  0  0  0  0  0  0  0  0  0
   30.7420   34.8190   12.2950 C   0  0  0  0  0  0  0  0  0  0  0  0
   29.8140   34.7050   13.4540 N   0  0  0  0  0  0  0  0  0  0  0  0
  1  2  1  0  0  0  0
  2  3  1  0  0  0  0
  3  4  1  0  0  0  0
  5  4  1  0  0  0  0
  5  6  1  0  0  0  0
M  END
>  <EGIN_R>
ES LYS A 135

>  <REMARK>
  4 active torsions:
  status: ('A' for Active; 'I' for Inactive)
    5  A    between atoms: CA   and  CB  
    6  A    between atoms: CB   and  CG  
    7  A    between atoms: CG   and  CD  
    8  A    between atoms: CD   and  CE  

$$$$
ligand_38_pose_0_2HRL.pdbqt
 OpenBabel07062320523D

 51 52  0  0  1  0  0  0  0  0999 V2000
   29.1100   30.7460   18.1740 N   0  0  0  0  0  0  0  0  0  0  0  0
   28.1840   30.0850   17.3330 C   0  0  0  0  0  0  0  0  0  0  0  0
   28.4910   29.7930   16.1310 O   0  0  0  0  0  0  0  0  0  0  0  0
   28.8170   30.9650   19.1500 H   0  0  0  0  0  0  0  0  0  0  0  0
   30.3950   31.0670   17.6150 C   0  0  0  0  0  0  0  0  0  0  0  0
   30.4510   32.5300   17.1510 C   0  0  2  0  0  0  0  0  0  0  0  0
   31.0500   32.4970   15.7890 C   0  0  2  0  0  0  0  0  0  0  0  0
   31.2850   33.8280   15.1360 C   0  0  2  0  0  0  0  0  0  0  0  0
   33.1160   35.2390   14.8000 C   0  0  2  0  0  0  0  0  0  0  0  0
   32.1430   36.4020   14.8470 C   0  0  0  0  0  0  0  0  0  0  0  0
   32.5960   34.1710   15.4880 O   0  0  0  0  0  0  0  0  0  0  0  0
   31.0440   36.1470   15.8660 C   0  0  1  0  0  0  0  0  0  0  0  0
   30.2870   34.8850   15.4110 C   0  0  1  0  0  0  0  0  0  0  0  0
   34.2330   35.6620   15.5540 O   0  0  0  0  0  0  0  0  0  0  0  0
   34.5280   36.5570   15.3020 H   0  0  0  0  0  0  0  0  0  0  0  0
   33.5840   34.9490   13.4430 C   0  0  0  0  0  0  0  0  0  0  0  0
   33.1080   35.5700   12.4650 O   0  0  0  0  0  0  0  0  0  0  0  0
   34.5540   33.9960   13.1670 O   0  0  0  0  0  0  0  0  0  0  0  0
   34.2850   33.1300   12.7430 H   0  0  0  0  0  0  0  0  0  0  0  0
   31.5480   36.0220   17.1340 O   0  0  0  0  0  0  0  0  0  0  0  0
   32.5560   36.0130   17.0810 H   0  0  0  0  0  0  0  0  0  0  0  0
   29.5970   35.3110   14.1870 N   0  0  0  0  0  0  0  0  0  0  0  0
   28.3790   34.7090   13.7740 C   0  0  0  0  0  0  0  0  0  0  0  0
   29.9670   36.0660   13.5690 H   0  0  0  0  0  0  0  0  0  0  0  0
   27.6900   35.1610   12.5120 C   0  0  0  0  0  0  0  0  0  0  0  0
   27.8430   33.8000   14.4280 O   0  0  0  0  0  0  0  0  0  0  0  0
   30.0930   31.8530   14.9620 O   0  0  0  0  0  0  0  0  0  0  0  0
   29.2720   31.7960   15.5290 H   0  0  0  0  0  0  0  0  0  0  0  0
   31.2170   33.1970   18.1030 O   0  0  0  0  0  0  0  0  0  0  0  0
   30.9610   32.8690   18.9920 H   0  0  0  0  0  0  0  0  0  0  0  0
   26.9110   29.7190   17.7450 O   0  0  0  0  0  0  0  0  0  0  0  0
   25.8030   30.6000   17.7460 C   0  0  0  0  0  0  0  0  0  0  0  0
   24.9000   30.3380   16.5940 C   0  0  0  0  0  0  0  0  0  0  0  0
   25.2240   30.4850   15.2400 C   0  0  0  0  0  0  0  0  0  0  0  0
   23.6230   29.9150   16.5970 N   0  0  0  0  0  0  0  0  0  0  0  0
   24.1540   30.1530   14.5100 N   0  0  0  0  0  0  0  0  0  0  0  0
   23.1990   29.8120   15.3530 N   0  0  0  0  0  0  0  0  0  0  0  0
   24.0100   30.1500   13.0710 C   0  0  0  0  0  0  0  0  0  0  0  0
   22.5720   30.0980   12.7010 C   0  0  0  0  0  0  0  0  0  0  0  0
   21.9580   28.9040   12.3910 C   0  0  0  0  0  0  0  0  0  0  0  0
   21.8320   31.2470   12.6640 C   0  0  0  0  0  0  0  0  0  0  0  0
   20.6060   28.8540   12.0430 C   0  0  0  0  0  0  0  0  0  0  0  0
   20.4820   31.2090   12.3180 C   0  0  0  0  0  0  0  0  0  0  0  0
   19.8690   30.0060   12.0070 C   0  0  0  0  0  0  0  0  0  0  0  0
   19.4860   32.8260   12.2770 Br  0  0  0  0  0  0  0  0  0  0  0  0
   29.8670   25.5550   16.9770 C   0  0  0  0  0  0  0  0  0  0  0  0
   28.3450   25.7220   17.0260 C   0  0  0  0  0  0  0  0  0  0  0  0
   27.6010   24.4060   16.8600 C   0  0  0  0  0  0  0  0  0  0  0  0
   26.5500   24.2120   17.9180 C   0  0  0  0  0  0  0  0  0  0  0  0
   25.1660   24.2790   17.2790 C   0  0  0  0  0  0  0  0  0  0  0  0
   24.5430   22.9350   17.2500 N   0  0  0  0  0  0  0  0  0  0  0  0
  1  4  1  0  0  0  0
  2 31  1  0  0  0  0
  2  1  1  0  0  0  0
  3  2  2  0  0  0  0
  5  1  1  0  0  0  0
  6  5  1  1  0  0  0
  6 29  1  0  0  0  0
  7 27  1  6  0  0  0
  7  6  1  0  0  0  0
  8 13  1  0  0  0  0
  8 11  1  0  0  0  0
  8  7  1  1  0  0  0
  9 16  1  6  0  0  0
  9 10  1  0  0  0  0
  9 11  1  0  0  0  0
  9 14  1  0  0  0  0
 10 12  1  0  0  0  0
 12 20  1  1  0  0  0
 13 22  1  6  0  0  0
 13 12  1  0  0  0  0
 15 14  1  0  0  0  0
 17 16  2  0  0  0  0
 18 16  1  0  0  0  0
 19 18  1  0  0  0  0
 21 20  1  0  0  0  0
 23 22  1  0  0  0  0
 23 26  2  0  0  0  0
 24 22  1  0  0  0  0
 25 23  1  0  0  0  0
 27 28  1  0  0  0  0
 29 30  1  0  0  0  0
 31 32  1  0  0  0  0
 33 35  1  0  0  0  0
 33 32  1  0  0  0  0
 34 33  2  0  0  0  0
 36 34  1  0  0  0  0
 36 37  1  0  0  0  0
 37 35  2  0  0  0  0
 38 36  1  0  0  0  0
 39 38  1  0  0  0  0
 40 39  2  0  0  0  0
 41 39  1  0  0  0  0
 42 40  1  0  0  0  0
 43 41  2  0  0  0  0
 44 42  2  0  0  0  0
 44 43  1  0  0  0  0
 45 43  1  0  0  0  0
 46 47  1  0  0  0  0
 48 47  1  0  0  0  0
 48 49  1  0  0  0  0
 50 49  1  0  0  0  0
 51 50  1  0  0  0  0
M  END
>  <REMARK>
 VINA RESULT:    -5.191      0.000      0.000
 INTER + INTRA:         -15.583
 INTER:                 -10.227
 INTRA:                  -5.355
 UNBOUND:                -6.295
 SMILES CC(=O)N[C@@H]1[C@@H](O)C[C@](O)(C(=O)O)O[C@H]1C(O)[C@H](O)CNC(=O)OCc1cn(Cc2cccc(Br)c2)nn1
 SMILES IDX 21 1 22 2 23 3 20 5 18 6 16 7 15 8 9 9 8 10 14 11 6 12 5 13
 SMILES IDX 10 14 11 16 12 17 13 18 7 20 4 22 2 23 1 25 3 26 17 27 19 29
 SMILES IDX 24 31 25 32 26 33 27 34 38 35 28 36 37 37 29 38 30 39 31 40
 SMILES IDX 36 41 32 42 34 43 33 44 35 45
 H PARENT 21 4 10 15 13 19 7 21 4 24 17 28 19 30
 Flexibility Score: inf
  4 active torsions:
  status: ('A' for Active; 'I' for Inactive)
    1  A    between atoms: CA   and  CB  
    2  A    between atoms: CB   and  CG  
    3  A    between atoms: CG   and  CD  
    4  A    between atoms: CD   and  CE  

>  <TORSDO>
F 16

>  <BEGIN_>
RES LYS A 131

$$$$
ligand_38_pose_0_2HRL.pdbqt
 OpenBabel07062320523D

  6  5  0  0  0  0  0  0  0  0999 V2000
   33.1930   34.6630    9.2900 C   0  0  0  0  0  0  0  0  0  0  0  0
   32.0600   35.3600   10.0340 C   0  0  0  0  0  0  0  0  0  0  0  0
   30.8110   35.5290    9.2080 C   0  0  0  0  0  0  0  0  0  0  0  0
   30.2570   34.1760    8.7900 C   0  0  0  0  0  0  0  0  0  0  0  0
   28.8210   34.0230    9.2530 C   0  0  0  0  0  0  0  0  0  0  0  0
   27.8740   34.6260    8.2750 N   0  0  0  0  0  0  0  0  0  0  0  0
  1  2  1  0  0  0  0
  3  2  1  0  0  0  0
  4  3  1  0  0  0  0
  4  5  1  0  0  0  0
  6  5  1  0  0  0  0
M  END
>  <EGIN_R>
ES LYS A 135

>  <REMARK>
  4 active torsions:
  status: ('A' for Active; 'I' for Inactive)
    5  A    between atoms: CA   and  CB  
    6  A    between atoms: CB   and  CG  
    7  A    between atoms: CG   and  CD  
    8  A    between atoms: CD   and  CE  

$$$$
ligand_39_pose_0_2HRL.pdbqt
 OpenBabel07062320523D

 51 52  0  0  1  0  0  0  0  0999 V2000
   25.6690   27.4200   19.5350 N   0  0  0  0  0  0  0  0  0  0  0  0
   25.8390   28.0650   18.3050 C   0  0  0  0  0  0  0  0  0  0  0  0
   26.9480   27.9740   17.7100 O   0  0  0  0  0  0  0  0  0  0  0  0
   24.7240   27.5200   20.0000 H   0  0  0  0  0  0  0  0  0  0  0  0
   26.6830   26.6370   20.2070 C   0  0  0  0  0  0  0  0  0  0  0  0
   27.3220   27.4710   21.2960 C   0  0  2  0  0  0  0  0  0  0  0  0
   28.7030   27.9410   20.8910 C   0  0  2  0  0  0  0  0  0  0  0  0
   28.7740   29.4490   20.7570 C   0  0  2  0  0  0  0  0  0  0  0  0
   27.3990   31.2550   20.2200 C   0  0  2  0  0  0  0  0  0  0  0  0
   28.3350   31.7420   19.1810 C   0  0  0  0  0  0  0  0  0  0  0  0
   27.5390   29.8850   20.3850 O   0  0  0  0  0  0  0  0  0  0  0  0
   29.4530   30.8540   18.7920 C   0  0  1  0  0  0  0  0  0  0  0  0
   29.8860   29.8640   19.8350 C   0  0  1  0  0  0  0  0  0  0  0  0
   26.0720   31.4290   19.7490 O   0  0  0  0  0  0  0  0  0  0  0  0
   25.4360   30.8570   20.2540 H   0  0  0  0  0  0  0  0  0  0  0  0
   27.5260   32.0110   21.4670 C   0  0  0  0  0  0  0  0  0  0  0  0
   26.7230   31.8920   22.4330 O   0  0  0  0  0  0  0  0  0  0  0  0
   28.5730   32.9090   21.6130 O   0  0  0  0  0  0  0  0  0  0  0  0
   29.5340   32.6190   21.7520 H   0  0  0  0  0  0  0  0  0  0  0  0
   29.1610   30.2030   17.5780 O   0  0  0  0  0  0  0  0  0  0  0  0
   30.0590   30.1040   17.1270 H   0  0  0  0  0  0  0  0  0  0  0  0
   31.0540   30.3260   20.5510 N   0  0  0  0  0  0  0  0  0  0  0  0
   32.1460   29.4770   20.8650 C   0  0  0  0  0  0  0  0  0  0  0  0
   31.1090   31.3180   20.8540 H   0  0  0  0  0  0  0  0  0  0  0  0
   33.3560   29.9380   21.6020 C   0  0  0  0  0  0  0  0  0  0  0  0
   32.0540   28.2620   20.4810 O   0  0  0  0  0  0  0  0  0  0  0  0
   29.1000   27.2920   19.7270 O   0  0  0  0  0  0  0  0  0  0  0  0
   28.5220   27.6150   18.9690 H   0  0  0  0  0  0  0  0  0  0  0  0
   27.4090   26.6130   22.4180 O   0  0  0  0  0  0  0  0  0  0  0  0
   27.0730   27.0320   23.2260 H   0  0  0  0  0  0  0  0  0  0  0  0
   24.8600   28.8150   17.6690 O   0  0  0  0  0  0  0  0  0  0  0  0
   25.0630   29.2740   16.3430 C   0  0  0  0  0  0  0  0  0  0  0  0
   25.5420   30.6720   16.3210 C   0  0  0  0  0  0  0  0  0  0  0  0
   26.5520   31.2020   15.5040 C   0  0  0  0  0  0  0  0  0  0  0  0
   25.1410   31.7180   17.0510 N   0  0  0  0  0  0  0  0  0  0  0  0
   26.7290   32.4890   15.7470 N   0  0  0  0  0  0  0  0  0  0  0  0
   25.8330   32.7870   16.7180 N   0  0  0  0  0  0  0  0  0  0  0  0
   27.6140   33.5040   15.2250 C   0  0  0  0  0  0  0  0  0  0  0  0
   29.0040   33.4150   15.6520 C   0  0  0  0  0  0  0  0  0  0  0  0
   29.8920   32.5320   15.0300 C   0  0  0  0  0  0  0  0  0  0  0  0
   29.5130   34.2000   16.6450 C   0  0  0  0  0  0  0  0  0  0  0  0
   31.2010   32.4850   15.4210 C   0  0  0  0  0  0  0  0  0  0  0  0
   30.8380   34.1490   17.0380 C   0  0  0  0  0  0  0  0  0  0  0  0
   28.3870   35.4270   17.6200 Br  0  0  0  0  0  0  0  0  0  0  0  0
   31.7030   33.2810   16.4210 C   0  0  0  0  0  0  0  0  0  0  0  0
   29.8670   25.5550   16.9770 C   0  0  0  0  0  0  0  0  0  0  0  0
   28.3450   25.7220   17.0260 C   0  0  0  0  0  0  0  0  0  0  0  0
   27.6000   24.4120   16.8210 C   0  0  0  0  0  0  0  0  0  0  0  0
   26.1630   24.5030   17.2550 C   0  0  0  0  0  0  0  0  0  0  0  0
   25.7150   23.1580   17.8160 C   0  0  0  0  0  0  0  0  0  0  0  0
   25.4850   23.2560   19.2770 N   0  0  0  0  0  0  0  0  0  0  0  0
  1  4  1  0  0  0  0
  1  5  1  0  0  0  0
  2  1  1  0  0  0  0
  3  2  2  0  0  0  0
  6  5  1  6  0  0  0
  6 29  1  0  0  0  0
  7 27  1  6  0  0  0
  7  6  1  0  0  0  0
  8  7  1  6  0  0  0
  9 14  1  6  0  0  0
  9 11  1  0  0  0  0
  9 16  1  0  0  0  0
 10  9  1  0  0  0  0
 11  8  1  0  0  0  0
 12 20  1  6  0  0  0
 12 10  1  0  0  0  0
 12 13  1  0  0  0  0
 13 22  1  1  0  0  0
 13  8  1  0  0  0  0
 14 15  1  0  0  0  0
 16 18  1  0  0  0  0
 16 17  2  0  0  0  0
 18 19  1  0  0  0  0
 21 20  1  0  0  0  0
 22 24  1  0  0  0  0
 22 23  1  0  0  0  0
 23 25  1  0  0  0  0
 26 23  2  0  0  0  0
 28 27  1  0  0  0  0
 29 30  1  0  0  0  0
 31  2  1  0  0  0  0
 32 31  1  0  0  0  0
 33 32  1  0  0  0  0
 33 35  1  0  0  0  0
 34 36  1  0  0  0  0
 34 33  2  0  0  0  0
 36 37  1  0  0  0  0
 37 35  2  0  0  0  0
 38 39  1  0  0  0  0
 38 36  1  0  0  0  0
 39 41  2  0  0  0  0
 40 42  2  0  0  0  0
 40 39  1  0  0  0  0
 41 43  1  0  0  0  0
 41 44  1  0  0  0  0
 42 45  1  0  0  0  0
 45 43  2  0  0  0  0
 46 47  1  0  0  0  0
 48 47  1  0  0  0  0
 48 49  1  0  0  0  0
 49 50  1  0  0  0  0
 50 51  1  0  0  0  0
M  END
>  <REMARK>
 VINA RESULT:    -4.577      0.000      0.000
 INTER + INTRA:         -15.616
 INTER:                  -7.890
 INTRA:                  -7.726
 UNBOUND:                -7.426
 SMILES CC(=O)N[C@@H]1[C@@H](O)C[C@](O)(C(=O)O)O[C@H]1C(O)[C@H](O)CNC(=O)OCc1cn(Cc2ccccc2Br)nn1
 SMILES IDX 21 1 22 2 23 3 20 5 18 6 16 7 15 8 9 9 8 10 14 11 6 12 5 13
 SMILES IDX 10 14 11 16 12 17 13 18 7 20 4 22 2 23 1 25 3 26 17 27 19 29
 SMILES IDX 24 31 25 32 26 33 27 34 38 35 28 36 37 37 29 38 30 39 31 40
 SMILES IDX 35 41 32 42 34 43 36 44 33 45
 H PARENT 21 4 10 15 13 19 7 21 4 24 17 28 19 30
 Flexibility Score: inf
  4 active torsions:
  status: ('A' for Active; 'I' for Inactive)
    1  A    between atoms: CA   and  CB  
    2  A    between atoms: CB   and  CG  
    3  A    between atoms: CG   and  CD  
    4  A    between atoms: CD   and  CE  

>  <TORSDO>
F 16

>  <BEGIN_>
RES LYS A 131

$$$$
ligand_39_pose_0_2HRL.pdbqt
 OpenBabel07062320523D

  6  5  0  0  0  0  0  0  0  0999 V2000
   33.1930   34.6630    9.2900 C   0  0  0  0  0  0  0  0  0  0  0  0
   32.0600   35.3600   10.0340 C   0  0  0  0  0  0  0  0  0  0  0  0
   30.7990   35.4960    9.2200 C   0  0  0  0  0  0  0  0  0  0  0  0
   30.1310   34.1420    9.0360 C   0  0  0  0  0  0  0  0  0  0  0  0
   28.6710   34.3150    8.6610 C   0  0  0  0  0  0  0  0  0  0  0  0
   27.7810   33.6270    9.6370 N   0  0  0  0  0  0  0  0  0  0  0  0
  1  2  1  0  0  0  0
  3  2  1  0  0  0  0
  4  3  1  0  0  0  0
  5  4  1  0  0  0  0
  5  6  1  0  0  0  0
M  END
>  <EGIN_R>
ES LYS A 135

>  <REMARK>
  4 active torsions:
  status: ('A' for Active; 'I' for Inactive)
    5  A    between atoms: CA   and  CB  
    6  A    between atoms: CB   and  CG  
    7  A    between atoms: CG   and  CD  
    8  A    between atoms: CD   and  CE  

$$$$
ligand_3_pose_0_2HRL.pdbqt
 OpenBabel07062320523D

 49 50  0  0  1  0  0  0  0  0999 V2000
   23.6290   36.7910    8.5590 C   0  0  0  0  0  0  0  0  0  0  0  0
   22.2450   36.9610    7.9670 C   0  0  2  0  0  0  0  0  0  0  0  0
   21.2270   36.0750    8.6520 C   0  0  1  0  0  0  0  0  0  0  0  0
   20.0650   35.7460    7.7750 C   0  0  2  0  0  0  0  0  0  0  0  0
   18.3930   37.3550    8.1400 C   0  0  2  0  0  0  0  0  0  0  0  0
   17.6360   36.4770    9.0720 C   0  0  0  0  0  0  0  0  0  0  0  0
   19.3250   36.7890    7.3560 O   0  0  0  0  0  0  0  0  0  0  0  0
   18.3230   35.1910    9.4270 C   0  0  1  0  0  0  0  0  0  0  0  0
   19.1860   34.6620    8.3270 C   0  0  1  0  0  0  0  0  0  0  0  0
   19.0260   38.3320    8.9380 O   0  0  0  0  0  0  0  0  0  0  0  0
   18.5730   39.2000    8.7440 H   0  0  0  0  0  0  0  0  0  0  0  0
   17.4460   38.1080    7.2740 C   0  0  0  0  0  0  0  0  0  0  0  0
   16.3510   38.5450    7.6920 O   0  0  0  0  0  0  0  0  0  0  0  0
   17.7670   38.3460    5.9560 O   0  0  0  0  0  0  0  0  0  0  0  0
   18.2640   37.6950    5.3610 H   0  0  0  0  0  0  0  0  0  0  0  0
   19.0850   35.3560   10.5960 O   0  0  0  0  0  0  0  0  0  0  0  0
   19.3310   34.5030   11.0060 H   0  0  0  0  0  0  0  0  0  0  0  0
   18.3010   34.2300    7.2430 N   0  0  0  0  0  0  0  0  0  0  0  0
   17.4710   33.0820    7.3680 C   0  0  0  0  0  0  0  0  0  0  0  0
   18.2530   34.7540    6.3440 H   0  0  0  0  0  0  0  0  0  0  0  0
   16.5650   32.6270    6.2800 C   0  0  0  0  0  0  0  0  0  0  0  0
   17.4750   32.3960    8.4270 O   0  0  0  0  0  0  0  0  0  0  0  0
   21.9320   34.9150    9.0110 O   0  0  0  0  0  0  0  0  0  0  0  0
   21.5790   34.2050    8.3960 H   0  0  0  0  0  0  0  0  0  0  0  0
   22.2620   36.8240    6.5900 O   0  0  0  0  0  0  0  0  0  0  0  0
   22.7060   37.5670    6.1330 H   0  0  0  0  0  0  0  0  0  0  0  0
   23.6740   36.9720    9.9760 N   0  0  0  0  0  0  0  0  0  0  0  0
   24.6390   36.3580   10.8190 C   0  0  0  0  0  0  0  0  0  0  0  0
   22.9710   37.5860   10.4510 H   0  0  0  0  0  0  0  0  0  0  0  0
   25.5160   35.6140   10.3610 O   0  0  0  0  0  0  0  0  0  0  0  0
   24.6360   36.5670   12.1940 O   0  0  0  0  0  0  0  0  0  0  0  0
   23.4130   36.5330   12.9130 C   0  0  0  0  0  0  0  0  0  0  0  0
   22.7750   35.2260   12.6390 C   0  0  0  0  0  0  0  0  0  0  0  0
   23.2670   33.9770   12.9490 C   0  0  0  0  0  0  0  0  0  0  0  0
   21.5870   35.0450   12.0280 N   0  0  0  0  0  0  0  0  0  0  0  0
   22.3530   33.0960   12.5120 N   0  0  0  0  0  0  0  0  0  0  0  0
   21.3500   33.7500   11.9620 N   0  0  0  0  0  0  0  0  0  0  0  0
   22.4650   31.6830   12.6320 C   0  0  0  0  0  0  0  0  0  0  0  0
   21.3510   30.8940   12.4060 C   0  0  0  0  0  0  0  0  0  0  0  0
   23.6710   31.0970   12.9700 C   0  0  0  0  0  0  0  0  0  0  0  0
   21.4950   29.5240   12.5310 C   0  0  0  0  0  0  0  0  0  0  0  0
   23.7960   29.7360   13.0900 C   0  0  0  0  0  0  0  0  0  0  0  0
   22.6900   28.9450   12.8660 C   0  0  0  0  0  0  0  0  0  0  0  0
   29.8670   25.5550   16.9770 C   0  0  0  0  0  0  0  0  0  0  0  0
   28.3450   25.7220   17.0260 C   0  0  0  0  0  0  0  0  0  0  0  0
   27.6010   24.4030   16.8860 C   0  0  0  0  0  0  0  0  0  0  0  0
   26.6340   24.1760   18.0150 C   0  0  0  0  0  0  0  0  0  0  0  0
   26.0790   25.5160   18.4870 C   0  0  0  0  0  0  0  0  0  0  0  0
   25.7040   25.4460   19.9190 N   0  0  0  0  0  0  0  0  0  0  0  0
  1 27  1  0  0  0  0
  2  1  1  1  0  0  0
  2  3  1  0  0  0  0
  3 23  1  6  0  0  0
  4  9  1  0  0  0  0
  4  3  1  1  0  0  0
  5 12  1  6  0  0  0
  5 10  1  0  0  0  0
  5  6  1  0  0  0  0
  6  8  1  0  0  0  0
  7  4  1  0  0  0  0
  7  5  1  0  0  0  0
  8 16  1  1  0  0  0
  9 18  1  6  0  0  0
  9  8  1  0  0  0  0
 11 10  1  0  0  0  0
 12 13  2  0  0  0  0
 14 12  1  0  0  0  0
 15 14  1  0  0  0  0
 16 17  1  0  0  0  0
 18 19  1  0  0  0  0
 19 22  2  0  0  0  0
 20 18  1  0  0  0  0
 21 19  1  0  0  0  0
 24 23  1  0  0  0  0
 25  2  1  0  0  0  0
 26 25  1  0  0  0  0
 27 29  1  0  0  0  0
 27 28  1  0  0  0  0
 28 31  1  0  0  0  0
 30 28  2  0  0  0  0
 31 32  1  0  0  0  0
 33 32  1  0  0  0  0
 33 34  2  0  0  0  0
 35 33  1  0  0  0  0
 36 38  1  0  0  0  0
 36 34  1  0  0  0  0
 37 35  2  0  0  0  0
 37 36  1  0  0  0  0
 38 40  2  0  0  0  0
 39 41  2  0  0  0  0
 39 38  1  0  0  0  0
 40 42  1  0  0  0  0
 41 43  1  0  0  0  0
 43 42  2  0  0  0  0
 44 45  1  0  0  0  0
 46 45  1  0  0  0  0
 46 47  1  0  0  0  0
 47 48  1  0  0  0  0
 48 49  1  0  0  0  0
M  END
>  <REMARK>
 VINA RESULT:    -6.053      0.000      0.000
 INTER + INTRA:         -14.961
 INTER:                  -9.005
 INTRA:                  -5.956
 UNBOUND:                -4.485
 SMILES CC(=O)N[C@@H]1[C@@H](O)C[C@](O)(C(=O)O)O[C@H]1C(O)[C@H](O)CNC(=O)OCc1cn(-c2ccccc2)nn1
 SMILES IDX 20 1 18 2 16 3 15 4 9 5 8 6 14 7 6 8 5 9 10 10 11 12 12 13
 SMILES IDX 13 14 7 16 4 18 2 19 1 21 3 22 17 23 19 25 21 27 22 28 23 30
 SMILES IDX 24 31 25 32 26 33 27 34 36 35 28 36 35 37 29 38 30 39 34 40
 SMILES IDX 31 41 33 42 32 43
 H PARENT 10 11 13 15 7 17 4 20 17 24 19 26 21 29
 Flexibility Score: inf
  4 active torsions:
  status: ('A' for Active; 'I' for Inactive)
    1  A    between atoms: CA   and  CB  
    2  A    between atoms: CB   and  CG  
    3  A    between atoms: CG   and  CD  
    4  A    between atoms: CD   and  CE  

>  <TORSDO>
F 15

>  <BEGIN_>
RES LYS A 131

$$$$
ligand_3_pose_0_2HRL.pdbqt
 OpenBabel07062320523D

  6  5  0  0  0  0  0  0  0  0999 V2000
   33.1930   34.6630    9.2900 C   0  0  0  0  0  0  0  0  0  0  0  0
   32.0600   35.3600   10.0340 C   0  0  0  0  0  0  0  0  0  0  0  0
   30.8710   35.6740    9.1630 C   0  0  0  0  0  0  0  0  0  0  0  0
   30.3710   34.4190    8.4640 C   0  0  0  0  0  0  0  0  0  0  0  0
   28.8550   34.4030    8.4180 C   0  0  0  0  0  0  0  0  0  0  0  0
   28.2900   33.7030    9.6050 N   0  0  0  0  0  0  0  0  0  0  0  0
  1  2  1  0  0  0  0
  3  2  1  0  0  0  0
  4  3  1  0  0  0  0
  5  4  1  0  0  0  0
  5  6  1  0  0  0  0
M  END
>  <EGIN_R>
ES LYS A 135

>  <REMARK>
  4 active torsions:
  status: ('A' for Active; 'I' for Inactive)
    5  A    between atoms: CA   and  CB  
    6  A    between atoms: CB   and  CG  
    7  A    between atoms: CG   and  CD  
    8  A    between atoms: CD   and  CE  

$$$$
ligand_40_pose_0_2HRL.pdbqt
 OpenBabel07062320523D

 50 51  0  0  1  0  0  0  0  0999 V2000
   30.1470   33.8700   14.8340 C   0  0  0  0  0  0  0  0  0  0  0  0
   30.1830   32.4030   14.9480 C   0  0  2  0  0  0  0  0  0  0  0  0
   29.1380   31.7000   15.7540 C   0  0  2  0  0  0  0  0  0  0  0  0
   29.3990   31.5560   17.2200 C   0  0  2  0  0  0  0  0  0  0  0  0
   27.3290   30.7750   17.9920 C   0  0  2  0  0  0  0  0  0  0  0  0
   27.1540   31.9310   18.9610 C   0  0  0  0  0  0  0  0  0  0  0  0
   28.6250   30.4890   17.6990 O   0  0  0  0  0  0  0  0  0  0  0  0
   27.9660   33.1170   18.4660 C   0  0  1  0  0  0  0  0  0  0  0  0
   29.3640   32.7320   18.1060 C   0  0  1  0  0  0  0  0  0  0  0  0
   26.5250   31.0380   16.9090 O   0  0  0  0  0  0  0  0  0  0  0  0
   25.9480   31.8380   17.0090 H   0  0  0  0  0  0  0  0  0  0  0  0
   26.7720   29.5820   18.7030 C   0  0  0  0  0  0  0  0  0  0  0  0
   27.4280   28.9670   19.5960 O   0  0  0  0  0  0  0  0  0  0  0  0
   25.5090   29.1210   18.3930 O   0  0  0  0  0  0  0  0  0  0  0  0
   25.4110   28.2350   17.8900 H   0  0  0  0  0  0  0  0  0  0  0  0
   27.3190   33.5110   17.2940 O   0  0  0  0  0  0  0  0  0  0  0  0
   26.9910   34.4450   17.3530 H   0  0  0  0  0  0  0  0  0  0  0  0
   30.1970   32.4160   19.2520 N   0  0  0  0  0  0  0  0  0  0  0  0
   31.2100   33.2630   19.7300 C   0  0  0  0  0  0  0  0  0  0  0  0
   29.9950   31.5040   19.7110 H   0  0  0  0  0  0  0  0  0  0  0  0
   32.0720   32.9700   20.8910 C   0  0  0  0  0  0  0  0  0  0  0  0
   31.3700   34.3310   19.1090 O   0  0  0  0  0  0  0  0  0  0  0  0
   29.2700   30.2960   15.3350 O   0  0  0  0  0  0  0  0  0  0  0  0
   29.2170   29.7530   16.1660 H   0  0  0  0  0  0  0  0  0  0  0  0
   31.4670   31.9200   15.1520 O   0  0  0  0  0  0  0  0  0  0  0  0
   31.4730   31.1420   15.7900 H   0  0  0  0  0  0  0  0  0  0  0  0
   28.8440   34.4300   14.4680 N   0  0  0  0  0  0  0  0  0  0  0  0
   28.5250   34.7660   13.1330 C   0  0  0  0  0  0  0  0  0  0  0  0
   28.0930   34.6140   15.1830 H   0  0  0  0  0  0  0  0  0  0  0  0
   29.3600   34.5900   12.2390 O   0  0  0  0  0  0  0  0  0  0  0  0
   27.2900   35.2990   12.7620 O   0  0  0  0  0  0  0  0  0  0  0  0
   26.2260   35.2850   13.6860 C   0  0  0  0  0  0  0  0  0  0  0  0
   25.6790   33.9440   13.9150 C   0  0  0  0  0  0  0  0  0  0  0  0
   24.6450   33.4030   13.1790 C   0  0  0  0  0  0  0  0  0  0  0  0
   26.0060   32.9880   14.8070 N   0  0  0  0  0  0  0  0  0  0  0  0
   24.3670   32.1600   13.6250 N   0  0  0  0  0  0  0  0  0  0  0  0
   25.2110   31.9420   14.6110 N   0  0  0  0  0  0  0  0  0  0  0  0
   23.3820   31.2370   13.1650 C   0  0  0  0  0  0  0  0  0  0  0  0
   23.6910   29.9070   12.9670 C   0  0  0  0  0  0  0  0  0  0  0  0
   22.0850   31.6230   12.8960 C   0  0  0  0  0  0  0  0  0  0  0  0
   22.7480   29.0010   12.5210 C   0  0  0  0  0  0  0  0  0  0  0  0
   21.1380   30.7240   12.4500 C   0  0  0  0  0  0  0  0  0  0  0  0
   21.4540   29.3960   12.2550 C   0  0  0  0  0  0  0  0  0  0  0  0
   20.4050   28.4600   11.7740 C   0  0  0  0  0  0  0  0  0  0  0  0
   29.8670   25.5550   16.9770 C   0  0  0  0  0  0  0  0  0  0  0  0
   28.3450   25.7220   17.0260 C   0  0  0  0  0  0  0  0  0  0  0  0
   27.6120   24.4040   17.2250 C   0  0  0  0  0  0  0  0  0  0  0  0
   26.1890   24.6080   17.6660 C   0  0  0  0  0  0  0  0  0  0  0  0
   25.3600   23.3840   17.2920 C   0  0  0  0  0  0  0  0  0  0  0  0
   23.9950   23.7870   16.8790 N   0  0  0  0  0  0  0  0  0  0  0  0
  2  1  1  1  0  0  0
  2 25  1  0  0  0  0
  2  3  1  0  0  0  0
  3 23  1  6  0  0  0
  4  3  1  6  0  0  0
  4  7  1  0  0  0  0
  4  9  1  0  0  0  0
  5 10  1  6  0  0  0
  5 12  1  0  0  0  0
  5  6  1  0  0  0  0
  7  5  1  0  0  0  0
  8 16  1  6  0  0  0
  8  6  1  0  0  0  0
  9  8  1  0  0  0  0
  9 18  1  1  0  0  0
 10 11  1  0  0  0  0
 12 13  2  0  0  0  0
 14 12  1  0  0  0  0
 15 14  1  0  0  0  0
 16 17  1  0  0  0  0
 18 20  1  0  0  0  0
 18 19  1  0  0  0  0
 19 21  1  0  0  0  0
 22 19  2  0  0  0  0
 23 24  1  0  0  0  0
 25 26  1  0  0  0  0
 27  1  1  0  0  0  0
 27 29  1  0  0  0  0
 28 27  1  0  0  0  0
 30 28  2  0  0  0  0
 31 28  1  0  0  0  0
 31 32  1  0  0  0  0
 32 33  1  0  0  0  0
 33 35  1  0  0  0  0
 34 36  1  0  0  0  0
 34 33  2  0  0  0  0
 36 37  1  0  0  0  0
 37 35  2  0  0  0  0
 38 36  1  0  0  0  0
 39 38  1  0  0  0  0
 40 38  2  0  0  0  0
 41 39  2  0  0  0  0
 42 40  1  0  0  0  0
 43 42  2  0  0  0  0
 43 41  1  0  0  0  0
 44 43  1  0  0  0  0
 45 46  1  0  0  0  0
 46 47  1  0  0  0  0
 47 48  1  0  0  0  0
 49 48  1  0  0  0  0
 50 49  1  0  0  0  0
M  END
>  <REMARK>
 VINA RESULT:    -5.581      0.000      0.000
 INTER + INTRA:         -14.672
 INTER:                  -9.096
 INTRA:                  -5.576
 UNBOUND:                -5.012
 SMILES CC(=O)N[C@@H]1[C@@H](O)C[C@](O)(C(=O)O)O[C@H]1C(O)[C@H](O)CNC(=O)OCc1cn(-c2ccc(C)cc2)nn1
 SMILES IDX 20 1 18 2 16 3 15 4 9 5 8 6 14 7 6 8 5 9 10 10 11 12 12 13
 SMILES IDX 13 14 7 16 4 18 2 19 1 21 3 22 17 23 19 25 21 27 22 28 23 30
 SMILES IDX 24 31 25 32 26 33 27 34 37 35 28 36 36 37 29 38 30 39 35 40
 SMILES IDX 31 41 34 42 32 43 33 44
 H PARENT 10 11 13 15 7 17 4 20 17 24 19 26 21 29
 Flexibility Score: inf
  4 active torsions:
  status: ('A' for Active; 'I' for Inactive)
    1  A    between atoms: CA   and  CB  
    2  A    between atoms: CB   and  CG  
    3  A    between atoms: CG   and  CD  
    4  A    between atoms: CD   and  CE  

>  <TORSDO>
F 15

>  <BEGIN_>
RES LYS A 131

$$$$
ligand_40_pose_0_2HRL.pdbqt
 OpenBabel07062320523D

  6  5  0  0  0  0  0  0  0  0999 V2000
   33.1930   34.6630    9.2900 C   0  0  0  0  0  0  0  0  0  0  0  0
   32.0600   35.3600   10.0340 C   0  0  0  0  0  0  0  0  0  0  0  0
   30.8440   35.6120    9.1800 C   0  0  0  0  0  0  0  0  0  0  0  0
   30.2150   34.2990    8.7410 C   0  0  0  0  0  0  0  0  0  0  0  0
   28.7440   34.4920    8.4250 C   0  0  0  0  0  0  0  0  0  0  0  0
   27.8860   33.7850    9.4160 N   0  0  0  0  0  0  0  0  0  0  0  0
  1  2  1  0  0  0  0
  3  2  1  0  0  0  0
  4  3  1  0  0  0  0
  5  4  1  0  0  0  0
  5  6  1  0  0  0  0
M  END
>  <EGIN_R>
ES LYS A 135

>  <REMARK>
  4 active torsions:
  status: ('A' for Active; 'I' for Inactive)
    5  A    between atoms: CA   and  CB  
    6  A    between atoms: CB   and  CG  
    7  A    between atoms: CG   and  CD  
    8  A    between atoms: CD   and  CE  

$$$$
ligand_41_pose_0_2HRL.pdbqt
 OpenBabel07062320523D

 52 53  0  0  1  0  0  0  0  0999 V2000
   29.3560   31.8440   18.0850 N   0  0  0  0  0  0  0  0  0  0  0  0
   28.2450   32.7090   18.3710 C   0  0  0  0  0  0  0  0  0  0  0  0
   28.3090   33.9120   18.0190 O   0  0  0  0  0  0  0  0  0  0  0  0
   29.2620   30.8530   18.3850 H   0  0  0  0  0  0  0  0  0  0  0  0
   30.5160   32.3650   17.4230 C   0  0  0  0  0  0  0  0  0  0  0  0
   30.7650   31.8800   16.0330 C   0  0  2  0  0  0  0  0  0  0  0  0
   30.0370   32.6480   14.9700 C   0  0  2  0  0  0  0  0  0  0  0  0
   30.7430   33.8940   14.5030 C   0  0  2  0  0  0  0  0  0  0  0  0
   32.6850   35.1250   14.7150 C   0  0  2  0  0  0  0  0  0  0  0  0
   31.9560   36.4050   15.0800 C   0  0  0  0  0  0  0  0  0  0  0  0
   31.9560   34.0520   15.0790 O   0  0  0  0  0  0  0  0  0  0  0  0
   30.5550   36.1460   15.5230 C   0  0  1  0  0  0  0  0  0  0  0  0
   29.8600   35.1020   14.7300 C   0  0  1  0  0  0  0  0  0  0  0  0
   33.8780   35.1790   15.5140 O   0  0  0  0  0  0  0  0  0  0  0  0
   34.5410   34.5250   15.1320 H   0  0  0  0  0  0  0  0  0  0  0  0
   33.1540   35.2100   13.3280 C   0  0  0  0  0  0  0  0  0  0  0  0
   32.6730   35.9970   12.4820 O   0  0  0  0  0  0  0  0  0  0  0  0
   34.1920   34.3970   12.8670 O   0  0  0  0  0  0  0  0  0  0  0  0
   34.8460   34.7430   12.1740 H   0  0  0  0  0  0  0  0  0  0  0  0
   30.5910   35.7370   16.8670 O   0  0  0  0  0  0  0  0  0  0  0  0
   31.4900   35.8210   17.2650 H   0  0  0  0  0  0  0  0  0  0  0  0
   29.2820   35.6350   13.5380 N   0  0  0  0  0  0  0  0  0  0  0  0
   27.9220   36.0450   13.4530 C   0  0  0  0  0  0  0  0  0  0  0  0
   29.8680   35.7380   12.6890 H   0  0  0  0  0  0  0  0  0  0  0  0
   27.3680   36.5930   12.1880 C   0  0  0  0  0  0  0  0  0  0  0  0
   27.1480   35.9570   14.4410 O   0  0  0  0  0  0  0  0  0  0  0  0
   28.6900   32.7810   15.1880 O   0  0  0  0  0  0  0  0  0  0  0  0
   28.2720   33.0170   14.3070 H   0  0  0  0  0  0  0  0  0  0  0  0
   30.1870   30.5450   15.9890 O   0  0  0  0  0  0  0  0  0  0  0  0
   29.2560   30.6960   16.3040 H   0  0  0  0  0  0  0  0  0  0  0  0
   27.1100   32.2810   19.0160 O   0  0  0  0  0  0  0  0  0  0  0  0
   26.5490   30.9920   18.7760 C   0  0  0  0  0  0  0  0  0  0  0  0
   26.1990   30.8120   17.3450 C   0  0  0  0  0  0  0  0  0  0  0  0
   24.9560   30.8180   16.7680 C   0  0  0  0  0  0  0  0  0  0  0  0
   27.0720   30.6010   16.3220 N   0  0  0  0  0  0  0  0  0  0  0  0
   25.1140   30.6110   15.4190 N   0  0  0  0  0  0  0  0  0  0  0  0
   26.4080   30.4860   15.2010 N   0  0  0  0  0  0  0  0  0  0  0  0
   24.1100   30.4940   14.4250 C   0  0  0  0  0  0  0  0  0  0  0  0
   23.6540   31.5090   13.6570 C   0  0  0  0  0  0  0  0  0  0  0  0
   23.6000   29.1850   14.2720 C   0  0  0  0  0  0  0  0  0  0  0  0
   22.6660   31.2440   12.7040 C   0  0  0  0  0  0  0  0  0  0  0  0
   22.6300   28.9390   13.3320 C   0  0  0  0  0  0  0  0  0  0  0  0
   22.1800   29.9790   12.5620 C   0  0  0  0  0  0  0  0  0  0  0  0
   24.1170   32.8760   13.7580 C   0  0  2  0  0  0  0  0  0  0  0  0
   23.6340   33.5760   14.7370 O   0  0  0  0  0  0  0  0  0  0  0  0
   25.0660   33.5710   12.8880 C   0  0  0  0  0  0  0  0  0  0  0  0
   29.8670   25.5550   16.9770 C   0  0  0  0  0  0  0  0  0  0  0  0
   28.3450   25.7220   17.0260 C   0  0  0  0  0  0  0  0  0  0  0  0
   27.6020   24.3980   16.9310 C   0  0  0  0  0  0  0  0  0  0  0  0
   26.1500   24.5360   17.2940 C   0  0  0  0  0  0  0  0  0  0  0  0
   26.0050   24.5590   18.8130 C   0  0  0  0  0  0  0  0  0  0  0  0
   25.5220   23.2480   19.3070 N   0  0  0  0  0  0  0  0  0  0  0  0
  1  2  1  0  0  0  0
  1  4  1  0  0  0  0
  2 31  1  0  0  0  0
  3  2  2  0  0  0  0
  5  1  1  0  0  0  0
  6  5  1  1  0  0  0
  7 27  1  1  0  0  0
  7  6  1  0  0  0  0
  8 13  1  0  0  0  0
  8  7  1  1  0  0  0
  8 11  1  0  0  0  0
  9 16  1  6  0  0  0
  9 11  1  0  0  0  0
  9 10  1  0  0  0  0
  9 14  1  0  0  0  0
 10 12  1  0  0  0  0
 12 20  1  1  0  0  0
 13 22  1  6  0  0  0
 13 12  1  0  0  0  0
 15 14  1  0  0  0  0
 17 16  2  0  0  0  0
 18 16  1  0  0  0  0
 19 18  1  0  0  0  0
 20 21  1  0  0  0  0
 23 22  1  0  0  0  0
 23 26  2  0  0  0  0
 24 22  1  0  0  0  0
 25 23  1  0  0  0  0
 28 27  1  0  0  0  0
 29  6  1  0  0  0  0
 29 30  1  0  0  0  0
 32 31  1  0  0  0  0
 33 32  1  0  0  0  0
 34 33  2  0  0  0  0
 35 33  1  0  0  0  0
 36 34  1  0  0  0  0
 37 36  1  0  0  0  0
 37 35  2  0  0  0  0
 38 36  1  0  0  0  0
 39 44  1  0  0  0  0
 39 38  2  0  0  0  0
 40 38  1  0  0  0  0
 41 39  1  0  0  0  0
 42 40  2  0  0  0  0
 43 41  2  0  0  0  0
 43 42  1  0  0  0  0
 44 46  1  6  0  0  0
 44 45  1  0  0  0  0
 47 48  1  0  0  0  0
 49 48  1  0  0  0  0
 49 50  1  0  0  0  0
 50 51  1  0  0  0  0
 51 52  1  0  0  0  0
M  END
>  <REMARK>
 VINA RESULT:    -4.821      0.000      0.000
 INTER + INTRA:         -15.430
 INTER:                  -8.709
 INTRA:                  -6.721
 UNBOUND:                -6.804
 SMILES CC(=O)N[C@@H]1[C@@H](O)C[C@](O)(C(=O)O)O[C@H]1C(O)[C@H](O)CNC(=O)OCc1cn(-c2ccccc2C(C)=O)nn1
 SMILES IDX 21 1 22 2 23 3 20 5 18 6 16 7 15 8 9 9 8 10 14 11 6 12 5 13
 SMILES IDX 10 14 11 16 12 17 13 18 7 20 4 22 2 23 1 25 3 26 17 27 19 29
 SMILES IDX 24 31 25 32 26 33 27 34 39 35 28 36 38 37 29 38 34 39 30 40
 SMILES IDX 33 41 31 42 32 43 35 44 37 45 36 46
 H PARENT 21 4 10 15 13 19 7 21 4 24 17 28 19 30
 Flexibility Score: inf
  4 active torsions:
  status: ('A' for Active; 'I' for Inactive)
    1  A    between atoms: CA   and  CB  
    2  A    between atoms: CB   and  CG  
    3  A    between atoms: CG   and  CD  
    4  A    between atoms: CD   and  CE  

>  <TORSDO>
F 16

>  <BEGIN_>
RES LYS A 131

$$$$
ligand_41_pose_0_2HRL.pdbqt
 OpenBabel07062320523D

  6  5  0  0  0  0  0  0  0  0999 V2000
   33.1930   34.6630    9.2900 C   0  0  0  0  0  0  0  0  0  0  0  0
   32.0600   35.3600   10.0340 C   0  0  0  0  0  0  0  0  0  0  0  0
   30.7010   34.7790    9.7420 C   0  0  0  0  0  0  0  0  0  0  0  0
   30.5410   34.5070    8.2550 C   0  0  0  0  0  0  0  0  0  0  0  0
   29.1500   34.8920    7.7890 C   0  0  0  0  0  0  0  0  0  0  0  0
   28.3170   35.3710    8.9260 N   0  0  0  0  0  0  0  0  0  0  0  0
  1  2  1  0  0  0  0
  3  2  1  0  0  0  0
  4  3  1  0  0  0  0
  5  4  1  0  0  0  0
  5  6  1  0  0  0  0
M  END
>  <EGIN_R>
ES LYS A 135

>  <REMARK>
  4 active torsions:
  status: ('A' for Active; 'I' for Inactive)
    5  A    between atoms: CA   and  CB  
    6  A    between atoms: CB   and  CG  
    7  A    between atoms: CG   and  CD  
    8  A    between atoms: CD   and  CE  

$$$$
ligand_42_pose_0_2HRL.pdbqt
 OpenBabel07062320523D

 52 54  0  0  1  0  0  0  0  0999 V2000
   30.2530   27.0330   21.3540 C   0  0  0  0  0  0  0  0  0  0  0  0
   31.5620   27.6930   21.0750 C   0  0  2  0  0  0  0  0  0  0  0  0
   31.3930   29.2140   20.9300 C   0  0  1  0  0  0  0  0  0  0  0  0
   32.6320   29.8480   21.4510 C   0  0  2  0  0  0  0  0  0  0  0  0
   34.2890   29.7470   23.0140 C   0  0  2  0  0  0  0  0  0  0  0  0
   34.7830   30.9000   22.1660 C   0  0  0  0  0  0  0  0  0  0  0  0
   33.1780   29.1220   22.5040 O   0  0  0  0  0  0  0  0  0  0  0  0
   33.7110   31.9500   21.9470 C   0  0  1  0  0  0  0  0  0  0  0  0
   32.3910   31.2580   21.9880 C   0  0  1  0  0  0  0  0  0  0  0  0
   34.0800   30.2650   24.2930 O   0  0  0  0  0  0  0  0  0  0  0  0
   34.8060   29.8880   24.8600 H   0  0  0  0  0  0  0  0  0  0  0  0
   35.3820   28.7490   23.0540 C   0  0  0  0  0  0  0  0  0  0  0  0
   36.5700   29.1430   23.1300 O   0  0  0  0  0  0  0  0  0  0  0  0
   35.1530   27.3840   23.0120 O   0  0  0  0  0  0  0  0  0  0  0  0
   34.6200   26.8830   23.7140 H   0  0  0  0  0  0  0  0  0  0  0  0
   33.8540   32.8690   23.0090 O   0  0  0  0  0  0  0  0  0  0  0  0
   33.2620   33.6340   22.8910 H   0  0  0  0  0  0  0  0  0  0  0  0
   31.3190   31.9300   21.3500 N   0  0  0  0  0  0  0  0  0  0  0  0
   30.5170   32.9660   21.8990 C   0  0  0  0  0  0  0  0  0  0  0  0
   31.0840   31.6460   20.3740 H   0  0  0  0  0  0  0  0  0  0  0  0
   29.4070   33.6110   21.1370 C   0  0  0  0  0  0  0  0  0  0  0  0
   30.7750   33.3300   23.0690 O   0  0  0  0  0  0  0  0  0  0  0  0
   31.1760   29.4830   19.6070 O   0  0  0  0  0  0  0  0  0  0  0  0
   31.8130   29.1620   18.9600 H   0  0  0  0  0  0  0  0  0  0  0  0
   32.1380   27.2230   19.9250 O   0  0  0  0  0  0  0  0  0  0  0  0
   32.4570   27.8940   19.2850 H   0  0  0  0  0  0  0  0  0  0  0  0
   29.3980   27.0310   20.2190 N   0  0  0  0  0  0  0  0  0  0  0  0
   28.1380   27.6510   20.1930 C   0  0  0  0  0  0  0  0  0  0  0  0
   29.6960   26.5420   19.3210 H   0  0  0  0  0  0  0  0  0  0  0  0
   27.6180   28.2570   21.1440 O   0  0  0  0  0  0  0  0  0  0  0  0
   27.3830   27.5980   19.0080 O   0  0  0  0  0  0  0  0  0  0  0  0
   26.7450   28.7520   18.5510 C   0  0  0  0  0  0  0  0  0  0  0  0
   27.6400   29.4590   17.6000 C   0  0  0  0  0  0  0  0  0  0  0  0
   28.4760   30.5300   17.8950 C   0  0  0  0  0  0  0  0  0  0  0  0
   27.8270   29.2220   16.2900 N   0  0  0  0  0  0  0  0  0  0  0  0
   29.1330   30.9070   16.7840 N   0  0  0  0  0  0  0  0  0  0  0  0
   28.7120   30.0890   15.8360 N   0  0  0  0  0  0  0  0  0  0  0  0
   30.0770   31.9670   16.6890 C   0  0  0  0  0  0  0  0  0  0  0  0
   30.7850   32.1730   15.5220 C   0  0  0  0  0  0  0  0  0  0  0  0
   30.3340   32.8310   17.7340 C   0  0  0  0  0  0  0  0  0  0  0  0
   31.7150   33.2060   15.4070 C   0  0  0  0  0  0  0  0  0  0  0  0
   31.2590   33.8700   17.6430 C   0  0  0  0  0  0  0  0  0  0  0  0
   31.9530   34.0540   16.4670 C   0  0  0  0  0  0  0  0  0  0  0  0
   31.6870   34.8520   18.5320 O   0  0  0  0  0  0  0  0  0  0  0  0
   32.7980   35.1590   16.6700 O   0  0  0  0  0  0  0  0  0  0  0  0
   32.9240   35.3730   18.0800 C   0  0  0  0  0  0  0  0  0  0  0  0
   29.8670   25.5550   16.9770 C   0  0  0  0  0  0  0  0  0  0  0  0
   28.3450   25.7220   17.0260 C   0  0  0  0  0  0  0  0  0  0  0  0
   27.6000   24.4160   16.7980 C   0  0  0  0  0  0  0  0  0  0  0  0
   26.9160   23.9290   18.0450 C   0  0  0  0  0  0  0  0  0  0  0  0
   25.5420   24.5820   18.1610 C   0  0  0  0  0  0  0  0  0  0  0  0
   24.7600   24.3680   16.9210 N   0  0  0  0  0  0  0  0  0  0  0  0
  2  1  1  6  0  0  0
  3 23  1  6  0  0  0
  3  2  1  0  0  0  0
  4  3  1  1  0  0  0
  4  9  1  0  0  0  0
  4  7  1  0  0  0  0
  5 12  1  1  0  0  0
  5 10  1  0  0  0  0
  6  5  1  0  0  0  0
  7  5  1  0  0  0  0
  8  9  1  0  0  0  0
  8  6  1  0  0  0  0
  8 16  1  1  0  0  0
  9 18  1  6  0  0  0
 10 11  1  0  0  0  0
 12 13  2  0  0  0  0
 14 12  1  0  0  0  0
 14 15  1  0  0  0  0
 17 16  1  0  0  0  0
 18 19  1  0  0  0  0
 19 22  2  0  0  0  0
 20 18  1  0  0  0  0
 21 19  1  0  0  0  0
 24 23  1  0  0  0  0
 25  2  1  0  0  0  0
 26 25  1  0  0  0  0
 27  1  1  0  0  0  0
 28 27  1  0  0  0  0
 28 30  2  0  0  0  0
 29 27  1  0  0  0  0
 31 28  1  0  0  0  0
 32 31  1  0  0  0  0
 33 34  2  0  0  0  0
 33 32  1  0  0  0  0
 35 33  1  0  0  0  0
 36 34  1  0  0  0  0
 37 35  2  0  0  0  0
 37 36  1  0  0  0  0
 38 36  1  0  0  0  0
 38 40  2  0  0  0  0
 39 38  1  0  0  0  0
 41 39  2  0  0  0  0
 41 43  1  0  0  0  0
 42 40  1  0  0  0  0
 42 44  1  0  0  0  0
 43 45  1  0  0  0  0
 43 42  2  0  0  0  0
 45 46  1  0  0  0  0
 46 44  1  0  0  0  0
 47 48  1  0  0  0  0
 49 48  1  0  0  0  0
 49 50  1  0  0  0  0
 50 51  1  0  0  0  0
 52 51  1  0  0  0  0
M  END
>  <REMARK>
 VINA RESULT:    -6.634      0.000      0.000
 INTER + INTRA:         -16.030
 INTER:                 -10.079
 INTRA:                  -5.951
 UNBOUND:                -4.548
 SMILES CC(=O)N[C@@H]1[C@@H](O)C[C@](O)(C(=O)O)O[C@H]1C(O)[C@H](O)CNC(=O)OCc1cn(-c2ccc3c(c2)OCO3)nn1
 SMILES IDX 20 1 18 2 16 3 15 4 9 5 8 6 14 7 6 8 5 9 10 10 11 12 12 13
 SMILES IDX 13 14 7 16 4 18 2 19 1 21 3 22 17 23 19 25 21 27 22 28 23 30
 SMILES IDX 24 31 25 32 26 33 27 34 39 35 28 36 38 37 29 38 30 39 34 40
 SMILES IDX 31 41 33 42 32 43 35 44 37 45 36 46
 H PARENT 10 11 13 15 7 17 4 20 17 24 19 26 21 29
 Flexibility Score: inf
  4 active torsions:
  status: ('A' for Active; 'I' for Inactive)
    1  A    between atoms: CA   and  CB  
    2  A    between atoms: CB   and  CG  
    3  A    between atoms: CG   and  CD  
    4  A    between atoms: CD   and  CE  

>  <TORSDO>
F 15

>  <BEGIN_>
RES LYS A 131

$$$$
ligand_42_pose_0_2HRL.pdbqt
 OpenBabel07062320523D

  6  5  0  0  0  0  0  0  0  0999 V2000
   33.1930   34.6630    9.2900 C   0  0  0  0  0  0  0  0  0  0  0  0
   32.0600   35.3600   10.0340 C   0  0  0  0  0  0  0  0  0  0  0  0
   30.7060   34.7520    9.7750 C   0  0  0  0  0  0  0  0  0  0  0  0
   30.4960   34.5210    8.2870 C   0  0  0  0  0  0  0  0  0  0  0  0
   29.0880   34.9110    7.8800 C   0  0  0  0  0  0  0  0  0  0  0  0
   28.7670   36.2970    8.3210 N   0  0  0  0  0  0  0  0  0  0  0  0
  1  2  1  0  0  0  0
  3  2  1  0  0  0  0
  4  3  1  0  0  0  0
  5  4  1  0  0  0  0
  5  6  1  0  0  0  0
M  END
>  <EGIN_R>
ES LYS A 135

>  <REMARK>
  4 active torsions:
  status: ('A' for Active; 'I' for Inactive)
    5  A    between atoms: CA   and  CB  
    6  A    between atoms: CB   and  CG  
    7  A    between atoms: CG   and  CD  
    8  A    between atoms: CD   and  CE  

$$$$
ligand_43_pose_0_2HRL.pdbqt
 OpenBabel07062320523D

 49 49  0  0  1  0  0  0  0  0999 V2000
   31.6870   36.2380   18.0290 O   0  0  0  0  0  0  0  0  0  0  0  0
   31.0310   35.0320   18.1910 C   0  0  0  0  0  0  0  0  0  0  0  0
   31.4750   33.9320   17.3850 N   0  0  0  0  0  0  0  0  0  0  0  0
   32.2610   34.0890   16.7240 H   0  0  0  0  0  0  0  0  0  0  0  0
   30.0730   34.8940   19.0180 O   0  0  0  0  0  0  0  0  0  0  0  0
   30.8710   32.6460   17.4710 C   0  0  0  0  0  0  0  0  0  0  0  0
   30.6390   31.9820   16.1120 C   0  0  2  0  0  0  0  0  0  0  0  0
   29.4260   32.6600   15.5270 C   0  0  2  0  0  0  0  0  0  0  0  0
   29.7240   33.5350   14.3540 C   0  0  2  0  0  0  0  0  0  0  0  0
   31.3230   35.1540   13.8950 C   0  0  2  0  0  0  0  0  0  0  0  0
   30.3920   35.5220   12.7590 C   0  0  0  0  0  0  0  0  0  0  0  0
   31.0520   33.8710   14.3380 O   0  0  0  0  0  0  0  0  0  0  0  0
   29.0170   35.7290   13.3520 C   0  0  1  0  0  0  0  0  0  0  0  0
   28.8270   34.7710   14.5050 C   0  0  1  0  0  0  0  0  0  0  0  0
   31.2620   36.0940   14.9190 O   0  0  0  0  0  0  0  0  0  0  0  0
   31.2820   37.0030   14.5460 H   0  0  0  0  0  0  0  0  0  0  0  0
   32.7040   35.1940   13.3490 C   0  0  0  0  0  0  0  0  0  0  0  0
   33.0220   35.9290   12.3790 O   0  0  0  0  0  0  0  0  0  0  0  0
   33.7410   34.4130   13.8860 O   0  0  0  0  0  0  0  0  0  0  0  0
   33.6230   34.0680   14.8350 H   0  0  0  0  0  0  0  0  0  0  0  0
   28.9340   37.0140   13.8550 O   0  0  0  0  0  0  0  0  0  0  0  0
   29.1130   37.6670   13.1340 H   0  0  0  0  0  0  0  0  0  0  0  0
   27.4540   34.3070   14.5970 N   0  0  0  0  0  0  0  0  0  0  0  0
   26.4200   35.0520   15.2330 C   0  0  0  0  0  0  0  0  0  0  0  0
   27.1510   33.3780   14.1900 H   0  0  0  0  0  0  0  0  0  0  0  0
   25.0120   34.5640   15.3230 C   0  0  0  0  0  0  0  0  0  0  0  0
   26.7490   36.1640   15.7300 O   0  0  0  0  0  0  0  0  0  0  0  0
   28.8250   33.3620   16.5850 O   0  0  0  0  0  0  0  0  0  0  0  0
   27.8450   33.4390   16.4640 H   0  0  0  0  0  0  0  0  0  0  0  0
   30.5160   30.6140   16.2290 O   0  0  0  0  0  0  0  0  0  0  0  0
   31.1150   30.1900   16.8650 H   0  0  0  0  0  0  0  0  0  0  0  0
   32.8720   36.5010   18.7320 C   0  0  0  0  0  0  0  0  0  0  0  0
   34.0040   36.2230   17.7880 C   0  0  0  0  0  0  0  0  0  0  0  0
   35.3290   36.1210   18.1810 C   0  0  0  0  0  0  0  0  0  0  0  0
   34.0000   36.0260   16.4700 N   0  0  0  0  0  0  0  0  0  0  0  0
   36.0740   35.8680   17.0970 N   0  0  0  0  0  0  0  0  0  0  0  0
   35.2430   35.8160   16.0740 N   0  0  0  0  0  0  0  0  0  0  0  0
   37.5130   35.6780   16.9860 C   0  0  0  0  0  0  0  0  0  0  0  0
   37.9170   35.6610   15.5360 C   0  0  0  0  0  0  0  0  0  0  0  0
   38.1340   34.2530   15.0400 C   0  0  0  0  0  0  0  0  0  0  0  0
   38.6730   34.2180   13.6340 C   0  0  0  0  0  0  0  0  0  0  0  0
   37.9810   33.1690   12.8510 C   0  0  0  0  0  0  0  0  0  0  0  0
   37.0480   33.4390   11.9650 C   0  0  0  0  0  0  0  0  0  0  0  0
   29.8670   25.5550   16.9770 C   0  0  0  0  0  0  0  0  0  0  0  0
   28.3450   25.7220   17.0260 C   0  0  0  0  0  0  0  0  0  0  0  0
   27.6010   24.4020   16.8930 C   0  0  0  0  0  0  0  0  0  0  0  0
   26.1470   24.5320   17.2540 C   0  0  0  0  0  0  0  0  0  0  0  0
   25.6220   23.1860   17.7430 C   0  0  0  0  0  0  0  0  0  0  0  0
   25.5300   23.1710   19.2220 N   0  0  0  0  0  0  0  0  0  0  0  0
  1  2  1  0  0  0  0
  1 32  1  0  0  0  0
  2  5  2  0  0  0  0
  3  6  1  0  0  0  0
  3  2  1  0  0  0  0
  4  3  1  0  0  0  0
  7 30  1  0  0  0  0
  7  6  1  1  0  0  0
  8  7  1  0  0  0  0
  8 28  1  1  0  0  0
  9 14  1  0  0  0  0
  9  8  1  1  0  0  0
 10 17  1  6  0  0  0
 10 12  1  0  0  0  0
 10 15  1  0  0  0  0
 11 13  1  0  0  0  0
 11 10  1  0  0  0  0
 12  9  1  0  0  0  0
 13 21  1  1  0  0  0
 13 14  1  0  0  0  0
 14 23  1  6  0  0  0
 16 15  1  0  0  0  0
 17 19  1  0  0  0  0
 18 17  2  0  0  0  0
 19 20  1  0  0  0  0
 22 21  1  0  0  0  0
 23 24  1  0  0  0  0
 24 26  1  0  0  0  0
 24 27  2  0  0  0  0
 25 23  1  0  0  0  0
 29 28  1  0  0  0  0
 30 31  1  0  0  0  0
 33 34  2  0  0  0  0
 33 32  1  0  0  0  0
 35 33  1  0  0  0  0
 36 34  1  0  0  0  0
 37 35  2  0  0  0  0
 37 36  1  0  0  0  0
 38 36  1  0  0  0  0
 39 38  1  0  0  0  0
 40 39  1  0  0  0  0
 41 40  1  0  0  0  0
 42 41  1  0  0  0  0
 43 42  2  0  0  0  0
 44 45  1  0  0  0  0
 46 45  1  0  0  0  0
 46 47  1  0  0  0  0
 47 48  1  0  0  0  0
 48 49  1  0  0  0  0
M  END
>  <REMARK>
 VINA RESULT:    -5.279      0.000      0.000
 INTER + INTRA:         -15.155
 INTER:                  -8.806
 INTRA:                  -6.350
 UNBOUND:                -4.785
 SMILES C=CCCCCn1cc(COC(=O)NC[C@@H](O)C(O)[C@@H]2O[C@@](O)(C(=O)O)C[C@H](O)[C@H]2NC(C)=O)nn1
 SMILES IDX 11 1 12 2 14 3 13 5 15 6 16 7 18 8 20 9 22 10 27 11 21 12
 SMILES IDX 28 13 30 14 23 15 24 17 25 18 26 19 29 21 31 23 32 24 33 26
 SMILES IDX 34 27 19 28 17 30 10 32 9 33 8 34 35 35 7 36 36 37 6 38 5 39
 SMILES IDX 4 40 3 41 2 42 1 43
 H PARENT 14 4 23 16 26 20 29 22 31 25 19 29 17 31
 Flexibility Score: inf
  4 active torsions:
  status: ('A' for Active; 'I' for Inactive)
    1  A    between atoms: CA   and  CB  
    2  A    between atoms: CB   and  CG  
    3  A    between atoms: CG   and  CD  
    4  A    between atoms: CD   and  CE  

>  <TORSDO>
F 19

>  <BEGIN_>
RES LYS A 131

$$$$
ligand_43_pose_0_2HRL.pdbqt
 OpenBabel07062320523D

  6  5  0  0  0  0  0  0  0  0999 V2000
   33.1930   34.6630    9.2900 C   0  0  0  0  0  0  0  0  0  0  0  0
   32.0600   35.3600   10.0340 C   0  0  0  0  0  0  0  0  0  0  0  0
   30.8670   35.6660    9.1650 C   0  0  0  0  0  0  0  0  0  0  0  0
   30.3150   34.3920    8.5450 C   0  0  0  0  0  0  0  0  0  0  0  0
   29.0250   33.9820    9.2290 C   0  0  0  0  0  0  0  0  0  0  0  0
   28.3090   35.1660    9.7780 N   0  0  0  0  0  0  0  0  0  0  0  0
  1  2  1  0  0  0  0
  3  2  1  0  0  0  0
  4  3  1  0  0  0  0
  4  5  1  0  0  0  0
  5  6  1  0  0  0  0
M  END
>  <EGIN_R>
ES LYS A 135

>  <REMARK>
  4 active torsions:
  status: ('A' for Active; 'I' for Inactive)
    5  A    between atoms: CA   and  CB  
    6  A    between atoms: CB   and  CG  
    7  A    between atoms: CG   and  CD  
    8  A    between atoms: CD   and  CE  

$$$$
ligand_44_pose_0_2HRL.pdbqt
 OpenBabel07062320523D

 51 52  0  0  1  0  0  0  0  0999 V2000
   29.1280   30.4770   16.7510 N   0  0  0  0  0  0  0  0  0  0  0  0
   28.3310   30.1060   17.8620 C   0  0  0  0  0  0  0  0  0  0  0  0
   28.5890   30.3410   19.0570 O   0  0  0  0  0  0  0  0  0  0  0  0
   28.8050   30.2260   15.7640 H   0  0  0  0  0  0  0  0  0  0  0  0
   30.3550   31.1820   16.9510 C   0  0  0  0  0  0  0  0  0  0  0  0
   30.2500   32.6830   16.8620 C   0  0  2  0  0  0  0  0  0  0  0  0
   30.1030   33.1870   15.4730 C   0  0  1  0  0  0  0  0  0  0  0  0
   30.1750   34.6420   15.2310 C   0  0  2  0  0  0  0  0  0  0  0  0
   29.1780   35.2000   13.2270 C   0  0  2  0  0  0  0  0  0  0  0  0
   29.7890   36.5810   13.1650 C   0  0  0  0  0  0  0  0  0  0  0  0
   28.9740   34.9620   14.5770 O   0  0  0  0  0  0  0  0  0  0  0  0
   31.1270   36.4840   13.8150 C   0  0  1  0  0  0  0  0  0  0  0  0
   31.3700   35.2180   14.6130 C   0  0  1  0  0  0  0  0  0  0  0  0
   30.0490   34.3300   12.6110 O   0  0  0  0  0  0  0  0  0  0  0  0
   29.8330   34.1230   11.6820 H   0  0  0  0  0  0  0  0  0  0  0  0
   27.8600   35.2640   12.5520 C   0  0  0  0  0  0  0  0  0  0  0  0
   26.8880   34.5480   12.8790 O   0  0  0  0  0  0  0  0  0  0  0  0
   27.7270   36.1720   11.5060 O   0  0  0  0  0  0  0  0  0  0  0  0
   28.2860   37.0060   11.4260 H   0  0  0  0  0  0  0  0  0  0  0  0
   32.0880   36.4890   12.7780 O   0  0  0  0  0  0  0  0  0  0  0  0
   31.6770   36.6220   11.9010 H   0  0  0  0  0  0  0  0  0  0  0  0
   32.3390   35.6790   15.6320 N   0  0  0  0  0  0  0  0  0  0  0  0
   33.7220   35.4980   15.5140 C   0  0  0  0  0  0  0  0  0  0  0  0
   31.8990   36.1550   16.4570 H   0  0  0  0  0  0  0  0  0  0  0  0
   34.6150   35.9940   16.6030 C   0  0  0  0  0  0  0  0  0  0  0  0
   34.2050   34.9350   14.5210 O   0  0  0  0  0  0  0  0  0  0  0  0
   30.8250   32.3770   14.6100 O   0  0  0  0  0  0  0  0  0  0  0  0
   31.4440   32.9410   14.0640 H   0  0  0  0  0  0  0  0  0  0  0  0
   31.1720   33.3750   17.6300 O   0  0  0  0  0  0  0  0  0  0  0  0
   32.0340   32.9200   17.7130 H   0  0  0  0  0  0  0  0  0  0  0  0
   27.1450   29.4160   17.6140 O   0  0  0  0  0  0  0  0  0  0  0  0
   25.8900   30.0130   17.8330 C   0  0  0  0  0  0  0  0  0  0  0  0
   25.4570   30.8240   16.6800 C   0  0  0  0  0  0  0  0  0  0  0  0
   25.4330   30.5390   15.3350 C   0  0  0  0  0  0  0  0  0  0  0  0
   24.9830   32.0830   16.8270 N   0  0  0  0  0  0  0  0  0  0  0  0
   24.9460   31.6330   14.7070 N   0  0  0  0  0  0  0  0  0  0  0  0
   24.6890   32.5340   15.6370 N   0  0  0  0  0  0  0  0  0  0  0  0
   24.7570   31.7510   13.2760 C   0  0  0  0  0  0  0  0  0  0  0  0
   23.5080   30.9980   12.9250 C   0  0  0  0  0  0  0  0  0  0  0  0
   23.5860   29.6320   12.6940 C   0  0  0  0  0  0  0  0  0  0  0  0
   22.3080   31.6690   12.8400 C   0  0  0  0  0  0  0  0  0  0  0  0
   22.4330   28.9640   12.3750 C   0  0  0  0  0  0  0  0  0  0  0  0
   21.1330   30.9900   12.5160 C   0  0  0  0  0  0  0  0  0  0  0  0
   21.2370   29.6400   12.2920 C   0  0  0  0  0  0  0  0  0  0  0  0
   19.6440   28.6810   11.8460 Br  0  0  0  0  0  0  0  0  0  0  0  0
   29.8670   25.5550   16.9770 C   0  0  0  0  0  0  0  0  0  0  0  0
   28.3450   25.7220   17.0260 C   0  0  0  0  0  0  0  0  0  0  0  0
   27.6020   24.3990   16.9220 C   0  0  0  0  0  0  0  0  0  0  0  0
   26.1470   24.5370   17.2770 C   0  0  0  0  0  0  0  0  0  0  0  0
   25.9960   25.5310   18.4240 C   0  0  0  0  0  0  0  0  0  0  0  0
   24.8740   26.4620   18.1590 N   0  0  0  0  0  0  0  0  0  0  0  0
  1  5  1  0  0  0  0
  1  2  1  0  0  0  0
  2  3  2  0  0  0  0
  4  1  1  0  0  0  0
  6  5  1  6  0  0  0
  6 29  1  0  0  0  0
  7 27  1  6  0  0  0
  7  6  1  0  0  0  0
  8  7  1  6  0  0  0
  9 16  1  6  0  0  0
  9 11  1  0  0  0  0
 10  9  1  0  0  0  0
 10 12  1  0  0  0  0
 11  8  1  0  0  0  0
 12 20  1  6  0  0  0
 12 13  1  0  0  0  0
 13  8  1  0  0  0  0
 13 22  1  1  0  0  0
 14  9  1  0  0  0  0
 15 14  1  0  0  0  0
 16 17  2  0  0  0  0
 18 16  1  0  0  0  0
 19 18  1  0  0  0  0
 21 20  1  0  0  0  0
 22 24  1  0  0  0  0
 23 22  1  0  0  0  0
 23 25  1  0  0  0  0
 26 23  2  0  0  0  0
 28 27  1  0  0  0  0
 29 30  1  0  0  0  0
 31 32  1  0  0  0  0
 31  2  1  0  0  0  0
 33 35  1  0  0  0  0
 33 32  1  0  0  0  0
 34 33  2  0  0  0  0
 36 34  1  0  0  0  0
 36 37  1  0  0  0  0
 37 35  2  0  0  0  0
 38 36  1  0  0  0  0
 39 38  1  0  0  0  0
 40 39  2  0  0  0  0
 41 39  1  0  0  0  0
 42 40  1  0  0  0  0
 43 41  2  0  0  0  0
 44 42  2  0  0  0  0
 44 43  1  0  0  0  0
 45 44  1  0  0  0  0
 46 47  1  0  0  0  0
 48 47  1  0  0  0  0
 48 49  1  0  0  0  0
 49 50  1  0  0  0  0
 51 50  1  0  0  0  0
M  END
>  <REMARK>
 VINA RESULT:    -4.865      0.000      0.000
 INTER + INTRA:         -15.102
 INTER:                  -9.939
 INTRA:                  -5.163
 UNBOUND:                -6.398
 SMILES CC(=O)N[C@@H]1[C@@H](O)C[C@](O)(C(=O)O)O[C@H]1C(O)[C@H](O)CNC(=O)OCc1cn(Cc2ccc(Br)cc2)nn1
 SMILES IDX 21 1 22 2 23 3 20 5 18 6 16 7 15 8 9 9 8 10 14 11 6 12 5 13
 SMILES IDX 10 14 11 16 12 17 13 18 7 20 4 22 2 23 1 25 3 26 17 27 19 29
 SMILES IDX 24 31 25 32 26 33 27 34 38 35 28 36 37 37 29 38 30 39 31 40
 SMILES IDX 36 41 32 42 35 43 33 44 34 45
 H PARENT 21 4 10 15 13 19 7 21 4 24 17 28 19 30
 Flexibility Score: inf
  4 active torsions:
  status: ('A' for Active; 'I' for Inactive)
    1  A    between atoms: CA   and  CB  
    2  A    between atoms: CB   and  CG  
    3  A    between atoms: CG   and  CD  
    4  A    between atoms: CD   and  CE  

>  <TORSDO>
F 16

>  <BEGIN_>
RES LYS A 131

$$$$
ligand_44_pose_0_2HRL.pdbqt
 OpenBabel07062320523D

  6  5  0  0  0  0  0  0  0  0999 V2000
   33.1930   34.6630    9.2900 C   0  0  0  0  0  0  0  0  0  0  0  0
   32.0600   35.3600   10.0340 C   0  0  0  0  0  0  0  0  0  0  0  0
   30.7960   35.4870    9.2240 C   0  0  0  0  0  0  0  0  0  0  0  0
   30.0730   34.1510    9.1440 C   0  0  0  0  0  0  0  0  0  0  0  0
   28.6490   34.3430    8.6600 C   0  0  0  0  0  0  0  0  0  0  0  0
   27.6930   33.5380    9.4690 N   0  0  0  0  0  0  0  0  0  0  0  0
  1  2  1  0  0  0  0
  3  2  1  0  0  0  0
  4  3  1  0  0  0  0
  5  4  1  0  0  0  0
  5  6  1  0  0  0  0
M  END
>  <EGIN_R>
ES LYS A 135

>  <REMARK>
  4 active torsions:
  status: ('A' for Active; 'I' for Inactive)
    5  A    between atoms: CA   and  CB  
    6  A    between atoms: CB   and  CG  
    7  A    between atoms: CG   and  CD  
    8  A    between atoms: CD   and  CE  

$$$$
ligand_45_pose_0_2HRL.pdbqt
 OpenBabel07062320523D

 52 52  0  0  1  0  0  0  0  0999 V2000
   27.2230   28.3730   18.6840 O   0  0  0  0  0  0  0  0  0  0  0  0
   27.9590   28.1700   19.8340 C   0  0  0  0  0  0  0  0  0  0  0  0
   29.1420   27.3640   19.8500 N   0  0  0  0  0  0  0  0  0  0  0  0
   29.4180   26.9530   18.9520 H   0  0  0  0  0  0  0  0  0  0  0  0
   27.5750   28.7090   20.8970 O   0  0  0  0  0  0  0  0  0  0  0  0
   29.8430   27.2020   21.0700 C   0  0  0  0  0  0  0  0  0  0  0  0
   31.2170   27.7800   21.1380 C   0  0  2  0  0  0  0  0  0  0  0  0
   31.3130   29.2560   20.9070 C   0  0  1  0  0  0  0  0  0  0  0  0
   32.5480   29.9060   21.4550 C   0  0  2  0  0  0  0  0  0  0  0  0
   34.2170   29.6150   23.0100 C   0  0  2  0  0  0  0  0  0  0  0  0
   34.7820   30.7660   22.2000 C   0  0  0  0  0  0  0  0  0  0  0  0
   33.0520   29.1270   22.4680 O   0  0  0  0  0  0  0  0  0  0  0  0
   33.7990   31.8930   22.1250 C   0  0  1  0  0  0  0  0  0  0  0  0
   32.3990   31.3190   21.8990 C   0  0  1  0  0  0  0  0  0  0  0  0
   33.9320   30.1160   24.2930 O   0  0  0  0  0  0  0  0  0  0  0  0
   33.1560   30.7240   24.1780 H   0  0  0  0  0  0  0  0  0  0  0  0
   35.2250   28.5510   23.1350 C   0  0  0  0  0  0  0  0  0  0  0  0
   36.4360   28.8400   23.3440 O   0  0  0  0  0  0  0  0  0  0  0  0
   34.8870   27.2170   23.0310 O   0  0  0  0  0  0  0  0  0  0  0  0
   34.2430   26.7910   23.6700 H   0  0  0  0  0  0  0  0  0  0  0  0
   33.8450   32.6090   23.3290 O   0  0  0  0  0  0  0  0  0  0  0  0
   33.1790   33.3300   23.3060 H   0  0  0  0  0  0  0  0  0  0  0  0
   31.8290   32.1640   20.8450 N   0  0  0  0  0  0  0  0  0  0  0  0
   31.2520   33.4170   21.1640 C   0  0  0  0  0  0  0  0  0  0  0  0
   31.8550   31.8270   19.8560 H   0  0  0  0  0  0  0  0  0  0  0  0
   30.6710   34.2670   20.0770 C   0  0  0  0  0  0  0  0  0  0  0  0
   31.1970   33.8760   22.3460 O   0  0  0  0  0  0  0  0  0  0  0  0
   31.1980   29.5080   19.5310 O   0  0  0  0  0  0  0  0  0  0  0  0
   31.8650   28.9270   19.0710 H   0  0  0  0  0  0  0  0  0  0  0  0
   31.9930   27.0920   20.1800 O   0  0  0  0  0  0  0  0  0  0  0  0
   31.6400   26.2010   19.9840 H   0  0  0  0  0  0  0  0  0  0  0  0
   26.9110   29.7030   18.2940 C   0  0  0  0  0  0  0  0  0  0  0  0
   28.1490   30.4180   17.9050 C   0  0  0  0  0  0  0  0  0  0  0  0
   28.7340   30.5620   16.6670 C   0  0  0  0  0  0  0  0  0  0  0  0
   28.9640   31.0880   18.7470 N   0  0  0  0  0  0  0  0  0  0  0  0
   29.8610   31.2940   16.7720 N   0  0  0  0  0  0  0  0  0  0  0  0
   29.9630   31.5930   18.0500 N   0  0  0  0  0  0  0  0  0  0  0  0
   30.7820   31.6850   15.7550 C   0  0  0  0  0  0  0  0  0  0  0  0
   31.5210   32.9340   16.0520 C   0  0  0  0  0  0  0  0  0  0  0  0
   31.4870   34.0270   15.0670 C   0  0  0  0  0  0  0  0  0  0  0  0
   32.5120   34.9880   15.0160 N   0  0  0  0  0  0  0  0  0  0  0  0
   33.7010   34.6380   14.2860 C   0  0  0  0  0  0  0  0  0  0  0  0
   31.9500   36.1370   14.2770 C   0  0  0  0  0  0  0  0  0  0  0  0
   31.1220   35.7670   13.1080 C   0  0  0  0  0  0  0  0  0  0  0  0
   32.9030   35.4960   16.3010 C   0  0  0  0  0  0  0  0  0  0  0  0
   32.0010   36.5270   16.8740 C   0  0  0  0  0  0  0  0  0  0  0  0
   29.8670   25.5550   16.9770 C   0  0  0  0  0  0  0  0  0  0  0  0
   28.3450   25.7220   17.0260 C   0  0  0  0  0  0  0  0  0  0  0  0
   27.6010   24.4010   16.9020 C   0  0  0  0  0  0  0  0  0  0  0  0
   26.5820   24.2200   17.9920 C   0  0  0  0  0  0  0  0  0  0  0  0
   25.5230   23.2200   17.5380 C   0  0  0  0  0  0  0  0  0  0  0  0
   24.3840   23.9230   16.9020 N   0  0  0  0  0  0  0  0  0  0  0  0
  1  2  1  0  0  0  0
  2  3  1  0  0  0  0
  2  5  2  0  0  0  0
  3  6  1  0  0  0  0
  4  3  1  0  0  0  0
  7  6  1  6  0  0  0
  8 28  1  6  0  0  0
  8  7  1  0  0  0  0
  9  8  1  1  0  0  0
  9 14  1  0  0  0  0
  9 12  1  0  0  0  0
 10 17  1  1  0  0  0
 10 15  1  0  0  0  0
 11 10  1  0  0  0  0
 12 10  1  0  0  0  0
 13 11  1  0  0  0  0
 13 21  1  1  0  0  0
 14 23  1  6  0  0  0
 14 13  1  0  0  0  0
 16 15  1  0  0  0  0
 17 18  2  0  0  0  0
 19 17  1  0  0  0  0
 19 20  1  0  0  0  0
 22 21  1  0  0  0  0
 23 24  1  0  0  0  0
 24 27  2  0  0  0  0
 25 23  1  0  0  0  0
 26 24  1  0  0  0  0
 29 28  1  0  0  0  0
 30  7  1  0  0  0  0
 31 30  1  0  0  0  0
 32  1  1  0  0  0  0
 33 32  1  0  0  0  0
 33 35  1  0  0  0  0
 34 36  1  0  0  0  0
 34 33  2  0  0  0  0
 36 37  1  0  0  0  0
 37 35  2  0  0  0  0
 38 39  1  0  0  0  0
 38 36  1  0  0  0  0
 40 39  1  0  0  0  0
 41 40  1  0  0  0  0
 41 45  1  0  0  0  0
 42 41  1  0  0  0  0
 43 41  1  0  0  0  0
 44 43  1  0  0  0  0
 45 46  1  0  0  0  0
 47 48  1  0  0  0  0
 49 48  1  0  0  0  0
 49 50  1  0  0  0  0
 51 50  1  0  0  0  0
 52 51  1  0  0  0  0
M  END
>  <REMARK>
 VINA RESULT:    -4.861      0.000      0.000
 INTER + INTRA:         -15.708
 INTER:                  -9.139
 INTRA:                  -6.569
 UNBOUND:                -5.875
 SMILES CC[N+](C)(CC)CCCn1cc(COC(=O)NC[C@@H](O)C(O)[C@@H]2O[C@@](O)(C(=O)O)C[C@H](O)[C@H]2NC(C)=O)nn1
 SMILES IDX 14 1 15 2 17 3 16 5 18 6 19 7 21 8 23 9 25 10 30 11 24 12
 SMILES IDX 31 13 33 14 26 15 27 17 28 18 29 19 32 21 34 23 35 24 36 26
 SMILES IDX 37 27 22 28 20 30 13 32 12 33 11 34 38 35 10 36 39 37 9 38
 SMILES IDX 8 39 7 40 3 41 4 42 2 43 1 44 5 45 6 46
 H PARENT 17 4 26 16 29 20 32 22 34 25 22 29 20 31
 Flexibility Score: inf
  4 active torsions:
  status: ('A' for Active; 'I' for Inactive)
    1  A    between atoms: CA   and  CB  
    2  A    between atoms: CB   and  CG  
    3  A    between atoms: CG   and  CD  
    4  A    between atoms: CD   and  CE  

>  <TORSDO>
F 20

>  <BEGIN_>
RES LYS A 131

$$$$
ligand_45_pose_0_2HRL.pdbqt
 OpenBabel07062320523D

  6  5  0  0  0  0  0  0  0  0999 V2000
   33.1930   34.6630    9.2900 C   0  0  0  0  0  0  0  0  0  0  0  0
   32.0600   35.3600   10.0340 C   0  0  0  0  0  0  0  0  0  0  0  0
   30.7910   35.4740    9.2290 C   0  0  0  0  0  0  0  0  0  0  0  0
   30.1310   34.1130    9.0720 C   0  0  0  0  0  0  0  0  0  0  0  0
   28.6680   34.2690    8.7060 C   0  0  0  0  0  0  0  0  0  0  0  0
   28.5010   35.1800    7.5390 N   0  0  0  0  0  0  0  0  0  0  0  0
  1  2  1  0  0  0  0
  3  2  1  0  0  0  0
  4  3  1  0  0  0  0
  5  4  1  0  0  0  0
  6  5  1  0  0  0  0
M  END
>  <EGIN_R>
ES LYS A 135

>  <REMARK>
  4 active torsions:
  status: ('A' for Active; 'I' for Inactive)
    5  A    between atoms: CA   and  CB  
    6  A    between atoms: CB   and  CG  
    7  A    between atoms: CG   and  CD  
    8  A    between atoms: CD   and  CE  

$$$$
ligand_46_pose_0_2HRL.pdbqt
 OpenBabel07062320523D

 50 51  0  0  1  0  0  0  0  0999 V2000
   24.9230   41.0810    6.9440 N   0  0  0  0  0  0  0  0  0  0  0  0
   25.6840   41.4920    5.8310 C   0  0  0  0  0  0  0  0  0  0  0  0
   25.1860   41.6400    4.7040 O   0  0  0  0  0  0  0  0  0  0  0  0
   25.4550   40.9940    7.8490 H   0  0  0  0  0  0  0  0  0  0  0  0
   23.5240   40.7950    6.8740 C   0  0  0  0  0  0  0  0  0  0  0  0
   23.1910   39.6440    7.7950 C   0  0  2  0  0  0  0  0  0  0  0  0
   23.6140   38.3280    7.2070 C   0  0  2  0  0  0  0  0  0  0  0  0
   23.0360   37.1330    7.9270 C   0  0  2  0  0  0  0  0  0  0  0  0
   20.8550   36.5100    8.4900 C   0  0  2  0  0  0  0  0  0  0  0  0
   21.5240   35.4740    9.4070 C   0  0  0  0  0  0  0  0  0  0  0  0
   21.7710   36.8240    7.5310 O   0  0  0  0  0  0  0  0  0  0  0  0
   22.4820   36.3120   10.2520 C   0  0  1  0  0  0  0  0  0  0  0  0
   23.2890   37.2540    9.3890 C   0  0  1  0  0  0  0  0  0  0  0  0
   20.3730   37.5690    9.2290 O   0  0  0  0  0  0  0  0  0  0  0  0
   19.6050   37.2600    9.7550 H   0  0  0  0  0  0  0  0  0  0  0  0
   19.7240   35.7890    7.8040 C   0  0  0  0  0  0  0  0  0  0  0  0
   18.5780   36.2800    7.7410 O   0  0  0  0  0  0  0  0  0  0  0  0
   19.9400   34.5540    7.2240 O   0  0  0  0  0  0  0  0  0  0  0  0
   19.6190   33.7310    7.7080 H   0  0  0  0  0  0  0  0  0  0  0  0
   21.6790   37.0040   11.1590 O   0  0  0  0  0  0  0  0  0  0  0  0
   21.7130   37.9630   10.9520 H   0  0  0  0  0  0  0  0  0  0  0  0
   24.7260   36.9910    9.5920 N   0  0  0  0  0  0  0  0  0  0  0  0
   25.5140   37.7260   10.5110 C   0  0  0  0  0  0  0  0  0  0  0  0
   25.1950   36.2240    9.0300 H   0  0  0  0  0  0  0  0  0  0  0  0
   26.9600   37.4990   10.7490 C   0  0  0  0  0  0  0  0  0  0  0  0
   24.9530   38.6340   11.1730 O   0  0  0  0  0  0  0  0  0  0  0  0
   24.9920   38.2870    7.1250 O   0  0  0  0  0  0  0  0  0  0  0  0
   25.2470   38.2690    6.1720 H   0  0  0  0  0  0  0  0  0  0  0  0
   21.8140   39.7140    8.0050 O   0  0  0  0  0  0  0  0  0  0  0  0
   21.3260   40.0780    7.2330 H   0  0  0  0  0  0  0  0  0  0  0  0
   27.0480   41.7510    5.9640 O   0  0  0  0  0  0  0  0  0  0  0  0
   27.9800   40.9200    5.3160 C   0  0  0  0  0  0  0  0  0  0  0  0
   28.0150   39.5640    5.9150 C   0  0  0  0  0  0  0  0  0  0  0  0
   28.1970   38.3870    5.2410 C   0  0  0  0  0  0  0  0  0  0  0  0
   27.8720   39.2640    7.2100 N   0  0  0  0  0  0  0  0  0  0  0  0
   28.1590   37.3970    6.1480 N   0  0  0  0  0  0  0  0  0  0  0  0
   27.9590   37.9640    7.3430 N   0  0  0  0  0  0  0  0  0  0  0  0
   28.3000   35.9780    5.9430 C   0  0  0  0  0  0  0  0  0  0  0  0
   28.3010   35.2470    7.2390 C   0  0  0  0  0  0  0  0  0  0  0  0
   29.4890   34.8960    7.8690 C   0  0  0  0  0  0  0  0  0  0  0  0
   27.1370   34.8850    7.8700 C   0  0  0  0  0  0  0  0  0  0  0  0
   29.4830   34.2200    9.0640 C   0  0  0  0  0  0  0  0  0  0  0  0
   27.1200   34.2040    9.0750 C   0  0  0  0  0  0  0  0  0  0  0  0
   28.3050   33.8650    9.6860 C   0  0  0  0  0  0  0  0  0  0  0  0
   29.8670   25.5550   16.9770 C   0  0  0  0  0  0  0  0  0  0  0  0
   28.3450   25.7220   17.0260 C   0  0  0  0  0  0  0  0  0  0  0  0
   27.6000   24.4080   16.8460 C   0  0  0  0  0  0  0  0  0  0  0  0
   26.7300   24.0840   18.0290 C   0  0  0  0  0  0  0  0  0  0  0  0
   25.7720   25.2410   18.2880 C   0  0  0  0  0  0  0  0  0  0  0  0
   25.8880   25.7070   19.6900 N   0  0  0  0  0  0  0  0  0  0  0  0
  1  4  1  0  0  0  0
  2 31  1  0  0  0  0
  2  1  1  0  0  0  0
  3  2  2  0  0  0  0
  5  1  1  0  0  0  0
  6  5  1  6  0  0  0
  6 29  1  0  0  0  0
  7 27  1  1  0  0  0
  7  6  1  0  0  0  0
  8  7  1  6  0  0  0
  8 13  1  0  0  0  0
  9 16  1  6  0  0  0
  9 14  1  0  0  0  0
  9 10  1  0  0  0  0
 10 12  1  0  0  0  0
 11  8  1  0  0  0  0
 11  9  1  0  0  0  0
 12 20  1  1  0  0  0
 13 22  1  6  0  0  0
 13 12  1  0  0  0  0
 14 15  1  0  0  0  0
 17 16  2  0  0  0  0
 18 19  1  0  0  0  0
 18 16  1  0  0  0  0
 21 20  1  0  0  0  0
 22 23  1  0  0  0  0
 23 25  1  0  0  0  0
 23 26  2  0  0  0  0
 24 22  1  0  0  0  0
 28 27  1  0  0  0  0
 30 29  1  0  0  0  0
 32 33  1  0  0  0  0
 32 31  1  0  0  0  0
 33 35  1  0  0  0  0
 34 33  2  0  0  0  0
 34 36  1  0  0  0  0
 35 37  2  0  0  0  0
 36 37  1  0  0  0  0
 38 36  1  0  0  0  0
 38 39  1  0  0  0  0
 39 40  2  0  0  0  0
 39 41  1  0  0  0  0
 40 42  1  0  0  0  0
 41 43  2  0  0  0  0
 42 44  2  0  0  0  0
 43 44  1  0  0  0  0
 45 46  1  0  0  0  0
 47 46  1  0  0  0  0
 47 48  1  0  0  0  0
 48 49  1  0  0  0  0
 49 50  1  0  0  0  0
M  END
>  <REMARK>
 VINA RESULT:    -5.754      0.000      0.000
 INTER + INTRA:         -15.585
 INTER:                 -10.541
 INTRA:                  -5.043
 UNBOUND:                -5.290
 SMILES CC(=O)N[C@@H]1[C@@H](O)C[C@](O)(C(=O)O)O[C@H]1C(O)[C@H](O)CNC(=O)OCc1cn(Cc2ccccc2)nn1
 SMILES IDX 21 1 22 2 23 3 20 5 18 6 16 7 15 8 9 9 8 10 14 11 6 12 5 13
 SMILES IDX 10 14 11 16 12 17 13 18 7 20 4 22 2 23 1 25 3 26 17 27 19 29
 SMILES IDX 24 31 25 32 26 33 27 34 37 35 28 36 36 37 29 38 30 39 31 40
 SMILES IDX 35 41 32 42 34 43 33 44
 H PARENT 21 4 10 15 13 19 7 21 4 24 17 28 19 30
 Flexibility Score: inf
  4 active torsions:
  status: ('A' for Active; 'I' for Inactive)
    1  A    between atoms: CA   and  CB  
    2  A    between atoms: CB   and  CG  
    3  A    between atoms: CG   and  CD  
    4  A    between atoms: CD   and  CE  

>  <TORSDO>
F 16

>  <BEGIN_>
RES LYS A 131

$$$$
ligand_46_pose_0_2HRL.pdbqt
 OpenBabel07062320523D

  6  5  0  0  0  0  0  0  0  0999 V2000
   33.1930   34.6630    9.2900 C   0  0  0  0  0  0  0  0  0  0  0  0
   32.0600   35.3600   10.0340 C   0  0  0  0  0  0  0  0  0  0  0  0
   32.3790   35.6550   11.4770 C   0  0  0  0  0  0  0  0  0  0  0  0
   32.2450   37.1430   11.7630 C   0  0  0  0  0  0  0  0  0  0  0  0
   31.2690   37.7850   10.7960 C   0  0  0  0  0  0  0  0  0  0  0  0
   31.9140   38.8960   10.0410 N   0  0  0  0  0  0  0  0  0  0  0  0
  1  2  1  0  0  0  0
  2  3  1  0  0  0  0
  3  4  1  0  0  0  0
  5  4  1  0  0  0  0
  6  5  1  0  0  0  0
M  END
>  <EGIN_R>
ES LYS A 135

>  <REMARK>
  4 active torsions:
  status: ('A' for Active; 'I' for Inactive)
    5  A    between atoms: CA   and  CB  
    6  A    between atoms: CB   and  CG  
    7  A    between atoms: CG   and  CD  
    8  A    between atoms: CD   and  CE  

$$$$
ligand_47_pose_0_2HRL.pdbqt
 OpenBabel07062320523D

 62 64  0  0  1  0  0  0  0  0999 V2000
   31.3700   33.0740   15.8180 N   0  0  0  0  0  0  0  0  0  0  0  0
   32.2090   34.2160   15.7530 C   0  0  0  0  0  0  0  0  0  0  0  0
   32.2330   35.0320   16.7200 O   0  0  0  0  0  0  0  0  0  0  0  0
   31.4070   32.4400   14.9660 H   0  0  0  0  0  0  0  0  0  0  0  0
   30.5210   32.7730   16.9450 C   0  0  0  0  0  0  0  0  0  0  0  0
   29.1010   32.3910   16.5240 C   0  0  2  0  0  0  0  0  0  0  0  0
   29.1870   31.0020   15.9700 C   0  0  2  0  0  0  0  0  0  0  0  0
   28.0240   30.1320   16.3510 C   0  0  2  0  0  0  0  0  0  0  0  0
   25.7060   30.1670   16.3330 C   0  0  2  0  0  0  0  0  0  0  0  0
   25.7930   28.8620   17.0830 C   0  0  0  0  0  0  0  0  0  0  0  0
   26.8760   30.5810   15.7600 O   0  0  0  0  0  0  0  0  0  0  0  0
   26.9140   28.8170   18.0630 C   0  0  1  0  0  0  0  0  0  0  0  0
   27.8220   30.0260   17.8440 C   0  0  1  0  0  0  0  0  0  0  0  0
   25.2090   31.1300   17.2170 O   0  0  0  0  0  0  0  0  0  0  0  0
   25.8530   31.3010   17.9570 H   0  0  0  0  0  0  0  0  0  0  0  0
   24.7040   29.9810   15.2560 C   0  0  0  0  0  0  0  0  0  0  0  0
   23.5660   29.5390   15.5450 O   0  0  0  0  0  0  0  0  0  0  0  0
   24.9860   30.2820   13.9400 O   0  0  0  0  0  0  0  0  0  0  0  0
   24.2150   30.4090   13.2700 H   0  0  0  0  0  0  0  0  0  0  0  0
   26.5370   28.6740   19.3750 O   0  0  0  0  0  0  0  0  0  0  0  0
   25.5900   28.3850   19.4440 H   0  0  0  0  0  0  0  0  0  0  0  0
   29.0890   29.8230   18.5330 N   0  0  0  0  0  0  0  0  0  0  0  0
   29.3630   30.5970   19.6850 C   0  0  0  0  0  0  0  0  0  0  0  0
   29.7510   29.1220   18.1670 H   0  0  0  0  0  0  0  0  0  0  0  0
   30.6330   30.4320   20.4240 C   0  0  0  0  0  0  0  0  0  0  0  0
   28.5300   31.4410   20.0990 O   0  0  0  0  0  0  0  0  0  0  0  0
   30.4150   30.4410   16.2560 O   0  0  0  0  0  0  0  0  0  0  0  0
   30.3570   29.6890   16.9100 H   0  0  0  0  0  0  0  0  0  0  0  0
   28.7390   33.3110   15.5240 O   0  0  0  0  0  0  0  0  0  0  0  0
   29.5940   33.4920   15.0320 H   0  0  0  0  0  0  0  0  0  0  0  0
   33.0060   34.4610   14.6520 O   0  0  0  0  0  0  0  0  0  0  0  0
   32.6180   35.4010   13.6420 C   0  0  0  0  0  0  0  0  0  0  0  0
   31.1800   35.2630   13.3220 C   0  0  0  0  0  0  0  0  0  0  0  0
   30.2720   36.3260   13.2020 C   0  0  0  0  0  0  0  0  0  0  0  0
   30.4420   34.1720   13.0860 N   0  0  0  0  0  0  0  0  0  0  0  0
   29.0580   35.8620   12.9060 N   0  0  0  0  0  0  0  0  0  0  0  0
   29.1910   34.5170   12.8380 N   0  0  0  0  0  0  0  0  0  0  0  0
   27.7940   36.4930   12.6570 C   0  0  0  0  0  0  0  0  0  0  0  0
   26.5750   35.6690   12.9070 C   0  0  1  0  0  0  0  0  0  0  0  0
   26.0090   35.9370   14.2290 C   0  0  0  0  0  0  0  0  0  0  0  0
   25.2980   36.9090   14.5380 O   0  0  0  0  0  0  0  0  0  0  0  0
   26.2660   35.0380   15.2870 O   0  0  0  0  0  0  0  0  0  0  0  0
   25.5480   34.3510   15.5320 H   0  0  0  0  0  0  0  0  0  0  0  0
   25.5480   35.8250   11.7990 C   0  0  0  0  0  0  0  0  0  0  0  0
   24.3540   34.9820   12.0410 C   0  0  0  0  0  0  0  0  0  0  0  0
   24.4600   33.7270   12.6530 C   0  0  0  0  0  0  0  0  0  0  0  0
   23.0840   35.3880   11.6790 C   0  0  0  0  0  0  0  0  0  0  0  0
   23.3500   32.9430   12.8790 C   0  0  0  0  0  0  0  0  0  0  0  0
   21.9690   34.6200   11.8970 C   0  0  0  0  0  0  0  0  0  0  0  0
   22.0850   33.3920   12.4980 C   0  0  0  0  0  0  0  0  0  0  0  0
   26.0700   35.5280   10.4610 C   0  0  0  0  0  0  0  0  0  0  0  0
   26.8260   34.3590   10.3050 C   0  0  0  0  0  0  0  0  0  0  0  0
   25.8600   36.3280    9.3590 C   0  0  0  0  0  0  0  0  0  0  0  0
   27.3310   34.0450    9.0650 C   0  0  0  0  0  0  0  0  0  0  0  0
   26.3660   36.0160    8.1170 C   0  0  0  0  0  0  0  0  0  0  0  0
   27.1170   34.8580    7.9520 C   0  0  0  0  0  0  0  0  0  0  0  0
   29.8670   25.5550   16.9770 C   0  0  0  0  0  0  0  0  0  0  0  0
   28.3450   25.7220   17.0260 C   0  0  0  0  0  0  0  0  0  0  0  0
   27.5990   24.4230   16.7630 C   0  0  0  0  0  0  0  0  0  0  0  0
   26.9270   23.8950   18.0010 C   0  0  0  0  0  0  0  0  0  0  0  0
   25.5600   23.3270   17.6340 C   0  0  0  0  0  0  0  0  0  0  0  0
   24.7600   24.3340   16.8980 N   0  0  0  0  0  0  0  0  0  0  0  0
  1  5  1  0  0  0  0
  2  1  1  0  0  0  0
  2  3  2  0  0  0  0
  4  1  1  0  0  0  0
  6  5  1  6  0  0  0
  7 27  1  1  0  0  0
  7  6  1  0  0  0  0
  8  7  1  1  0  0  0
  8 13  1  0  0  0  0
  9 16  1  6  0  0  0
  9 10  1  0  0  0  0
  9 14  1  0  0  0  0
 10 12  1  0  0  0  0
 11  9  1  0  0  0  0
 11  8  1  0  0  0  0
 12 20  1  1  0  0  0
 13 12  1  0  0  0  0
 13 22  1  1  0  0  0
 14 15  1  0  0  0  0
 16 17  2  0  0  0  0
 18 16  1  0  0  0  0
 19 18  1  0  0  0  0
 20 21  1  0  0  0  0
 22 23  1  0  0  0  0
 23 26  2  0  0  0  0
 23 25  1  0  0  0  0
 24 22  1  0  0  0  0
 27 28  1  0  0  0  0
 29  6  1  0  0  0  0
 30 29  1  0  0  0  0
 31  2  1  0  0  0  0
 32 31  1  0  0  0  0
 33 32  1  0  0  0  0
 34 33  2  0  0  0  0
 35 33  1  0  0  0  0
 36 34  1  0  0  0  0
 37 36  1  0  0  0  0
 37 35  2  0  0  0  0
 38 36  1  0  0  0  0
 39 38  1  6  0  0  0
 39 40  1  0  0  0  0
 40 41  2  0  0  0  0
 40 42  1  0  0  0  0
 42 43  1  0  0  0  0
 44 45  1  0  0  0  0
 44 39  1  0  0  0  0
 45 46  2  0  0  0  0
 46 48  1  0  0  0  0
 47 49  2  0  0  0  0
 47 45  1  0  0  0  0
 49 50  1  0  0  0  0
 50 48  2  0  0  0  0
 51 44  1  0  0  0  0
 52 51  1  0  0  0  0
 53 51  2  0  0  0  0
 54 52  2  0  0  0  0
 55 53  1  0  0  0  0
 56 55  2  0  0  0  0
 56 54  1  0  0  0  0
 57 58  1  0  0  0  0
 59 58  1  0  0  0  0
 59 60  1  0  0  0  0
 61 60  1  0  0  0  0
 62 61  1  0  0  0  0
M  END
>  <REMARK>
 VINA RESULT:    -5.824      0.000      0.000
 INTER + INTRA:         -18.251
 INTER:                 -12.054
 INTRA:                  -6.197
 UNBOUND:                -6.299
 SMILES CC(=O)N[C@@H]1[C@@H](O)C[C@](O)(C(=O)O)O[C@H]1C(O)[C@H](O)CNC(=O)OCc1cn(C[C@@H](C(=O)O)C(c2ccccc2)c2ccccc2)nn1
 SMILES IDX 21 1 22 2 23 3 20 5 18 6 16 7 15 8 9 9 8 10 14 11 6 12 5 13
 SMILES IDX 10 14 11 16 12 17 13 18 7 20 4 22 2 23 1 25 3 26 17 27 19 29
 SMILES IDX 24 31 25 32 26 33 27 34 48 35 28 36 47 37 29 38 30 39 31 40
 SMILES IDX 32 41 33 42 34 44 35 45 36 46 40 47 37 48 39 49 38 50 41 51
 SMILES IDX 42 52 46 53 43 54 45 55 44 56
 H PARENT 21 4 10 15 13 19 7 21 4 24 17 28 19 30 33 43
 Flexibility Score: inf
  4 active torsions:
  status: ('A' for Active; 'I' for Inactive)
    1  A    between atoms: CA   and  CB  
    2  A    between atoms: CB   and  CG  
    3  A    between atoms: CG   and  CD  
    4  A    between atoms: CD   and  CE  

>  <TORSDO>
F 21

>  <BEGIN_>
RES LYS A 131

$$$$
ligand_47_pose_0_2HRL.pdbqt
 OpenBabel07062320523D

  6  5  0  0  0  0  0  0  0  0999 V2000
   33.1930   34.6630    9.2900 C   0  0  0  0  0  0  0  0  0  0  0  0
   32.0600   35.3600   10.0340 C   0  0  0  0  0  0  0  0  0  0  0  0
   30.7280   35.2550    9.3380 C   0  0  0  0  0  0  0  0  0  0  0  0
   30.3520   36.5800    8.6940 C   0  0  0  0  0  0  0  0  0  0  0  0
   29.4490   37.3810    9.6120 C   0  0  0  0  0  0  0  0  0  0  0  0
   30.1990   38.4850   10.2740 N   0  0  0  0  0  0  0  0  0  0  0  0
  1  2  1  0  0  0  0
  3  2  1  0  0  0  0
  4  3  1  0  0  0  0
  4  5  1  0  0  0  0
  5  6  1  0  0  0  0
M  END
>  <EGIN_R>
ES LYS A 135

>  <REMARK>
  4 active torsions:
  status: ('A' for Active; 'I' for Inactive)
    5  A    between atoms: CA   and  CB  
    6  A    between atoms: CB   and  CG  
    7  A    between atoms: CG   and  CD  
    8  A    between atoms: CD   and  CE  

$$$$
ligand_48_pose_0_2HRL.pdbqt
 OpenBabel07062320523D

 49 50  0  0  1  0  0  0  0  0999 V2000
   26.1410   28.4580   21.1800 C   0  0  0  0  0  0  0  0  0  0  0  0
   27.2600   27.5350   21.6390 C   0  0  2  0  0  0  0  0  0  0  0  0
   28.5020   27.9510   20.9130 C   0  0  1  0  0  0  0  0  0  0  0  0
   29.6220   28.4540   21.7990 C   0  0  2  0  0  0  0  0  0  0  0  0
   30.9570   29.9910   20.6180 C   0  0  2  0  0  0  0  0  0  0  0  0
   32.2250   29.2780   21.0570 C   0  0  0  0  0  0  0  0  0  0  0  0
   29.9770   29.7450   21.5200 O   0  0  0  0  0  0  0  0  0  0  0  0
   31.9930   27.7980   21.2040 C   0  0  1  0  0  0  0  0  0  0  0  0
   30.7420   27.4950   22.0030 C   0  0  1  0  0  0  0  0  0  0  0  0
   30.6490   29.6830   19.2940 O   0  0  0  0  0  0  0  0  0  0  0  0
   29.7320   30.0550   19.0980 H   0  0  0  0  0  0  0  0  0  0  0  0
   31.2810   31.4430   20.6870 C   0  0  0  0  0  0  0  0  0  0  0  0
   32.0860   31.8650   21.5470 O   0  0  0  0  0  0  0  0  0  0  0  0
   30.6990   32.3120   19.8100 O   0  0  0  0  0  0  0  0  0  0  0  0
   30.5240   33.2920   19.9990 H   0  0  0  0  0  0  0  0  0  0  0  0
   31.9810   27.1680   19.9670 O   0  0  0  0  0  0  0  0  0  0  0  0
   31.0650   27.1700   19.5950 H   0  0  0  0  0  0  0  0  0  0  0  0
   31.0980   27.3900   23.4200 N   0  0  0  0  0  0  0  0  0  0  0  0
   30.4890   26.3790   24.1920 C   0  0  0  0  0  0  0  0  0  0  0  0
   31.7800   28.0360   23.8620 H   0  0  0  0  0  0  0  0  0  0  0  0
   30.7870   26.1910   25.6460 C   0  0  0  0  0  0  0  0  0  0  0  0
   29.6480   25.5590   23.7050 O   0  0  0  0  0  0  0  0  0  0  0  0
   28.8810   27.0720   19.9320 O   0  0  0  0  0  0  0  0  0  0  0  0
   28.4580   26.1610   20.0290 H   0  0  0  0  0  0  0  0  0  0  0  0
   26.8540   26.2400   21.4250 O   0  0  0  0  0  0  0  0  0  0  0  0
   27.5060   25.6290   21.8020 H   0  0  0  0  0  0  0  0  0  0  0  0
   26.4500   28.9090   19.8430 N   0  0  0  0  0  0  0  0  0  0  0  0
   25.6210   28.7310   18.7080 C   0  0  0  0  0  0  0  0  0  0  0  0
   27.3630   29.4240   19.6460 H   0  0  0  0  0  0  0  0  0  0  0  0
   24.5250   28.1340   18.8340 O   0  0  0  0  0  0  0  0  0  0  0  0
   25.9960   29.2010   17.4530 O   0  0  0  0  0  0  0  0  0  0  0  0
   27.2160   28.7910   16.8910 C   0  0  0  0  0  0  0  0  0  0  0  0
   28.1410   29.9550   16.8830 C   0  0  0  0  0  0  0  0  0  0  0  0
   28.8710   30.4240   15.7840 C   0  0  0  0  0  0  0  0  0  0  0  0
   28.4840   30.7940   17.8790 N   0  0  0  0  0  0  0  0  0  0  0  0
   29.6000   31.4920   16.1530 N   0  0  0  0  0  0  0  0  0  0  0  0
   29.3440   31.6920   17.4340 N   0  0  0  0  0  0  0  0  0  0  0  0
   30.4940   32.2720   15.3080 C   0  0  0  0  0  0  0  0  0  0  0  0
   29.6890   33.3150   14.5640 C   0  0  0  0  0  0  0  0  0  0  0  0
   31.5160   32.9880   16.1610 C   0  0  0  0  0  0  0  0  0  0  0  0
   29.8790   34.6960   15.1610 C   0  0  0  0  0  0  0  0  0  0  0  0
   32.2470   33.9570   15.2490 C   0  0  0  0  0  0  0  0  0  0  0  0
   31.3130   35.1270   15.0080 C   0  0  0  0  0  0  0  0  0  0  0  0
   29.8670   25.5550   16.9770 C   0  0  0  0  0  0  0  0  0  0  0  0
   28.3450   25.7220   17.0260 C   0  0  0  0  0  0  0  0  0  0  0  0
   27.5990   24.4440   16.6760 C   0  0  0  0  0  0  0  0  0  0  0  0
   27.0120   23.7790   17.8900 C   0  0  0  0  0  0  0  0  0  0  0  0
   25.9140   24.6630   18.4730 C   0  0  0  0  0  0  0  0  0  0  0  0
   24.8680   24.9300   17.4580 N   0  0  0  0  0  0  0  0  0  0  0  0
  2  1  1  6  0  0  0
  3 23  1  1  0  0  0
  3  2  1  0  0  0  0
  4  3  1  6  0  0  0
  4  9  1  0  0  0  0
  5 10  1  6  0  0  0
  5 12  1  0  0  0  0
  5  6  1  0  0  0  0
  5  7  1  0  0  0  0
  6  8  1  0  0  0  0
  7  4  1  0  0  0  0
  8 16  1  6  0  0  0
  8  9  1  0  0  0  0
  9 18  1  1  0  0  0
 11 10  1  0  0  0  0
 12 13  2  0  0  0  0
 14 15  1  0  0  0  0
 14 12  1  0  0  0  0
 17 16  1  0  0  0  0
 18 20  1  0  0  0  0
 18 19  1  0  0  0  0
 19 21  1  0  0  0  0
 22 19  2  0  0  0  0
 23 24  1  0  0  0  0
 25  2  1  0  0  0  0
 25 26  1  0  0  0  0
 27  1  1  0  0  0  0
 28 30  2  0  0  0  0
 28 27  1  0  0  0  0
 29 27  1  0  0  0  0
 31 28  1  0  0  0  0
 32 31  1  0  0  0  0
 33 32  1  0  0  0  0
 33 35  1  0  0  0  0
 34 36  1  0  0  0  0
 34 33  2  0  0  0  0
 36 37  1  0  0  0  0
 37 35  2  0  0  0  0
 38 36  1  0  0  0  0
 38 40  1  0  0  0  0
 39 41  1  0  0  0  0
 39 38  1  0  0  0  0
 42 40  1  0  0  0  0
 43 41  1  0  0  0  0
 43 42  1  0  0  0  0
 44 45  1  0  0  0  0
 46 45  1  0  0  0  0
 46 47  1  0  0  0  0
 47 48  1  0  0  0  0
 49 48  1  0  0  0  0
M  END
>  <REMARK>
 VINA RESULT:    -5.859      0.000      0.000
 INTER + INTRA:         -15.937
 INTER:                  -9.298
 INTRA:                  -6.639
 UNBOUND:                -5.796
 SMILES CC(=O)N[C@@H]1[C@@H](O)C[C@](O)(C(=O)O)O[C@H]1C(O)[C@H](O)CNC(=O)OCc1cn(C2CCCCC2)nn1
 SMILES IDX 20 1 18 2 16 3 15 4 9 5 8 6 14 7 6 8 5 9 10 10 11 12 12 13
 SMILES IDX 13 14 7 16 4 18 2 19 1 21 3 22 17 23 19 25 21 27 22 28 23 30
 SMILES IDX 24 31 25 32 26 33 27 34 36 35 28 36 35 37 29 38 30 39 34 40
 SMILES IDX 31 41 33 42 32 43
 H PARENT 10 11 13 15 7 17 4 20 17 24 19 26 21 29
 Flexibility Score: inf
  4 active torsions:
  status: ('A' for Active; 'I' for Inactive)
    1  A    between atoms: CA   and  CB  
    2  A    between atoms: CB   and  CG  
    3  A    between atoms: CG   and  CD  
    4  A    between atoms: CD   and  CE  

>  <TORSDO>
F 15

>  <BEGIN_>
RES LYS A 131

$$$$
ligand_48_pose_0_2HRL.pdbqt
 OpenBabel07062320523D

  6  5  0  0  0  0  0  0  0  0999 V2000
   33.1930   34.6630    9.2900 C   0  0  0  0  0  0  0  0  0  0  0  0
   32.0600   35.3600   10.0340 C   0  0  0  0  0  0  0  0  0  0  0  0
   30.7320   34.6590    9.9030 C   0  0  0  0  0  0  0  0  0  0  0  0
   30.3470   34.5090    8.4400 C   0  0  0  0  0  0  0  0  0  0  0  0
   28.8390   34.5410    8.2800 C   0  0  0  0  0  0  0  0  0  0  0  0
   28.1660   33.8290    9.4020 N   0  0  0  0  0  0  0  0  0  0  0  0
  1  2  1  0  0  0  0
  3  2  1  0  0  0  0
  4  3  1  0  0  0  0
  5  4  1  0  0  0  0
  5  6  1  0  0  0  0
M  END
>  <EGIN_R>
ES LYS A 135

>  <REMARK>
  4 active torsions:
  status: ('A' for Active; 'I' for Inactive)
    5  A    between atoms: CA   and  CB  
    6  A    between atoms: CB   and  CG  
    7  A    between atoms: CG   and  CD  
    8  A    between atoms: CD   and  CE  

$$$$
ligand_49_pose_0_2HRL.pdbqt
 OpenBabel07062320523D

 48 49  0  0  1  0  0  0  0  0999 V2000
   30.3770   31.3920   17.8060 C   0  0  0  0  0  0  0  0  0  0  0  0
   30.5550   31.9370   16.4170 C   0  0  2  0  0  0  0  0  0  0  0  0
   29.7690   33.2320   16.3610 C   0  0  1  0  0  0  0  0  0  0  0  0
   30.4220   34.2640   15.4990 C   0  0  2  0  0  0  0  0  0  0  0  0
   30.7440   34.8030   13.2680 C   0  0  2  0  0  0  0  0  0  0  0  0
   31.5140   35.9400   13.9220 C   0  0  0  0  0  0  0  0  0  0  0  0
   30.5690   33.7930   14.2160 O   0  0  0  0  0  0  0  0  0  0  0  0
   32.5230   35.3070   14.8580 C   0  0  1  0  0  0  0  0  0  0  0  0
   31.7320   34.7640   16.0420 C   0  0  1  0  0  0  0  0  0  0  0  0
   31.5210   34.3570   12.2060 O   0  0  0  0  0  0  0  0  0  0  0  0
   31.0530   33.5540   11.8190 H   0  0  0  0  0  0  0  0  0  0  0  0
   29.4420   35.2430   12.7530 C   0  0  0  0  0  0  0  0  0  0  0  0
   28.4080   34.5430   12.8950 O   0  0  0  0  0  0  0  0  0  0  0  0
   29.3150   36.4520   12.0890 O   0  0  0  0  0  0  0  0  0  0  0  0
   29.9770   37.2270   12.2260 H   0  0  0  0  0  0  0  0  0  0  0  0
   33.1100   34.2380   14.1590 O   0  0  0  0  0  0  0  0  0  0  0  0
   33.9640   34.5760   13.7800 H   0  0  0  0  0  0  0  0  0  0  0  0
   31.5540   35.8300   17.0070 N   0  0  0  0  0  0  0  0  0  0  0  0
   31.8220   35.6200   18.3780 C   0  0  0  0  0  0  0  0  0  0  0  0
   31.2280   36.7630   16.6970 H   0  0  0  0  0  0  0  0  0  0  0  0
   31.6620   36.6650   19.4190 C   0  0  0  0  0  0  0  0  0  0  0  0
   32.2170   34.4870   18.7360 O   0  0  0  0  0  0  0  0  0  0  0  0
   28.5320   32.9200   15.7930 O   0  0  0  0  0  0  0  0  0  0  0  0
   27.8290   33.5660   16.0020 H   0  0  0  0  0  0  0  0  0  0  0  0
   30.0930   31.0690   15.4560 O   0  0  0  0  0  0  0  0  0  0  0  0
   29.8090   31.5850   14.6550 H   0  0  0  0  0  0  0  0  0  0  0  0
   29.3680   30.3930   17.9600 N   0  0  0  0  0  0  0  0  0  0  0  0
   28.2630   30.4600   18.8160 C   0  0  0  0  0  0  0  0  0  0  0  0
   29.4790   29.5160   17.3580 H   0  0  0  0  0  0  0  0  0  0  0  0
   28.0910   31.4610   19.5470 O   0  0  0  0  0  0  0  0  0  0  0  0
   27.3350   29.4030   18.8620 O   0  0  0  0  0  0  0  0  0  0  0  0
   27.1840   28.6210   17.6920 C   0  0  0  0  0  0  0  0  0  0  0  0
   26.5430   29.4570   16.6540 C   0  0  0  0  0  0  0  0  0  0  0  0
   25.1900   29.3980   16.3450 C   0  0  0  0  0  0  0  0  0  0  0  0
   27.0620   30.3750   15.8470 N   0  0  0  0  0  0  0  0  0  0  0  0
   24.9590   30.2800   15.3720 N   0  0  0  0  0  0  0  0  0  0  0  0
   26.1030   30.8660   15.0780 N   0  0  0  0  0  0  0  0  0  0  0  0
   23.6450   30.5050   14.7800 C   0  0  0  0  0  0  0  0  0  0  0  0
   23.8520   30.8750   13.3390 C   0  0  0  0  0  0  0  0  0  0  0  0
   22.8720   29.2050   14.7990 C   0  0  0  0  0  0  0  0  0  0  0  0
   23.0700   29.8940   12.5260 C   0  0  0  0  0  0  0  0  0  0  0  0
   23.0200   28.6630   13.3890 C   0  0  0  0  0  0  0  0  0  0  0  0
   29.8670   25.5550   16.9770 C   0  0  0  0  0  0  0  0  0  0  0  0
   28.3450   25.7220   17.0260 C   0  0  0  0  0  0  0  0  0  0  0  0
   27.6020   24.3980   16.9350 C   0  0  0  0  0  0  0  0  0  0  0  0
   26.1430   24.5430   17.2660 C   0  0  0  0  0  0  0  0  0  0  0  0
   25.9910   24.9550   18.7270 C   0  0  0  0  0  0  0  0  0  0  0  0
   24.8600   25.9000   18.8850 N   0  0  0  0  0  0  0  0  0  0  0  0
  1 27  1  0  0  0  0
  2  1  1  1  0  0  0
  3 23  1  6  0  0  0
  3  2  1  0  0  0  0
  4  9  1  0  0  0  0
  4  3  1  1  0  0  0
  5 10  1  6  0  0  0
  5  6  1  0  0  0  0
  5  7  1  0  0  0  0
  6  8  1  0  0  0  0
  7  4  1  0  0  0  0
  8 16  1  6  0  0  0
  8  9  1  0  0  0  0
  9 18  1  1  0  0  0
 11 10  1  0  0  0  0
 12 13  2  0  0  0  0
 12  5  1  0  0  0  0
 14 15  1  0  0  0  0
 14 12  1  0  0  0  0
 17 16  1  0  0  0  0
 18 19  1  0  0  0  0
 19 22  2  0  0  0  0
 19 21  1  0  0  0  0
 20 18  1  0  0  0  0
 23 24  1  0  0  0  0
 25  2  1  0  0  0  0
 26 25  1  0  0  0  0
 27 28  1  0  0  0  0
 28 31  1  0  0  0  0
 28 30  2  0  0  0  0
 29 27  1  0  0  0  0
 32 31  1  0  0  0  0
 33 32  1  0  0  0  0
 34 33  2  0  0  0  0
 35 33  1  0  0  0  0
 36 34  1  0  0  0  0
 37 36  1  0  0  0  0
 37 35  2  0  0  0  0
 38 40  1  0  0  0  0
 38 36  1  0  0  0  0
 39 38  1  0  0  0  0
 41 39  1  0  0  0  0
 41 42  1  0  0  0  0
 42 40  1  0  0  0  0
 43 44  1  0  0  0  0
 45 44  1  0  0  0  0
 45 46  1  0  0  0  0
 46 47  1  0  0  0  0
 47 48  1  0  0  0  0
M  END
>  <REMARK>
 VINA RESULT:    -5.546      0.000      0.000
 INTER + INTRA:         -14.625
 INTER:                  -9.027
 INTRA:                  -5.597
 UNBOUND:                -5.026
 SMILES CC(=O)N[C@@H]1[C@@H](O)C[C@](O)(C(=O)O)O[C@H]1C(O)[C@H](O)CNC(=O)OCc1cn(C2CCCC2)nn1
 SMILES IDX 20 1 18 2 16 3 15 4 9 5 8 6 14 7 6 8 5 9 10 10 11 12 12 13
 SMILES IDX 13 14 7 16 4 18 2 19 1 21 3 22 17 23 19 25 21 27 22 28 23 30
 SMILES IDX 24 31 25 32 26 33 27 34 35 35 28 36 34 37 29 38 30 39 33 40
 SMILES IDX 31 41 32 42
 H PARENT 10 11 13 15 7 17 4 20 17 24 19 26 21 29
 Flexibility Score: inf
  4 active torsions:
  status: ('A' for Active; 'I' for Inactive)
    1  A    between atoms: CA   and  CB  
    2  A    between atoms: CB   and  CG  
    3  A    between atoms: CG   and  CD  
    4  A    between atoms: CD   and  CE  

>  <TORSDO>
F 15

>  <BEGIN_>
RES LYS A 131

$$$$
ligand_49_pose_0_2HRL.pdbqt
 OpenBabel07062320523D

  6  5  0  0  0  0  0  0  0  0999 V2000
   33.1930   34.6630    9.2900 C   0  0  0  0  0  0  0  0  0  0  0  0
   32.0600   35.3600   10.0340 C   0  0  0  0  0  0  0  0  0  0  0  0
   30.8170   35.5450    9.2020 C   0  0  0  0  0  0  0  0  0  0  0  0
   30.0820   34.2240    9.0340 C   0  0  0  0  0  0  0  0  0  0  0  0
   28.6190   34.4660    8.7150 C   0  0  0  0  0  0  0  0  0  0  0  0
   27.7360   33.6610    9.6040 N   0  0  0  0  0  0  0  0  0  0  0  0
  1  2  1  0  0  0  0
  3  2  1  0  0  0  0
  4  3  1  0  0  0  0
  5  4  1  0  0  0  0
  5  6  1  0  0  0  0
M  END
>  <EGIN_R>
ES LYS A 135

>  <REMARK>
  4 active torsions:
  status: ('A' for Active; 'I' for Inactive)
    5  A    between atoms: CA   and  CB  
    6  A    between atoms: CB   and  CG  
    7  A    between atoms: CG   and  CD  
    8  A    between atoms: CD   and  CE  

$$$$
ligand_4_pose_0_2HRL.pdbqt
 OpenBabel07062320523D

 52 53  0  0  1  0  0  0  0  0999 V2000
   25.0270   35.8570   11.0250 N   0  0  0  0  0  0  0  0  0  0  0  0
   26.2950   35.8890   11.6380 C   0  0  0  0  0  0  0  0  0  0  0  0
   27.0170   36.9050   11.5810 O   0  0  0  0  0  0  0  0  0  0  0  0
   24.4550   34.9750   11.1180 H   0  0  0  0  0  0  0  0  0  0  0  0
   24.5020   36.9620   10.3010 C   0  0  0  0  0  0  0  0  0  0  0  0
   24.2230   36.6780    8.8260 C   0  0  2  0  0  0  0  0  0  0  0  0
   25.3910   37.3630    8.1120 C   0  0  2  0  0  0  0  0  0  0  0  0
   26.3670   36.3950    7.5240 C   0  0  2  0  0  0  0  0  0  0  0  0
   28.3180   35.5300    8.4310 C   0  0  2  0  0  0  0  0  0  0  0  0
   28.9730   35.4810    7.0960 C   0  0  0  0  0  0  0  0  0  0  0  0
   26.9610   35.6490    8.4840 O   0  0  0  0  0  0  0  0  0  0  0  0
   28.3540   36.3600    6.0300 C   0  0  1  0  0  0  0  0  0  0  0  0
   27.3560   37.2350    6.7310 C   0  0  1  0  0  0  0  0  0  0  0  0
   28.9570   36.5060    9.2380 O   0  0  0  0  0  0  0  0  0  0  0  0
   29.1240   36.2070   10.1500 H   0  0  0  0  0  0  0  0  0  0  0  0
   28.6250   34.2120    9.0970 C   0  0  0  0  0  0  0  0  0  0  0  0
   29.8090   33.8130    9.0990 O   0  0  0  0  0  0  0  0  0  0  0  0
   27.6550   33.4310    9.7120 O   0  0  0  0  0  0  0  0  0  0  0  0
   27.1280   33.7130   10.5360 H   0  0  0  0  0  0  0  0  0  0  0  0
   29.3880   37.1820    5.4850 O   0  0  0  0  0  0  0  0  0  0  0  0
   29.3050   38.1110    5.8080 H   0  0  0  0  0  0  0  0  0  0  0  0
   26.6870   38.2290    5.9880 N   0  0  0  0  0  0  0  0  0  0  0  0
   27.1240   39.5670    5.8320 C   0  0  0  0  0  0  0  0  0  0  0  0
   25.7660   37.9770    5.4900 H   0  0  0  0  0  0  0  0  0  0  0  0
   26.4100   40.5870    5.0530 C   0  0  0  0  0  0  0  0  0  0  0  0
   28.2350   39.8640    6.4460 O   0  0  0  0  0  0  0  0  0  0  0  0
   25.9570   38.2010    9.0770 O   0  0  0  0  0  0  0  0  0  0  0  0
   26.3000   39.0030    8.6010 H   0  0  0  0  0  0  0  0  0  0  0  0
   23.0450   37.1760    8.3750 O   0  0  0  0  0  0  0  0  0  0  0  0
   22.4240   36.5120    8.0820 H   0  0  0  0  0  0  0  0  0  0  0  0
   26.7810   34.7790   12.3320 O   0  0  0  0  0  0  0  0  0  0  0  0
   26.6510   34.7800   13.7460 C   0  0  0  0  0  0  0  0  0  0  0  0
   25.5820   33.7960   14.0470 C   0  0  0  0  0  0  0  0  0  0  0  0
   24.9050   33.0590   13.0660 C   0  0  0  0  0  0  0  0  0  0  0  0
   25.1510   33.3520   15.2370 N   0  0  0  0  0  0  0  0  0  0  0  0
   24.1110   32.2080   13.7430 N   0  0  0  0  0  0  0  0  0  0  0  0
   24.2850   32.4070   14.9870 N   0  0  0  0  0  0  0  0  0  0  0  0
   23.3500   31.1870   13.1270 C   0  0  0  0  0  0  0  0  0  0  0  0
   22.0350   31.3500   12.9170 C   0  0  0  0  0  0  0  0  0  0  0  0
   23.9540   29.9420   12.8990 C   0  0  0  0  0  0  0  0  0  0  0  0
   21.2790   30.2660   12.4710 C   0  0  0  0  0  0  0  0  0  0  0  0
   23.2410   28.8850   12.4680 C   0  0  0  0  0  0  0  0  0  0  0  0
   21.8780   29.0200   12.2420 C   0  0  0  0  0  0  0  0  0  0  0  0
   21.4120   32.6550   13.0130 C   0  0  0  0  0  0  0  0  0  0  0  0
   20.7420   32.8880   14.3580 C   0  0  0  0  0  0  0  0  0  0  0  0
   20.1140   32.5570   12.0940 C   0  0  0  0  0  0  0  0  0  0  0  0
   29.8670   25.5550   16.9770 C   0  0  0  0  0  0  0  0  0  0  0  0
   28.3450   25.7220   17.0260 C   0  0  0  0  0  0  0  0  0  0  0  0
   27.6010   24.4050   16.8700 C   0  0  0  0  0  0  0  0  0  0  0  0
   26.1560   24.5190   17.2710 C   0  0  0  0  0  0  0  0  0  0  0  0
   26.0650   25.0430   18.7010 C   0  0  0  0  0  0  0  0  0  0  0  0
   25.4540   24.0250   19.5880 N   0  0  0  0  0  0  0  0  0  0  0  0
  1  4  1  0  0  0  0
  1  2  1  0  0  0  0
  2 31  1  0  0  0  0
  3  2  2  0  0  0  0
  5  1  1  0  0  0  0
  6  5  1  1  0  0  0
  7  6  1  0  0  0  0
  7 27  1  1  0  0  0
  8  7  1  1  0  0  0
  8 11  1  0  0  0  0
  9 11  1  0  0  0  0
  9 16  1  1  0  0  0
  9 14  1  0  0  0  0
 10  9  1  0  0  0  0
 12 20  1  1  0  0  0
 12 13  1  0  0  0  0
 12 10  1  0  0  0  0
 13 22  1  6  0  0  0
 13  8  1  0  0  0  0
 14 15  1  0  0  0  0
 16 17  2  0  0  0  0
 16 18  1  0  0  0  0
 18 19  1  0  0  0  0
 20 21  1  0  0  0  0
 23 22  1  0  0  0  0
 23 26  2  0  0  0  0
 24 22  1  0  0  0  0
 25 23  1  0  0  0  0
 28 27  1  0  0  0  0
 29  6  1  0  0  0  0
 30 29  1  0  0  0  0
 31 32  1  0  0  0  0
 32 33  1  0  0  0  0
 33 35  1  0  0  0  0
 34 36  1  0  0  0  0
 34 33  2  0  0  0  0
 36 37  1  0  0  0  0
 37 35  2  0  0  0  0
 38 36  1  0  0  0  0
 39 44  1  0  0  0  0
 39 38  1  0  0  0  0
 40 38  2  0  0  0  0
 41 39  2  0  0  0  0
 42 40  1  0  0  0  0
 43 42  2  0  0  0  0
 43 41  1  0  0  0  0
 44 45  1  0  0  0  0
 46 44  1  0  0  0  0
 47 48  1  0  0  0  0
 49 48  1  0  0  0  0
 49 50  1  0  0  0  0
 50 51  1  0  0  0  0
 51 52  1  0  0  0  0
M  END
>  <REMARK>
 VINA RESULT:    -4.735      0.000      0.000
 INTER + INTRA:         -15.709
 INTER:                 -10.739
 INTRA:                  -4.970
 UNBOUND:                -7.237
 SMILES CC(=O)N[C@@H]1[C@@H](O)C[C@](O)(C(=O)O)O[C@H]1C(O)[C@H](O)CNC(=O)OCc1cn(-c2ccccc2C(C)C)nn1
 SMILES IDX 21 1 22 2 23 3 20 5 18 6 16 7 15 8 9 9 8 10 14 11 6 12 5 13
 SMILES IDX 10 14 11 16 12 17 13 18 7 20 4 22 2 23 1 25 3 26 17 27 19 29
 SMILES IDX 24 31 25 32 26 33 27 34 39 35 28 36 38 37 29 38 34 39 30 40
 SMILES IDX 33 41 31 42 32 43 35 44 36 45 37 46
 H PARENT 21 4 10 15 13 19 7 21 4 24 17 28 19 30
 Flexibility Score: inf
  4 active torsions:
  status: ('A' for Active; 'I' for Inactive)
    1  A    between atoms: CA   and  CB  
    2  A    between atoms: CB   and  CG  
    3  A    between atoms: CG   and  CD  
    4  A    between atoms: CD   and  CE  

>  <TORSDO>
F 16

>  <BEGIN_>
RES LYS A 131

$$$$
ligand_4_pose_0_2HRL.pdbqt
 OpenBabel07062320523D

  6  5  0  0  0  0  0  0  0  0999 V2000
   33.1930   34.6630    9.2900 C   0  0  0  0  0  0  0  0  0  0  0  0
   32.0600   35.3600   10.0340 C   0  0  0  0  0  0  0  0  0  0  0  0
   32.5340   36.2680   11.1400 C   0  0  0  0  0  0  0  0  0  0  0  0
   32.3150   35.6190   12.4980 C   0  0  0  0  0  0  0  0  0  0  0  0
   30.8820   35.8120   12.9550 C   0  0  0  0  0  0  0  0  0  0  0  0
   30.1400   34.5200   12.9540 N   0  0  0  0  0  0  0  0  0  0  0  0
  1  2  1  0  0  0  0
  2  3  1  0  0  0  0
  3  4  1  0  0  0  0
  4  5  1  0  0  0  0
  6  5  1  0  0  0  0
M  END
>  <EGIN_R>
ES LYS A 135

>  <REMARK>
  4 active torsions:
  status: ('A' for Active; 'I' for Inactive)
    5  A    between atoms: CA   and  CB  
    6  A    between atoms: CB   and  CG  
    7  A    between atoms: CG   and  CD  
    8  A    between atoms: CD   and  CE  

$$$$
ligand_50_pose_0_2HRL.pdbqt
 OpenBabel07062320523D

 50 50  0  0  1  0  0  0  0  0999 V2000
   27.8060   28.0000   18.5830 N   0  0  0  0  0  0  0  0  0  0  0  0
   26.8300   28.1510   17.5670 C   0  0  0  0  0  0  0  0  0  0  0  0
   25.6860   27.6840   17.6960 O   0  0  0  0  0  0  0  0  0  0  0  0
   28.7560   28.4340   18.3770 H   0  0  0  0  0  0  0  0  0  0  0  0
   27.5240   27.3090   19.7950 C   0  0  0  0  0  0  0  0  0  0  0  0
   28.2820   27.8440   20.9900 C   0  0  2  0  0  0  0  0  0  0  0  0
   29.0950   29.0300   20.4870 C   0  0  1  0  0  0  0  0  0  0  0  0
   29.2740   30.0600   21.6080 C   0  0  2  0  0  0  0  0  0  0  0  0
   29.8740   32.1900   20.9010 C   0  0  2  0  0  0  0  0  0  0  0  0
   30.4500   32.5210   22.2640 C   0  0  0  0  0  0  0  0  0  0  0  0
   28.8770   31.2680   21.1070 O   0  0  0  0  0  0  0  0  0  0  0  0
   31.1300   31.2970   22.7710 C   0  0  1  0  0  0  0  0  0  0  0  0
   30.6740   30.0110   22.1320 C   0  0  1  0  0  0  0  0  0  0  0  0
   30.9280   31.7120   20.1260 O   0  0  0  0  0  0  0  0  0  0  0  0
   31.4470   31.0100   20.5820 H   0  0  0  0  0  0  0  0  0  0  0  0
   29.2840   33.3920   20.2560 C   0  0  0  0  0  0  0  0  0  0  0  0
   28.8470   34.3140   20.9900 O   0  0  0  0  0  0  0  0  0  0  0  0
   29.2250   33.4780   18.8860 O   0  0  0  0  0  0  0  0  0  0  0  0
   29.6640   32.7720   18.3030 H   0  0  0  0  0  0  0  0  0  0  0  0
   32.4990   31.4260   22.5080 O   0  0  0  0  0  0  0  0  0  0  0  0
   32.6280   31.9950   21.7280 H   0  0  0  0  0  0  0  0  0  0  0  0
   30.8010   28.9850   23.1450 N   0  0  0  0  0  0  0  0  0  0  0  0
   31.8820   28.0680   23.0730 C   0  0  0  0  0  0  0  0  0  0  0  0
   30.1260   28.8850   23.9370 H   0  0  0  0  0  0  0  0  0  0  0  0
   32.0630   26.9800   24.0970 C   0  0  0  0  0  0  0  0  0  0  0  0
   32.7480   28.1000   22.1620 O   0  0  0  0  0  0  0  0  0  0  0  0
   30.2930   28.5810   19.9850 O   0  0  0  0  0  0  0  0  0  0  0  0
   30.9380   28.3630   20.7140 H   0  0  0  0  0  0  0  0  0  0  0  0
   29.1130   26.8580   21.5220 O   0  0  0  0  0  0  0  0  0  0  0  0
   28.6780   25.9970   21.3680 H   0  0  0  0  0  0  0  0  0  0  0  0
   27.1260   28.8380   16.3780 O   0  0  0  0  0  0  0  0  0  0  0  0
   27.1290   30.2360   16.4050 C   0  0  0  0  0  0  0  0  0  0  0  0
   28.5030   30.7860   16.5290 C   0  0  0  0  0  0  0  0  0  0  0  0
   29.1920   31.4930   15.5880 C   0  0  0  0  0  0  0  0  0  0  0  0
   29.3060   30.6810   17.5910 N   0  0  0  0  0  0  0  0  0  0  0  0
   30.4030   31.7920   16.1300 N   0  0  0  0  0  0  0  0  0  0  0  0
   30.4580   31.2890   17.3550 N   0  0  0  0  0  0  0  0  0  0  0  0
   31.4550   32.5460   15.4500 C   0  0  0  0  0  0  0  0  0  0  0  0
   31.4000   33.9500   16.0170 C   0  0  1  0  0  0  0  0  0  0  0  0
   31.7440   33.9170   17.3630 O   0  0  0  0  0  0  0  0  0  0  0  0
   31.0590   33.3780   17.8410 H   0  0  0  0  0  0  0  0  0  0  0  0
   32.3710   34.8620   15.2600 C   0  0  0  0  0  0  0  0  0  0  0  0
   33.1020   34.0990   14.3480 O   0  0  0  0  0  0  0  0  0  0  0  0
   32.4980   33.8130   13.5990 H   0  0  0  0  0  0  0  0  0  0  0  0
   29.8670   25.5550   16.9770 C   0  0  0  0  0  0  0  0  0  0  0  0
   28.3450   25.7220   17.0260 C   0  0  0  0  0  0  0  0  0  0  0  0
   27.6010   24.4050   16.8720 C   0  0  0  0  0  0  0  0  0  0  0  0
   26.6310   24.1670   17.9960 C   0  0  0  0  0  0  0  0  0  0  0  0
   25.5780   23.1560   17.5540 C   0  0  0  0  0  0  0  0  0  0  0  0
   24.4380   23.8440   16.9040 N   0  0  0  0  0  0  0  0  0  0  0  0
  1  5  1  0  0  0  0
  2  3  2  0  0  0  0
  2  1  1  0  0  0  0
  4  1  1  0  0  0  0
  6  5  1  6  0  0  0
  6 29  1  0  0  0  0
  7 27  1  1  0  0  0
  7  6  1  0  0  0  0
  8  7  1  6  0  0  0
  8 13  1  0  0  0  0
  9 14  1  6  0  0  0
  9 11  1  0  0  0  0
  9 10  1  0  0  0  0
 10 12  1  0  0  0  0
 11  8  1  0  0  0  0
 12 20  1  6  0  0  0
 13 12  1  0  0  0  0
 13 22  1  1  0  0  0
 14 15  1  0  0  0  0
 16  9  1  0  0  0  0
 16 17  2  0  0  0  0
 18 16  1  0  0  0  0
 19 18  1  0  0  0  0
 21 20  1  0  0  0  0
 22 24  1  0  0  0  0
 23 22  1  0  0  0  0
 23 25  1  0  0  0  0
 26 23  2  0  0  0  0
 27 28  1  0  0  0  0
 30 29  1  0  0  0  0
 31 32  1  0  0  0  0
 31  2  1  0  0  0  0
 32 33  1  0  0  0  0
 33 35  1  0  0  0  0
 34 36  1  0  0  0  0
 34 33  2  0  0  0  0
 36 37  1  0  0  0  0
 37 35  2  0  0  0  0
 38 39  1  0  0  0  0
 38 36  1  0  0  0  0
 39 42  1  6  0  0  0
 39 40  1  0  0  0  0
 40 41  1  0  0  0  0
 43 42  1  0  0  0  0
 44 43  1  0  0  0  0
 45 46  1  0  0  0  0
 47 46  1  0  0  0  0
 47 48  1  0  0  0  0
 49 48  1  0  0  0  0
 50 49  1  0  0  0  0
M  END
>  <REMARK>
 VINA RESULT:    -4.892      0.000      0.000
 INTER + INTRA:         -14.802
 INTER:                  -7.318
 INTRA:                  -7.484
 UNBOUND:                -5.477
 SMILES CC(=O)N[C@@H]1[C@@H](O)C[C@](O)(C(=O)O)O[C@H]1C(O)[C@H](O)CNC(=O)OCc1cn(CC(O)CO)nn1
 SMILES IDX 21 1 22 2 23 3 20 5 18 6 16 7 15 8 9 9 8 10 14 11 6 12 5 13
 SMILES IDX 10 14 11 16 12 17 13 18 7 20 4 22 2 23 1 25 3 26 17 27 19 29
 SMILES IDX 24 31 25 32 26 33 27 34 35 35 28 36 34 37 29 38 30 39 31 40
 SMILES IDX 32 42 33 43
 H PARENT 21 4 10 15 13 19 7 21 4 24 17 28 19 30 31 41 33 44
 Flexibility Score: inf
  4 active torsions:
  status: ('A' for Active; 'I' for Inactive)
    1  A    between atoms: CA   and  CB  
    2  A    between atoms: CB   and  CG  
    3  A    between atoms: CG   and  CD  
    4  A    between atoms: CD   and  CE  

>  <TORSDO>
F 19

>  <BEGIN_>
RES LYS A 131

$$$$
ligand_50_pose_0_2HRL.pdbqt
 OpenBabel07062320523D

  6  5  0  0  0  0  0  0  0  0999 V2000
   33.1930   34.6630    9.2900 C   0  0  0  0  0  0  0  0  0  0  0  0
   32.0600   35.3600   10.0340 C   0  0  0  0  0  0  0  0  0  0  0  0
   30.8100   35.5280    9.2080 C   0  0  0  0  0  0  0  0  0  0  0  0
   30.1550   34.1800    8.9470 C   0  0  0  0  0  0  0  0  0  0  0  0
   28.7580   34.1440    9.5370 C   0  0  0  0  0  0  0  0  0  0  0  0
   28.2600   35.5190    9.8190 N   0  0  0  0  0  0  0  0  0  0  0  0
  1  2  1  0  0  0  0
  3  2  1  0  0  0  0
  4  3  1  0  0  0  0
  4  5  1  0  0  0  0
  5  6  1  0  0  0  0
M  END
>  <EGIN_R>
ES LYS A 135

>  <REMARK>
  4 active torsions:
  status: ('A' for Active; 'I' for Inactive)
    5  A    between atoms: CA   and  CB  
    6  A    between atoms: CB   and  CG  
    7  A    between atoms: CG   and  CD  
    8  A    between atoms: CD   and  CE  

$$$$
ligand_51_pose_0_2HRL.pdbqt
 OpenBabel07062320523D

 53 56  0  0  1  0  0  0  0  0999 V2000
   26.9700   28.5580   19.9880 C   0  0  0  0  0  0  0  0  0  0  0  0
   28.3250   28.2000   20.5430 C   0  0  2  0  0  0  0  0  0  0  0  0
   29.2510   29.3960   20.6370 C   0  0  1  0  0  0  0  0  0  0  0  0
   29.9560   29.4110   21.9970 C   0  0  2  0  0  0  0  0  0  0  0  0
   32.1960   28.7260   21.8760 C   0  0  2  0  0  0  0  0  0  0  0  0
   31.6620   27.3170   21.8030 C   0  0  0  0  0  0  0  0  0  0  0  0
   31.2770   29.7160   21.9100 O   0  0  0  0  0  0  0  0  0  0  0  0
   30.6170   27.1250   22.8450 C   0  0  1  0  0  0  0  0  0  0  0  0
   29.6070   28.2410   22.8400 C   0  0  1  0  0  0  0  0  0  0  0  0
   32.9440   28.8910   20.6860 O   0  0  0  0  0  0  0  0  0  0  0  0
   32.3280   28.6910   19.9330 H   0  0  0  0  0  0  0  0  0  0  0  0
   33.1660   28.7660   22.9980 C   0  0  0  0  0  0  0  0  0  0  0  0
   32.9900   29.4920   24.0150 O   0  0  0  0  0  0  0  0  0  0  0  0
   34.3050   27.9910   22.9490 O   0  0  0  0  0  0  0  0  0  0  0  0
   34.5890   27.3780   23.7140 H   0  0  0  0  0  0  0  0  0  0  0  0
   30.0140   25.8670   22.6140 O   0  0  0  0  0  0  0  0  0  0  0  0
   30.5410   25.3600   21.9600 H   0  0  0  0  0  0  0  0  0  0  0  0
   29.3830   28.7020   24.2040 N   0  0  0  0  0  0  0  0  0  0  0  0
   28.0820   28.8690   24.7460 C   0  0  0  0  0  0  0  0  0  0  0  0
   30.2160   28.9250   24.8240 H   0  0  0  0  0  0  0  0  0  0  0  0
   27.9490   29.3390   26.1330 C   0  0  0  0  0  0  0  0  0  0  0  0
   27.0860   28.6040   24.0070 O   0  0  0  0  0  0  0  0  0  0  0  0
   30.1210   29.4930   19.5940 O   0  0  0  0  0  0  0  0  0  0  0  0
   29.9590   28.9220   18.8280 H   0  0  0  0  0  0  0  0  0  0  0  0
   28.8550   27.1920   19.7440 O   0  0  0  0  0  0  0  0  0  0  0  0
   29.4010   26.5770   20.3310 H   0  0  0  0  0  0  0  0  0  0  0  0
   27.1830   29.5510   18.9500 N   0  0  0  0  0  0  0  0  0  0  0  0
   27.2470   29.1960   17.5600 C   0  0  0  0  0  0  0  0  0  0  0  0
   27.3010   30.5730   19.1500 H   0  0  0  0  0  0  0  0  0  0  0  0
   27.1100   27.9820   17.2670 O   0  0  0  0  0  0  0  0  0  0  0  0
   27.4470   30.1240   16.5680 O   0  0  0  0  0  0  0  0  0  0  0  0
   28.5260   29.9550   15.6740 C   0  0  0  0  0  0  0  0  0  0  0  0
   29.4930   31.0700   15.9300 C   0  0  0  0  0  0  0  0  0  0  0  0
   29.6650   32.1540   15.0900 C   0  0  0  0  0  0  0  0  0  0  0  0
   30.3420   31.2610   16.9360 N   0  0  0  0  0  0  0  0  0  0  0  0
   30.5950   32.9380   15.6160 N   0  0  0  0  0  0  0  0  0  0  0  0
   30.9990   32.3840   16.7400 N   0  0  0  0  0  0  0  0  0  0  0  0
   31.0590   34.1920   15.0170 C   0  0  2  0  0  0  0  0  0  0  0  0
   30.5050   34.2180   13.5990 C   0  0  0  0  0  0  0  0  0  0  0  0
   32.5550   34.2510   14.9950 C   0  0  0  0  0  0  0  0  0  0  0  0
   30.5330   35.3540   15.8220 C   0  0  0  0  0  0  0  0  0  0  0  0
   30.9280   35.5090   12.9250 C   0  0  1  0  0  0  0  0  0  0  0  0
   32.9690   35.5130   14.2710 C   0  0  1  0  0  0  0  0  0  0  0  0
   30.9410   36.6420   15.1410 C   0  0  2  0  0  0  0  0  0  0  0  0
   30.3910   36.6590   13.7260 C   0  0  0  0  0  0  0  0  0  0  0  0
   32.4350   35.5240   12.8690 C   0  0  0  0  0  0  0  0  0  0  0  0
   32.4490   36.6830   15.0740 C   0  0  0  0  0  0  0  0  0  0  0  0
   29.8670   25.5550   16.9770 C   0  0  0  0  0  0  0  0  0  0  0  0
   28.3450   25.7220   17.0260 C   0  0  0  0  0  0  0  0  0  0  0  0
   27.6010   24.4020   16.8910 C   0  0  0  0  0  0  0  0  0  0  0  0
   26.1540   24.5250   17.2810 C   0  0  0  0  0  0  0  0  0  0  0  0
   26.0530   24.8190   18.7740 C   0  0  0  0  0  0  0  0  0  0  0  0
   25.5400   23.6350   19.5020 N   0  0  0  0  0  0  0  0  0  0  0  0
  2  1  1  6  0  0  0
  2  3  1  0  0  0  0
  3 23  1  6  0  0  0
  4  3  1  6  0  0  0
  4  9  1  0  0  0  0
  5 10  1  6  0  0  0
  5  7  1  0  0  0  0
  5 12  1  0  0  0  0
  6  5  1  0  0  0  0
  6  8  1  0  0  0  0
  7  4  1  0  0  0  0
  8 16  1  6  0  0  0
  9  8  1  0  0  0  0
  9 18  1  1  0  0  0
 11 10  1  0  0  0  0
 12 13  2  0  0  0  0
 14 12  1  0  0  0  0
 14 15  1  0  0  0  0
 17 16  1  0  0  0  0
 18 19  1  0  0  0  0
 18 20  1  0  0  0  0
 19 21  1  0  0  0  0
 22 19  2  0  0  0  0
 24 23  1  0  0  0  0
 25 26  1  0  0  0  0
 25  2  1  0  0  0  0
 27 29  1  0  0  0  0
 27  1  1  0  0  0  0
 28 27  1  0  0  0  0
 30 28  2  0  0  0  0
 31 28  1  0  0  0  0
 32 33  1  0  0  0  0
 32 31  1  0  0  0  0
 33 35  1  0  0  0  0
 34 36  1  0  0  0  0
 34 33  2  0  0  0  0
 36 37  1  0  0  0  0
 37 35  2  0  0  0  0
 38 39  1  6  0  0  0
 38 36  1  0  0  0  0
 38 41  1  0  0  0  0
 40 38  1  0  0  0  0
 42 46  1  1  0  0  0
 42 39  1  0  0  0  0
 42 45  1  0  0  0  0
 43 46  1  6  0  0  0
 43 40  1  0  0  0  0
 43 47  1  0  0  0  0
 44 45  1  6  0  0  0
 44 41  1  0  0  0  0
 47 44  1  0  0  0  0
 48 49  1  0  0  0  0
 50 49  1  0  0  0  0
 50 51  1  0  0  0  0
 51 52  1  0  0  0  0
 52 53  1  0  0  0  0
M  END
>  <REMARK>
 VINA RESULT:    -5.259      0.000      0.000
 INTER + INTRA:         -15.656
 INTER:                 -10.209
 INTRA:                  -5.447
 UNBOUND:                -6.554
 SMILES CC(=O)N[C@@H]1[C@@H](O)C[C@](O)(C(=O)O)O[C@H]1C(O)[C@H](O)CNC(=O)OCc1cn(C23CC4CC(CC(C4)C2)C3)nn1
 SMILES IDX 20 1 18 2 16 3 15 4 9 5 8 6 14 7 6 8 5 9 10 10 11 12 12 13
 SMILES IDX 13 14 7 16 4 18 2 19 1 21 3 22 17 23 19 25 21 27 22 28 23 30
 SMILES IDX 24 31 25 32 26 33 27 34 40 35 28 36 39 37 29 38 38 39 37 40
 SMILES IDX 30 41 33 42 35 43 31 44 32 45 34 46 36 47
 H PARENT 10 11 13 15 7 17 4 20 17 24 19 26 21 29
 Flexibility Score: inf
  4 active torsions:
  status: ('A' for Active; 'I' for Inactive)
    1  A    between atoms: CA   and  CB  
    2  A    between atoms: CB   and  CG  
    3  A    between atoms: CG   and  CD  
    4  A    between atoms: CD   and  CE  

>  <TORSDO>
F 15

>  <BEGIN_>
RES LYS A 131

$$$$
ligand_51_pose_0_2HRL.pdbqt
 OpenBabel07062320523D

  6  5  0  0  0  0  0  0  0  0999 V2000
   33.1930   34.6630    9.2900 C   0  0  0  0  0  0  0  0  0  0  0  0
   32.0600   35.3600   10.0340 C   0  0  0  0  0  0  0  0  0  0  0  0
   30.7910   35.4740    9.2290 C   0  0  0  0  0  0  0  0  0  0  0  0
   30.1790   34.1010    8.9960 C   0  0  0  0  0  0  0  0  0  0  0  0
   28.7510   34.0610    9.5060 C   0  0  0  0  0  0  0  0  0  0  0  0
   27.7940   34.5090    8.4570 N   0  0  0  0  0  0  0  0  0  0  0  0
  1  2  1  0  0  0  0
  3  2  1  0  0  0  0
  4  3  1  0  0  0  0
  4  5  1  0  0  0  0
  6  5  1  0  0  0  0
M  END
>  <EGIN_R>
ES LYS A 135

>  <REMARK>
  4 active torsions:
  status: ('A' for Active; 'I' for Inactive)
    5  A    between atoms: CA   and  CB  
    6  A    between atoms: CB   and  CG  
    7  A    between atoms: CG   and  CD  
    8  A    between atoms: CD   and  CE  

$$$$
ligand_52_pose_0_2HRL.pdbqt
 OpenBabel07062320523D

 49 50  0  0  1  0  0  0  0  0999 V2000
   28.3950   28.7950   20.4660 C   0  0  0  0  0  0  0  0  0  0  0  0
   29.4420   27.9460   21.0880 C   0  0  2  0  0  0  0  0  0  0  0  0
   30.8180   28.4620   20.9060 C   0  0  2  0  0  0  0  0  0  0  0  0
   31.0440   29.9310   21.0020 C   0  0  2  0  0  0  0  0  0  0  0  0
   30.7890   31.9730   20.0520 C   0  0  2  0  0  0  0  0  0  0  0  0
   31.6870   32.5840   21.0670 C   0  0  0  0  0  0  0  0  0  0  0  0
   30.9330   30.6160   19.8350 O   0  0  0  0  0  0  0  0  0  0  0  0
   32.0930   31.7270   22.2150 C   0  0  1  0  0  0  0  0  0  0  0  0
   32.3270   30.2750   21.7060 C   0  0  1  0  0  0  0  0  0  0  0  0
   31.1550   32.5860   18.8110 O   0  0  0  0  0  0  0  0  0  0  0  0
   31.7850   33.2970   19.0720 H   0  0  0  0  0  0  0  0  0  0  0  0
   29.3640   32.3190   20.2560 C   0  0  0  0  0  0  0  0  0  0  0  0
   29.0000   32.8430   21.3370 O   0  0  0  0  0  0  0  0  0  0  0  0
   28.3580   32.1070   19.3220 O   0  0  0  0  0  0  0  0  0  0  0  0
   28.6610   31.7320   18.4170 H   0  0  0  0  0  0  0  0  0  0  0  0
   33.3260   32.1300   22.7280 O   0  0  0  0  0  0  0  0  0  0  0  0
   33.3780   33.1170   22.7230 H   0  0  0  0  0  0  0  0  0  0  0  0
   32.4330   29.4750   22.8960 N   0  0  0  0  0  0  0  0  0  0  0  0
   33.6530   28.9750   23.4040 C   0  0  0  0  0  0  0  0  0  0  0  0
   31.5570   29.2410   23.4330 H   0  0  0  0  0  0  0  0  0  0  0  0
   33.6580   28.1580   24.6390 C   0  0  0  0  0  0  0  0  0  0  0  0
   34.7210   29.2280   22.8020 O   0  0  0  0  0  0  0  0  0  0  0  0
   31.5500   27.8200   19.9250 O   0  0  0  0  0  0  0  0  0  0  0  0
   32.5120   27.7940   20.0450 H   0  0  0  0  0  0  0  0  0  0  0  0
   29.4230   26.6590   20.4970 O   0  0  0  0  0  0  0  0  0  0  0  0
   29.7200   26.7660   19.5710 H   0  0  0  0  0  0  0  0  0  0  0  0
   28.4290   28.9260   19.0400 N   0  0  0  0  0  0  0  0  0  0  0  0
   27.3300   28.9740   18.1910 C   0  0  0  0  0  0  0  0  0  0  0  0
   29.3850   28.9930   18.5720 H   0  0  0  0  0  0  0  0  0  0  0  0
   26.1720   28.8960   18.6220 O   0  0  0  0  0  0  0  0  0  0  0  0
   27.4470   29.1140   16.7970 O   0  0  0  0  0  0  0  0  0  0  0  0
   27.3740   30.3860   16.1930 C   0  0  0  0  0  0  0  0  0  0  0  0
   28.7040   31.0120   16.0740 C   0  0  0  0  0  0  0  0  0  0  0  0
   28.9580   32.0980   15.2510 C   0  0  0  0  0  0  0  0  0  0  0  0
   29.8670   30.7290   16.6590 N   0  0  0  0  0  0  0  0  0  0  0  0
   30.2550   32.4310   15.3650 N   0  0  0  0  0  0  0  0  0  0  0  0
   30.7900   31.5970   16.2180 N   0  0  0  0  0  0  0  0  0  0  0  0
   30.9380   33.4930   14.6910 C   0  0  0  0  0  0  0  0  0  0  0  0
   32.1820   33.9300   15.1090 C   0  0  0  0  0  0  0  0  0  0  0  0
   30.3540   34.1030   13.5990 C   0  0  0  0  0  0  0  0  0  0  0  0
   32.8100   34.9690   14.4190 C   0  0  0  0  0  0  0  0  0  0  0  0
   30.9880   35.1150   12.9450 N   0  0  0  0  0  0  0  0  0  0  0  0
   32.1980   35.5600   13.3290 C   0  0  0  0  0  0  0  0  0  0  0  0
   29.8670   25.5550   16.9770 C   0  0  0  0  0  0  0  0  0  0  0  0
   28.3450   25.7220   17.0260 C   0  0  0  0  0  0  0  0  0  0  0  0
   27.6010   24.4030   16.8880 C   0  0  0  0  0  0  0  0  0  0  0  0
   26.1500   24.5290   17.2620 C   0  0  0  0  0  0  0  0  0  0  0  0
   25.6230   23.1730   17.7220 C   0  0  0  0  0  0  0  0  0  0  0  0
   24.2760   22.9210   17.1570 N   0  0  0  0  0  0  0  0  0  0  0  0
  2  1  1  6  0  0  0
  3 23  1  6  0  0  0
  3  2  1  0  0  0  0
  4  3  1  6  0  0  0
  4  9  1  0  0  0  0
  5 10  1  6  0  0  0
  5 12  1  0  0  0  0
  5  6  1  0  0  0  0
  6  8  1  0  0  0  0
  7  5  1  0  0  0  0
  7  4  1  0  0  0  0
  8 16  1  6  0  0  0
  9  8  1  0  0  0  0
  9 18  1  1  0  0  0
 10 11  1  0  0  0  0
 12 13  2  0  0  0  0
 14 12  1  0  0  0  0
 15 14  1  0  0  0  0
 17 16  1  0  0  0  0
 18 19  1  0  0  0  0
 18 20  1  0  0  0  0
 19 21  1  0  0  0  0
 22 19  2  0  0  0  0
 23 24  1  0  0  0  0
 25  2  1  0  0  0  0
 26 25  1  0  0  0  0
 27  1  1  0  0  0  0
 28 30  2  0  0  0  0
 28 27  1  0  0  0  0
 29 27  1  0  0  0  0
 31 28  1  0  0  0  0
 32 31  1  0  0  0  0
 33 32  1  0  0  0  0
 33 35  1  0  0  0  0
 34 36  1  0  0  0  0
 34 33  2  0  0  0  0
 36 37  1  0  0  0  0
 37 35  2  0  0  0  0
 38 39  1  0  0  0  0
 38 36  1  0  0  0  0
 40 38  2  0  0  0  0
 41 39  2  0  0  0  0
 42 43  2  0  0  0  0
 42 40  1  0  0  0  0
 43 41  1  0  0  0  0
 44 45  1  0  0  0  0
 46 45  1  0  0  0  0
 46 47  1  0  0  0  0
 47 48  1  0  0  0  0
 49 48  1  0  0  0  0
M  END
>  <REMARK>
 VINA RESULT:    -5.357      0.000      0.000
 INTER + INTRA:         -14.436
 INTER:                  -8.223
 INTRA:                  -6.214
 UNBOUND:                -5.164
 SMILES CC(=O)N[C@@H]1[C@@H](O)C[C@](O)(C(=O)O)O[C@H]1C(O)[C@H](O)CNC(=O)OCc1cn(-c2cccnc2)nn1
 SMILES IDX 20 1 18 2 16 3 15 4 9 5 8 6 14 7 6 8 5 9 10 10 11 12 12 13
 SMILES IDX 13 14 7 16 4 18 2 19 1 21 3 22 17 23 19 25 21 27 22 28 23 30
 SMILES IDX 24 31 25 32 26 33 27 34 36 35 28 36 35 37 29 38 30 39 34 40
 SMILES IDX 31 41 33 42 32 43
 H PARENT 10 11 13 15 7 17 4 20 17 24 19 26 21 29
 Flexibility Score: inf
  4 active torsions:
  status: ('A' for Active; 'I' for Inactive)
    1  A    between atoms: CA   and  CB  
    2  A    between atoms: CB   and  CG  
    3  A    between atoms: CG   and  CD  
    4  A    between atoms: CD   and  CE  

>  <TORSDO>
F 15

>  <BEGIN_>
RES LYS A 131

$$$$
ligand_52_pose_0_2HRL.pdbqt
 OpenBabel07062320523D

  6  5  0  0  0  0  0  0  0  0999 V2000
   33.1930   34.6630    9.2900 C   0  0  0  0  0  0  0  0  0  0  0  0
   32.0600   35.3600   10.0340 C   0  0  0  0  0  0  0  0  0  0  0  0
   30.8020   35.5050    9.2170 C   0  0  0  0  0  0  0  0  0  0  0  0
   30.1480   34.1510    8.9930 C   0  0  0  0  0  0  0  0  0  0  0  0
   28.6910   34.3210    8.6060 C   0  0  0  0  0  0  0  0  0  0  0  0
   27.7920   33.6940    9.6140 N   0  0  0  0  0  0  0  0  0  0  0  0
  1  2  1  0  0  0  0
  3  2  1  0  0  0  0
  4  3  1  0  0  0  0
  5  4  1  0  0  0  0
  5  6  1  0  0  0  0
M  END
>  <EGIN_R>
ES LYS A 135

>  <REMARK>
  4 active torsions:
  status: ('A' for Active; 'I' for Inactive)
    5  A    between atoms: CA   and  CB  
    6  A    between atoms: CB   and  CG  
    7  A    between atoms: CG   and  CD  
    8  A    between atoms: CD   and  CE  

$$$$
ligand_53_pose_0_2HRL.pdbqt
 OpenBabel07062320523D

 48 48  0  0  1  0  0  0  0  0999 V2000
   25.8120   34.2610   14.4060 N   0  0  0  0  0  0  0  0  0  0  0  0
   25.4570   34.6890   13.1130 C   0  0  0  0  0  0  0  0  0  0  0  0
   24.3000   34.6280   12.6960 O   0  0  0  0  0  0  0  0  0  0  0  0
   26.8440   34.3750   14.6480 H   0  0  0  0  0  0  0  0  0  0  0  0
   24.9350   33.6980   15.4000 C   0  0  0  0  0  0  0  0  0  0  0  0
   25.5400   32.6590   16.2880 C   0  0  2  0  0  0  0  0  0  0  0  0
   26.6260   31.8760   15.6500 C   0  0  1  0  0  0  0  0  0  0  0  0
   27.9650   31.9540   16.3310 C   0  0  2  0  0  0  0  0  0  0  0  0
   30.2400   32.2920   15.8320 C   0  0  2  0  0  0  0  0  0  0  0  0
   30.6740   31.3500   16.9070 C   0  0  0  0  0  0  0  0  0  0  0  0
   28.9690   32.2000   15.3830 O   0  0  0  0  0  0  0  0  0  0  0  0
   29.5850   31.1430   17.9120 C   0  0  1  0  0  0  0  0  0  0  0  0
   28.3530   30.7150   17.0930 C   0  0  1  0  0  0  0  0  0  0  0  0
   31.1640   32.1200   14.7600 O   0  0  0  0  0  0  0  0  0  0  0  0
   32.0620   32.1270   15.1900 H   0  0  0  0  0  0  0  0  0  0  0  0
   30.4990   33.6840   16.3060 C   0  0  0  0  0  0  0  0  0  0  0  0
   29.7330   34.6510   16.1150 O   0  0  0  0  0  0  0  0  0  0  0  0
   31.6610   33.9330   17.0050 O   0  0  0  0  0  0  0  0  0  0  0  0
   32.5820   33.9220   16.5710 H   0  0  0  0  0  0  0  0  0  0  0  0
   29.9010   30.1680   18.8530 O   0  0  0  0  0  0  0  0  0  0  0  0
   29.2630   30.2760   19.6060 H   0  0  0  0  0  0  0  0  0  0  0  0
   27.3790   30.1670   17.9800 N   0  0  0  0  0  0  0  0  0  0  0  0
   26.8930   28.8310   17.8540 C   0  0  0  0  0  0  0  0  0  0  0  0
   27.0070   30.7400   18.7590 H   0  0  0  0  0  0  0  0  0  0  0  0
   25.8830   28.2290   18.7540 C   0  0  0  0  0  0  0  0  0  0  0  0
   27.3530   28.1280   16.9240 O   0  0  0  0  0  0  0  0  0  0  0  0
   26.2250   30.5820   15.3620 O   0  0  0  0  0  0  0  0  0  0  0  0
   26.5800   29.9270   16.0160 H   0  0  0  0  0  0  0  0  0  0  0  0
   24.5110   31.8260   16.7560 O   0  0  0  0  0  0  0  0  0  0  0  0
   24.5260   30.9440   16.3200 H   0  0  0  0  0  0  0  0  0  0  0  0
   26.4130   35.2080   12.2440 O   0  0  0  0  0  0  0  0  0  0  0  0
   27.3180   36.2190   12.5600 C   0  0  0  0  0  0  0  0  0  0  0  0
   28.7270   35.7710   12.6780 C   0  0  0  0  0  0  0  0  0  0  0  0
   29.8680   36.5000   12.8090 C   0  0  0  0  0  0  0  0  0  0  0  0
   29.1370   34.4690   12.6740 N   0  0  0  0  0  0  0  0  0  0  0  0
   30.9130   35.6570   12.8800 N   0  0  0  0  0  0  0  0  0  0  0  0
   30.4580   34.4350   12.7980 N   0  0  0  0  0  0  0  0  0  0  0  0
   32.2990   36.0520   13.0240 C   0  0  0  0  0  0  0  0  0  0  0  0
   32.8690   35.4400   14.2400 C   0  0  0  0  0  0  0  0  0  0  0  0
   33.0050   36.1440   15.2800 O   0  0  0  0  0  0  0  0  0  0  0  0
   33.2500   34.1150   14.2460 O   0  0  0  0  0  0  0  0  0  0  0  0
   33.0210   33.5740   15.0860 H   0  0  0  0  0  0  0  0  0  0  0  0
   29.8670   25.5550   16.9770 C   0  0  0  0  0  0  0  0  0  0  0  0
   28.3450   25.7220   17.0260 C   0  0  0  0  0  0  0  0  0  0  0  0
   27.6010   24.4010   16.8980 C   0  0  0  0  0  0  0  0  0  0  0  0
   26.6360   24.1830   18.0300 C   0  0  0  0  0  0  0  0  0  0  0  0
   25.5700   23.1790   17.6030 C   0  0  0  0  0  0  0  0  0  0  0  0
   24.4470   23.8700   16.9260 N   0  0  0  0  0  0  0  0  0  0  0  0
  1  4  1  0  0  0  0
  1  5  1  0  0  0  0
  2  1  1  0  0  0  0
  3  2  2  0  0  0  0
  6  5  1  6  0  0  0
  6 29  1  0  0  0  0
  7 27  1  1  0  0  0
  7  6  1  0  0  0  0
  8  7  1  6  0  0  0
  8 13  1  0  0  0  0
  9 14  1  6  0  0  0
  9 16  1  0  0  0  0
  9 10  1  0  0  0  0
 10 12  1  0  0  0  0
 11  9  1  0  0  0  0
 11  8  1  0  0  0  0
 12 20  1  1  0  0  0
 13 12  1  0  0  0  0
 13 22  1  1  0  0  0
 14 15  1  0  0  0  0
 16 18  1  0  0  0  0
 17 16  2  0  0  0  0
 19 18  1  0  0  0  0
 20 21  1  0  0  0  0
 22 24  1  0  0  0  0
 23 22  1  0  0  0  0
 23 25  1  0  0  0  0
 26 23  2  0  0  0  0
 27 28  1  0  0  0  0
 30 29  1  0  0  0  0
 31 32  1  0  0  0  0
 31  2  1  0  0  0  0
 32 33  1  0  0  0  0
 33 34  2  0  0  0  0
 34 36  1  0  0  0  0
 35 33  1  0  0  0  0
 35 37  2  0  0  0  0
 36 38  1  0  0  0  0
 37 36  1  0  0  0  0
 38 39  1  0  0  0  0
 39 41  1  0  0  0  0
 39 40  2  0  0  0  0
 41 42  1  0  0  0  0
 43 44  1  0  0  0  0
 45 44  1  0  0  0  0
 45 46  1  0  0  0  0
 47 46  1  0  0  0  0
 48 47  1  0  0  0  0
M  END
>  <REMARK>
 VINA RESULT:    -4.478      0.000      0.000
 INTER + INTRA:         -14.505
 INTER:                  -8.026
 INTRA:                  -6.479
 UNBOUND:                -6.362
 SMILES CC(=O)N[C@@H]1[C@@H](O)C[C@](O)(C(=O)O)O[C@H]1C(O)[C@H](O)CNC(=O)OCc1cn(CC(=O)O)nn1
 SMILES IDX 21 1 22 2 23 3 20 5 18 6 16 7 15 8 9 9 8 10 14 11 6 12 5 13
 SMILES IDX 10 14 11 16 12 17 13 18 7 20 4 22 2 23 1 25 3 26 17 27 19 29
 SMILES IDX 24 31 25 32 26 33 27 34 34 35 28 36 33 37 29 38 30 39 31 40
 SMILES IDX 32 41
 H PARENT 21 4 10 15 13 19 7 21 4 24 17 28 19 30 32 42
 Flexibility Score: inf
  4 active torsions:
  status: ('A' for Active; 'I' for Inactive)
    1  A    between atoms: CA   and  CB  
    2  A    between atoms: CB   and  CG  
    3  A    between atoms: CG   and  CD  
    4  A    between atoms: CD   and  CE  

>  <TORSDO>
F 17

>  <BEGIN_>
RES LYS A 131

$$$$
ligand_53_pose_0_2HRL.pdbqt
 OpenBabel07062320523D

  6  5  0  0  0  0  0  0  0  0999 V2000
   33.1930   34.6630    9.2900 C   0  0  0  0  0  0  0  0  0  0  0  0
   32.0600   35.3600   10.0340 C   0  0  0  0  0  0  0  0  0  0  0  0
   30.7780   35.4370    9.2450 C   0  0  0  0  0  0  0  0  0  0  0  0
   30.1760   34.0520    9.0650 C   0  0  0  0  0  0  0  0  0  0  0  0
   28.6620   34.1170    9.1340 C   0  0  0  0  0  0  0  0  0  0  0  0
   28.1030   34.8640    7.9740 N   0  0  0  0  0  0  0  0  0  0  0  0
  1  2  1  0  0  0  0
  3  2  1  0  0  0  0
  4  5  1  0  0  0  0
  4  3  1  0  0  0  0
  6  5  1  0  0  0  0
M  END
>  <EGIN_R>
ES LYS A 135

>  <REMARK>
  4 active torsions:
  status: ('A' for Active; 'I' for Inactive)
    5  A    between atoms: CA   and  CB  
    6  A    between atoms: CB   and  CG  
    7  A    between atoms: CG   and  CD  
    8  A    between atoms: CD   and  CE  

$$$$
ligand_54_pose_0_2HRL.pdbqt
 OpenBabel07062320523D

 52 52  0  0  1  0  0  0  0  0999 V2000
   26.0810   32.2760   18.2590 O   0  0  0  0  0  0  0  0  0  0  0  0
   26.0670   31.2210   19.1830 C   0  0  0  0  0  0  0  0  0  0  0  0
   25.9250   29.8780   18.7760 N   0  0  0  0  0  0  0  0  0  0  0  0
   25.8440   29.7290   17.7200 H   0  0  0  0  0  0  0  0  0  0  0  0
   26.1820   31.5080   20.3770 O   0  0  0  0  0  0  0  0  0  0  0  0
   25.8800   28.7160   19.6060 C   0  0  0  0  0  0  0  0  0  0  0  0
   26.8410   27.6630   19.1290 C   0  0  2  0  0  0  0  0  0  0  0  0
   27.8220   27.4390   20.2760 C   0  0  2  0  0  0  0  0  0  0  0  0
   28.3720   28.7280   20.8020 C   0  0  2  0  0  0  0  0  0  0  0  0
   29.9710   30.3130   20.2440 C   0  0  2  0  0  0  0  0  0  0  0  0
   29.9170   30.7910   21.6580 C   0  0  0  0  0  0  0  0  0  0  0  0
   28.8800   29.5560   19.8440 O   0  0  0  0  0  0  0  0  0  0  0  0
   29.5280   29.7470   22.6640 C   0  0  1  0  0  0  0  0  0  0  0  0
   29.3650   28.4390   21.9220 C   0  0  1  0  0  0  0  0  0  0  0  0
   31.1780   29.6560   19.9930 O   0  0  0  0  0  0  0  0  0  0  0  0
   31.5690   29.4250   20.8880 H   0  0  0  0  0  0  0  0  0  0  0  0
   29.9540   31.5320   19.3850 C   0  0  0  0  0  0  0  0  0  0  0  0
   29.3080   32.5480   19.7190 O   0  0  0  0  0  0  0  0  0  0  0  0
   30.6830   31.5200   18.1810 O   0  0  0  0  0  0  0  0  0  0  0  0
   31.1010   30.6240   17.9330 H   0  0  0  0  0  0  0  0  0  0  0  0
   30.4160   29.6490   23.7290 O   0  0  0  0  0  0  0  0  0  0  0  0
   31.2380   29.2280   23.3690 H   0  0  0  0  0  0  0  0  0  0  0  0
   28.7920   27.4040   22.7570 N   0  0  0  0  0  0  0  0  0  0  0  0
   29.6520   26.4740   23.4010 C   0  0  0  0  0  0  0  0  0  0  0  0
   27.7770   27.2920   22.9220 H   0  0  0  0  0  0  0  0  0  0  0  0
   29.1560   25.3880   24.2700 C   0  0  0  0  0  0  0  0  0  0  0  0
   30.8960   26.5810   23.2230 O   0  0  0  0  0  0  0  0  0  0  0  0
   28.8170   26.5780   19.8410 O   0  0  0  0  0  0  0  0  0  0  0  0
   29.7290   26.9660   19.9310 H   0  0  0  0  0  0  0  0  0  0  0  0
   27.5720   28.1150   18.0610 O   0  0  0  0  0  0  0  0  0  0  0  0
   28.5250   27.8440   18.0970 H   0  0  0  0  0  0  0  0  0  0  0  0
   26.0170   32.0060   16.8610 C   0  0  0  0  0  0  0  0  0  0  0  0
   27.3760   31.7510   16.3500 C   0  0  0  0  0  0  0  0  0  0  0  0
   28.1180   32.7340   15.6900 C   0  0  0  0  0  0  0  0  0  0  0  0
   28.1590   30.6810   16.3700 N   0  0  0  0  0  0  0  0  0  0  0  0
   29.3120   32.2100   15.3430 N   0  0  0  0  0  0  0  0  0  0  0  0
   29.3150   30.9770   15.7620 N   0  0  0  0  0  0  0  0  0  0  0  0
   30.3320   32.9370   14.6430 C   0  0  0  0  0  0  0  0  0  0  0  0
   31.6470   32.9770   15.3850 C   0  0  0  0  0  0  0  0  0  0  0  0
   31.8810   34.2740   16.0950 C   0  0  0  0  0  0  0  0  0  0  0  0
   31.1130   34.2800   17.2540 O   0  0  0  0  0  0  0  0  0  0  0  0
   31.6310   35.2010   18.1730 C   0  0  0  0  0  0  0  0  0  0  0  0
   32.2580   34.5110   19.3560 C   0  0  0  0  0  0  0  0  0  0  0  0
   31.5490   35.3650   15.3340 O   0  0  0  0  0  0  0  0  0  0  0  0
   32.6500   35.8990   14.6650 C   0  0  0  0  0  0  0  0  0  0  0  0
   32.3650   35.8870   13.1680 C   0  0  0  0  0  0  0  0  0  0  0  0
   29.8670   25.5550   16.9770 C   0  0  0  0  0  0  0  0  0  0  0  0
   28.3450   25.7220   17.0260 C   0  0  0  0  0  0  0  0  0  0  0  0
   27.5990   24.4760   16.5750 C   0  0  0  0  0  0  0  0  0  0  0  0
   27.1620   23.6260   17.7360 C   0  0  0  0  0  0  0  0  0  0  0  0
   25.6940   23.9010   18.0430 C   0  0  0  0  0  0  0  0  0  0  0  0
   25.5370   24.3810   19.4370 N   0  0  0  0  0  0  0  0  0  0  0  0
  1  2  1  0  0  0  0
  2  5  2  0  0  0  0
  3  2  1  0  0  0  0
  3  6  1  0  0  0  0
  4  3  1  0  0  0  0
  7  6  1  1  0  0  0
  7  8  1  0  0  0  0
  8 28  1  6  0  0  0
  9  8  1  6  0  0  0
  9 14  1  0  0  0  0
 10 17  1  6  0  0  0
 10 11  1  0  0  0  0
 11 13  1  0  0  0  0
 12 10  1  0  0  0  0
 12  9  1  0  0  0  0
 13 21  1  1  0  0  0
 14 13  1  0  0  0  0
 14 23  1  1  0  0  0
 15 10  1  0  0  0  0
 15 16  1  0  0  0  0
 17 18  2  0  0  0  0
 19 17  1  0  0  0  0
 20 19  1  0  0  0  0
 22 21  1  0  0  0  0
 23 25  1  0  0  0  0
 23 24  1  0  0  0  0
 24 26  1  0  0  0  0
 27 24  2  0  0  0  0
 28 29  1  0  0  0  0
 30 31  1  0  0  0  0
 30  7  1  0  0  0  0
 32  1  1  0  0  0  0
 33 35  1  0  0  0  0
 33 32  1  0  0  0  0
 34 33  2  0  0  0  0
 36 34  1  0  0  0  0
 36 37  1  0  0  0  0
 37 35  2  0  0  0  0
 38 36  1  0  0  0  0
 38 39  1  0  0  0  0
 39 40  1  0  0  0  0
 40 41  1  0  0  0  0
 41 42  1  0  0  0  0
 42 43  1  0  0  0  0
 44 40  1  0  0  0  0
 45 44  1  0  0  0  0
 46 45  1  0  0  0  0
 47 48  1  0  0  0  0
 49 48  1  0  0  0  0
 49 50  1  0  0  0  0
 50 51  1  0  0  0  0
 51 52  1  0  0  0  0
M  END
>  <REMARK>
 VINA RESULT:    -4.579      0.000      0.000
 INTER + INTRA:         -15.469
 INTER:                  -8.189
 INTRA:                  -7.280
 UNBOUND:                -5.938
 SMILES CCOC(CCn1cc(COC(=O)NC[C@@H](O)C(O)[C@@H]2O[C@@](O)(C(=O)O)C[C@H](O)[C@H]2NC(C)=O)nn1)OCC
 SMILES IDX 11 1 12 2 14 3 13 5 15 6 16 7 18 8 20 9 22 10 27 11 21 12
 SMILES IDX 28 13 30 14 23 15 24 17 25 18 26 19 29 21 31 23 32 24 33 26
 SMILES IDX 34 27 19 28 17 30 10 32 9 33 8 34 35 35 7 36 36 37 6 38 5 39
 SMILES IDX 4 40 3 41 2 42 1 43 37 44 38 45 39 46
 H PARENT 14 4 23 16 26 20 29 22 31 25 19 29 17 31
 Flexibility Score: inf
  4 active torsions:
  status: ('A' for Active; 'I' for Inactive)
    1  A    between atoms: CA   and  CB  
    2  A    between atoms: CB   and  CG  
    3  A    between atoms: CG   and  CD  
    4  A    between atoms: CD   and  CE  

>  <TORSDO>
F 21

>  <BEGIN_>
RES LYS A 131

$$$$
ligand_54_pose_0_2HRL.pdbqt
 OpenBabel07062320523D

  6  5  0  0  0  0  0  0  0  0999 V2000
   33.1930   34.6630    9.2900 C   0  0  0  0  0  0  0  0  0  0  0  0
   32.0600   35.3600   10.0340 C   0  0  0  0  0  0  0  0  0  0  0  0
   30.7030   34.7650    9.7590 C   0  0  0  0  0  0  0  0  0  0  0  0
   30.4640   34.6420    8.2620 C   0  0  0  0  0  0  0  0  0  0  0  0
   28.9940   34.8310    7.9400 C   0  0  0  0  0  0  0  0  0  0  0  0
   28.8160   35.5530    6.6490 N   0  0  0  0  0  0  0  0  0  0  0  0
  1  2  1  0  0  0  0
  3  2  1  0  0  0  0
  4  3  1  0  0  0  0
  5  4  1  0  0  0  0
  6  5  1  0  0  0  0
M  END
>  <EGIN_R>
ES LYS A 135

>  <REMARK>
  4 active torsions:
  status: ('A' for Active; 'I' for Inactive)
    5  A    between atoms: CA   and  CB  
    6  A    between atoms: CB   and  CG  
    7  A    between atoms: CG   and  CD  
    8  A    between atoms: CD   and  CE  

$$$$
ligand_55_pose_0_2HRL.pdbqt
 OpenBabel07062320523D

 51 51  0  0  1  0  0  0  0  0999 V2000
   28.1900   29.9200   17.1540 N   0  0  0  0  0  0  0  0  0  0  0  0
   26.9790   30.3210   17.7550 C   0  0  0  0  0  0  0  0  0  0  0  0
   26.0720   30.9080   17.1420 O   0  0  0  0  0  0  0  0  0  0  0  0
   28.8890   29.4160   17.7790 H   0  0  0  0  0  0  0  0  0  0  0  0
   28.5560   30.1250   15.8030 C   0  0  0  0  0  0  0  0  0  0  0  0
   29.1800   31.4530   15.4540 C   0  0  2  0  0  0  0  0  0  0  0  0
   30.5530   31.4610   16.0500 C   0  0  2  0  0  0  0  0  0  0  0  0
   30.7660   32.3090   17.2640 C   0  0  2  0  0  0  0  0  0  0  0  0
   30.0040   32.4870   19.4740 C   0  0  2  0  0  0  0  0  0  0  0  0
   30.1660   33.9690   19.4380 C   0  0  0  0  0  0  0  0  0  0  0  0
   30.1010   31.8230   18.3140 O   0  0  0  0  0  0  0  0  0  0  0  0
   29.9700   34.5640   18.0700 C   0  0  1  0  0  0  0  0  0  0  0  0
   30.6760   33.7830   17.0150 C   0  0  1  0  0  0  0  0  0  0  0  0
   28.7650   32.1960   20.0580 O   0  0  0  0  0  0  0  0  0  0  0  0
   28.5640   32.8890   20.7230 H   0  0  0  0  0  0  0  0  0  0  0  0
   31.0320   31.9390   20.4050 C   0  0  0  0  0  0  0  0  0  0  0  0
   31.6860   32.6310   21.2070 O   0  0  0  0  0  0  0  0  0  0  0  0
   31.3090   30.5590   20.4080 O   0  0  0  0  0  0  0  0  0  0  0  0
   32.0060   30.1630   21.0260 H   0  0  0  0  0  0  0  0  0  0  0  0
   28.6070   34.7200   17.8480 O   0  0  0  0  0  0  0  0  0  0  0  0
   28.1500   34.4840   18.6960 H   0  0  0  0  0  0  0  0  0  0  0  0
   31.9810   34.3860   16.8180 N   0  0  0  0  0  0  0  0  0  0  0  0
   32.4160   34.9300   15.5800 C   0  0  0  0  0  0  0  0  0  0  0  0
   32.6900   34.4510   17.6090 H   0  0  0  0  0  0  0  0  0  0  0  0
   33.7780   35.5430   15.4260 C   0  0  0  0  0  0  0  0  0  0  0  0
   31.6070   34.8740   14.6180 O   0  0  0  0  0  0  0  0  0  0  0  0
   31.3980   31.8960   14.9870 O   0  0  0  0  0  0  0  0  0  0  0  0
   31.7450   32.7950   15.1630 H   0  0  0  0  0  0  0  0  0  0  0  0
   28.3440   32.4620   15.8490 O   0  0  0  0  0  0  0  0  0  0  0  0
   27.4180   32.2790   15.6470 H   0  0  0  0  0  0  0  0  0  0  0  0
   26.7630   30.0600   19.1030 O   0  0  0  0  0  0  0  0  0  0  0  0
   26.7420   28.7690   19.6580 C   0  0  0  0  0  0  0  0  0  0  0  0
   27.9890   28.4940   20.3950 C   0  0  0  0  0  0  0  0  0  0  0  0
   28.8100   27.3860   20.3230 C   0  0  0  0  0  0  0  0  0  0  0  0
   28.5520   29.3040   21.2880 N   0  0  0  0  0  0  0  0  0  0  0  0
   29.8370   27.5540   21.1670 N   0  0  0  0  0  0  0  0  0  0  0  0
   29.6510   28.7370   21.7420 N   0  0  0  0  0  0  0  0  0  0  0  0
   30.9540   26.6940   21.4580 C   0  0  0  0  0  0  0  0  0  0  0  0
   31.9310   27.3330   22.4280 C   0  0  0  0  0  0  0  0  0  0  0  0
   32.8230   28.1710   21.6560 N   0  0  0  0  0  0  0  0  0  0  0  0
   32.3730   28.5420   20.8070 H   0  0  0  0  0  0  0  0  0  0  0  0
   33.4850   29.4540   22.5890 S   0  0  0  0  0  0  0  0  0  0  0  0
   34.1510   30.4080   21.6320 O   0  0  0  0  0  0  0  0  0  0  0  0
   32.3970   30.1190   23.3690 O   0  0  0  0  0  0  0  0  0  0  0  0
   34.7270   28.8460   23.7080 C   0  0  0  0  0  0  0  0  0  0  0  0
   29.8670   25.5550   16.9770 C   0  0  0  0  0  0  0  0  0  0  0  0
   28.3450   25.7220   17.0260 C   0  0  0  0  0  0  0  0  0  0  0  0
   27.6020   24.3990   16.9260 C   0  0  0  0  0  0  0  0  0  0  0  0
   26.1650   24.5220   17.3510 C   0  0  0  0  0  0  0  0  0  0  0  0
   26.1020   25.0170   18.7930 C   0  0  0  0  0  0  0  0  0  0  0  0
   24.9800   24.3710   19.5140 N   0  0  0  0  0  0  0  0  0  0  0  0
  1  2  1  0  0  0  0
  1  4  1  0  0  0  0
  2 31  1  0  0  0  0
  3  2  2  0  0  0  0
  5  1  1  0  0  0  0
  6  5  1  1  0  0  0
  6 29  1  0  0  0  0
  6  7  1  0  0  0  0
  7 27  1  6  0  0  0
  8  7  1  6  0  0  0
  8 11  1  0  0  0  0
  9 14  1  1  0  0  0
  9 16  1  0  0  0  0
 10  9  1  0  0  0  0
 11  9  1  0  0  0  0
 12 20  1  6  0  0  0
 12 10  1  0  0  0  0
 13 22  1  1  0  0  0
 13  8  1  0  0  0  0
 13 12  1  0  0  0  0
 14 15  1  0  0  0  0
 16 18  1  0  0  0  0
 16 17  2  0  0  0  0
 18 19  1  0  0  0  0
 20 21  1  0  0  0  0
 22 24  1  0  0  0  0
 23 22  1  0  0  0  0
 25 23  1  0  0  0  0
 26 23  2  0  0  0  0
 27 28  1  0  0  0  0
 30 29  1  0  0  0  0
 31 32  1  0  0  0  0
 32 33  1  0  0  0  0
 33 35  1  0  0  0  0
 34 33  2  0  0  0  0
 34 36  1  0  0  0  0
 35 37  2  0  0  0  0
 36 38  1  0  0  0  0
 36 37  1  0  0  0  0
 38 39  1  0  0  0  0
 40 39  1  0  0  0  0
 40 42  1  0  0  0  0
 41 40  1  0  0  0  0
 42 44  2  0  0  0  0
 42 45  1  0  0  0  0
 43 42  2  0  0  0  0
 46 47  1  0  0  0  0
 48 47  1  0  0  0  0
 48 49  1  0  0  0  0
 49 50  1  0  0  0  0
 50 51  1  0  0  0  0
M  END
>  <REMARK>
 VINA RESULT:    -4.909      0.000      0.000
 INTER + INTRA:         -15.633
 INTER:                  -7.932
 INTRA:                  -7.701
 UNBOUND:                -6.277
 SMILES CC(=O)N[C@@H]1[C@@H](O)C[C@](O)(C(=O)O)O[C@H]1C(O)[C@H](O)CNC(=O)OCc1cn(CCNS(C)(=O)=O)nn1
 SMILES IDX 21 1 22 2 23 3 20 5 18 6 16 7 15 8 9 9 8 10 14 11 6 12 5 13
 SMILES IDX 10 14 11 16 12 17 13 18 7 20 4 22 2 23 1 25 3 26 17 27 19 29
 SMILES IDX 24 31 25 32 26 33 27 34 37 35 28 36 36 37 29 38 30 39 31 40
 SMILES IDX 32 42 34 43 35 44 33 45
 H PARENT 21 4 10 15 13 19 7 21 4 24 17 28 19 30 31 41
 Flexibility Score: inf
  4 active torsions:
  status: ('A' for Active; 'I' for Inactive)
    1  A    between atoms: CA   and  CB  
    2  A    between atoms: CB   and  CG  
    3  A    between atoms: CG   and  CD  
    4  A    between atoms: CD   and  CE  

>  <TORSDO>
F 18

>  <BEGIN_>
RES LYS A 131

$$$$
ligand_55_pose_0_2HRL.pdbqt
 OpenBabel07062320523D

  6  5  0  0  0  0  0  0  0  0999 V2000
   33.1930   34.6630    9.2900 C   0  0  0  0  0  0  0  0  0  0  0  0
   32.0600   35.3600   10.0340 C   0  0  0  0  0  0  0  0  0  0  0  0
   30.8590   35.6480    9.1700 C   0  0  0  0  0  0  0  0  0  0  0  0
   30.3190   34.3650    8.5580 C   0  0  0  0  0  0  0  0  0  0  0  0
   28.8050   34.4130    8.4710 C   0  0  0  0  0  0  0  0  0  0  0  0
   28.1780   33.7340    9.6390 N   0  0  0  0  0  0  0  0  0  0  0  0
  1  2  1  0  0  0  0
  3  2  1  0  0  0  0
  4  3  1  0  0  0  0
  5  4  1  0  0  0  0
  5  6  1  0  0  0  0
M  END
>  <EGIN_R>
ES LYS A 135

>  <REMARK>
  4 active torsions:
  status: ('A' for Active; 'I' for Inactive)
    5  A    between atoms: CA   and  CB  
    6  A    between atoms: CB   and  CG  
    7  A    between atoms: CG   and  CD  
    8  A    between atoms: CD   and  CE  

$$$$
ligand_56_pose_0_2HRL.pdbqt
 OpenBabel07062320523D

 49 50  0  0  1  0  0  0  0  0999 V2000
   30.4410   26.9600   21.4150 C   0  0  0  0  0  0  0  0  0  0  0  0
   31.7330   27.6130   21.0690 C   0  0  2  0  0  0  0  0  0  0  0  0
   31.7080   29.1150   21.2990 C   0  0  2  0  0  0  0  0  0  0  0  0
   33.0450   29.6940   21.5960 C   0  0  2  0  0  0  0  0  0  0  0  0
   34.8130   29.6920   23.0790 C   0  0  2  0  0  0  0  0  0  0  0  0
   35.3470   30.7900   22.1930 C   0  0  0  0  0  0  0  0  0  0  0  0
   33.7660   29.0030   22.5290 O   0  0  0  0  0  0  0  0  0  0  0  0
   34.2870   31.7740   21.7840 C   0  0  1  0  0  0  0  0  0  0  0  0
   32.9400   31.1360   22.0640 C   0  0  1  0  0  0  0  0  0  0  0  0
   34.5060   30.1580   24.3570 O   0  0  0  0  0  0  0  0  0  0  0  0
   33.9690   30.9940   24.3270 H   0  0  0  0  0  0  0  0  0  0  0  0
   35.9390   28.7090   23.2550 C   0  0  0  0  0  0  0  0  0  0  0  0
   37.1020   29.0460   23.5250 O   0  0  0  0  0  0  0  0  0  0  0  0
   35.6010   27.3680   23.0960 O   0  0  0  0  0  0  0  0  0  0  0  0
   34.6730   27.0390   23.3480 H   0  0  0  0  0  0  0  0  0  0  0  0
   34.4020   32.9830   22.4710 O   0  0  0  0  0  0  0  0  0  0  0  0
   33.5360   33.4580   22.4470 H   0  0  0  0  0  0  0  0  0  0  0  0
   31.8650   31.8440   21.4080 N   0  0  0  0  0  0  0  0  0  0  0  0
   31.1290   32.8480   22.0940 C   0  0  0  0  0  0  0  0  0  0  0  0
   31.6000   31.6420   20.4270 H   0  0  0  0  0  0  0  0  0  0  0  0
   30.0100   33.6010   21.4440 C   0  0  0  0  0  0  0  0  0  0  0  0
   31.4300   33.1130   23.2850 O   0  0  0  0  0  0  0  0  0  0  0  0
   30.6910   29.4720   22.1460 O   0  0  0  0  0  0  0  0  0  0  0  0
   30.9070   30.3480   22.5640 H   0  0  0  0  0  0  0  0  0  0  0  0
   32.0920   27.4420   19.7440 O   0  0  0  0  0  0  0  0  0  0  0  0
   32.1950   26.5010   19.4780 H   0  0  0  0  0  0  0  0  0  0  0  0
   29.5320   26.9790   20.3050 N   0  0  0  0  0  0  0  0  0  0  0  0
   28.3890   27.7710   20.1380 C   0  0  0  0  0  0  0  0  0  0  0  0
   29.7380   26.3080   19.4860 H   0  0  0  0  0  0  0  0  0  0  0  0
   28.0410   28.5710   21.0070 O   0  0  0  0  0  0  0  0  0  0  0  0
   27.5800   27.7020   18.9880 O   0  0  0  0  0  0  0  0  0  0  0  0
   26.9340   28.8890   18.5170 C   0  0  0  0  0  0  0  0  0  0  0  0
   27.8290   29.6760   17.6630 C   0  0  0  0  0  0  0  0  0  0  0  0
   28.6830   30.7020   17.9990 C   0  0  0  0  0  0  0  0  0  0  0  0
   27.9670   29.5060   16.3310 N   0  0  0  0  0  0  0  0  0  0  0  0
   29.2920   31.1010   16.8600 N   0  0  0  0  0  0  0  0  0  0  0  0
   28.8550   30.3760   15.8620 N   0  0  0  0  0  0  0  0  0  0  0  0
   30.2620   32.1430   16.7310 C   0  0  0  0  0  0  0  0  0  0  0  0
   30.8990   32.3070   15.5250 C   0  0  0  0  0  0  0  0  0  0  0  0
   30.5510   32.9710   17.8090 C   0  0  0  0  0  0  0  0  0  0  0  0
   31.8320   33.3160   15.4180 C   0  0  0  0  0  0  0  0  0  0  0  0
   31.4820   33.9570   17.6530 C   0  0  0  0  0  0  0  0  0  0  0  0
   32.1010   34.1080   16.4640 N   0  0  0  0  0  0  0  0  0  0  0  0
   29.8670   25.5550   16.9770 C   0  0  0  0  0  0  0  0  0  0  0  0
   28.3450   25.7220   17.0260 C   0  0  0  0  0  0  0  0  0  0  0  0
   27.6010   24.4040   16.8800 C   0  0  0  0  0  0  0  0  0  0  0  0
   26.6550   24.1570   18.0230 C   0  0  0  0  0  0  0  0  0  0  0  0
   25.3730   23.5230   17.4940 C   0  0  0  0  0  0  0  0  0  0  0  0
   24.5010   24.5510   16.8790 N   0  0  0  0  0  0  0  0  0  0  0  0
  2  3  1  0  0  0  0
  2  1  1  6  0  0  0
  3 23  1  1  0  0  0
  4  3  1  1  0  0  0
  4  9  1  0  0  0  0
  4  7  1  0  0  0  0
  5 12  1  1  0  0  0
  5 10  1  0  0  0  0
  6  5  1  0  0  0  0
  7  5  1  0  0  0  0
  8  9  1  0  0  0  0
  8  6  1  0  0  0  0
  8 16  1  1  0  0  0
  9 18  1  6  0  0  0
 11 10  1  0  0  0  0
 12 13  2  0  0  0  0
 14 12  1  0  0  0  0
 14 15  1  0  0  0  0
 17 16  1  0  0  0  0
 18 19  1  0  0  0  0
 19 22  2  0  0  0  0
 20 18  1  0  0  0  0
 21 19  1  0  0  0  0
 23 24  1  0  0  0  0
 25  2  1  0  0  0  0
 26 25  1  0  0  0  0
 27  1  1  0  0  0  0
 28 27  1  0  0  0  0
 28 30  2  0  0  0  0
 29 27  1  0  0  0  0
 31 28  1  0  0  0  0
 32 31  1  0  0  0  0
 33 34  2  0  0  0  0
 33 32  1  0  0  0  0
 35 33  1  0  0  0  0
 36 34  1  0  0  0  0
 37 35  2  0  0  0  0
 37 36  1  0  0  0  0
 38 36  1  0  0  0  0
 38 40  2  0  0  0  0
 39 38  1  0  0  0  0
 41 39  2  0  0  0  0
 41 43  1  0  0  0  0
 42 40  1  0  0  0  0
 43 42  2  0  0  0  0
 44 45  1  0  0  0  0
 46 45  1  0  0  0  0
 46 47  1  0  0  0  0
 48 47  1  0  0  0  0
 49 48  1  0  0  0  0
M  END
>  <REMARK>
 VINA RESULT:    -5.503      0.000      0.000
 INTER + INTRA:         -14.797
 INTER:                  -9.243
 INTRA:                  -5.554
 UNBOUND:                -5.272
 SMILES CC(=O)N[C@@H]1[C@@H](O)C[C@](O)(C(=O)O)O[C@H]1C(O)[C@H](O)CNC(=O)OCc1cn(-c2ccncc2)nn1
 SMILES IDX 20 1 18 2 16 3 15 4 9 5 8 6 14 7 6 8 5 9 10 10 11 12 12 13
 SMILES IDX 13 14 7 16 4 18 2 19 1 21 3 22 17 23 19 25 21 27 22 28 23 30
 SMILES IDX 24 31 25 32 26 33 27 34 36 35 28 36 35 37 29 38 30 39 34 40
 SMILES IDX 31 41 33 42 32 43
 H PARENT 10 11 13 15 7 17 4 20 17 24 19 26 21 29
 Flexibility Score: inf
  4 active torsions:
  status: ('A' for Active; 'I' for Inactive)
    1  A    between atoms: CA   and  CB  
    2  A    between atoms: CB   and  CG  
    3  A    between atoms: CG   and  CD  
    4  A    between atoms: CD   and  CE  

>  <TORSDO>
F 15

>  <BEGIN_>
RES LYS A 131

$$$$
ligand_56_pose_0_2HRL.pdbqt
 OpenBabel07062320523D

  6  5  0  0  0  0  0  0  0  0999 V2000
   33.1930   34.6630    9.2900 C   0  0  0  0  0  0  0  0  0  0  0  0
   32.0600   35.3600   10.0340 C   0  0  0  0  0  0  0  0  0  0  0  0
   30.7050   34.7570    9.7690 C   0  0  0  0  0  0  0  0  0  0  0  0
   30.5350   34.4480    8.2900 C   0  0  0  0  0  0  0  0  0  0  0  0
   29.3250   35.1700    7.7300 C   0  0  0  0  0  0  0  0  0  0  0  0
   28.3490   35.4970    8.8070 N   0  0  0  0  0  0  0  0  0  0  0  0
  1  2  1  0  0  0  0
  3  2  1  0  0  0  0
  4  3  1  0  0  0  0
  5  4  1  0  0  0  0
  5  6  1  0  0  0  0
M  END
>  <EGIN_R>
ES LYS A 135

>  <REMARK>
  4 active torsions:
  status: ('A' for Active; 'I' for Inactive)
    5  A    between atoms: CA   and  CB  
    6  A    between atoms: CB   and  CG  
    7  A    between atoms: CG   and  CD  
    8  A    between atoms: CD   and  CE  

$$$$
ligand_57_pose_0_2HRL.pdbqt
 OpenBabel07062320523D

 50 51  0  0  1  0  0  0  0  0999 V2000
   26.0150   28.5850   19.7750 C   0  0  0  0  0  0  0  0  0  0  0  0
   27.0260   28.6550   20.8710 C   0  0  2  0  0  0  0  0  0  0  0  0
   27.8530   27.3920   20.9820 C   0  0  2  0  0  0  0  0  0  0  0  0
   29.2670   27.7440   21.3940 C   0  0  2  0  0  0  0  0  0  0  0  0
   31.4930   27.7500   20.6900 C   0  0  2  0  0  0  0  0  0  0  0  0
   31.9370   27.1900   22.0060 C   0  0  0  0  0  0  0  0  0  0  0  0
   30.1710   27.6000   20.3900 O   0  0  0  0  0  0  0  0  0  0  0  0
   30.9620   27.5210   23.1040 C   0  0  1  0  0  0  0  0  0  0  0  0
   29.5980   27.0050   22.6520 C   0  0  1  0  0  0  0  0  0  0  0  0
   32.3110   27.1660   19.6820 O   0  0  0  0  0  0  0  0  0  0  0  0
   32.2010   26.1840   19.6600 H   0  0  0  0  0  0  0  0  0  0  0  0
   31.7850   29.2070   20.6830 C   0  0  0  0  0  0  0  0  0  0  0  0
   32.7340   29.6570   21.3730 O   0  0  0  0  0  0  0  0  0  0  0  0
   31.0710   30.1450   19.9530 O   0  0  0  0  0  0  0  0  0  0  0  0
   30.3470   30.7300   20.3690 H   0  0  0  0  0  0  0  0  0  0  0  0
   31.3130   26.9050   24.3080 O   0  0  0  0  0  0  0  0  0  0  0  0
   31.2340   27.5120   25.0780 H   0  0  0  0  0  0  0  0  0  0  0  0
   28.6770   27.4050   23.7230 N   0  0  0  0  0  0  0  0  0  0  0  0
   27.9220   26.4670   24.4550 C   0  0  0  0  0  0  0  0  0  0  0  0
   28.6090   28.4130   23.9180 H   0  0  0  0  0  0  0  0  0  0  0  0
   26.9830   26.8950   25.5500 C   0  0  0  0  0  0  0  0  0  0  0  0
   28.0480   25.2470   24.1730 O   0  0  0  0  0  0  0  0  0  0  0  0
   27.8010   26.7220   19.7810 O   0  0  0  0  0  0  0  0  0  0  0  0
   27.6380   27.3510   19.0340 H   0  0  0  0  0  0  0  0  0  0  0  0
   26.3340   28.8180   22.0940 O   0  0  0  0  0  0  0  0  0  0  0  0
   26.8340   28.3940   22.8410 H   0  0  0  0  0  0  0  0  0  0  0  0
   26.3880   29.5250   18.7400 N   0  0  0  0  0  0  0  0  0  0  0  0
   26.9640   29.1610   17.4940 C   0  0  0  0  0  0  0  0  0  0  0  0
   26.2450   30.5730   18.8600 H   0  0  0  0  0  0  0  0  0  0  0  0
   27.1720   27.9630   17.2490 O   0  0  0  0  0  0  0  0  0  0  0  0
   27.3070   30.1010   16.5310 O   0  0  0  0  0  0  0  0  0  0  0  0
   28.5090   29.9750   15.7970 C   0  0  0  0  0  0  0  0  0  0  0  0
   29.4960   31.0000   16.2250 C   0  0  0  0  0  0  0  0  0  0  0  0
   30.2100   31.8660   15.4470 C   0  0  0  0  0  0  0  0  0  0  0  0
   29.8670   31.2560   17.4930 N   0  0  0  0  0  0  0  0  0  0  0  0
   30.9910   32.6220   16.2370 N   0  0  0  0  0  0  0  0  0  0  0  0
   30.7520   32.2190   17.4880 N   0  0  0  0  0  0  0  0  0  0  0  0
   31.8980   33.6590   15.7980 C   0  0  0  0  0  0  0  0  0  0  0  0
   32.1390   34.6800   16.8870 C   0  0  0  0  0  0  0  0  0  0  0  0
   31.4390   34.2850   14.5160 C   0  0  0  0  0  0  0  0  0  0  0  0
   31.0650   35.7410   16.9330 C   0  0  0  0  0  0  0  0  0  0  0  0
   30.3480   35.2950   14.6860 C   0  0  0  0  0  0  0  0  0  0  0  0
   30.7570   36.2790   15.6410 N   0  0  0  0  0  0  0  0  0  0  0  0
   31.8140   37.0800   15.0950 C   0  0  0  0  0  0  0  0  0  0  0  0
   29.8670   25.5550   16.9770 C   0  0  0  0  0  0  0  0  0  0  0  0
   28.3450   25.7220   17.0260 C   0  0  0  0  0  0  0  0  0  0  0  0
   27.6020   24.3990   16.9210 C   0  0  0  0  0  0  0  0  0  0  0  0
   26.1660   24.5200   17.3520 C   0  0  0  0  0  0  0  0  0  0  0  0
   25.8810   23.5100   18.4580 C   0  0  0  0  0  0  0  0  0  0  0  0
   25.4480   24.2030   19.6950 N   0  0  0  0  0  0  0  0  0  0  0  0
  2  1  1  6  0  0  0
  2  3  1  0  0  0  0
  2 25  1  0  0  0  0
  3 23  1  6  0  0  0
  4  3  1  6  0  0  0
  4  9  1  0  0  0  0
  5 10  1  6  0  0  0
  5  6  1  0  0  0  0
  6  8  1  0  0  0  0
  7  5  1  0  0  0  0
  7  4  1  0  0  0  0
  8 16  1  1  0  0  0
  9  8  1  0  0  0  0
  9 18  1  1  0  0  0
 11 10  1  0  0  0  0
 12  5  1  0  0  0  0
 12 13  2  0  0  0  0
 14 15  1  0  0  0  0
 14 12  1  0  0  0  0
 16 17  1  0  0  0  0
 18 20  1  0  0  0  0
 18 19  1  0  0  0  0
 19 21  1  0  0  0  0
 22 19  2  0  0  0  0
 24 23  1  0  0  0  0
 25 26  1  0  0  0  0
 27 29  1  0  0  0  0
 27  1  1  0  0  0  0
 28 27  1  0  0  0  0
 30 28  2  0  0  0  0
 31 28  1  0  0  0  0
 32 33  1  0  0  0  0
 32 31  1  0  0  0  0
 33 35  1  0  0  0  0
 34 33  2  0  0  0  0
 34 36  1  0  0  0  0
 36 37  1  0  0  0  0
 37 35  2  0  0  0  0
 38 36  1  0  0  0  0
 38 39  1  0  0  0  0
 39 41  1  0  0  0  0
 40 42  1  0  0  0  0
 40 38  1  0  0  0  0
 42 43  1  0  0  0  0
 43 41  1  0  0  0  0
 44 43  1  0  0  0  0
 45 46  1  0  0  0  0
 47 46  1  0  0  0  0
 47 48  1  0  0  0  0
 48 49  1  0  0  0  0
 49 50  1  0  0  0  0
M  END
>  <REMARK>
 VINA RESULT:    -4.939      0.000      0.000
 INTER + INTRA:         -14.335
 INTER:                  -8.842
 INTRA:                  -5.492
 UNBOUND:                -5.786
 SMILES CC(=O)N[C@@H]1[C@@H](O)C[C@](O)(C(=O)O)O[C@H]1C(O)[C@H](O)CNC(=O)OCc1cn(C2CCN(C)CC2)nn1
 SMILES IDX 20 1 18 2 16 3 15 4 9 5 8 6 14 7 6 8 5 9 10 10 11 12 12 13
 SMILES IDX 13 14 7 16 4 18 2 19 1 21 3 22 17 23 19 25 21 27 22 28 23 30
 SMILES IDX 24 31 25 32 26 33 27 34 37 35 28 36 36 37 29 38 30 39 35 40
 SMILES IDX 31 41 34 42 32 43 33 44
 H PARENT 10 11 13 15 7 17 4 20 17 24 19 26 21 29
 Flexibility Score: inf
  4 active torsions:
  status: ('A' for Active; 'I' for Inactive)
    1  A    between atoms: CA   and  CB  
    2  A    between atoms: CB   and  CG  
    3  A    between atoms: CG   and  CD  
    4  A    between atoms: CD   and  CE  

>  <TORSDO>
F 15

>  <BEGIN_>
RES LYS A 131

$$$$
ligand_57_pose_0_2HRL.pdbqt
 OpenBabel07062320523D

  6  5  0  0  0  0  0  0  0  0999 V2000
   33.1930   34.6630    9.2900 C   0  0  0  0  0  0  0  0  0  0  0  0
   32.0600   35.3600   10.0340 C   0  0  0  0  0  0  0  0  0  0  0  0
   30.7220   34.6900    9.8580 C   0  0  0  0  0  0  0  0  0  0  0  0
   30.3090   34.6910    8.3950 C   0  0  0  0  0  0  0  0  0  0  0  0
   28.8090   34.5060    8.2640 C   0  0  0  0  0  0  0  0  0  0  0  0
   28.2230   33.9750    9.5260 N   0  0  0  0  0  0  0  0  0  0  0  0
  1  2  1  0  0  0  0
  3  2  1  0  0  0  0
  4  3  1  0  0  0  0
  5  4  1  0  0  0  0
  5  6  1  0  0  0  0
M  END
>  <EGIN_R>
ES LYS A 135

>  <REMARK>
  4 active torsions:
  status: ('A' for Active; 'I' for Inactive)
    5  A    between atoms: CA   and  CB  
    6  A    between atoms: CB   and  CG  
    7  A    between atoms: CG   and  CD  
    8  A    between atoms: CD   and  CE  

$$$$
ligand_58_pose_0_2HRL.pdbqt
 OpenBabel07062320523D

 56 58  0  0  1  0  0  0  0  0999 V2000
   31.0610   35.1870   14.7350 N   0  0  0  0  0  0  0  0  0  0  0  0
   30.5060   35.2840   13.4400 C   0  0  0  0  0  0  0  0  0  0  0  0
   30.9040   34.5240   12.5260 O   0  0  0  0  0  0  0  0  0  0  0  0
   30.7110   35.8340   15.4710 H   0  0  0  0  0  0  0  0  0  0  0  0
   32.0750   34.2300   15.0460 C   0  0  0  0  0  0  0  0  0  0  0  0
   31.7040   33.5250   16.3510 C   0  0  2  0  0  0  0  0  0  0  0  0
   30.5340   32.6180   16.0050 C   0  0  2  0  0  0  0  0  0  0  0  0
   30.4430   31.3640   16.8270 C   0  0  2  0  0  0  0  0  0  0  0  0
   28.1510   30.8740   16.6010 C   0  0  2  0  0  0  0  0  0  0  0  0
   27.8970   31.2550   18.0430 C   0  0  0  0  0  0  0  0  0  0  0  0
   29.4360   30.5960   16.2770 O   0  0  0  0  0  0  0  0  0  0  0  0
   28.9250   32.2010   18.5870 C   0  0  1  0  0  0  0  0  0  0  0  0
   30.2740   31.6280   18.2700 C   0  0  1  0  0  0  0  0  0  0  0  0
   27.7320   31.9710   15.8450 O   0  0  0  0  0  0  0  0  0  0  0  0
   28.4560   32.6550   15.9110 H   0  0  0  0  0  0  0  0  0  0  0  0
   27.2270   29.7360   16.2460 C   0  0  0  0  0  0  0  0  0  0  0  0
   26.1330   29.9340   15.7110 O   0  0  0  0  0  0  0  0  0  0  0  0
   27.6360   28.4540   16.5340 O   0  0  0  0  0  0  0  0  0  0  0  0
   28.4440   28.3160   17.1510 H   0  0  0  0  0  0  0  0  0  0  0  0
   28.6950   33.4420   18.0650 O   0  0  0  0  0  0  0  0  0  0  0  0
   29.0140   34.1610   18.6760 H   0  0  0  0  0  0  0  0  0  0  0  0
   30.4040   30.3840   19.0560 N   0  0  0  0  0  0  0  0  0  0  0  0
   31.0540   30.3480   20.3010 C   0  0  0  0  0  0  0  0  0  0  0  0
   29.9950   29.5120   18.6570 H   0  0  0  0  0  0  0  0  0  0  0  0
   31.1630   29.0740   21.0590 C   0  0  0  0  0  0  0  0  0  0  0  0
   31.5550   31.3970   20.7920 O   0  0  0  0  0  0  0  0  0  0  0  0
   30.7900   32.2200   14.6410 O   0  0  0  0  0  0  0  0  0  0  0  0
   31.6150   32.6120   14.3170 H   0  0  0  0  0  0  0  0  0  0  0  0
   31.3450   34.5400   17.2260 O   0  0  0  0  0  0  0  0  0  0  0  0
   30.7470   35.2010   16.8270 H   0  0  0  0  0  0  0  0  0  0  0  0
   29.5160   36.2100   13.1340 O   0  0  0  0  0  0  0  0  0  0  0  0
   28.1880   35.7740   13.0370 C   0  0  0  0  0  0  0  0  0  0  0  0
   27.4410   36.6950   12.1430 C   0  0  0  0  0  0  0  0  0  0  0  0
   27.1610   36.4580   10.7940 C   0  0  0  0  0  0  0  0  0  0  0  0
   26.8930   37.8980   12.3880 N   0  0  0  0  0  0  0  0  0  0  0  0
   26.4800   37.4960   10.3040 N   0  0  0  0  0  0  0  0  0  0  0  0
   26.3270   38.3550   11.2770 N   0  0  0  0  0  0  0  0  0  0  0  0
   25.9820   37.6810    8.9480 C   0  0  0  0  0  0  0  0  0  0  0  0
   26.9990   37.3460    7.9510 C   0  0  0  0  0  0  0  0  0  0  0  0
   26.9060   36.2020    7.1490 C   0  0  0  0  0  0  0  0  0  0  0  0
   28.0820   38.1810    7.7640 C   0  0  0  0  0  0  0  0  0  0  0  0
   27.8700   35.9220    6.2050 C   0  0  0  0  0  0  0  0  0  0  0  0
   29.0340   37.8770    6.8110 C   0  0  0  0  0  0  0  0  0  0  0  0
   28.9560   36.7530    6.0150 C   0  0  0  0  0  0  0  0  0  0  0  0
   24.6480   37.1130    8.7330 C   0  0  0  0  0  0  0  0  0  0  0  0
   24.2370   35.9710    9.4430 C   0  0  0  0  0  0  0  0  0  0  0  0
   23.7770   37.6900    7.8410 C   0  0  0  0  0  0  0  0  0  0  0  0
   22.9870   35.4420    9.2500 C   0  0  0  0  0  0  0  0  0  0  0  0
   22.5040   37.1400    7.6530 C   0  0  0  0  0  0  0  0  0  0  0  0
   22.1170   36.0230    8.3550 C   0  0  0  0  0  0  0  0  0  0  0  0
   29.8670   25.5550   16.9770 C   0  0  0  0  0  0  0  0  0  0  0  0
   28.3450   25.7220   17.0260 C   0  0  0  0  0  0  0  0  0  0  0  0
   27.6010   24.4020   16.8900 C   0  0  0  0  0  0  0  0  0  0  0  0
   26.5410   24.2380   17.9430 C   0  0  0  0  0  0  0  0  0  0  0  0
   25.1620   24.3470   17.2990 C   0  0  0  0  0  0  0  0  0  0  0  0
   24.5050   23.0200   17.2530 N   0  0  0  0  0  0  0  0  0  0  0  0
  1  5  1  0  0  0  0
  1  4  1  0  0  0  0
  2  1  1  0  0  0  0
  3  2  2  0  0  0  0
  6  5  1  6  0  0  0
  6 29  1  0  0  0  0
  7 27  1  6  0  0  0
  7  6  1  0  0  0  0
  8  7  1  6  0  0  0
  8 13  1  0  0  0  0
  9 14  1  6  0  0  0
  9 10  1  0  0  0  0
 10 12  1  0  0  0  0
 11  9  1  0  0  0  0
 11  8  1  0  0  0  0
 12 20  1  6  0  0  0
 13 12  1  0  0  0  0
 13 22  1  1  0  0  0
 14 15  1  0  0  0  0
 16 18  1  0  0  0  0
 16  9  1  0  0  0  0
 17 16  2  0  0  0  0
 18 19  1  0  0  0  0
 20 21  1  0  0  0  0
 22 23  1  0  0  0  0
 23 26  2  0  0  0  0
 23 25  1  0  0  0  0
 24 22  1  0  0  0  0
 28 27  1  0  0  0  0
 30 29  1  0  0  0  0
 31  2  1  0  0  0  0
 32 31  1  0  0  0  0
 33 35  1  0  0  0  0
 33 32  1  0  0  0  0
 34 33  2  0  0  0  0
 36 34  1  0  0  0  0
 36 37  1  0  0  0  0
 37 35  2  0  0  0  0
 38 36  1  0  0  0  0
 39 38  1  0  0  0  0
 40 39  2  0  0  0  0
 41 39  1  0  0  0  0
 42 40  1  0  0  0  0
 43 41  2  0  0  0  0
 44 42  2  0  0  0  0
 44 43  1  0  0  0  0
 45 38  1  0  0  0  0
 45 46  2  0  0  0  0
 47 45  1  0  0  0  0
 48 46  1  0  0  0  0
 49 47  2  0  0  0  0
 49 50  1  0  0  0  0
 50 48  2  0  0  0  0
 51 52  1  0  0  0  0
 53 52  1  0  0  0  0
 53 54  1  0  0  0  0
 55 54  1  0  0  0  0
 56 55  1  0  0  0  0
M  END
>  <REMARK>
 VINA RESULT:    -6.022      0.000      0.000
 INTER + INTRA:         -16.617
 INTER:                 -11.636
 INTRA:                  -4.981
 UNBOUND:                -5.490
 SMILES CC(=O)N[C@@H]1[C@@H](O)C[C@](O)(C(=O)O)O[C@H]1C(O)[C@H](O)CNC(=O)OCc1cn(C(c2ccccc2)c2ccccc2)nn1
 SMILES IDX 21 1 22 2 23 3 20 5 18 6 16 7 15 8 9 9 8 10 14 11 6 12 5 13
 SMILES IDX 10 14 11 16 12 17 13 18 7 20 4 22 2 23 1 25 3 26 17 27 19 29
 SMILES IDX 24 31 25 32 26 33 27 34 43 35 28 36 42 37 29 38 30 39 31 40
 SMILES IDX 35 41 32 42 34 43 33 44 36 45 37 46 41 47 38 48 40 49 39 50
 H PARENT 21 4 10 15 13 19 7 21 4 24 17 28 19 30
 Flexibility Score: inf
  4 active torsions:
  status: ('A' for Active; 'I' for Inactive)
    1  A    between atoms: CA   and  CB  
    2  A    between atoms: CB   and  CG  
    3  A    between atoms: CG   and  CD  
    4  A    between atoms: CD   and  CE  

>  <TORSDO>
F 17

>  <BEGIN_>
RES LYS A 131

$$$$
ligand_58_pose_0_2HRL.pdbqt
 OpenBabel07062320523D

  6  5  0  0  0  0  0  0  0  0999 V2000
   33.1930   34.6630    9.2900 C   0  0  0  0  0  0  0  0  0  0  0  0
   32.0600   35.3600   10.0340 C   0  0  0  0  0  0  0  0  0  0  0  0
   30.8580   35.6450    9.1710 C   0  0  0  0  0  0  0  0  0  0  0  0
   30.2640   34.3520    8.6340 C   0  0  0  0  0  0  0  0  0  0  0  0
   29.3310   33.7300    9.6540 C   0  0  0  0  0  0  0  0  0  0  0  0
   27.9270   33.7120    9.1560 N   0  0  0  0  0  0  0  0  0  0  0  0
  1  2  1  0  0  0  0
  3  2  1  0  0  0  0
  4  3  1  0  0  0  0
  4  5  1  0  0  0  0
  6  5  1  0  0  0  0
M  END
>  <EGIN_R>
ES LYS A 135

>  <REMARK>
  4 active torsions:
  status: ('A' for Active; 'I' for Inactive)
    5  A    between atoms: CA   and  CB  
    6  A    between atoms: CB   and  CG  
    7  A    between atoms: CG   and  CD  
    8  A    between atoms: CD   and  CE  

$$$$
ligand_59_pose_0_2HRL.pdbqt
 OpenBabel07062320523D

 52 53  0  0  1  0  0  0  0  0999 V2000
   27.7540   27.9320   18.4710 N   0  0  0  0  0  0  0  0  0  0  0  0
   26.6550   28.0210   17.5520 C   0  0  0  0  0  0  0  0  0  0  0  0
   25.7030   27.2330   17.7470 O   0  0  0  0  0  0  0  0  0  0  0  0
   28.5180   28.6150   18.2790 H   0  0  0  0  0  0  0  0  0  0  0  0
   27.7390   26.9900   19.5570 C   0  0  0  0  0  0  0  0  0  0  0  0
   27.7480   27.7400   20.8800 C   0  0  2  0  0  0  0  0  0  0  0  0
   29.1910   27.8620   21.2780 C   0  0  2  0  0  0  0  0  0  0  0  0
   29.7720   29.2450   21.3300 C   0  0  2  0  0  0  0  0  0  0  0  0
   28.8430   31.4000   21.0820 C   0  0  2  0  0  0  0  0  0  0  0  0
   30.0190   31.8910   20.2740 C   0  0  0  0  0  0  0  0  0  0  0  0
   28.7050   30.0560   21.0410 O   0  0  0  0  0  0  0  0  0  0  0  0
   30.4730   30.6850   19.4740 C   0  0  1  0  0  0  0  0  0  0  0  0
   30.9020   29.5590   20.4470 C   0  0  1  0  0  0  0  0  0  0  0  0
   27.6970   32.0030   20.4750 O   0  0  0  0  0  0  0  0  0  0  0  0
   27.6780   32.9660   20.7090 H   0  0  0  0  0  0  0  0  0  0  0  0
   28.8450   31.8760   22.4810 C   0  0  0  0  0  0  0  0  0  0  0  0
   29.8660   32.4210   22.9430 O   0  0  0  0  0  0  0  0  0  0  0  0
   27.7320   31.7320   23.2860 O   0  0  0  0  0  0  0  0  0  0  0  0
   27.5850   30.8530   23.7670 H   0  0  0  0  0  0  0  0  0  0  0  0
   29.5270   30.2520   18.5790 O   0  0  0  0  0  0  0  0  0  0  0  0
   29.1910   29.3530   18.8590 H   0  0  0  0  0  0  0  0  0  0  0  0
   32.0760   30.0700   21.0760 N   0  0  0  0  0  0  0  0  0  0  0  0
   32.9260   29.2640   21.8510 C   0  0  0  0  0  0  0  0  0  0  0  0
   32.3070   31.0720   20.9620 H   0  0  0  0  0  0  0  0  0  0  0  0
   34.1460   29.7950   22.5040 C   0  0  0  0  0  0  0  0  0  0  0  0
   32.6510   28.0560   21.9980 O   0  0  0  0  0  0  0  0  0  0  0  0
   29.9550   27.1680   20.3220 O   0  0  0  0  0  0  0  0  0  0  0  0
   29.4030   26.5100   19.8200 H   0  0  0  0  0  0  0  0  0  0  0  0
   27.0920   26.8360   21.7600 O   0  0  0  0  0  0  0  0  0  0  0  0
   26.1340   26.9210   21.6300 H   0  0  0  0  0  0  0  0  0  0  0  0
   26.6190   28.9070   16.5100 O   0  0  0  0  0  0  0  0  0  0  0  0
   26.0120   30.1620   16.5600 C   0  0  0  0  0  0  0  0  0  0  0  0
   26.9670   31.2800   16.7640 C   0  0  0  0  0  0  0  0  0  0  0  0
   27.9920   31.6050   15.8700 C   0  0  0  0  0  0  0  0  0  0  0  0
   27.0860   32.1660   17.7440 N   0  0  0  0  0  0  0  0  0  0  0  0
   28.6660   32.6510   16.3490 N   0  0  0  0  0  0  0  0  0  0  0  0
   28.1080   32.9840   17.4880 N   0  0  0  0  0  0  0  0  0  0  0  0
   29.7970   33.2820   15.7300 C   0  0  0  0  0  0  0  0  0  0  0  0
   31.0630   33.2550   16.2760 C   0  0  0  0  0  0  0  0  0  0  0  0
   29.6400   33.9470   14.5750 N   0  0  0  0  0  0  0  0  0  0  0  0
   32.1440   33.8650   15.6980 C   0  0  0  0  0  0  0  0  0  0  0  0
   30.6690   34.5600   13.9700 C   0  0  0  0  0  0  0  0  0  0  0  0
   31.9510   34.5410   14.5080 C   0  0  0  0  0  0  0  0  0  0  0  0
   33.0590   35.2380   13.7940 C   0  0  0  0  0  0  0  0  0  0  0  0
   33.0280   34.8760   12.4530 O   0  0  0  0  0  0  0  0  0  0  0  0
   33.3800   33.9560   12.3440 H   0  0  0  0  0  0  0  0  0  0  0  0
   29.8670   25.5550   16.9770 C   0  0  0  0  0  0  0  0  0  0  0  0
   28.3450   25.7220   17.0260 C   0  0  0  0  0  0  0  0  0  0  0  0
   27.5990   24.4760   16.5750 C   0  0  0  0  0  0  0  0  0  0  0  0
   26.9800   23.7380   17.7300 C   0  0  0  0  0  0  0  0  0  0  0  0
   25.4640   23.7030   17.5580 C   0  0  0  0  0  0  0  0  0  0  0  0
   24.9550   22.3200   17.7160 N   0  0  0  0  0  0  0  0  0  0  0  0
  1  5  1  0  0  0  0
  2  3  2  0  0  0  0
  2  1  1  0  0  0  0
  4  1  1  0  0  0  0
  6  5  1  6  0  0  0
  6  7  1  0  0  0  0
  6 29  1  0  0  0  0
  7 27  1  6  0  0  0
  8  7  1  6  0  0  0
  9 14  1  6  0  0  0
  9 16  1  0  0  0  0
 10  9  1  0  0  0  0
 11  9  1  0  0  0  0
 11  8  1  0  0  0  0
 12 20  1  1  0  0  0
 12 10  1  0  0  0  0
 12 13  1  0  0  0  0
 13 22  1  1  0  0  0
 13  8  1  0  0  0  0
 14 15  1  0  0  0  0
 16 17  2  0  0  0  0
 16 18  1  0  0  0  0
 18 19  1  0  0  0  0
 20 21  1  0  0  0  0
 22 23  1  0  0  0  0
 23 26  2  0  0  0  0
 23 25  1  0  0  0  0
 24 22  1  0  0  0  0
 28 27  1  0  0  0  0
 30 29  1  0  0  0  0
 31 32  1  0  0  0  0
 31  2  1  0  0  0  0
 32 33  1  0  0  0  0
 33 35  1  0  0  0  0
 34 36  1  0  0  0  0
 34 33  2  0  0  0  0
 36 37  1  0  0  0  0
 37 35  2  0  0  0  0
 38 39  1  0  0  0  0
 38 36  1  0  0  0  0
 40 38  2  0  0  0  0
 41 39  2  0  0  0  0
 42 43  2  0  0  0  0
 42 40  1  0  0  0  0
 43 41  1  0  0  0  0
 44 43  1  0  0  0  0
 45 44  1  0  0  0  0
 46 45  1  0  0  0  0
 47 48  1  0  0  0  0
 49 48  1  0  0  0  0
 49 50  1  0  0  0  0
 51 52  1  0  0  0  0
 51 50  1  0  0  0  0
M  END
>  <REMARK>
 VINA RESULT:    -5.496      0.000      0.000
 INTER + INTRA:         -15.730
 INTER:                  -8.998
 INTRA:                  -6.732
 UNBOUND:                -5.735
 SMILES CC(=O)N[C@@H]1[C@@H](O)C[C@](O)(C(=O)O)O[C@H]1C(O)[C@H](O)CNC(=O)OCc1cn(-c2ccc(CO)cn2)nn1
 SMILES IDX 21 1 22 2 23 3 20 5 18 6 16 7 15 8 9 9 8 10 14 11 6 12 5 13
 SMILES IDX 10 14 11 16 12 17 13 18 7 20 4 22 2 23 1 25 3 26 17 27 19 29
 SMILES IDX 24 31 25 32 26 33 27 34 38 35 28 36 37 37 29 38 30 39 36 40
 SMILES IDX 31 41 35 42 32 43 33 44 34 45
 H PARENT 21 4 10 15 13 19 7 21 4 24 17 28 19 30 34 46
 Flexibility Score: inf
  4 active torsions:
  status: ('A' for Active; 'I' for Inactive)
    1  A    between atoms: CA   and  CB  
    2  A    between atoms: CB   and  CG  
    3  A    between atoms: CG   and  CD  
    4  A    between atoms: CD   and  CE  

>  <TORSDO>
F 17

>  <BEGIN_>
RES LYS A 131

$$$$
ligand_59_pose_0_2HRL.pdbqt
 OpenBabel07062320523D

  6  5  0  0  0  0  0  0  0  0999 V2000
   33.1930   34.6630    9.2900 C   0  0  0  0  0  0  0  0  0  0  0  0
   32.0600   35.3600   10.0340 C   0  0  0  0  0  0  0  0  0  0  0  0
   30.7980   35.4930    9.2220 C   0  0  0  0  0  0  0  0  0  0  0  0
   30.0630   34.1630    9.1500 C   0  0  0  0  0  0  0  0  0  0  0  0
   28.6270   34.3720    8.7100 C   0  0  0  0  0  0  0  0  0  0  0  0
   27.6810   33.6520    9.6070 N   0  0  0  0  0  0  0  0  0  0  0  0
  1  2  1  0  0  0  0
  3  2  1  0  0  0  0
  4  3  1  0  0  0  0
  5  4  1  0  0  0  0
  5  6  1  0  0  0  0
M  END
>  <EGIN_R>
ES LYS A 135

>  <REMARK>
  4 active torsions:
  status: ('A' for Active; 'I' for Inactive)
    5  A    between atoms: CA   and  CB  
    6  A    between atoms: CB   and  CG  
    7  A    between atoms: CG   and  CD  
    8  A    between atoms: CD   and  CE  

$$$$
ligand_5_pose_0_2HRL.pdbqt
 OpenBabel07062320523D

 51 52  0  0  1  0  0  0  0  0999 V2000
   29.2730   27.0350   20.2190 N   0  0  0  0  0  0  0  0  0  0  0  0
   28.1440   27.8430   19.9630 C   0  0  0  0  0  0  0  0  0  0  0  0
   27.7020   28.6500   20.7950 O   0  0  0  0  0  0  0  0  0  0  0  0
   29.5260   26.3650   19.4230 H   0  0  0  0  0  0  0  0  0  0  0  0
   30.0920   26.9960   21.3620 C   0  0  0  0  0  0  0  0  0  0  0  0
   31.5170   27.3020   21.2550 C   0  0  2  0  0  0  0  0  0  0  0  0
   32.0490   28.5090   21.8490 C   0  0  1  0  0  0  0  0  0  0  0  0
   33.3520   28.3530   22.6620 C   0  0  2  0  0  0  0  0  0  0  0  0
   33.7760   27.0170   24.5590 C   0  0  2  0  0  0  0  0  0  0  0  0
   33.6130   28.2340   25.4850 C   0  0  0  0  0  0  0  0  0  0  0  0
   33.0560   27.2620   23.4610 O   0  0  0  0  0  0  0  0  0  0  0  0
   34.2720   29.3630   24.7920 C   0  0  1  0  0  0  0  0  0  0  0  0
   33.7980   29.5630   23.3410 C   0  0  1  0  0  0  0  0  0  0  0  0
   33.0730   25.9960   25.2540 O   0  0  0  0  0  0  0  0  0  0  0  0
   33.6960   25.3210   25.6160 H   0  0  0  0  0  0  0  0  0  0  0  0
   35.1490   26.5810   24.4040 C   0  0  0  0  0  0  0  0  0  0  0  0
   35.8910   26.4460   25.4090 O   0  0  0  0  0  0  0  0  0  0  0  0
   35.7720   26.2770   23.1920 O   0  0  0  0  0  0  0  0  0  0  0  0
   36.7900   26.2640   23.0880 H   0  0  0  0  0  0  0  0  0  0  0  0
   34.0970   30.5990   25.4340 O   0  0  0  0  0  0  0  0  0  0  0  0
   34.9040   31.1410   25.1670 H   0  0  0  0  0  0  0  0  0  0  0  0
   34.8930   30.2840   22.7690 N   0  0  0  0  0  0  0  0  0  0  0  0
   34.8420   31.4530   22.0100 C   0  0  0  0  0  0  0  0  0  0  0  0
   35.8520   29.8630   22.9550 H   0  0  0  0  0  0  0  0  0  0  0  0
   36.0820   32.0940   21.4710 C   0  0  0  0  0  0  0  0  0  0  0  0
   33.7270   31.9420   21.7980 O   0  0  0  0  0  0  0  0  0  0  0  0
   32.1940   29.4990   20.8830 O   0  0  0  0  0  0  0  0  0  0  0  0
   33.0830   29.4720   20.4470 H   0  0  0  0  0  0  0  0  0  0  0  0
   31.9480   27.1010   19.9130 O   0  0  0  0  0  0  0  0  0  0  0  0
   32.0030   26.1280   19.7190 H   0  0  0  0  0  0  0  0  0  0  0  0
   27.4610   27.7690   18.7310 O   0  0  0  0  0  0  0  0  0  0  0  0
   26.8230   28.9130   18.2200 C   0  0  0  0  0  0  0  0  0  0  0  0
   27.7380   29.6300   17.3180 C   0  0  0  0  0  0  0  0  0  0  0  0
   28.5580   30.6870   17.7290 C   0  0  0  0  0  0  0  0  0  0  0  0
   27.9960   29.4790   16.0220 N   0  0  0  0  0  0  0  0  0  0  0  0
   29.2640   31.1140   16.6660 N   0  0  0  0  0  0  0  0  0  0  0  0
   28.8910   30.3500   15.6420 N   0  0  0  0  0  0  0  0  0  0  0  0
   30.2170   32.1670   16.6320 C   0  0  0  0  0  0  0  0  0  0  0  0
   30.5100   32.9500   17.7250 C   0  0  0  0  0  0  0  0  0  0  0  0
   30.9140   32.4510   15.4550 C   0  0  0  0  0  0  0  0  0  0  0  0
   31.4480   33.9740   17.6720 C   0  0  0  0  0  0  0  0  0  0  0  0
   31.8460   33.4690   15.4050 C   0  0  0  0  0  0  0  0  0  0  0  0
   32.1270   34.2420   16.5080 C   0  0  0  0  0  0  0  0  0  0  0  0
   33.0450   35.2470   16.4610 O   0  0  0  0  0  0  0  0  0  0  0  0
   32.9330   36.2610   15.4860 C   0  0  0  0  0  0  0  0  0  0  0  0
   29.8670   25.5550   16.9770 C   0  0  0  0  0  0  0  0  0  0  0  0
   28.3450   25.7220   17.0260 C   0  0  0  0  0  0  0  0  0  0  0  0
   27.6010   24.4050   16.8700 C   0  0  0  0  0  0  0  0  0  0  0  0
   26.1480   24.5280   17.2370 C   0  0  0  0  0  0  0  0  0  0  0  0
   26.0110   24.6110   18.7530 C   0  0  0  0  0  0  0  0  0  0  0  0
   24.8610   25.4680   19.1250 N   0  0  0  0  0  0  0  0  0  0  0  0
  1  5  1  0  0  0  0
  2  1  1  0  0  0  0
  2  3  2  0  0  0  0
  4  1  1  0  0  0  0
  6  5  1  6  0  0  0
  6  7  1  0  0  0  0
  7 27  1  6  0  0  0
  8  7  1  1  0  0  0
  8 13  1  0  0  0  0
  8 11  1  0  0  0  0
  9 16  1  6  0  0  0
  9 14  1  0  0  0  0
  9 10  1  0  0  0  0
 11  9  1  0  0  0  0
 12 20  1  1  0  0  0
 12 10  1  0  0  0  0
 13 22  1  6  0  0  0
 13 12  1  0  0  0  0
 14 15  1  0  0  0  0
 16 17  2  0  0  0  0
 18 16  1  0  0  0  0
 19 18  1  0  0  0  0
 21 20  1  0  0  0  0
 22 24  1  0  0  0  0
 23 22  1  0  0  0  0
 25 23  1  0  0  0  0
 26 23  2  0  0  0  0
 28 27  1  0  0  0  0
 29  6  1  0  0  0  0
 30 29  1  0  0  0  0
 31  2  1  0  0  0  0
 32 31  1  0  0  0  0
 33 34  2  0  0  0  0
 33 32  1  0  0  0  0
 35 33  1  0  0  0  0
 36 34  1  0  0  0  0
 37 35  2  0  0  0  0
 37 36  1  0  0  0  0
 38 36  1  0  0  0  0
 38 39  2  0  0  0  0
 40 38  1  0  0  0  0
 41 39  1  0  0  0  0
 42 40  2  0  0  0  0
 42 43  1  0  0  0  0
 43 41  2  0  0  0  0
 44 43  1  0  0  0  0
 45 44  1  0  0  0  0
 46 47  1  0  0  0  0
 48 47  1  0  0  0  0
 48 49  1  0  0  0  0
 49 50  1  0  0  0  0
 50 51  1  0  0  0  0
M  END
>  <REMARK>
 VINA RESULT:    -5.447      0.000      0.000
 INTER + INTRA:         -14.971
 INTER:                 -10.165
 INTRA:                  -4.806
 UNBOUND:                -5.226
 SMILES COc1ccc(-n2cc(COC(=O)NC[C@@H](O)C(O)[C@@H]3O[C@@](O)(C(=O)O)C[C@H](O)[C@H]3NC(C)=O)nn2)cc1
 SMILES IDX 14 1 12 2 13 3 15 5 16 6 18 7 20 8 22 9 27 10 21 11 28 12
 SMILES IDX 30 13 23 14 24 16 25 17 26 18 29 20 31 22 32 23 33 25 34 26
 SMILES IDX 19 27 17 29 11 31 10 32 9 33 8 34 35 35 7 36 36 37 6 38 5 39
 SMILES IDX 37 40 4 41 38 42 3 43 2 44 1 45
 H PARENT 14 4 23 15 26 19 29 21 31 24 19 28 17 30
 Flexibility Score: inf
  4 active torsions:
  status: ('A' for Active; 'I' for Inactive)
    1  A    between atoms: CA   and  CB  
    2  A    between atoms: CB   and  CG  
    3  A    between atoms: CG   and  CD  
    4  A    between atoms: CD   and  CE  

>  <TORSDO>
F 16

>  <BEGIN_>
RES LYS A 131

$$$$
ligand_5_pose_0_2HRL.pdbqt
 OpenBabel07062320523D

  6  5  0  0  0  0  0  0  0  0999 V2000
   33.1930   34.6630    9.2900 C   0  0  0  0  0  0  0  0  0  0  0  0
   32.0600   35.3600   10.0340 C   0  0  0  0  0  0  0  0  0  0  0  0
   30.7030   34.7670    9.7570 C   0  0  0  0  0  0  0  0  0  0  0  0
   30.5400   34.4670    8.2750 C   0  0  0  0  0  0  0  0  0  0  0  0
   29.2410   35.0500    7.7530 C   0  0  0  0  0  0  0  0  0  0  0  0
   28.0690   34.4770    8.4700 N   0  0  0  0  0  0  0  0  0  0  0  0
  1  2  1  0  0  0  0
  3  2  1  0  0  0  0
  4  3  1  0  0  0  0
  5  4  1  0  0  0  0
  5  6  1  0  0  0  0
M  END
>  <EGIN_R>
ES LYS A 135

>  <REMARK>
  4 active torsions:
  status: ('A' for Active; 'I' for Inactive)
    5  A    between atoms: CA   and  CB  
    6  A    between atoms: CB   and  CG  
    7  A    between atoms: CG   and  CD  
    8  A    between atoms: CD   and  CE  

$$$$
ligand_60_pose_0_2HRL.pdbqt
 OpenBabel07062320523D

 55 56  0  0  1  0  0  0  0  0999 V2000
   29.1220   27.8130   19.7860 N   0  0  0  0  0  0  0  0  0  0  0  0
   27.8060   27.4060   19.5270 C   0  0  0  0  0  0  0  0  0  0  0  0
   27.1830   26.7050   20.3420 O   0  0  0  0  0  0  0  0  0  0  0  0
   29.5950   28.4110   19.0540 H   0  0  0  0  0  0  0  0  0  0  0  0
   29.8120   27.4530   20.9740 C   0  0  0  0  0  0  0  0  0  0  0  0
   31.3010   27.7760   20.9240 C   0  0  2  0  0  0  0  0  0  0  0  0
   31.4590   29.2590   20.7490 C   0  0  1  0  0  0  0  0  0  0  0  0
   32.6470   29.8390   21.4150 C   0  0  2  0  0  0  0  0  0  0  0  0
   33.9490   29.5050   23.3180 C   0  0  2  0  0  0  0  0  0  0  0  0
   34.8210   30.4590   22.5400 C   0  0  0  0  0  0  0  0  0  0  0  0
   32.7790   29.2030   22.6780 O   0  0  0  0  0  0  0  0  0  0  0  0
   34.0860   31.6680   22.0520 C   0  0  1  0  0  0  0  0  0  0  0  0
   32.6680   31.2940   21.6980 C   0  0  1  0  0  0  0  0  0  0  0  0
   33.7270   29.9780   24.6340 O   0  0  0  0  0  0  0  0  0  0  0  0
   34.0840   29.3390   25.3010 H   0  0  0  0  0  0  0  0  0  0  0  0
   34.7220   28.2440   23.4780 C   0  0  0  0  0  0  0  0  0  0  0  0
   34.1050   27.1540   23.3650 O   0  0  0  0  0  0  0  0  0  0  0  0
   36.0770   28.1940   23.7440 O   0  0  0  0  0  0  0  0  0  0  0  0
   36.4230   28.1890   24.7000 H   0  0  0  0  0  0  0  0  0  0  0  0
   34.1590   32.6500   23.0310 O   0  0  0  0  0  0  0  0  0  0  0  0
   33.9520   32.2040   23.8910 H   0  0  0  0  0  0  0  0  0  0  0  0
   32.0600   32.1690   20.7690 N   0  0  0  0  0  0  0  0  0  0  0  0
   31.3440   33.3220   21.1630 C   0  0  0  0  0  0  0  0  0  0  0  0
   32.1440   31.9910   19.7480 H   0  0  0  0  0  0  0  0  0  0  0  0
   30.7030   34.2420   20.1610 C   0  0  0  0  0  0  0  0  0  0  0  0
   31.2540   33.5620   22.3800 O   0  0  0  0  0  0  0  0  0  0  0  0
   31.1130   29.7570   19.5210 O   0  0  0  0  0  0  0  0  0  0  0  0
   31.9220   30.0780   19.0630 H   0  0  0  0  0  0  0  0  0  0  0  0
   31.8920   26.9970   19.9650 O   0  0  0  0  0  0  0  0  0  0  0  0
   32.6230   26.4510   20.3650 H   0  0  0  0  0  0  0  0  0  0  0  0
   27.1270   27.7590   18.3510 O   0  0  0  0  0  0  0  0  0  0  0  0
   26.5420   29.0150   18.2080 C   0  0  0  0  0  0  0  0  0  0  0  0
   27.5500   30.0860   18.0470 C   0  0  0  0  0  0  0  0  0  0  0  0
   28.0620   30.6580   16.9070 C   0  0  0  0  0  0  0  0  0  0  0  0
   28.1680   30.7180   19.0780 N   0  0  0  0  0  0  0  0  0  0  0  0
   28.9580   31.6020   17.2440 N   0  0  0  0  0  0  0  0  0  0  0  0
   28.9960   31.6090   18.5610 N   0  0  0  0  0  0  0  0  0  0  0  0
   29.7300   32.4420   16.3920 C   0  0  0  0  0  0  0  0  0  0  0  0
   31.0910   32.5860   16.5540 C   0  0  0  0  0  0  0  0  0  0  0  0
   29.1420   33.1530   15.3620 C   0  0  0  0  0  0  0  0  0  0  0  0
   31.8510   33.3950   15.7390 C   0  0  0  0  0  0  0  0  0  0  0  0
   29.8990   33.9640   14.5440 C   0  0  0  0  0  0  0  0  0  0  0  0
   31.2610   34.1170   14.6960 C   0  0  0  0  0  0  0  0  0  0  0  0
   32.2310   35.1440   13.6640 S   0  0  0  0  0  0  0  0  0  0  0  0
   31.4590   35.3500   12.3910 O   0  0  0  0  0  0  0  0  0  0  0  0
   32.3570   36.5000   14.3190 O   0  0  0  0  0  0  0  0  0  0  0  0
   33.7740   34.4820   13.3290 N   0  0  0  0  0  0  0  0  0  0  0  0
   34.0480   34.4920   12.3400 H   0  0  0  0  0  0  0  0  0  0  0  0
   34.5160   34.8700   13.9530 H   0  0  0  0  0  0  0  0  0  0  0  0
   29.8670   25.5550   16.9770 C   0  0  0  0  0  0  0  0  0  0  0  0
   28.3450   25.7220   17.0260 C   0  0  0  0  0  0  0  0  0  0  0  0
   27.6000   24.4090   16.8410 C   0  0  0  0  0  0  0  0  0  0  0  0
   26.6670   24.1210   17.9830 C   0  0  0  0  0  0  0  0  0  0  0  0
   25.7610   22.9490   17.6180 C   0  0  0  0  0  0  0  0  0  0  0  0
   24.7040   22.7720   18.6410 N   0  0  0  0  0  0  0  0  0  0  0  0
  1  5  1  0  0  0  0
  2  1  1  0  0  0  0
  2  3  2  0  0  0  0
  4  1  1  0  0  0  0
  6  5  1  6  0  0  0
  7 27  1  6  0  0  0
  7  6  1  0  0  0  0
  8  7  1  1  0  0  0
  8 13  1  0  0  0  0
  8 11  1  0  0  0  0
  9 16  1  1  0  0  0
  9 14  1  0  0  0  0
 10  9  1  0  0  0  0
 11  9  1  0  0  0  0
 12 10  1  0  0  0  0
 12 20  1  1  0  0  0
 13 22  1  6  0  0  0
 13 12  1  0  0  0  0
 14 15  1  0  0  0  0
 16 18  1  0  0  0  0
 17 16  2  0  0  0  0
 18 19  1  0  0  0  0
 20 21  1  0  0  0  0
 22 23  1  0  0  0  0
 23 26  2  0  0  0  0
 24 22  1  0  0  0  0
 25 23  1  0  0  0  0
 28 27  1  0  0  0  0
 29 30  1  0  0  0  0
 29  6  1  0  0  0  0
 31  2  1  0  0  0  0
 32 31  1  0  0  0  0
 33 32  1  0  0  0  0
 33 35  1  0  0  0  0
 34 36  1  0  0  0  0
 34 33  2  0  0  0  0
 36 37  1  0  0  0  0
 37 35  2  0  0  0  0
 38 39  1  0  0  0  0
 38 36  1  0  0  0  0
 40 38  2  0  0  0  0
 41 39  2  0  0  0  0
 42 43  2  0  0  0  0
 42 40  1  0  0  0  0
 43 41  1  0  0  0  0
 44 46  2  0  0  0  0
 44 43  1  0  0  0  0
 45 44  2  0  0  0  0
 47 44  1  0  0  0  0
 47 49  1  0  0  0  0
 48 47  1  0  0  0  0
 50 51  1  0  0  0  0
 52 51  1  0  0  0  0
 52 53  1  0  0  0  0
 54 53  1  0  0  0  0
 54 55  1  0  0  0  0
M  END
>  <REMARK>
 VINA RESULT:    -5.362      0.000      0.000
 INTER + INTRA:         -15.714
 INTER:                  -9.637
 INTRA:                  -6.078
 UNBOUND:                -5.964
 SMILES CC(=O)N[C@@H]1[C@@H](O)C[C@](O)(C(=O)O)O[C@H]1C(O)[C@H](O)CNC(=O)OCc1cn(-c2ccc(S(N)(=O)=O)cc2)nn1
 SMILES IDX 21 1 22 2 23 3 20 5 18 6 16 7 15 8 9 9 8 10 14 11 6 12 5 13
 SMILES IDX 10 14 11 16 12 17 13 18 7 20 4 22 2 23 1 25 3 26 17 27 19 29
 SMILES IDX 24 31 25 32 26 33 27 34 40 35 28 36 39 37 29 38 30 39 38 40
 SMILES IDX 31 41 37 42 32 43 33 44 35 45 36 46 34 47
 H PARENT 21 4 10 15 13 19 7 21 4 24 17 28 19 30 34 48 34 49
 Flexibility Score: inf
  4 active torsions:
  status: ('A' for Active; 'I' for Inactive)
    1  A    between atoms: CA   and  CB  
    2  A    between atoms: CB   and  CG  
    3  A    between atoms: CG   and  CD  
    4  A    between atoms: CD   and  CE  

>  <TORSDO>
F 17

>  <BEGIN_>
RES LYS A 131

$$$$
ligand_60_pose_0_2HRL.pdbqt
 OpenBabel07062320523D

  6  5  0  0  0  0  0  0  0  0999 V2000
   33.1930   34.6630    9.2900 C   0  0  0  0  0  0  0  0  0  0  0  0
   32.0600   35.3600   10.0340 C   0  0  0  0  0  0  0  0  0  0  0  0
   30.8760   35.6860    9.1600 C   0  0  0  0  0  0  0  0  0  0  0  0
   30.3520   34.4320    8.4770 C   0  0  0  0  0  0  0  0  0  0  0  0
   28.8370   34.4510    8.4190 C   0  0  0  0  0  0  0  0  0  0  0  0
   28.2450   33.7910    9.6150 N   0  0  0  0  0  0  0  0  0  0  0  0
  1  2  1  0  0  0  0
  3  2  1  0  0  0  0
  4  3  1  0  0  0  0
  5  4  1  0  0  0  0
  5  6  1  0  0  0  0
M  END
>  <EGIN_R>
ES LYS A 135

>  <REMARK>
  4 active torsions:
  status: ('A' for Active; 'I' for Inactive)
    5  A    between atoms: CA   and  CB  
    6  A    between atoms: CB   and  CG  
    7  A    between atoms: CG   and  CD  
    8  A    between atoms: CD   and  CE  

$$$$
ligand_61_pose_0_2HRL.pdbqt
 OpenBabel07062320523D

 49 50  0  0  1  0  0  0  0  0999 V2000
   26.1370   36.4690   11.1050 N   0  0  0  0  0  0  0  0  0  0  0  0
   27.2450   37.3050   11.3710 C   0  0  0  0  0  0  0  0  0  0  0  0
   27.1740   38.5220   11.0840 O   0  0  0  0  0  0  0  0  0  0  0  0
   26.2540   35.4420   11.3740 H   0  0  0  0  0  0  0  0  0  0  0  0
   24.8960   36.9130   10.5090 C   0  0  0  0  0  0  0  0  0  0  0  0
   24.7710   36.3190    9.1440 C   0  0  2  0  0  0  0  0  0  0  0  0
   25.3460   37.1800    8.0400 C   0  0  2  0  0  0  0  0  0  0  0  0
   26.5960   36.5460    7.5290 C   0  0  2  0  0  0  0  0  0  0  0  0
   28.6740   35.7360    8.1380 C   0  0  2  0  0  0  0  0  0  0  0  0
   28.8290   35.5560    6.6470 C   0  0  0  0  0  0  0  0  0  0  0  0
   27.3650   35.9620    8.5160 O   0  0  0  0  0  0  0  0  0  0  0  0
   28.3460   36.7280    5.8590 C   0  0  1  0  0  0  0  0  0  0  0  0
   27.4360   37.5590    6.7380 C   0  0  1  0  0  0  0  0  0  0  0  0
   29.5610   36.6880    8.6430 O   0  0  0  0  0  0  0  0  0  0  0  0
   29.0680   37.3530    9.1750 H   0  0  0  0  0  0  0  0  0  0  0  0
   29.0730   34.4210    8.7580 C   0  0  0  0  0  0  0  0  0  0  0  0
   30.2250   33.9700    8.7050 O   0  0  0  0  0  0  0  0  0  0  0  0
   28.1050   33.6710    9.4240 O   0  0  0  0  0  0  0  0  0  0  0  0
   27.8740   32.7180    9.1720 H   0  0  0  0  0  0  0  0  0  0  0  0
   29.3520   37.4720    5.2820 O   0  0  0  0  0  0  0  0  0  0  0  0
   30.2430   37.0060    5.3430 H   0  0  0  0  0  0  0  0  0  0  0  0
   26.5730   38.4290    5.9820 N   0  0  0  0  0  0  0  0  0  0  0  0
   26.9550   39.7810    5.7030 C   0  0  0  0  0  0  0  0  0  0  0  0
   25.6490   38.1140    5.6140 H   0  0  0  0  0  0  0  0  0  0  0  0
   26.1340   40.7260    4.9430 C   0  0  0  0  0  0  0  0  0  0  0  0
   28.0820   40.1870    6.1430 O   0  0  0  0  0  0  0  0  0  0  0  0
   25.6380   38.4170    8.6190 O   0  0  0  0  0  0  0  0  0  0  0  0
   26.2600   38.9160    8.0340 H   0  0  0  0  0  0  0  0  0  0  0  0
   23.4000   36.1880    8.8680 O   0  0  0  0  0  0  0  0  0  0  0  0
   23.2050   36.1850    7.9060 H   0  0  0  0  0  0  0  0  0  0  0  0
   28.4060   36.7570   11.9540 O   0  0  0  0  0  0  0  0  0  0  0  0
   28.2540   35.4480   12.4850 C   0  0  0  0  0  0  0  0  0  0  0  0
   29.2900   35.2480   13.5080 C   0  0  0  0  0  0  0  0  0  0  0  0
   30.0120   34.0950   13.7750 C   0  0  0  0  0  0  0  0  0  0  0  0
   29.7260   36.1770   14.3850 N   0  0  0  0  0  0  0  0  0  0  0  0
   30.8360   34.3910   14.7890 N   0  0  0  0  0  0  0  0  0  0  0  0
   30.6690   35.6450   15.1610 N   0  0  0  0  0  0  0  0  0  0  0  0
   31.7680   33.4770   15.3870 C   0  0  0  0  0  0  0  0  0  0  0  0
   31.1360   32.7740   16.5880 C   0  0  0  0  0  0  0  0  0  0  0  0
   30.5240   31.6010   16.4740 C   0  0  0  0  0  0  0  0  0  0  0  0
   31.2160   33.3970   17.8130 C   0  0  0  0  0  0  0  0  0  0  0  0
   29.9720   31.0080   17.5770 C   0  0  0  0  0  0  0  0  0  0  0  0
   30.3430   32.1970   18.8830 S   0  0  0  0  0  0  0  0  0  0  0  0
   29.8670   25.5550   16.9770 C   0  0  0  0  0  0  0  0  0  0  0  0
   28.3450   25.7220   17.0260 C   0  0  0  0  0  0  0  0  0  0  0  0
   27.6000   24.4120   16.8210 C   0  0  0  0  0  0  0  0  0  0  0  0
   26.6630   24.1090   17.9580 C   0  0  0  0  0  0  0  0  0  0  0  0
   25.7650   22.9360   17.5790 C   0  0  0  0  0  0  0  0  0  0  0  0
   24.4280   23.4200   17.1620 N   0  0  0  0  0  0  0  0  0  0  0  0
  1  2  1  0  0  0  0
  1  4  1  0  0  0  0
  2 31  1  0  0  0  0
  3  2  2  0  0  0  0
  5  1  1  0  0  0  0
  6  5  1  1  0  0  0
  7 27  1  1  0  0  0
  7  6  1  0  0  0  0
  8  7  1  1  0  0  0
  8 11  1  0  0  0  0
  9 11  1  0  0  0  0
  9 14  1  1  0  0  0
  9 16  1  0  0  0  0
 10  9  1  0  0  0  0
 12 20  1  1  0  0  0
 12 10  1  0  0  0  0
 12 13  1  0  0  0  0
 13 22  1  6  0  0  0
 13  8  1  0  0  0  0
 14 15  1  0  0  0  0
 16 18  1  0  0  0  0
 17 16  2  0  0  0  0
 19 18  1  0  0  0  0
 20 21  1  0  0  0  0
 23 22  1  0  0  0  0
 23 26  2  0  0  0  0
 24 22  1  0  0  0  0
 25 23  1  0  0  0  0
 28 27  1  0  0  0  0
 29  6  1  0  0  0  0
 30 29  1  0  0  0  0
 31 32  1  0  0  0  0
 32 33  1  0  0  0  0
 33 34  2  0  0  0  0
 33 35  1  0  0  0  0
 34 36  1  0  0  0  0
 35 37  2  0  0  0  0
 36 37  1  0  0  0  0
 36 38  1  0  0  0  0
 38 39  1  0  0  0  0
 39 41  2  0  0  0  0
 40 39  1  0  0  0  0
 40 42  2  0  0  0  0
 41 43  1  0  0  0  0
 42 43  1  0  0  0  0
 44 45  1  0  0  0  0
 46 45  1  0  0  0  0
 46 47  1  0  0  0  0
 48 47  1  0  0  0  0
 49 48  1  0  0  0  0
M  END
>  <REMARK>
 VINA RESULT:    -4.689      0.000      0.000
 INTER + INTRA:         -14.526
 INTER:                 -10.258
 INTRA:                  -4.269
 UNBOUND:                -6.136
 SMILES CC(=O)N[C@@H]1[C@@H](O)C[C@](O)(C(=O)O)O[C@H]1C(O)[C@H](O)CNC(=O)OCc1cn(Cc2ccsc2)nn1
 SMILES IDX 21 1 22 2 23 3 20 5 18 6 16 7 15 8 9 9 8 10 14 11 6 12 5 13
 SMILES IDX 10 14 11 16 12 17 13 18 7 20 4 22 2 23 1 25 3 26 17 27 19 29
 SMILES IDX 24 31 25 32 26 33 27 34 36 35 28 36 35 37 29 38 30 39 31 40
 SMILES IDX 34 41 32 42 33 43
 H PARENT 21 4 10 15 13 19 7 21 4 24 17 28 19 30
 Flexibility Score: inf
  4 active torsions:
  status: ('A' for Active; 'I' for Inactive)
    1  A    between atoms: CA   and  CB  
    2  A    between atoms: CB   and  CG  
    3  A    between atoms: CG   and  CD  
    4  A    between atoms: CD   and  CE  

>  <TORSDO>
F 16

>  <BEGIN_>
RES LYS A 131

$$$$
ligand_61_pose_0_2HRL.pdbqt
 OpenBabel07062320523D

  6  5  0  0  0  0  0  0  0  0999 V2000
   33.1930   34.6630    9.2900 C   0  0  0  0  0  0  0  0  0  0  0  0
   32.0600   35.3600   10.0340 C   0  0  0  0  0  0  0  0  0  0  0  0
   32.4010   35.7100   11.4590 C   0  0  0  0  0  0  0  0  0  0  0  0
   31.9550   37.1280   11.7850 C   0  0  0  0  0  0  0  0  0  0  0  0
   31.9950   37.9970   10.5430 C   0  0  0  0  0  0  0  0  0  0  0  0
   31.0930   39.1740   10.6830 N   0  0  0  0  0  0  0  0  0  0  0  0
  1  2  1  0  0  0  0
  2  3  1  0  0  0  0
  3  4  1  0  0  0  0
  5  6  1  0  0  0  0
  5  4  1  0  0  0  0
M  END
>  <EGIN_R>
ES LYS A 135

>  <REMARK>
  4 active torsions:
  status: ('A' for Active; 'I' for Inactive)
    5  A    between atoms: CA   and  CB  
    6  A    between atoms: CB   and  CG  
    7  A    between atoms: CG   and  CD  
    8  A    between atoms: CD   and  CE  

$$$$
ligand_62_pose_0_2HRL.pdbqt
 OpenBabel07062320523D

 52 52  0  0  1  0  0  0  0  0999 V2000
   27.9280   28.9410   17.0010 N   0  0  0  0  0  0  0  0  0  0  0  0
   28.1040   30.3050   16.6940 C   0  0  0  0  0  0  0  0  0  0  0  0
   27.3080   31.1850   17.0910 O   0  0  0  0  0  0  0  0  0  0  0  0
   28.6540   28.2780   16.6260 H   0  0  0  0  0  0  0  0  0  0  0  0
   26.8650   28.3820   17.7630 C   0  0  0  0  0  0  0  0  0  0  0  0
   27.1730   27.9200   19.1390 C   0  0  2  0  0  0  0  0  0  0  0  0
   27.4170   29.0560   20.1080 C   0  0  2  0  0  0  0  0  0  0  0  0
   28.8450   29.4860   20.2290 C   0  0  2  0  0  0  0  0  0  0  0  0
   30.7510   28.9560   21.4280 C   0  0  2  0  0  0  0  0  0  0  0  0
   31.2990   29.8940   20.3860 C   0  0  0  0  0  0  0  0  0  0  0  0
   29.3990   28.7070   21.2660 O   0  0  0  0  0  0  0  0  0  0  0  0
   30.5660   31.1850   20.2930 C   0  0  1  0  0  0  0  0  0  0  0  0
   29.0810   30.9140   20.5800 C   0  0  1  0  0  0  0  0  0  0  0  0
   31.0650   29.4490   22.6820 O   0  0  0  0  0  0  0  0  0  0  0  0
   30.7580   30.3780   22.8300 H   0  0  0  0  0  0  0  0  0  0  0  0
   31.4610   27.6580   21.2680 C   0  0  0  0  0  0  0  0  0  0  0  0
   32.1030   27.1290   22.2170 O   0  0  0  0  0  0  0  0  0  0  0  0
   31.4560   26.9540   20.0590 O   0  0  0  0  0  0  0  0  0  0  0  0
   31.9280   26.0650   19.9600 H   0  0  0  0  0  0  0  0  0  0  0  0
   31.0580   32.1610   21.1570 O   0  0  0  0  0  0  0  0  0  0  0  0
   31.7800   32.6390   20.6630 H   0  0  0  0  0  0  0  0  0  0  0  0
   28.3570   31.8990   19.8530 N   0  0  0  0  0  0  0  0  0  0  0  0
   27.9300   33.1490   20.4430 C   0  0  0  0  0  0  0  0  0  0  0  0
   28.0980   31.7890   18.8500 H   0  0  0  0  0  0  0  0  0  0  0  0
   27.1780   34.1450   19.6460 C   0  0  0  0  0  0  0  0  0  0  0  0
   28.1960   33.3900   21.6260 O   0  0  0  0  0  0  0  0  0  0  0  0
   27.1000   28.4870   21.3810 O   0  0  0  0  0  0  0  0  0  0  0  0
   26.2320   28.0530   21.3620 H   0  0  0  0  0  0  0  0  0  0  0  0
   28.3390   27.1580   19.1400 O   0  0  0  0  0  0  0  0  0  0  0  0
   29.1100   27.7220   19.3860 H   0  0  0  0  0  0  0  0  0  0  0  0
   29.1850   30.7340   15.9290 O   0  0  0  0  0  0  0  0  0  0  0  0
   30.3200   31.3170   16.5150 C   0  0  0  0  0  0  0  0  0  0  0  0
   30.7910   32.4660   15.7210 C   0  0  0  0  0  0  0  0  0  0  0  0
   30.2530   32.9580   14.5480 C   0  0  0  0  0  0  0  0  0  0  0  0
   31.8580   33.2340   16.0310 N   0  0  0  0  0  0  0  0  0  0  0  0
   31.0010   33.9960   14.1920 N   0  0  0  0  0  0  0  0  0  0  0  0
   31.9490   34.1560   15.0700 N   0  0  0  0  0  0  0  0  0  0  0  0
   30.8060   34.8320   13.0100 C   0  0  1  0  0  0  0  0  0  0  0  0
   29.5950   35.6940   13.2310 C   0  0  0  0  0  0  0  0  0  0  0  0
   28.5980   35.3810   12.3350 O   0  0  0  0  0  0  0  0  0  0  0  0
   27.4060   34.9990   12.9100 C   0  0  0  0  0  0  0  0  0  0  0  0
   32.0010   35.7230   12.8480 C   0  0  0  0  0  0  0  0  0  0  0  0
   31.9150   36.9430   13.0480 O   0  0  0  0  0  0  0  0  0  0  0  0
   33.2250   35.1180   12.4590 N   0  0  0  0  0  0  0  0  0  0  0  0
   34.1200   35.5990   12.7040 H   0  0  0  0  0  0  0  0  0  0  0  0
   33.2370   34.2260   11.9490 H   0  0  0  0  0  0  0  0  0  0  0  0
   29.8670   25.5550   16.9770 C   0  0  0  0  0  0  0  0  0  0  0  0
   28.3450   25.7220   17.0260 C   0  0  0  0  0  0  0  0  0  0  0  0
   27.5990   24.4790   16.5650 C   0  0  0  0  0  0  0  0  0  0  0  0
   27.1900   23.6040   17.7170 C   0  0  0  0  0  0  0  0  0  0  0  0
   25.7040   23.2810   17.6080 C   0  0  0  0  0  0  0  0  0  0  0  0
   24.9780   24.3910   16.9460 N   0  0  0  0  0  0  0  0  0  0  0  0
  1  5  1  0  0  0  0
  2  1  1  0  0  0  0
  2  3  2  0  0  0  0
  4  1  1  0  0  0  0
  6  5  1  6  0  0  0
  6 29  1  0  0  0  0
  6  7  1  0  0  0  0
  7 27  1  1  0  0  0
  8  7  1  1  0  0  0
  8 13  1  0  0  0  0
  8 11  1  0  0  0  0
  9 16  1  6  0  0  0
  9 14  1  0  0  0  0
 10  9  1  0  0  0  0
 11  9  1  0  0  0  0
 12 10  1  0  0  0  0
 12 13  1  0  0  0  0
 12 20  1  1  0  0  0
 13 22  1  6  0  0  0
 14 15  1  0  0  0  0
 16 17  2  0  0  0  0
 18 16  1  0  0  0  0
 19 18  1  0  0  0  0
 21 20  1  0  0  0  0
 22 23  1  0  0  0  0
 23 26  2  0  0  0  0
 24 22  1  0  0  0  0
 25 23  1  0  0  0  0
 28 27  1  0  0  0  0
 29 30  1  0  0  0  0
 31 32  1  0  0  0  0
 31  2  1  0  0  0  0
 33 35  1  0  0  0  0
 33 32  1  0  0  0  0
 34 33  2  0  0  0  0
 36 34  1  0  0  0  0
 36 37  1  0  0  0  0
 37 35  2  0  0  0  0
 38 39  1  1  0  0  0
 38 36  1  0  0  0  0
 40 41  1  0  0  0  0
 40 39  1  0  0  0  0
 42 38  1  0  0  0  0
 42 43  2  0  0  0  0
 44 45  1  0  0  0  0
 44 42  1  0  0  0  0
 46 44  1  0  0  0  0
 47 48  1  0  0  0  0
 49 48  1  0  0  0  0
 49 50  1  0  0  0  0
 51 50  1  0  0  0  0
 52 51  1  0  0  0  0
M  END
>  <REMARK>
 VINA RESULT:    -4.567      0.000      0.000
 INTER + INTRA:         -15.458
 INTER:                  -9.360
 INTRA:                  -6.098
 UNBOUND:                -6.753
 SMILES COCC(C(N)=O)n1cc(COC(=O)NC[C@@H](O)C(O)[C@@H]2O[C@@](O)(C(=O)O)C[C@H](O)[C@H]2NC(C)=O)nn1
 SMILES IDX 15 1 13 2 14 3 16 5 17 6 19 7 21 8 23 9 28 10 22 11 29 12
 SMILES IDX 31 13 24 14 25 16 26 17 27 18 30 20 32 22 33 23 34 25 35 26
 SMILES IDX 20 27 18 29 12 31 11 32 10 33 9 34 36 35 8 36 37 37 4 38
 SMILES IDX 3 39 2 40 1 41 5 42 7 43 6 44
 H PARENT 15 4 24 15 27 19 30 21 32 24 20 28 18 30 6 45 6 46
 Flexibility Score: inf
  4 active torsions:
  status: ('A' for Active; 'I' for Inactive)
    1  A    between atoms: CA   and  CB  
    2  A    between atoms: CB   and  CG  
    3  A    between atoms: CG   and  CD  
    4  A    between atoms: CD   and  CE  

>  <TORSDO>
F 18

>  <BEGIN_>
RES LYS A 131

$$$$
ligand_62_pose_0_2HRL.pdbqt
 OpenBabel07062320523D

  6  5  0  0  0  0  0  0  0  0999 V2000
   33.1930   34.6630    9.2900 C   0  0  0  0  0  0  0  0  0  0  0  0
   32.0600   35.3600   10.0340 C   0  0  0  0  0  0  0  0  0  0  0  0
   30.7970   35.4920    9.2220 C   0  0  0  0  0  0  0  0  0  0  0  0
   30.0980   34.1470    9.0960 C   0  0  0  0  0  0  0  0  0  0  0  0
   28.6510   34.3360    8.6820 C   0  0  0  0  0  0  0  0  0  0  0  0
   27.7330   33.5820    9.5790 N   0  0  0  0  0  0  0  0  0  0  0  0
  1  2  1  0  0  0  0
  3  2  1  0  0  0  0
  4  3  1  0  0  0  0
  5  4  1  0  0  0  0
  5  6  1  0  0  0  0
M  END
>  <EGIN_R>
ES LYS A 135

>  <REMARK>
  4 active torsions:
  status: ('A' for Active; 'I' for Inactive)
    5  A    between atoms: CA   and  CB  
    6  A    between atoms: CB   and  CG  
    7  A    between atoms: CG   and  CD  
    8  A    between atoms: CD   and  CE  

$$$$
ligand_63_pose_0_2HRL.pdbqt
 OpenBabel07062320523D

 51 52  0  0  1  0  0  0  0  0999 V2000
   23.6760   36.4130   10.3180 N   0  0  0  0  0  0  0  0  0  0  0  0
   23.5600   36.7660   11.7050 C   0  0  0  0  0  0  0  0  0  0  0  0
   23.1160   37.8630   12.0590 O   0  0  0  0  0  0  0  0  0  0  0  0
   24.0560   35.4190   10.1740 H   0  0  0  0  0  0  0  0  0  0  0  0
   23.3030   37.2180    9.2550 C   0  0  0  0  0  0  0  0  0  0  0  0
   24.1480   37.1500    7.9580 C   0  0  2  0  0  0  0  0  0  0  0  0
   25.5180   36.8600    8.4370 C   0  0  1  0  0  0  0  0  0  0  0  0
   26.5350   36.3290    7.4920 C   0  0  2  0  0  0  0  0  0  0  0  0
   28.5510   35.4860    8.3620 C   0  0  2  0  0  0  0  0  0  0  0  0
   29.3100   35.6480    7.0680 C   0  0  0  0  0  0  0  0  0  0  0  0
   27.1910   35.2510    8.1470 O   0  0  0  0  0  0  0  0  0  0  0  0
   28.4260   36.3510    6.0180 C   0  0  1  0  0  0  0  0  0  0  0  0
   27.4980   37.2410    6.8810 C   0  0  1  0  0  0  0  0  0  0  0  0
   28.8130   36.5480    9.2150 O   0  0  0  0  0  0  0  0  0  0  0  0
   29.3070   36.3160   10.0150 H   0  0  0  0  0  0  0  0  0  0  0  0
   29.0410   34.2280    8.9610 C   0  0  0  0  0  0  0  0  0  0  0  0
   30.0920   33.7140    8.9590 O   0  0  0  0  0  0  0  0  0  0  0  0
   27.9720   33.5180    9.6960 O   0  0  0  0  0  0  0  0  0  0  0  0
   27.0170   33.7810    9.4410 H   0  0  0  0  0  0  0  0  0  0  0  0
   29.1820   37.0990    5.1530 O   0  0  0  0  0  0  0  0  0  0  0  0
   28.6500   37.4590    4.4220 H   0  0  0  0  0  0  0  0  0  0  0  0
   26.8950   38.2240    5.9690 N   0  0  0  0  0  0  0  0  0  0  0  0
   27.3070   39.5630    6.0610 C   0  0  0  0  0  0  0  0  0  0  0  0
   26.2210   37.9260    5.2900 H   0  0  0  0  0  0  0  0  0  0  0  0
   27.0080   40.7640    5.3730 C   0  0  0  0  0  0  0  0  0  0  0  0
   28.2270   39.6680    7.0620 O   0  0  0  0  0  0  0  0  0  0  0  0
   25.9340   37.7750    9.3610 O   0  0  0  0  0  0  0  0  0  0  0  0
   26.6440   38.3770    9.0120 H   0  0  0  0  0  0  0  0  0  0  0  0
   23.9160   38.3340    7.3170 O   0  0  0  0  0  0  0  0  0  0  0  0
   24.3200   39.0750    7.8330 H   0  0  0  0  0  0  0  0  0  0  0  0
   23.9570   35.8360   12.6680 O   0  0  0  0  0  0  0  0  0  0  0  0
   24.6380   34.6200   12.2890 C   0  0  0  0  0  0  0  0  0  0  0  0
   26.0920   34.9870   12.4600 C   0  0  0  0  0  0  0  0  0  0  0  0
   26.9010   34.6380   13.5000 C   0  0  0  0  0  0  0  0  0  0  0  0
   26.8210   35.6430   11.5580 N   0  0  0  0  0  0  0  0  0  0  0  0
   28.1440   35.1080   13.1720 N   0  0  0  0  0  0  0  0  0  0  0  0
   28.0500   35.7140   11.9800 N   0  0  0  0  0  0  0  0  0  0  0  0
   29.3160   34.9730   13.9100 C   0  0  0  0  0  0  0  0  0  0  0  0
   29.9820   33.7450   13.9600 N   0  0  0  0  0  0  0  0  0  0  0  0
   29.8770   35.9400   14.7170 C   0  0  0  0  0  0  0  0  0  0  0  0
   30.9980   33.6000   14.7030 C   0  0  0  0  0  0  0  0  0  0  0  0
   30.9360   35.7720   15.4910 C   0  0  0  0  0  0  0  0  0  0  0  0
   31.6340   34.5320   15.5620 C   0  0  0  0  0  0  0  0  0  0  0  0
   29.1810   37.2830   14.7860 C   0  0  0  0  0  0  0  0  0  0  0  0
   28.7080   38.1750   14.8160 N   0  0  0  0  0  0  0  0  0  0  0  0
   29.8670   25.5550   16.9770 C   0  0  0  0  0  0  0  0  0  0  0  0
   28.3450   25.7220   17.0260 C   0  0  0  0  0  0  0  0  0  0  0  0
   27.6010   24.4020   16.8920 C   0  0  0  0  0  0  0  0  0  0  0  0
   26.5320   24.2460   17.9380 C   0  0  0  0  0  0  0  0  0  0  0  0
   25.1600   24.2740   17.2720 C   0  0  0  0  0  0  0  0  0  0  0  0
   24.5220   25.5990   17.4550 N   0  0  0  0  0  0  0  0  0  0  0  0
  1  2  1  0  0  0  0
  2  3  2  0  0  0  0
  2 31  1  0  0  0  0
  4  1  1  0  0  0  0
  5  1  1  0  0  0  0
  6  7  1  0  0  0  0
  6  5  1  1  0  0  0
  7 27  1  6  0  0  0
  8 11  1  0  0  0  0
  8  7  1  1  0  0  0
  9 16  1  1  0  0  0
  9 14  1  0  0  0  0
 10  9  1  0  0  0  0
 11  9  1  0  0  0  0
 12 20  1  6  0  0  0
 12 13  1  0  0  0  0
 12 10  1  0  0  0  0
 13 22  1  6  0  0  0
 13  8  1  0  0  0  0
 14 15  1  0  0  0  0
 16 18  1  0  0  0  0
 17 16  2  0  0  0  0
 19 18  1  0  0  0  0
 21 20  1  0  0  0  0
 22 23  1  0  0  0  0
 23 26  2  0  0  0  0
 24 22  1  0  0  0  0
 25 23  1  0  0  0  0
 28 27  1  0  0  0  0
 29 30  1  0  0  0  0
 29  6  1  0  0  0  0
 32 33  1  0  0  0  0
 32 31  1  0  0  0  0
 33 34  2  0  0  0  0
 35 37  2  0  0  0  0
 35 33  1  0  0  0  0
 36 34  1  0  0  0  0
 36 38  1  0  0  0  0
 37 36  1  0  0  0  0
 38 39  2  0  0  0  0
 38 40  1  0  0  0  0
 39 41  1  0  0  0  0
 40 44  1  0  0  0  0
 40 42  2  0  0  0  0
 41 43  2  0  0  0  0
 42 43  1  0  0  0  0
 44 45  3  0  0  0  0
 46 47  1  0  0  0  0
 48 47  1  0  0  0  0
 48 49  1  0  0  0  0
 50 51  1  0  0  0  0
 50 49  1  0  0  0  0
M  END
>  <REMARK>
 VINA RESULT:    -4.400      0.000      0.000
 INTER + INTRA:         -14.914
 INTER:                  -9.433
 INTRA:                  -5.481
 UNBOUND:                -7.042
 SMILES CC(=O)N[C@@H]1[C@@H](O)C[C@](O)(C(=O)O)O[C@H]1C(O)[C@H](O)CNC(=O)OCc1cn(-c2ncccc2C#N)nn1
 SMILES IDX 21 1 22 2 23 3 20 5 18 6 16 7 15 8 9 9 8 10 14 11 6 12 5 13
 SMILES IDX 10 14 11 16 12 17 13 18 7 20 4 22 2 23 1 25 3 26 17 27 19 29
 SMILES IDX 24 31 25 32 26 33 27 34 38 35 28 36 37 37 29 38 30 39 34 40
 SMILES IDX 31 41 33 42 32 43 35 44 36 45
 H PARENT 21 4 10 15 13 19 7 21 4 24 17 28 19 30
 Flexibility Score: inf
  4 active torsions:
  status: ('A' for Active; 'I' for Inactive)
    1  A    between atoms: CA   and  CB  
    2  A    between atoms: CB   and  CG  
    3  A    between atoms: CG   and  CD  
    4  A    between atoms: CD   and  CE  

>  <TORSDO>
F 16

>  <BEGIN_>
RES LYS A 131

$$$$
ligand_63_pose_0_2HRL.pdbqt
 OpenBabel07062320523D

  6  5  0  0  0  0  0  0  0  0999 V2000
   33.1930   34.6630    9.2900 C   0  0  0  0  0  0  0  0  0  0  0  0
   32.0600   35.3600   10.0340 C   0  0  0  0  0  0  0  0  0  0  0  0
   32.2300   35.3550   11.5310 C   0  0  0  0  0  0  0  0  0  0  0  0
   32.2690   36.7760   12.0720 C   0  0  0  0  0  0  0  0  0  0  0  0
   31.7060   37.7490   11.0530 C   0  0  0  0  0  0  0  0  0  0  0  0
   30.5630   38.5170   11.6200 N   0  0  0  0  0  0  0  0  0  0  0  0
  1  2  1  0  0  0  0
  2  3  1  0  0  0  0
  3  4  1  0  0  0  0
  5  6  1  0  0  0  0
  5  4  1  0  0  0  0
M  END
>  <EGIN_R>
ES LYS A 135

>  <REMARK>
  4 active torsions:
  status: ('A' for Active; 'I' for Inactive)
    5  A    between atoms: CA   and  CB  
    6  A    between atoms: CB   and  CG  
    7  A    between atoms: CG   and  CD  
    8  A    between atoms: CD   and  CE  

$$$$
ligand_64_pose_0_2HRL.pdbqt
 OpenBabel07062320523D

 59 61  0  0  1  0  0  0  0  0999 V2000
   26.0440   36.3010   15.5920 N   0  0  0  0  0  0  0  0  0  0  0  0
   25.3360   35.2630   16.2770 C   0  0  0  0  0  0  0  0  0  0  0  0
   25.9300   34.6470   17.1990 O   0  0  0  0  0  0  0  0  0  0  0  0
   25.4870   36.7800   14.8260 H   0  0  0  0  0  0  0  0  0  0  0  0
   27.3970   36.6770   15.8990 C   0  0  0  0  0  0  0  0  0  0  0  0
   28.3060   36.4310   14.7330 C   0  0  2  0  0  0  0  0  0  0  0  0
   28.3580   34.9300   14.4830 C   0  0  2  0  0  0  0  0  0  0  0  0
   29.4170   34.3080   15.3240 C   0  0  2  0  0  0  0  0  0  0  0  0
   31.6440   33.6470   15.2160 C   0  0  2  0  0  0  0  0  0  0  0  0
   31.4170   33.5020   16.7160 C   0  0  0  0  0  0  0  0  0  0  0  0
   30.6120   34.2800   14.5730 O   0  0  0  0  0  0  0  0  0  0  0  0
   30.2080   32.6580   16.9110 C   0  0  1  0  0  0  0  0  0  0  0  0
   29.1890   32.9060   15.7760 C   0  0  1  0  0  0  0  0  0  0  0  0
   31.8130   32.3200   14.7540 O   0  0  0  0  0  0  0  0  0  0  0  0
   32.7280   32.0630   15.0380 H   0  0  0  0  0  0  0  0  0  0  0  0
   32.8850   34.3930   14.9330 C   0  0  0  0  0  0  0  0  0  0  0  0
   33.1870   35.3870   15.6170 O   0  0  0  0  0  0  0  0  0  0  0  0
   33.7210   33.9970   13.9110 O   0  0  0  0  0  0  0  0  0  0  0  0
   33.7730   34.4830   13.0190 H   0  0  0  0  0  0  0  0  0  0  0  0
   30.4750   31.3130   17.0450 O   0  0  0  0  0  0  0  0  0  0  0  0
   29.6540   30.8120   17.2470 H   0  0  0  0  0  0  0  0  0  0  0  0
   27.8750   32.6060   16.2760 N   0  0  0  0  0  0  0  0  0  0  0  0
   27.2870   31.3000   16.1040 C   0  0  0  0  0  0  0  0  0  0  0  0
   27.3400   33.3210   16.7730 H   0  0  0  0  0  0  0  0  0  0  0  0
   25.9470   30.9510   16.5990 C   0  0  0  0  0  0  0  0  0  0  0  0
   28.0080   30.4590   15.4880 O   0  0  0  0  0  0  0  0  0  0  0  0
   28.4270   34.5920   13.1590 O   0  0  0  0  0  0  0  0  0  0  0  0
   28.7840   35.2720   12.5610 H   0  0  0  0  0  0  0  0  0  0  0  0
   29.5800   36.8690   15.1490 O   0  0  0  0  0  0  0  0  0  0  0  0
   29.9180   36.1660   15.7420 H   0  0  0  0  0  0  0  0  0  0  0  0
   24.0300   34.9520   15.9290 O   0  0  0  0  0  0  0  0  0  0  0  0
   23.7980   33.7300   15.2580 C   0  0  0  0  0  0  0  0  0  0  0  0
   23.5130   34.0600   13.8370 C   0  0  0  0  0  0  0  0  0  0  0  0
   24.4090   34.5870   12.8990 C   0  0  0  0  0  0  0  0  0  0  0  0
   22.3630   33.9330   13.1360 N   0  0  0  0  0  0  0  0  0  0  0  0
   23.7880   34.7500   11.7180 N   0  0  0  0  0  0  0  0  0  0  0  0
   22.5520   34.3470   11.8890 N   0  0  0  0  0  0  0  0  0  0  0  0
   24.4330   35.2750   10.5390 C   0  0  0  0  0  0  0  0  0  0  0  0
   23.7740   36.1000    9.6640 C   0  0  0  0  0  0  0  0  0  0  0  0
   25.7540   34.9490   10.2570 C   0  0  0  0  0  0  0  0  0  0  0  0
   24.3590   36.6170    8.5270 C   0  0  0  0  0  0  0  0  0  0  0  0
   26.3490   35.4560    9.1310 C   0  0  0  0  0  0  0  0  0  0  0  0
   25.6370   36.2650    8.3130 N   0  0  0  0  0  0  0  0  0  0  0  0
   23.6420   37.4910    7.6140 C   0  0  0  0  0  0  0  0  0  0  0  0
   22.5020   37.1590    7.2300 O   0  0  0  0  0  0  0  0  0  0  0  0
   24.1890   38.6730    7.1650 O   0  0  0  0  0  0  0  0  0  0  0  0
   24.9750   38.7070    6.5060 H   0  0  0  0  0  0  0  0  0  0  0  0
   27.7490   35.1260    8.8070 C   0  0  0  0  0  0  0  0  0  0  0  0
   28.4680   34.3800    9.7160 C   0  0  0  0  0  0  0  0  0  0  0  0
   28.3080   35.5540    7.6370 C   0  0  0  0  0  0  0  0  0  0  0  0
   29.7740   34.0710    9.4180 C   0  0  0  0  0  0  0  0  0  0  0  0
   29.6230   35.2210    7.3760 C   0  0  0  0  0  0  0  0  0  0  0  0
   30.3840   34.4770    8.2500 C   0  0  0  0  0  0  0  0  0  0  0  0
   29.8670   25.5550   16.9770 C   0  0  0  0  0  0  0  0  0  0  0  0
   28.3450   25.7220   17.0260 C   0  0  0  0  0  0  0  0  0  0  0  0
   27.6010   24.4030   16.8870 C   0  0  0  0  0  0  0  0  0  0  0  0
   26.2090   24.4750   17.4510 C   0  0  0  0  0  0  0  0  0  0  0  0
   25.6380   23.0660   17.5790 C   0  0  0  0  0  0  0  0  0  0  0  0
   24.8580   22.9350   18.8320 N   0  0  0  0  0  0  0  0  0  0  0  0
  1  5  1  0  0  0  0
  1  2  1  0  0  0  0
  2  3  2  0  0  0  0
  4  1  1  0  0  0  0
  6 29  1  0  0  0  0
  6  5  1  1  0  0  0
  7 27  1  6  0  0  0
  7  6  1  0  0  0  0
  8  7  1  6  0  0  0
  8 13  1  0  0  0  0
  9 14  1  6  0  0  0
  9 10  1  0  0  0  0
 10 12  1  0  0  0  0
 11  9  1  0  0  0  0
 11  8  1  0  0  0  0
 12 20  1  6  0  0  0
 13 22  1  1  0  0  0
 13 12  1  0  0  0  0
 14 15  1  0  0  0  0
 16  9  1  0  0  0  0
 16 17  2  0  0  0  0
 18 16  1  0  0  0  0
 19 18  1  0  0  0  0
 20 21  1  0  0  0  0
 22 24  1  0  0  0  0
 23 22  1  0  0  0  0
 23 25  1  0  0  0  0
 26 23  2  0  0  0  0
 28 27  1  0  0  0  0
 29 30  1  0  0  0  0
 31  2  1  0  0  0  0
 32 31  1  0  0  0  0
 33 32  1  0  0  0  0
 34 33  2  0  0  0  0
 35 33  1  0  0  0  0
 36 37  1  0  0  0  0
 36 34  1  0  0  0  0
 37 35  2  0  0  0  0
 38 36  1  0  0  0  0
 39 38  2  0  0  0  0
 40 38  1  0  0  0  0
 41 39  1  0  0  0  0
 42 40  2  0  0  0  0
 43 41  2  0  0  0  0
 43 42  1  0  0  0  0
 44 41  1  0  0  0  0
 45 44  2  0  0  0  0
 46 44  1  0  0  0  0
 47 46  1  0  0  0  0
 48 42  1  0  0  0  0
 48 49  2  0  0  0  0
 50 48  1  0  0  0  0
 51 49  1  0  0  0  0
 52 50  2  0  0  0  0
 52 53  1  0  0  0  0
 53 51  2  0  0  0  0
 54 55  1  0  0  0  0
 56 55  1  0  0  0  0
 56 57  1  0  0  0  0
 57 58  1  0  0  0  0
 58 59  1  0  0  0  0
M  END
>  <REMARK>
 VINA RESULT:    -6.264      0.000      0.000
 INTER + INTRA:         -16.973
 INTER:                 -12.192
 INTRA:                  -4.781
 UNBOUND:                -5.216
 SMILES CC(=O)N[C@@H]1[C@@H](O)C[C@](O)(C(=O)O)O[C@H]1C(O)[C@H](O)CNC(=O)OCc1cn(-c2cc(C(=O)O)nc(-c3ccccc3)c2)nn1
 SMILES IDX 21 1 22 2 23 3 20 5 18 6 16 7 15 8 9 9 8 10 14 11 6 12 5 13
 SMILES IDX 10 14 11 16 12 17 13 18 7 20 4 22 2 23 1 25 3 26 17 27 19 29
 SMILES IDX 24 31 25 32 26 33 27 34 45 35 28 36 44 37 29 38 30 39 43 40
 SMILES IDX 31 41 36 42 35 43 32 44 33 45 34 46 37 48 38 49 42 50 39 51
 SMILES IDX 41 52 40 53
 H PARENT 21 4 10 15 13 19 7 21 4 24 17 28 19 30 34 47
 Flexibility Score: inf
  4 active torsions:
  status: ('A' for Active; 'I' for Inactive)
    1  A    between atoms: CA   and  CB  
    2  A    between atoms: CB   and  CG  
    3  A    between atoms: CG   and  CD  
    4  A    between atoms: CD   and  CE  

>  <TORSDO>
F 18

>  <BEGIN_>
RES LYS A 131

$$$$
ligand_64_pose_0_2HRL.pdbqt
 OpenBabel07062320523D

  6  5  0  0  0  0  0  0  0  0999 V2000
   33.1930   34.6630    9.2900 C   0  0  0  0  0  0  0  0  0  0  0  0
   32.0600   35.3600   10.0340 C   0  0  0  0  0  0  0  0  0  0  0  0
   32.5120   36.0940   11.2700 C   0  0  0  0  0  0  0  0  0  0  0  0
   31.7650   37.4100   11.4160 C   0  0  0  0  0  0  0  0  0  0  0  0
   30.2700   37.1680   11.4970 C   0  0  0  0  0  0  0  0  0  0  0  0
   29.5530   37.8670   10.3950 N   0  0  0  0  0  0  0  0  0  0  0  0
  1  2  1  0  0  0  0
  2  3  1  0  0  0  0
  3  4  1  0  0  0  0
  4  5  1  0  0  0  0
  6  5  1  0  0  0  0
M  END
>  <EGIN_R>
ES LYS A 135

>  <REMARK>
  4 active torsions:
  status: ('A' for Active; 'I' for Inactive)
    5  A    between atoms: CA   and  CB  
    6  A    between atoms: CB   and  CG  
    7  A    between atoms: CG   and  CD  
    8  A    between atoms: CD   and  CE  

$$$$
ligand_65_pose_0_2HRL.pdbqt
 OpenBabel07062320523D

 53 54  0  0  1  0  0  0  0  0999 V2000
   27.9050   28.3760   18.5290 N   0  0  0  0  0  0  0  0  0  0  0  0
   26.8730   28.6940   17.6240 C   0  0  0  0  0  0  0  0  0  0  0  0
   25.8440   28.0020   17.4630 O   0  0  0  0  0  0  0  0  0  0  0  0
   28.7650   28.9920   18.6440 H   0  0  0  0  0  0  0  0  0  0  0  0
   27.8090   27.1770   19.3340 C   0  0  0  0  0  0  0  0  0  0  0  0
   27.7980   27.5650   20.7800 C   0  0  2  0  0  0  0  0  0  0  0  0
   29.2160   27.7150   21.2920 C   0  0  2  0  0  0  0  0  0  0  0  0
   29.3890   29.1490   21.7710 C   0  0  2  0  0  0  0  0  0  0  0  0
   30.2890   30.5890   20.1370 C   0  0  2  0  0  0  0  0  0  0  0  0
   31.6400   30.5330   20.7760 C   0  0  0  0  0  0  0  0  0  0  0  0
   29.2720   29.9680   20.7280 O   0  0  0  0  0  0  0  0  0  0  0  0
   31.4300   30.5020   22.2850 C   0  0  1  0  0  0  0  0  0  0  0  0
   30.6930   29.1850   22.5210 C   0  0  1  0  0  0  0  0  0  0  0  0
   30.4480   30.0430   18.8410 O   0  0  0  0  0  0  0  0  0  0  0  0
   31.3040   29.5640   18.7550 H   0  0  0  0  0  0  0  0  0  0  0  0
   29.9520   32.0220   19.9450 C   0  0  0  0  0  0  0  0  0  0  0  0
   30.8530   32.8990   19.9450 O   0  0  0  0  0  0  0  0  0  0  0  0
   28.6500   32.4540   19.7590 O   0  0  0  0  0  0  0  0  0  0  0  0
   28.4100   33.4350   19.5980 H   0  0  0  0  0  0  0  0  0  0  0  0
   32.6290   30.4540   22.9690 O   0  0  0  0  0  0  0  0  0  0  0  0
   33.3250   30.1380   22.3240 H   0  0  0  0  0  0  0  0  0  0  0  0
   30.4910   28.9510   23.9340 N   0  0  0  0  0  0  0  0  0  0  0  0
   31.0050   27.7910   24.5660 C   0  0  0  0  0  0  0  0  0  0  0  0
   29.9490   29.6840   24.4470 H   0  0  0  0  0  0  0  0  0  0  0  0
   30.7630   27.6110   26.0140 C   0  0  0  0  0  0  0  0  0  0  0  0
   31.6520   26.9220   23.9410 O   0  0  0  0  0  0  0  0  0  0  0  0
   30.1060   27.4850   20.2090 O   0  0  0  0  0  0  0  0  0  0  0  0
   30.3750   28.4040   19.9220 H   0  0  0  0  0  0  0  0  0  0  0  0
   27.0990   26.5910   21.5080 O   0  0  0  0  0  0  0  0  0  0  0  0
   26.4830   26.0990   20.9370 H   0  0  0  0  0  0  0  0  0  0  0  0
   26.9970   29.8600   16.8490 O   0  0  0  0  0  0  0  0  0  0  0  0
   28.1350   29.9760   16.0230 C   0  0  0  0  0  0  0  0  0  0  0  0
   28.7240   31.3420   16.2090 C   0  0  0  0  0  0  0  0  0  0  0  0
   29.9820   31.7730   15.8300 C   0  0  0  0  0  0  0  0  0  0  0  0
   28.1540   32.4270   16.7820 N   0  0  0  0  0  0  0  0  0  0  0  0
   30.1430   33.0680   16.1680 N   0  0  0  0  0  0  0  0  0  0  0  0
   29.0190   33.4350   16.7420 N   0  0  0  0  0  0  0  0  0  0  0  0
   31.3070   33.8700   15.9410 C   0  0  0  0  0  0  0  0  0  0  0  0
   31.8730   33.9710   14.7240 N   0  0  0  0  0  0  0  0  0  0  0  0
   31.8800   34.5570   16.9490 N   0  0  0  0  0  0  0  0  0  0  0  0
   32.9640   34.7110   14.4700 C   0  0  0  0  0  0  0  0  0  0  0  0
   32.9850   35.3230   16.7560 C   0  0  0  0  0  0  0  0  0  0  0  0
   33.5010   35.3830   15.5250 N   0  0  0  0  0  0  0  0  0  0  0  0
   33.6260   36.0850   17.8600 C   0  0  0  0  0  0  0  0  0  0  0  0
   33.5590   34.8190   13.1970 N   0  0  0  0  0  0  0  0  0  0  0  0
   33.1660   34.3020   12.3990 H   0  0  0  0  0  0  0  0  0  0  0  0
   34.3890   35.4150   13.0680 H   0  0  0  0  0  0  0  0  0  0  0  0
   29.8670   25.5550   16.9770 C   0  0  0  0  0  0  0  0  0  0  0  0
   28.3450   25.7220   17.0260 C   0  0  0  0  0  0  0  0  0  0  0  0
   27.6010   24.4040   16.8770 C   0  0  0  0  0  0  0  0  0  0  0  0
   26.1730   24.5040   17.3380 C   0  0  0  0  0  0  0  0  0  0  0  0
   25.9940   23.6930   18.6170 C   0  0  0  0  0  0  0  0  0  0  0  0
   25.1840   24.4490   19.6020 N   0  0  0  0  0  0  0  0  0  0  0  0
  1  4  1  0  0  0  0
  1  5  1  0  0  0  0
  2  1  1  0  0  0  0
  3  2  2  0  0  0  0
  6  5  1  6  0  0  0
  6  7  1  0  0  0  0
  6 29  1  0  0  0  0
  7 27  1  6  0  0  0
  8  7  1  6  0  0  0
  8 13  1  0  0  0  0
  9 14  1  6  0  0  0
  9 11  1  0  0  0  0
  9 10  1  0  0  0  0
 10 12  1  0  0  0  0
 11  8  1  0  0  0  0
 12 13  1  0  0  0  0
 12 20  1  1  0  0  0
 13 22  1  1  0  0  0
 15 14  1  0  0  0  0
 16  9  1  0  0  0  0
 17 16  2  0  0  0  0
 18 16  1  0  0  0  0
 19 18  1  0  0  0  0
 21 20  1  0  0  0  0
 22 24  1  0  0  0  0
 22 23  1  0  0  0  0
 23 25  1  0  0  0  0
 26 23  2  0  0  0  0
 28 27  1  0  0  0  0
 30 29  1  0  0  0  0
 31  2  1  0  0  0  0
 32 33  1  0  0  0  0
 32 31  1  0  0  0  0
 33 35  1  0  0  0  0
 34 36  1  0  0  0  0
 34 33  2  0  0  0  0
 36 37  1  0  0  0  0
 37 35  2  0  0  0  0
 38 36  1  0  0  0  0
 38 40  1  0  0  0  0
 39 38  2  0  0  0  0
 41 39  2  0  0  0  0
 41 43  1  0  0  0  0
 42 40  2  0  0  0  0
 42 44  1  0  0  0  0
 43 42  1  0  0  0  0
 45 41  1  0  0  0  0
 46 45  1  0  0  0  0
 47 45  1  0  0  0  0
 48 49  1  0  0  0  0
 50 49  1  0  0  0  0
 50 51  1  0  0  0  0
 51 52  1  0  0  0  0
 52 53  1  0  0  0  0
M  END
>  <REMARK>
 VINA RESULT:    -5.531      0.000      0.000
 INTER + INTRA:         -14.869
 INTER:                  -8.595
 INTRA:                  -6.274
 UNBOUND:                -5.134
 SMILES CC(=O)N[C@@H]1[C@@H](O)C[C@](O)(C(=O)O)O[C@H]1C(O)[C@H](O)CNC(=O)OCc1cn(-c2nc(C)nc(N)n2)nn1
 SMILES IDX 21 1 22 2 23 3 20 5 18 6 16 7 15 8 9 9 8 10 14 11 6 12 5 13
 SMILES IDX 10 14 11 16 12 17 13 18 7 20 4 22 2 23 1 25 3 26 17 27 19 29
 SMILES IDX 24 31 25 32 26 33 27 34 38 35 28 36 37 37 29 38 36 39 30 40
 SMILES IDX 34 41 31 42 33 43 32 44 35 45
 H PARENT 21 4 10 15 13 19 7 21 4 24 17 28 19 30 35 46 35 47
 Flexibility Score: inf
  4 active torsions:
  status: ('A' for Active; 'I' for Inactive)
    1  A    between atoms: CA   and  CB  
    2  A    between atoms: CB   and  CG  
    3  A    between atoms: CG   and  CD  
    4  A    between atoms: CD   and  CE  

>  <TORSDO>
F 16

>  <BEGIN_>
RES LYS A 131

$$$$
ligand_65_pose_0_2HRL.pdbqt
 OpenBabel07062320523D

  6  5  0  0  0  0  0  0  0  0999 V2000
   33.1930   34.6630    9.2900 C   0  0  0  0  0  0  0  0  0  0  0  0
   32.0600   35.3600   10.0340 C   0  0  0  0  0  0  0  0  0  0  0  0
   30.8050   35.5120    9.2140 C   0  0  0  0  0  0  0  0  0  0  0  0
   30.2330   34.1510    8.8500 C   0  0  0  0  0  0  0  0  0  0  0  0
   28.7750   34.0600    9.2570 C   0  0  0  0  0  0  0  0  0  0  0  0
   27.8890   34.6540    8.2170 N   0  0  0  0  0  0  0  0  0  0  0  0
  1  2  1  0  0  0  0
  3  2  1  0  0  0  0
  4  3  1  0  0  0  0
  4  5  1  0  0  0  0
  6  5  1  0  0  0  0
M  END
>  <EGIN_R>
ES LYS A 135

>  <REMARK>
  4 active torsions:
  status: ('A' for Active; 'I' for Inactive)
    5  A    between atoms: CA   and  CB  
    6  A    between atoms: CB   and  CG  
    7  A    between atoms: CG   and  CD  
    8  A    between atoms: CD   and  CE  

$$$$
ligand_66_pose_0_2HRL.pdbqt
 OpenBabel07062320523D

 52 53  0  0  1  0  0  0  0  0999 V2000
   28.2420   31.6710   17.8130 N   0  0  0  0  0  0  0  0  0  0  0  0
   27.2420   31.1630   18.6490 C   0  0  0  0  0  0  0  0  0  0  0  0
   27.5110   30.3190   19.5280 O   0  0  0  0  0  0  0  0  0  0  0  0
   27.9370   32.3900   17.0910 H   0  0  0  0  0  0  0  0  0  0  0  0
   29.6240   31.2760   17.8830 C   0  0  0  0  0  0  0  0  0  0  0  0
   30.2530   31.0910   16.5300 C   0  0  2  0  0  0  0  0  0  0  0  0
   31.0190   32.2450   16.0110 C   0  0  2  0  0  0  0  0  0  0  0  0
   30.2250   33.5580   15.9040 C   0  0  2  0  0  0  0  0  0  0  0  0
   28.3250   34.4250   14.9950 C   0  0  2  0  0  0  0  0  0  0  0  0
   29.1260   35.3600   14.1110 C   0  0  0  0  0  0  0  0  0  0  0  0
   29.0960   33.3160   15.2280 O   0  0  0  0  0  0  0  0  0  0  0  0
   30.3880   35.8100   14.7970 C   0  0  1  0  0  0  0  0  0  0  0  0
   31.0910   34.6940   15.5130 C   0  0  1  0  0  0  0  0  0  0  0  0
   27.1680   34.0420   14.2700 O   0  0  0  0  0  0  0  0  0  0  0  0
   26.4100   34.3730   14.8320 H   0  0  0  0  0  0  0  0  0  0  0  0
   27.8500   35.1540   16.1750 C   0  0  0  0  0  0  0  0  0  0  0  0
   27.2470   36.2480   16.0840 O   0  0  0  0  0  0  0  0  0  0  0  0
   28.0320   34.6910   17.4950 O   0  0  0  0  0  0  0  0  0  0  0  0
   28.9890   34.4090   17.7220 H   0  0  0  0  0  0  0  0  0  0  0  0
   31.2220   36.3610   13.8240 O   0  0  0  0  0  0  0  0  0  0  0  0
   32.1260   36.5350   14.1590 H   0  0  0  0  0  0  0  0  0  0  0  0
   31.7820   35.2420   16.6640 N   0  0  0  0  0  0  0  0  0  0  0  0
   33.1650   35.6490   16.6150 C   0  0  0  0  0  0  0  0  0  0  0  0
   31.3400   35.3800   17.6080 H   0  0  0  0  0  0  0  0  0  0  0  0
   33.8370   36.2070   17.8310 C   0  0  0  0  0  0  0  0  0  0  0  0
   33.8120   35.5380   15.5540 O   0  0  0  0  0  0  0  0  0  0  0  0
   31.5700   32.0180   14.7490 O   0  0  0  0  0  0  0  0  0  0  0  0
   31.1360   31.2720   14.2670 H   0  0  0  0  0  0  0  0  0  0  0  0
   29.2820   30.5760   15.6720 O   0  0  0  0  0  0  0  0  0  0  0  0
   28.6580   30.0330   16.2130 H   0  0  0  0  0  0  0  0  0  0  0  0
   25.9070   31.5580   18.5540 O   0  0  0  0  0  0  0  0  0  0  0  0
   24.9850   30.6730   17.9710 C   0  0  0  0  0  0  0  0  0  0  0  0
   25.0060   30.8550   16.5060 C   0  0  0  0  0  0  0  0  0  0  0  0
   24.4740   30.0340   15.5370 C   0  0  0  0  0  0  0  0  0  0  0  0
   25.5640   31.8880   15.8480 N   0  0  0  0  0  0  0  0  0  0  0  0
   24.7200   30.5840   14.3330 N   0  0  0  0  0  0  0  0  0  0  0  0
   25.3840   31.7090   14.5700 N   0  0  0  0  0  0  0  0  0  0  0  0
   24.3710   30.1370   13.0110 C   0  0  0  0  0  0  0  0  0  0  0  0
   22.9070   30.3380   12.7530 C   0  0  0  0  0  0  0  0  0  0  0  0
   22.3680   31.6040   12.8130 C   0  0  0  0  0  0  0  0  0  0  0  0
   22.0780   29.2910   12.4490 C   0  0  0  0  0  0  0  0  0  0  0  0
   21.0040   31.7990   12.5660 C   0  0  0  0  0  0  0  0  0  0  0  0
   20.7300   29.4470   12.1990 C   0  0  0  0  0  0  0  0  0  0  0  0
   20.1930   30.7120   12.2590 C   0  0  0  0  0  0  0  0  0  0  0  0
   19.8440   28.3670   11.8790 C   0  0  0  0  0  0  0  0  0  0  0  0
   19.1360   27.4800   11.6070 N   0  0  0  0  0  0  0  0  0  0  0  0
   29.8670   25.5550   16.9770 C   0  0  0  0  0  0  0  0  0  0  0  0
   28.3450   25.7220   17.0260 C   0  0  0  0  0  0  0  0  0  0  0  0
   27.6020   24.3990   16.9270 C   0  0  0  0  0  0  0  0  0  0  0  0
   26.4480   24.3240   17.8870 C   0  0  0  0  0  0  0  0  0  0  0  0
   26.0690   25.7300   18.3390 C   0  0  0  0  0  0  0  0  0  0  0  0
   25.8830   25.7710   19.8090 N   0  0  0  0  0  0  0  0  0  0  0  0
  1  5  1  0  0  0  0
  1  2  1  0  0  0  0
  2  3  2  0  0  0  0
  4  1  1  0  0  0  0
  6  5  1  1  0  0  0
  7 27  1  6  0  0  0
  7  6  1  0  0  0  0
  8  7  1  6  0  0  0
  9 14  1  6  0  0  0
  9 11  1  0  0  0  0
  9 16  1  0  0  0  0
 10 12  1  0  0  0  0
 10  9  1  0  0  0  0
 11  8  1  0  0  0  0
 12 20  1  6  0  0  0
 12 13  1  0  0  0  0
 13  8  1  0  0  0  0
 13 22  1  1  0  0  0
 14 15  1  0  0  0  0
 16 18  1  0  0  0  0
 17 16  2  0  0  0  0
 18 19  1  0  0  0  0
 20 21  1  0  0  0  0
 22 24  1  0  0  0  0
 23 22  1  0  0  0  0
 23 25  1  0  0  0  0
 26 23  2  0  0  0  0
 28 27  1  0  0  0  0
 29 30  1  0  0  0  0
 29  6  1  0  0  0  0
 31  2  1  0  0  0  0
 32 31  1  0  0  0  0
 33 32  1  0  0  0  0
 34 33  2  0  0  0  0
 35 33  1  0  0  0  0
 36 37  1  0  0  0  0
 36 34  1  0  0  0  0
 37 35  2  0  0  0  0
 38 36  1  0  0  0  0
 39 40  1  0  0  0  0
 39 38  1  0  0  0  0
 41 39  2  0  0  0  0
 42 40  2  0  0  0  0
 43 44  2  0  0  0  0
 43 41  1  0  0  0  0
 44 42  1  0  0  0  0
 45 43  1  0  0  0  0
 46 45  3  0  0  0  0
 47 48  1  0  0  0  0
 49 48  1  0  0  0  0
 49 50  1  0  0  0  0
 50 51  1  0  0  0  0
 51 52  1  0  0  0  0
M  END
>  <REMARK>
 VINA RESULT:    -5.374      0.000      0.000
 INTER + INTRA:         -15.142
 INTER:                  -9.507
 INTRA:                  -5.635
 UNBOUND:                -5.212
 SMILES CC(=O)N[C@@H]1[C@@H](O)C[C@](O)(C(=O)O)O[C@H]1C(O)[C@H](O)CNC(=O)OCc1cn(Cc2cccc(C#N)c2)nn1
 SMILES IDX 21 1 22 2 23 3 20 5 18 6 16 7 15 8 9 9 8 10 14 11 6 12 5 13
 SMILES IDX 10 14 11 16 12 17 13 18 7 20 4 22 2 23 1 25 3 26 17 27 19 29
 SMILES IDX 24 31 25 32 26 33 27 34 39 35 28 36 38 37 29 38 30 39 31 40
 SMILES IDX 37 41 32 42 34 43 33 44 35 45 36 46
 H PARENT 21 4 10 15 13 19 7 21 4 24 17 28 19 30
 Flexibility Score: inf
  4 active torsions:
  status: ('A' for Active; 'I' for Inactive)
    1  A    between atoms: CA   and  CB  
    2  A    between atoms: CB   and  CG  
    3  A    between atoms: CG   and  CD  
    4  A    between atoms: CD   and  CE  

>  <TORSDO>
F 17

>  <BEGIN_>
RES LYS A 131

$$$$
ligand_66_pose_0_2HRL.pdbqt
 OpenBabel07062320523D

  6  5  0  0  0  0  0  0  0  0999 V2000
   33.1930   34.6630    9.2900 C   0  0  0  0  0  0  0  0  0  0  0  0
   32.0600   35.3600   10.0340 C   0  0  0  0  0  0  0  0  0  0  0  0
   30.8010   35.5020    9.2180 C   0  0  0  0  0  0  0  0  0  0  0  0
   30.2430   34.1370    8.8490 C   0  0  0  0  0  0  0  0  0  0  0  0
   28.7270   34.1670    8.8340 C   0  0  0  0  0  0  0  0  0  0  0  0
   28.1770   34.1720   10.2180 N   0  0  0  0  0  0  0  0  0  0  0  0
  1  2  1  0  0  0  0
  3  2  1  0  0  0  0
  4  3  1  0  0  0  0
  5  4  1  0  0  0  0
  5  6  1  0  0  0  0
M  END
>  <EGIN_R>
ES LYS A 135

>  <REMARK>
  4 active torsions:
  status: ('A' for Active; 'I' for Inactive)
    5  A    between atoms: CA   and  CB  
    6  A    between atoms: CB   and  CG  
    7  A    between atoms: CG   and  CD  
    8  A    between atoms: CD   and  CE  

$$$$
ligand_67_pose_0_2HRL.pdbqt
 OpenBabel07062320523D

 50 51  0  0  1  0  0  0  0  0999 V2000
   25.9540   32.8270   15.0560 N   0  0  0  0  0  0  0  0  0  0  0  0
   25.3130   33.1100   13.8250 C   0  0  0  0  0  0  0  0  0  0  0  0
   24.5940   32.2060   13.2780 O   0  0  0  0  0  0  0  0  0  0  0  0
   26.5370   33.5510   15.5070 H   0  0  0  0  0  0  0  0  0  0  0  0
   25.7890   31.5480   15.6600 C   0  0  0  0  0  0  0  0  0  0  0  0
   26.7970   31.2510   16.7370 C   0  0  2  0  0  0  0  0  0  0  0  0
   28.1880   31.0790   16.2070 C   0  0  1  0  0  0  0  0  0  0  0  0
   28.9630   32.3740   16.3200 C   0  0  2  0  0  0  0  0  0  0  0  0
   29.8160   34.0640   14.9690 C   0  0  2  0  0  0  0  0  0  0  0  0
   31.0520   34.0690   15.8220 C   0  0  0  0  0  0  0  0  0  0  0  0
   29.0520   32.9310   15.0710 O   0  0  0  0  0  0  0  0  0  0  0  0
   31.4290   32.6270   16.0890 C   0  0  1  0  0  0  0  0  0  0  0  0
   30.3110   32.0320   16.9350 C   0  0  1  0  0  0  0  0  0  0  0  0
   30.2440   34.1420   13.6230 O   0  0  0  0  0  0  0  0  0  0  0  0
   30.1150   33.2970   13.1510 H   0  0  0  0  0  0  0  0  0  0  0  0
   29.0280   35.3160   15.1980 C   0  0  0  0  0  0  0  0  0  0  0  0
   29.4750   36.3260   15.7840 O   0  0  0  0  0  0  0  0  0  0  0  0
   27.7240   35.3360   14.7240 O   0  0  0  0  0  0  0  0  0  0  0  0
   27.4770   35.3030   13.7400 H   0  0  0  0  0  0  0  0  0  0  0  0
   31.4640   31.9470   14.8620 O   0  0  0  0  0  0  0  0  0  0  0  0
   32.0720   32.3780   14.2160 H   0  0  0  0  0  0  0  0  0  0  0  0
   30.4320   32.5650   18.2830 N   0  0  0  0  0  0  0  0  0  0  0  0
   30.5490   31.6660   19.3730 C   0  0  0  0  0  0  0  0  0  0  0  0
   30.4330   33.6110   18.4570 H   0  0  0  0  0  0  0  0  0  0  0  0
   30.6760   32.1110   20.7840 C   0  0  0  0  0  0  0  0  0  0  0  0
   30.5460   30.4260   19.1200 O   0  0  0  0  0  0  0  0  0  0  0  0
   28.8370   30.0130   16.8290 O   0  0  0  0  0  0  0  0  0  0  0  0
   28.3710   29.6740   17.6230 H   0  0  0  0  0  0  0  0  0  0  0  0
   26.4100   30.1040   17.4140 O   0  0  0  0  0  0  0  0  0  0  0  0
   25.9780   30.2760   18.2700 H   0  0  0  0  0  0  0  0  0  0  0  0
   25.4030   34.2990   13.1590 O   0  0  0  0  0  0  0  0  0  0  0  0
   25.4540   34.4670   11.7560 C   0  0  0  0  0  0  0  0  0  0  0  0
   26.8430   34.4900   11.2400 C   0  0  0  0  0  0  0  0  0  0  0  0
   27.2570   34.1240    9.9810 C   0  0  0  0  0  0  0  0  0  0  0  0
   27.9510   34.8650   11.8990 N   0  0  0  0  0  0  0  0  0  0  0  0
   28.5960   34.2870    9.9110 N   0  0  0  0  0  0  0  0  0  0  0  0
   28.9900   34.7370   11.0880 N   0  0  0  0  0  0  0  0  0  0  0  0
   29.4850   34.0380    8.7840 C   0  0  0  0  0  0  0  0  0  0  0  0
   30.2160   35.3050    8.3930 C   0  0  0  0  0  0  0  0  0  0  0  0
   29.3400   36.2140    7.5990 C   0  0  0  0  0  0  0  0  0  0  0  0
   28.5490   37.0580    8.3680 O   0  0  0  0  0  0  0  0  0  0  0  0
   28.4880   35.5610    6.7210 O   0  0  0  0  0  0  0  0  0  0  0  0
   27.4780   37.4340    7.5610 C   0  0  0  0  0  0  0  0  0  0  0  0
   27.3980   36.3700    6.5070 C   0  0  0  0  0  0  0  0  0  0  0  0
   29.8670   25.5550   16.9770 C   0  0  0  0  0  0  0  0  0  0  0  0
   28.3450   25.7220   17.0260 C   0  0  0  0  0  0  0  0  0  0  0  0
   27.6010   24.4030   16.8870 C   0  0  0  0  0  0  0  0  0  0  0  0
   26.3810   24.3450   17.7630 C   0  0  0  0  0  0  0  0  0  0  0  0
   26.1040   25.7300   18.3410 C   0  0  0  0  0  0  0  0  0  0  0  0
   25.7720   25.6330   19.7830 N   0  0  0  0  0  0  0  0  0  0  0  0
  1  4  1  0  0  0  0
  1  5  1  0  0  0  0
  2  1  1  0  0  0  0
  3  2  2  0  0  0  0
  6  5  1  6  0  0  0
  6 29  1  0  0  0  0
  7  6  1  0  0  0  0
  7 27  1  1  0  0  0
  8  7  1  6  0  0  0
  8 13  1  0  0  0  0
  9 14  1  6  0  0  0
  9 11  1  0  0  0  0
  9 16  1  0  0  0  0
  9 10  1  0  0  0  0
 10 12  1  0  0  0  0
 11  8  1  0  0  0  0
 12 20  1  6  0  0  0
 12 13  1  0  0  0  0
 13 22  1  1  0  0  0
 15 14  1  0  0  0  0
 16 17  2  0  0  0  0
 18 16  1  0  0  0  0
 19 18  1  0  0  0  0
 21 20  1  0  0  0  0
 22 24  1  0  0  0  0
 22 23  1  0  0  0  0
 23 25  1  0  0  0  0
 26 23  2  0  0  0  0
 27 28  1  0  0  0  0
 29 30  1  0  0  0  0
 31  2  1  0  0  0  0
 32 31  1  0  0  0  0
 33 32  1  0  0  0  0
 33 35  1  0  0  0  0
 34 33  2  0  0  0  0
 36 34  1  0  0  0  0
 36 37  1  0  0  0  0
 37 35  2  0  0  0  0
 38 36  1  0  0  0  0
 39 38  1  0  0  0  0
 40 41  1  0  0  0  0
 40 39  1  0  0  0  0
 42 40  1  0  0  0  0
 43 41  1  0  0  0  0
 44 42  1  0  0  0  0
 44 43  1  0  0  0  0
 45 46  1  0  0  0  0
 47 46  1  0  0  0  0
 47 48  1  0  0  0  0
 48 49  1  0  0  0  0
 49 50  1  0  0  0  0
M  END
>  <REMARK>
 VINA RESULT:    -4.685      0.000      0.000
 INTER + INTRA:         -14.949
 INTER:                  -9.746
 INTRA:                  -5.203
 UNBOUND:                -6.292
 SMILES CC(=O)N[C@@H]1[C@@H](O)C[C@](O)(C(=O)O)O[C@H]1C(O)[C@H](O)CNC(=O)OCc1cn(CCC2OCCO2)nn1
 SMILES IDX 21 1 22 2 23 3 20 5 18 6 16 7 15 8 9 9 8 10 14 11 6 12 5 13
 SMILES IDX 10 14 11 16 12 17 13 18 7 20 4 22 2 23 1 25 3 26 17 27 19 29
 SMILES IDX 24 31 25 32 26 33 27 34 37 35 28 36 36 37 29 38 30 39 31 40
 SMILES IDX 32 41 35 42 33 43 34 44
 H PARENT 21 4 10 15 13 19 7 21 4 24 17 28 19 30
 Flexibility Score: inf
  4 active torsions:
  status: ('A' for Active; 'I' for Inactive)
    1  A    between atoms: CA   and  CB  
    2  A    between atoms: CB   and  CG  
    3  A    between atoms: CG   and  CD  
    4  A    between atoms: CD   and  CE  

>  <TORSDO>
F 17

>  <BEGIN_>
RES LYS A 131

$$$$
ligand_67_pose_0_2HRL.pdbqt
 OpenBabel07062320523D

  6  5  0  0  0  0  0  0  0  0999 V2000
   33.1930   34.6630    9.2900 C   0  0  0  0  0  0  0  0  0  0  0  0
   32.0600   35.3600   10.0340 C   0  0  0  0  0  0  0  0  0  0  0  0
   32.5120   36.0890   11.2730 C   0  0  0  0  0  0  0  0  0  0  0  0
   31.7440   37.3910   11.4400 C   0  0  0  0  0  0  0  0  0  0  0  0
   31.4390   37.6470   12.9030 C   0  0  0  0  0  0  0  0  0  0  0  0
   32.2370   36.7470   13.7820 N   0  0  0  0  0  0  0  0  0  0  0  0
  1  2  1  0  0  0  0
  2  3  1  0  0  0  0
  3  4  1  0  0  0  0
  4  5  1  0  0  0  0
  5  6  1  0  0  0  0
M  END
>  <EGIN_R>
ES LYS A 135

>  <REMARK>
  4 active torsions:
  status: ('A' for Active; 'I' for Inactive)
    5  A    between atoms: CA   and  CB  
    6  A    between atoms: CB   and  CG  
    7  A    between atoms: CG   and  CD  
    8  A    between atoms: CD   and  CE  

$$$$
ligand_68_pose_0_2HRL.pdbqt
 OpenBabel07062320523D

 53 54  0  0  1  0  0  0  0  0999 V2000
   25.9550   28.1980   20.1670 N   0  0  0  0  0  0  0  0  0  0  0  0
   25.1920   29.3890   20.0730 C   0  0  0  0  0  0  0  0  0  0  0  0
   25.4140   30.3130   20.8880 O   0  0  0  0  0  0  0  0  0  0  0  0
   25.7060   27.4640   19.4340 H   0  0  0  0  0  0  0  0  0  0  0  0
   26.9870   27.9520   21.1480 C   0  0  0  0  0  0  0  0  0  0  0  0
   28.3410   27.7250   20.5090 C   0  0  2  0  0  0  0  0  0  0  0  0
   29.2770   28.8920   20.8270 C   0  0  2  0  0  0  0  0  0  0  0  0
   29.9940   28.7530   22.1430 C   0  0  2  0  0  0  0  0  0  0  0  0
   31.7090   30.2590   21.6250 C   0  0  2  0  0  0  0  0  0  0  0  0
   32.3580   29.1910   20.8400 C   0  0  0  0  0  0  0  0  0  0  0  0
   30.6450   29.9610   22.4050 O   0  0  0  0  0  0  0  0  0  0  0  0
   32.0990   27.7760   21.2530 C   0  0  1  0  0  0  0  0  0  0  0  0
   30.9130   27.6070   22.1730 C   0  0  1  0  0  0  0  0  0  0  0  0
   31.2350   31.2130   20.6750 O   0  0  0  0  0  0  0  0  0  0  0  0
   30.2780   31.3150   20.8700 H   0  0  0  0  0  0  0  0  0  0  0  0
   32.7780   31.0090   22.3850 C   0  0  0  0  0  0  0  0  0  0  0  0
   33.3280   30.5340   23.4070 O   0  0  0  0  0  0  0  0  0  0  0  0
   33.1770   32.2700   21.9520 O   0  0  0  0  0  0  0  0  0  0  0  0
   34.1410   32.5380   21.8260 H   0  0  0  0  0  0  0  0  0  0  0  0
   31.9380   26.9660   20.0940 O   0  0  0  0  0  0  0  0  0  0  0  0
   31.4120   26.1910   20.3680 H   0  0  0  0  0  0  0  0  0  0  0  0
   31.4690   27.3270   23.4880 N   0  0  0  0  0  0  0  0  0  0  0  0
   30.9140   26.3970   24.4000 C   0  0  0  0  0  0  0  0  0  0  0  0
   32.3280   27.8660   23.7330 H   0  0  0  0  0  0  0  0  0  0  0  0
   31.5060   26.1340   25.7340 C   0  0  0  0  0  0  0  0  0  0  0  0
   29.8780   25.7970   24.0110 O   0  0  0  0  0  0  0  0  0  0  0  0
   28.3350   29.9760   21.0090 O   0  0  0  0  0  0  0  0  0  0  0  0
   28.1390   30.1160   21.9480 H   0  0  0  0  0  0  0  0  0  0  0  0
   28.1690   27.5180   19.1600 O   0  0  0  0  0  0  0  0  0  0  0  0
   27.8410   28.3600   18.7650 H   0  0  0  0  0  0  0  0  0  0  0  0
   24.2070   29.5830   19.1170 O   0  0  0  0  0  0  0  0  0  0  0  0
   24.4330   30.3180   17.9300 C   0  0  0  0  0  0  0  0  0  0  0  0
   25.7460   29.9320   17.3740 C   0  0  0  0  0  0  0  0  0  0  0  0
   26.8060   30.7830   17.1030 C   0  0  0  0  0  0  0  0  0  0  0  0
   26.1990   28.7080   17.0170 N   0  0  0  0  0  0  0  0  0  0  0  0
   27.8350   30.0740   16.6060 N   0  0  0  0  0  0  0  0  0  0  0  0
   27.4380   28.8250   16.5660 N   0  0  0  0  0  0  0  0  0  0  0  0
   29.1330   30.6300   16.2010 C   0  0  0  0  0  0  0  0  0  0  0  0
   29.7420   31.3500   17.3790 C   0  0  1  0  0  0  0  0  0  0  0  0
   30.5270   30.4040   18.0770 O   0  0  0  0  0  0  0  0  0  0  0  0
   30.3370   30.4830   19.0520 H   0  0  0  0  0  0  0  0  0  0  0  0
   30.6440   32.4180   16.9020 C   0  0  0  0  0  0  0  0  0  0  0  0
   31.1640   32.4360   15.6230 C   0  0  0  0  0  0  0  0  0  0  0  0
   30.9880   33.4550   17.7790 C   0  0  0  0  0  0  0  0  0  0  0  0
   32.0000   33.4390   15.1980 C   0  0  0  0  0  0  0  0  0  0  0  0
   31.8190   34.4530   17.3580 C   0  0  0  0  0  0  0  0  0  0  0  0
   32.3220   34.4450   16.0770 C   0  0  0  0  0  0  0  0  0  0  0  0
   29.8670   25.5550   16.9770 C   0  0  0  0  0  0  0  0  0  0  0  0
   28.3450   25.7220   17.0260 C   0  0  0  0  0  0  0  0  0  0  0  0
   27.5990   24.4250   16.7540 C   0  0  0  0  0  0  0  0  0  0  0  0
   26.9090   23.9000   17.9820 C   0  0  0  0  0  0  0  0  0  0  0  0
   25.9060   24.9350   18.4840 C   0  0  0  0  0  0  0  0  0  0  0  0
   25.5490   24.6690   19.8970 N   0  0  0  0  0  0  0  0  0  0  0  0
  1  5  1  0  0  0  0
  2  1  1  0  0  0  0
  2  3  2  0  0  0  0
  4  1  1  0  0  0  0
  6  7  1  0  0  0  0
  6  5  1  1  0  0  0
  7 27  1  1  0  0  0
  8  7  1  6  0  0  0
  8 13  1  0  0  0  0
  8 11  1  0  0  0  0
  9 14  1  6  0  0  0
  9 16  1  0  0  0  0
  9 11  1  0  0  0  0
 10 12  1  0  0  0  0
 10  9  1  0  0  0  0
 12 20  1  6  0  0  0
 12 13  1  0  0  0  0
 13 22  1  1  0  0  0
 14 15  1  0  0  0  0
 16 17  2  0  0  0  0
 18 16  1  0  0  0  0
 19 18  1  0  0  0  0
 20 21  1  0  0  0  0
 22 24  1  0  0  0  0
 22 23  1  0  0  0  0
 23 25  1  0  0  0  0
 26 23  2  0  0  0  0
 27 28  1  0  0  0  0
 29  6  1  0  0  0  0
 30 29  1  0  0  0  0
 31  2  1  0  0  0  0
 32 31  1  0  0  0  0
 33 32  1  0  0  0  0
 34 33  2  0  0  0  0
 35 33  1  0  0  0  0
 36 34  1  0  0  0  0
 37 36  1  0  0  0  0
 37 35  2  0  0  0  0
 38 36  1  0  0  0  0
 39 38  1  6  0  0  0
 39 40  1  0  0  0  0
 40 41  1  0  0  0  0
 42 39  1  0  0  0  0
 42 44  2  0  0  0  0
 43 42  1  0  0  0  0
 45 43  2  0  0  0  0
 45 47  1  0  0  0  0
 46 44  1  0  0  0  0
 47 46  2  0  0  0  0
 48 49  1  0  0  0  0
 50 49  1  0  0  0  0
 50 51  1  0  0  0  0
 51 52  1  0  0  0  0
 52 53  1  0  0  0  0
M  END
>  <REMARK>
 VINA RESULT:    -5.978      0.000      0.000
 INTER + INTRA:         -16.233
 INTER:                  -9.494
 INTRA:                  -6.739
 UNBOUND:                -5.012
 SMILES CC(=O)N[C@@H]1[C@@H](O)C[C@](O)(C(=O)O)O[C@H]1C(O)[C@H](O)CNC(=O)OCc1cn(CC(O)c2ccccc2)nn1
 SMILES IDX 21 1 22 2 23 3 20 5 18 6 16 7 15 8 9 9 8 10 14 11 6 12 5 13
 SMILES IDX 10 14 11 16 12 17 13 18 7 20 4 22 2 23 1 25 3 26 17 27 19 29
 SMILES IDX 24 31 25 32 26 33 27 34 39 35 28 36 38 37 29 38 30 39 31 40
 SMILES IDX 32 42 33 43 37 44 34 45 36 46 35 47
 H PARENT 21 4 10 15 13 19 7 21 4 24 17 28 19 30 31 41
 Flexibility Score: inf
  4 active torsions:
  status: ('A' for Active; 'I' for Inactive)
    1  A    between atoms: CA   and  CB  
    2  A    between atoms: CB   and  CG  
    3  A    between atoms: CG   and  CD  
    4  A    between atoms: CD   and  CE  

>  <TORSDO>
F 18

>  <BEGIN_>
RES LYS A 131

$$$$
ligand_68_pose_0_2HRL.pdbqt
 OpenBabel07062320523D

  6  5  0  0  0  0  0  0  0  0999 V2000
   33.1930   34.6630    9.2900 C   0  0  0  0  0  0  0  0  0  0  0  0
   32.0600   35.3600   10.0340 C   0  0  0  0  0  0  0  0  0  0  0  0
   30.7100   34.7320    9.8010 C   0  0  0  0  0  0  0  0  0  0  0  0
   30.4670   34.5180    8.3150 C   0  0  0  0  0  0  0  0  0  0  0  0
   29.0240   34.8260    7.9620 C   0  0  0  0  0  0  0  0  0  0  0  0
   28.9310   35.5330    6.6550 N   0  0  0  0  0  0  0  0  0  0  0  0
  1  2  1  0  0  0  0
  3  2  1  0  0  0  0
  4  3  1  0  0  0  0
  5  4  1  0  0  0  0
  6  5  1  0  0  0  0
M  END
>  <EGIN_R>
ES LYS A 135

>  <REMARK>
  4 active torsions:
  status: ('A' for Active; 'I' for Inactive)
    5  A    between atoms: CA   and  CB  
    6  A    between atoms: CB   and  CG  
    7  A    between atoms: CG   and  CD  
    8  A    between atoms: CD   and  CE  

$$$$
ligand_69_pose_0_2HRL.pdbqt
 OpenBabel07062320523D

 54 51  0  0  1  0  0  0  0  0999 V2000
   28.3960   31.1530   16.6860 N   0  0  0  0  0  0  0  0  0  0  0  0
   27.4280   30.1200   16.5090 C   0  0  0  0  0  0  0  0  0  0  0  0
   27.7390   28.9380   16.2110 O   0  0  0  0  0  0  0  0  0  0  0  0
   28.1090   32.1250   16.9320 H   0  0  0  0  0  0  0  0  0  0  0  0
   29.7940   30.7610   16.5000 C   0  0  0  0  0  0  0  0  0  0  0  0
   30.5690   32.0400   16.2430 C   0  0  2  0  0  0  0  0  0  0  0  0
   29.6680   33.2270   15.9940 C   0  0  2  0  0  0  0  0  0  0  0  0
   30.0990   34.0320   14.8080 C   0  0  2  0  0  0  0  0  0  0  0  0
   31.5980   35.4860   13.8940 C   0  0  2  0  0  0  0  0  0  0  0  0
   30.7530   35.1770   12.6760 C   0  0  0  0  0  0  0  0  0  0  0  0
   31.3220   34.6300   14.9520 O   0  0  0  0  0  0  0  0  0  0  0  0
   29.2740   35.3400   12.9610 C   0  0  1  0  0  0  0  0  0  0  0  0
   29.0900   35.0950   14.4310 C   0  0  1  0  0  0  0  0  0  0  0  0
   31.4890   36.8230   14.2590 O   0  0  0  0  0  0  0  0  0  0  0  0
   31.7060   37.4340   13.5060 H   0  0  0  0  0  0  0  0  0  0  0  0
   33.0070   35.2400   13.5040 C   0  0  0  0  0  0  0  0  0  0  0  0
   33.8860   34.8770   14.3320 O   0  0  0  0  0  0  0  0  0  0  0  0
   33.3820   35.4120   12.1900 O   0  0  0  0  0  0  0  0  0  0  0  0
   33.4730   34.6600   11.5140 H   0  0  0  0  0  0  0  0  0  0  0  0
   28.9070   36.6020   12.5540 O   0  0  0  0  0  0  0  0  0  0  0  0
   28.2920   36.4940   11.7640 H   0  0  0  0  0  0  0  0  0  0  0  0
   27.7680   34.7970   14.8380 N   0  0  0  0  0  0  0  0  0  0  0  0
   26.8690   35.7040   15.4600 C   0  0  0  0  0  0  0  0  0  0  0  0
   27.4100   33.8320   14.6740 H   0  0  0  0  0  0  0  0  0  0  0  0
   25.4880   35.2910   15.8540 C   0  0  0  0  0  0  0  0  0  0  0  0
   27.2740   36.8650   15.6670 O   0  0  0  0  0  0  0  0  0  0  0  0
   29.4560   33.9580   17.1370 O   0  0  0  0  0  0  0  0  0  0  0  0
   28.6580   33.6070   17.5910 H   0  0  0  0  0  0  0  0  0  0  0  0
   31.3290   31.8900   15.0590 O   0  0  0  0  0  0  0  0  0  0  0  0
   32.2390   31.5330   15.2640 H   0  0  0  0  0  0  0  0  0  0  0  0
   26.0940   30.4090   16.6660 O   0  0  0  0  0  0  0  0  0  0  0  0
   25.0400   29.6190   16.1440 C   0  0  0  0  0  0  0  0  0  0  0  0
   24.5200   30.2770   14.9230 C   0  0  0  0  0  0  0  0  0  0  0  0
   24.4520   31.6180   14.6150 C   0  0  0  0  0  0  0  0  0  0  0  0
   24.0050   29.6180   13.8670 N   0  0  0  0  0  0  0  0  0  0  0  0
   23.9020   31.7430   13.3920 N   0  0  0  0  0  0  0  0  0  0  0  0
   23.6450   30.5020   12.9730 N   0  0  0  0  0  0  0  0  0  0  0  0
   23.6470   32.9970   12.6820 C   0  0  2  0  0  0  0  0  0  0  0  0
   24.8320   33.8800   12.8830 C   0  0  0  0  0  0  0  0  0  0  0  0
   24.8890   35.0650   11.9840 *   0  0  0  0  0  0  0  0  0  0  0  0
   26.1690   35.6630   11.9610 O   0  0  0  0  0  0  0  0  0  0  0  0
   26.7730   35.0850   11.4480 H   0  0  0  0  0  0  0  0  0  0  0  0
   22.3650   33.5560   13.1960 C   0  0  0  0  0  0  0  0  0  0  0  0
   21.7640   34.6270   12.3380 C   0  0  1  0  0  0  0  0  0  0  0  0
   22.5170   35.9000   12.3620 C   0  0  0  0  0  0  0  0  0  0  0  0
   23.8110   36.0820   12.2200 *   0  0  0  0  0  0  0  0  0  0  0  0
   21.5350   34.2000   11.0310 O   0  0  0  0  0  0  0  0  0  0  0  0
   20.7460   33.6040   10.9750 H   0  0  0  0  0  0  0  0  0  0  0  0
   29.8670   25.5550   16.9770 C   0  0  0  0  0  0  0  0  0  0  0  0
   28.3450   25.7220   17.0260 C   0  0  0  0  0  0  0  0  0  0  0  0
   27.6020   24.4000   16.9090 C   0  0  0  0  0  0  0  0  0  0  0  0
   26.1580   24.5250   17.3120 C   0  0  0  0  0  0  0  0  0  0  0  0
   25.8250   23.4550   18.3470 C   0  0  0  0  0  0  0  0  0  0  0  0
   25.2960   22.2390   17.6850 N   0  0  0  0  0  0  0  0  0  0  0  0
  1  4  1  0  0  0  0
  2 31  1  0  0  0  0
  2  1  1  0  0  0  0
  3  2  2  0  0  0  0
  5  1  1  0  0  0  0
  6  5  1  6  0  0  0
  7  6  1  0  0  0  0
  7 27  1  1  0  0  0
  8 11  1  0  0  0  0
  8  7  1  1  0  0  0
  9 16  1  6  0  0  0
  9 14  1  0  0  0  0
  9 11  1  0  0  0  0
 10 12  1  0  0  0  0
 10  9  1  0  0  0  0
 12 20  1  1  0  0  0
 12 13  1  0  0  0  0
 13  8  1  0  0  0  0
 13 22  1  6  0  0  0
 15 14  1  0  0  0  0
 16 17  2  0  0  0  0
 18 16  1  0  0  0  0
 19 18  1  0  0  0  0
 21 20  1  0  0  0  0
 22 23  1  0  0  0  0
 23 26  2  0  0  0  0
 23 25  1  0  0  0  0
 24 22  1  0  0  0  0
 27 28  1  0  0  0  0
 29 30  1  0  0  0  0
 29  6  1  0  0  0  0
 32 31  1  0  0  0  0
 33 32  1  0  0  0  0
 34 33  2  0  0  0  0
 35 33  1  0  0  0  0
 36 34  1  0  0  0  0
 37 36  1  0  0  0  0
 37 35  2  0  0  0  0
 38 39  1  1  0  0  0
 38 43  1  0  0  0  0
 38 36  1  0  0  0  0
 42 41  1  0  0  0  0
 44 45  1  6  0  0  0
 44 43  1  0  0  0  0
 47 44  1  0  0  0  0
 48 47  1  0  0  0  0
 49 50  1  0  0  0  0
 51 50  1  0  0  0  0
 51 52  1  0  0  0  0
 52 53  1  0  0  0  0
 54 53  1  0  0  0  0
M  END
>  <REMARK>
 VINA RESULT:    -8.018      0.000      0.000
 INTER + INTRA:         -13.658
 INTER:                  -8.429
 INTRA:                  -5.229
 UNBOUND:                 3.032
 SMILES CC(=O)N[C@@H]1[C@@H](O)C[C@](O)(C(=O)O)O[C@H]1C(O)[C@H](O)CNC(=O)OCc1cn(C2CC(O)C=C[C@@H](O)C2)nn1
 SMILES IDX 21 1 22 2 23 3 20 5 18 6 16 7 15 8 9 9 8 10 14 11 6 12 5 13
 SMILES IDX 10 14 11 16 12 17 13 18 7 20 4 22 2 23 1 25 3 26 17 27 19 29
 SMILES IDX 24 31 25 32 26 33 27 34 39 35 28 36 38 37 29 38 30 39 31 40
 SMILES IDX 32 42 37 44 35 45 34 46 33 47 36 49
 H PARENT 21 4 10 15 13 19 7 21 4 24 17 28 19 30 32 43 36 50
 Flexibility Score: 90.00
  4 active torsions:
  status: ('A' for Active; 'I' for Inactive)
    1  A    between atoms: CA   and  CB  
    2  A    between atoms: CB   and  CG  
    3  A    between atoms: CG   and  CD  
    4  A    between atoms: CD   and  CE  

>  <TORSDO>
F 17

>  <BEGIN_>
RES LYS A 131

$$$$
ligand_69_pose_0_2HRL.pdbqt
 OpenBabel07062320523D

  6  5  0  0  0  0  0  0  0  0999 V2000
   33.1930   34.6630    9.2900 C   0  0  0  0  0  0  0  0  0  0  0  0
   32.0600   35.3600   10.0340 C   0  0  0  0  0  0  0  0  0  0  0  0
   30.8420   35.6080    9.1820 C   0  0  0  0  0  0  0  0  0  0  0  0
   29.8960   34.4180    9.2390 C   0  0  0  0  0  0  0  0  0  0  0  0
   28.4530   34.8840    9.2160 C   0  0  0  0  0  0  0  0  0  0  0  0
   27.5200   33.7510    9.4690 N   0  0  0  0  0  0  0  0  0  0  0  0
  1  2  1  0  0  0  0
  3  4  1  0  0  0  0
  3  2  1  0  0  0  0
  5  4  1  0  0  0  0
  5  6  1  0  0  0  0
M  END
>  <EGIN_R>
ES LYS A 135

>  <REMARK>
  4 active torsions:
  status: ('A' for Active; 'I' for Inactive)
    5  A    between atoms: CA   and  CB  
    6  A    between atoms: CB   and  CG  
    7  A    between atoms: CG   and  CD  
    8  A    between atoms: CD   and  CE  

$$$$
ligand_6_pose_0_2HRL.pdbqt
 OpenBabel07062320523D

 52 53  0  0  1  0  0  0  0  0999 V2000
   29.5140   26.9520   20.2760 N   0  0  0  0  0  0  0  0  0  0  0  0
   28.3390   27.7220   20.3620 C   0  0  0  0  0  0  0  0  0  0  0  0
   28.1380   28.5640   21.2550 O   0  0  0  0  0  0  0  0  0  0  0  0
   29.5770   26.2770   19.4380 H   0  0  0  0  0  0  0  0  0  0  0  0
   30.5840   27.0040   21.1930 C   0  0  0  0  0  0  0  0  0  0  0  0
   31.7950   27.7900   20.8870 C   0  0  2  0  0  0  0  0  0  0  0  0
   31.8350   29.2470   20.9600 C   0  0  2  0  0  0  0  0  0  0  0  0
   33.1780   29.7720   21.4780 C   0  0  2  0  0  0  0  0  0  0  0  0
   34.6160   29.4030   23.2690 C   0  0  2  0  0  0  0  0  0  0  0  0
   35.4040   30.5060   22.6020 C   0  0  0  0  0  0  0  0  0  0  0  0
   33.6140   28.8820   22.4820 O   0  0  0  0  0  0  0  0  0  0  0  0
   34.5440   31.6500   22.1630 C   0  0  1  0  0  0  0  0  0  0  0  0
   33.1000   31.1200   22.0970 C   0  0  1  0  0  0  0  0  0  0  0  0
   34.1580   29.8950   24.4800 O   0  0  0  0  0  0  0  0  0  0  0  0
   33.8790   30.8250   24.3620 H   0  0  0  0  0  0  0  0  0  0  0  0
   35.5770   28.3030   23.5450 C   0  0  0  0  0  0  0  0  0  0  0  0
   36.5080   28.4560   24.3770 O   0  0  0  0  0  0  0  0  0  0  0  0
   35.4730   27.0840   22.8980 O   0  0  0  0  0  0  0  0  0  0  0  0
   35.7700   26.9560   21.9270 H   0  0  0  0  0  0  0  0  0  0  0  0
   34.6290   32.7690   22.9600 O   0  0  0  0  0  0  0  0  0  0  0  0
   34.8120   32.4740   23.8870 H   0  0  0  0  0  0  0  0  0  0  0  0
   32.3690   32.1080   21.3310 N   0  0  0  0  0  0  0  0  0  0  0  0
   31.5610   33.0910   21.9940 C   0  0  0  0  0  0  0  0  0  0  0  0
   32.3950   32.1530   20.2950 H   0  0  0  0  0  0  0  0  0  0  0  0
   30.7890   34.1290   21.2760 C   0  0  0  0  0  0  0  0  0  0  0  0
   31.5190   33.0530   23.2410 O   0  0  0  0  0  0  0  0  0  0  0  0
   30.7890   29.7540   21.6870 O   0  0  0  0  0  0  0  0  0  0  0  0
   30.6760   29.4010   22.5970 H   0  0  0  0  0  0  0  0  0  0  0  0
   32.2610   27.2860   19.6390 O   0  0  0  0  0  0  0  0  0  0  0  0
   32.7380   28.0020   19.1450 H   0  0  0  0  0  0  0  0  0  0  0  0
   27.3520   27.5100   19.3730 O   0  0  0  0  0  0  0  0  0  0  0  0
   26.6880   28.6640   18.8980 C   0  0  0  0  0  0  0  0  0  0  0  0
   27.5390   29.3620   17.8750 C   0  0  0  0  0  0  0  0  0  0  0  0
   28.4230   30.3980   18.0860 C   0  0  0  0  0  0  0  0  0  0  0  0
   27.6100   29.1180   16.5440 N   0  0  0  0  0  0  0  0  0  0  0  0
   29.0010   30.7570   16.9140 N   0  0  0  0  0  0  0  0  0  0  0  0
   28.4730   29.9520   16.0170 N   0  0  0  0  0  0  0  0  0  0  0  0
   29.9660   31.7870   16.7150 C   0  0  0  0  0  0  0  0  0  0  0  0
   30.6350   31.9450   15.5200 C   0  0  0  0  0  0  0  0  0  0  0  0
   30.2740   32.6800   17.7250 C   0  0  0  0  0  0  0  0  0  0  0  0
   31.5660   32.9500   15.3490 C   0  0  0  0  0  0  0  0  0  0  0  0
   31.2060   33.6860   17.5550 C   0  0  0  0  0  0  0  0  0  0  0  0
   31.8760   33.8470   16.3610 C   0  0  0  0  0  0  0  0  0  0  0  0
   32.8270   34.8800   16.1940 N   0  0  0  0  0  0  0  0  0  0  0  0
   33.1180   35.5860   17.1750 O   0  0  0  0  0  0  0  0  0  0  0  0
   33.4540   35.1510   15.0110 O   0  0  0  0  0  0  0  0  0  0  0  0
   29.8670   25.5550   16.9770 C   0  0  0  0  0  0  0  0  0  0  0  0
   28.3450   25.7220   17.0260 C   0  0  0  0  0  0  0  0  0  0  0  0
   27.6010   24.4050   16.8670 C   0  0  0  0  0  0  0  0  0  0  0  0
   26.5920   24.1890   17.9610 C   0  0  0  0  0  0  0  0  0  0  0  0
   25.3540   25.0350   17.6870 C   0  0  0  0  0  0  0  0  0  0  0  0
   24.6290   25.3190   18.9480 N   0  0  0  0  0  0  0  0  0  0  0  0
  1  2  1  0  0  0  0
  1  5  1  0  0  0  0
  2  3  2  0  0  0  0
  4  1  1  0  0  0  0
  6  7  1  0  0  0  0
  6  5  1  6  0  0  0
  7 27  1  1  0  0  0
  8  7  1  1  0  0  0
  8 13  1  0  0  0  0
  8 11  1  0  0  0  0
  9 16  1  1  0  0  0
  9 14  1  0  0  0  0
 10  9  1  0  0  0  0
 11  9  1  0  0  0  0
 12 10  1  0  0  0  0
 12 20  1  1  0  0  0
 13 22  1  6  0  0  0
 13 12  1  0  0  0  0
 15 14  1  0  0  0  0
 16 17  2  0  0  0  0
 18 16  1  0  0  0  0
 19 18  1  0  0  0  0
 20 21  1  0  0  0  0
 22 23  1  0  0  0  0
 23 26  2  0  0  0  0
 24 22  1  0  0  0  0
 25 23  1  0  0  0  0
 27 28  1  0  0  0  0
 29  6  1  0  0  0  0
 30 29  1  0  0  0  0
 31  2  1  0  0  0  0
 32 31  1  0  0  0  0
 33 34  2  0  0  0  0
 33 32  1  0  0  0  0
 35 33  1  0  0  0  0
 36 34  1  0  0  0  0
 37 35  2  0  0  0  0
 37 36  1  0  0  0  0
 38 36  1  0  0  0  0
 38 40  2  0  0  0  0
 39 38  1  0  0  0  0
 41 39  2  0  0  0  0
 41 43  1  0  0  0  0
 42 40  1  0  0  0  0
 43 42  2  0  0  0  0
 44 43  1  0  0  0  0
 44 45  2  0  0  0  0
 46 44  2  0  0  0  0
 47 48  1  0  0  0  0
 49 48  1  0  0  0  0
 49 50  1  0  0  0  0
 51 50  1  0  0  0  0
 51 52  1  0  0  0  0
M  END
>  <REMARK>
 VINA RESULT:    -5.962      0.000      0.000
 INTER + INTRA:         -15.416
 INTER:                 -10.174
 INTRA:                  -5.242
 UNBOUND:                -4.749
 SMILES CC(=O)N[C@@H]1[C@@H](O)C[C@](O)(C(=O)O)O[C@H]1C(O)[C@H](O)CNC(=O)OCc1cn(-c2ccc([N+](=O)[O-])cc2)nn1
 SMILES IDX 21 1 22 2 23 3 20 5 18 6 16 7 15 8 9 9 8 10 14 11 6 12 5 13
 SMILES IDX 10 14 11 16 12 17 13 18 7 20 4 22 2 23 1 25 3 26 17 27 19 29
 SMILES IDX 24 31 25 32 26 33 27 34 39 35 28 36 38 37 29 38 30 39 37 40
 SMILES IDX 31 41 36 42 32 43 33 44 34 45 35 46
 H PARENT 21 4 10 15 13 19 7 21 4 24 17 28 19 30
 Flexibility Score: inf
  4 active torsions:
  status: ('A' for Active; 'I' for Inactive)
    1  A    between atoms: CA   and  CB  
    2  A    between atoms: CB   and  CG  
    3  A    between atoms: CG   and  CD  
    4  A    between atoms: CD   and  CE  

>  <TORSDO>
F 16

>  <BEGIN_>
RES LYS A 131

$$$$
ligand_6_pose_0_2HRL.pdbqt
 OpenBabel07062320523D

  6  5  0  0  0  0  0  0  0  0999 V2000
   33.1930   34.6630    9.2900 C   0  0  0  0  0  0  0  0  0  0  0  0
   32.0600   35.3600   10.0340 C   0  0  0  0  0  0  0  0  0  0  0  0
   30.7130   34.7200    9.8160 C   0  0  0  0  0  0  0  0  0  0  0  0
   30.3320   34.7590    8.3440 C   0  0  0  0  0  0  0  0  0  0  0  0
   29.4190   35.9360    8.0610 C   0  0  0  0  0  0  0  0  0  0  0  0
   27.9980   35.5940    8.3490 N   0  0  0  0  0  0  0  0  0  0  0  0
  1  2  1  0  0  0  0
  3  2  1  0  0  0  0
  4  3  1  0  0  0  0
  5  4  1  0  0  0  0
  5  6  1  0  0  0  0
M  END
>  <EGIN_R>
ES LYS A 135

>  <REMARK>
  4 active torsions:
  status: ('A' for Active; 'I' for Inactive)
    5  A    between atoms: CA   and  CB  
    6  A    between atoms: CB   and  CG  
    7  A    between atoms: CG   and  CD  
    8  A    between atoms: CD   and  CE  

$$$$
ligand_70_pose_0_2HRL.pdbqt
 OpenBabel07062320523D

 53 55  0  0  1  0  0  0  0  0999 V2000
   30.3350   27.0340   21.4550 C   0  0  0  0  0  0  0  0  0  0  0  0
   31.6150   27.7270   21.0830 C   0  0  2  0  0  0  0  0  0  0  0  0
   31.4980   29.2250   21.0110 C   0  0  1  0  0  0  0  0  0  0  0  0
   32.7640   29.9640   21.3350 C   0  0  2  0  0  0  0  0  0  0  0  0
   34.4980   29.7810   22.8650 C   0  0  2  0  0  0  0  0  0  0  0  0
   35.0230   31.1140   22.3930 C   0  0  0  0  0  0  0  0  0  0  0  0
   33.7140   29.1490   21.9320 O   0  0  0  0  0  0  0  0  0  0  0  0
   33.8990   32.0030   21.9760 C   0  0  1  0  0  0  0  0  0  0  0  0
   32.5450   31.2640   22.0290 C   0  0  1  0  0  0  0  0  0  0  0  0
   33.8720   29.9800   24.0920 O   0  0  0  0  0  0  0  0  0  0  0  0
   33.4580   29.1720   24.4500 H   0  0  0  0  0  0  0  0  0  0  0  0
   35.6830   28.9090   23.1190 C   0  0  0  0  0  0  0  0  0  0  0  0
   36.7290   29.4510   23.5560 O   0  0  0  0  0  0  0  0  0  0  0  0
   35.6670   27.5440   22.8930 O   0  0  0  0  0  0  0  0  0  0  0  0
   36.5320   27.0040   22.9900 H   0  0  0  0  0  0  0  0  0  0  0  0
   33.8340   33.1440   22.7960 O   0  0  0  0  0  0  0  0  0  0  0  0
   33.2360   33.8140   22.3880 H   0  0  0  0  0  0  0  0  0  0  0  0
   31.5810   32.0400   21.2420 N   0  0  0  0  0  0  0  0  0  0  0  0
   30.4510   32.6810   21.8110 C   0  0  0  0  0  0  0  0  0  0  0  0
   31.7130   32.1360   20.2190 H   0  0  0  0  0  0  0  0  0  0  0  0
   29.4810   33.4610   20.9950 C   0  0  0  0  0  0  0  0  0  0  0  0
   30.2320   32.6060   23.0460 O   0  0  0  0  0  0  0  0  0  0  0  0
   31.0490   29.5350   19.7110 O   0  0  0  0  0  0  0  0  0  0  0  0
   30.1280   29.1800   19.6430 H   0  0  0  0  0  0  0  0  0  0  0  0
   32.1350   27.2040   19.8820 O   0  0  0  0  0  0  0  0  0  0  0  0
   31.3540   27.2370   19.2430 H   0  0  0  0  0  0  0  0  0  0  0  0
   29.4670   26.9750   20.3030 N   0  0  0  0  0  0  0  0  0  0  0  0
   28.2250   27.6370   20.2340 C   0  0  0  0  0  0  0  0  0  0  0  0
   29.7340   26.4200   19.4420 H   0  0  0  0  0  0  0  0  0  0  0  0
   27.7930   28.3240   21.1820 O   0  0  0  0  0  0  0  0  0  0  0  0
   27.3980   27.5680   19.1040 O   0  0  0  0  0  0  0  0  0  0  0  0
   26.7330   28.7490   18.6310 C   0  0  0  0  0  0  0  0  0  0  0  0
   27.5910   29.4700   17.6690 C   0  0  0  0  0  0  0  0  0  0  0  0
   28.4140   30.5270   17.9010 C   0  0  0  0  0  0  0  0  0  0  0  0
   27.6850   29.1700   16.3690 N   0  0  0  0  0  0  0  0  0  0  0  0
   28.9870   30.8340   16.7020 N   0  0  0  0  0  0  0  0  0  0  0  0
   28.5340   30.0030   15.7920 N   0  0  0  0  0  0  0  0  0  0  0  0
   29.9180   31.8720   16.4650 C   0  0  0  0  0  0  0  0  0  0  0  0
   30.2990   32.1490   15.1640 C   0  0  0  0  0  0  0  0  0  0  0  0
   30.4230   32.5830   17.5300 C   0  0  0  0  0  0  0  0  0  0  0  0
   31.1840   33.1350   14.9400 N   0  0  0  0  0  0  0  0  0  0  0  0
   31.3370   33.6000   17.2760 C   0  0  0  0  0  0  0  0  0  0  0  0
   31.7020   33.8570   15.9710 C   0  0  0  0  0  0  0  0  0  0  0  0
   31.8530   34.3190   18.3110 C   0  0  0  0  0  0  0  0  0  0  0  0
   32.6090   34.8660   15.7170 C   0  0  0  0  0  0  0  0  0  0  0  0
   32.7700   35.3400   18.0620 C   0  0  0  0  0  0  0  0  0  0  0  0
   33.1410   35.6060   16.7660 C   0  0  0  0  0  0  0  0  0  0  0  0
   29.8670   25.5550   16.9770 C   0  0  0  0  0  0  0  0  0  0  0  0
   28.3450   25.7220   17.0260 C   0  0  0  0  0  0  0  0  0  0  0  0
   27.6010   24.4020   16.8910 C   0  0  0  0  0  0  0  0  0  0  0  0
   26.1510   24.5280   17.2690 C   0  0  0  0  0  0  0  0  0  0  0  0
   25.6350   23.1810   17.7640 C   0  0  0  0  0  0  0  0  0  0  0  0
   24.2970   22.8970   17.1950 N   0  0  0  0  0  0  0  0  0  0  0  0
  2  1  1  6  0  0  0
  3 23  1  6  0  0  0
  3  2  1  0  0  0  0
  4  3  1  1  0  0  0
  4  7  1  0  0  0  0
  4  9  1  0  0  0  0
  5 12  1  1  0  0  0
  5 10  1  0  0  0  0
  6  5  1  0  0  0  0
  7  5  1  0  0  0  0
  8  9  1  0  0  0  0
  8  6  1  0  0  0  0
  8 16  1  1  0  0  0
  9 18  1  6  0  0  0
 10 11  1  0  0  0  0
 12 13  2  0  0  0  0
 14 15  1  0  0  0  0
 14 12  1  0  0  0  0
 17 16  1  0  0  0  0
 18 19  1  0  0  0  0
 19 22  2  0  0  0  0
 20 18  1  0  0  0  0
 21 19  1  0  0  0  0
 24 23  1  0  0  0  0
 25  2  1  0  0  0  0
 26 25  1  0  0  0  0
 27  1  1  0  0  0  0
 28 27  1  0  0  0  0
 28 30  2  0  0  0  0
 29 27  1  0  0  0  0
 31 28  1  0  0  0  0
 32 31  1  0  0  0  0
 33 34  2  0  0  0  0
 33 32  1  0  0  0  0
 35 33  1  0  0  0  0
 36 34  1  0  0  0  0
 37 35  2  0  0  0  0
 37 36  1  0  0  0  0
 38 36  1  0  0  0  0
 38 40  2  0  0  0  0
 39 38  1  0  0  0  0
 41 39  2  0  0  0  0
 41 43  1  0  0  0  0
 42 40  1  0  0  0  0
 42 44  2  0  0  0  0
 43 42  1  0  0  0  0
 45 43  2  0  0  0  0
 45 47  1  0  0  0  0
 46 44  1  0  0  0  0
 47 46  2  0  0  0  0
 48 49  1  0  0  0  0
 50 49  1  0  0  0  0
 50 51  1  0  0  0  0
 51 52  1  0  0  0  0
 53 52  1  0  0  0  0
M  END
>  <REMARK>
 VINA RESULT:    -7.015      0.000      0.000
 INTER + INTRA:         -16.674
 INTER:                 -10.521
 INTRA:                  -6.153
 UNBOUND:                -4.533
 SMILES CC(=O)N[C@@H]1[C@@H](O)C[C@](O)(C(=O)O)O[C@H]1C(O)[C@H](O)CNC(=O)OCc1cn(-c2cnc3ccccc3c2)nn1
 SMILES IDX 20 1 18 2 16 3 15 4 9 5 8 6 14 7 6 8 5 9 10 10 11 12 12 13
 SMILES IDX 13 14 7 16 4 18 2 19 1 21 3 22 17 23 19 25 21 27 22 28 23 30
 SMILES IDX 24 31 25 32 26 33 27 34 40 35 28 36 39 37 29 38 30 39 38 40
 SMILES IDX 31 41 37 42 32 43 36 44 33 45 35 46 34 47
 H PARENT 10 11 13 15 7 17 4 20 17 24 19 26 21 29
 Flexibility Score: inf
  4 active torsions:
  status: ('A' for Active; 'I' for Inactive)
    1  A    between atoms: CA   and  CB  
    2  A    between atoms: CB   and  CG  
    3  A    between atoms: CG   and  CD  
    4  A    between atoms: CD   and  CE  

>  <TORSDO>
F 15

>  <BEGIN_>
RES LYS A 131

$$$$
ligand_70_pose_0_2HRL.pdbqt
 OpenBabel07062320523D

  6  5  0  0  0  0  0  0  0  0999 V2000
   33.1930   34.6630    9.2900 C   0  0  0  0  0  0  0  0  0  0  0  0
   32.0600   35.3600   10.0340 C   0  0  0  0  0  0  0  0  0  0  0  0
   30.8550   35.6370    9.1730 C   0  0  0  0  0  0  0  0  0  0  0  0
   30.2480   34.3380    8.6650 C   0  0  0  0  0  0  0  0  0  0  0  0
   28.7400   34.4610    8.5570 C   0  0  0  0  0  0  0  0  0  0  0  0
   28.0600   33.6410    9.5970 N   0  0  0  0  0  0  0  0  0  0  0  0
  1  2  1  0  0  0  0
  3  2  1  0  0  0  0
  4  3  1  0  0  0  0
  5  4  1  0  0  0  0
  5  6  1  0  0  0  0
M  END
>  <EGIN_R>
ES LYS A 135

>  <REMARK>
  4 active torsions:
  status: ('A' for Active; 'I' for Inactive)
    5  A    between atoms: CA   and  CB  
    6  A    between atoms: CB   and  CG  
    7  A    between atoms: CG   and  CD  
    8  A    between atoms: CD   and  CE  

$$$$
ligand_71_pose_0_2HRL.pdbqt
 OpenBabel07062320523D

 54 55  0  0  1  0  0  0  0  0999 V2000
   29.1960   30.3370   17.1480 N   0  0  0  0  0  0  0  0  0  0  0  0
   28.4420   30.6200   18.3380 C   0  0  0  0  0  0  0  0  0  0  0  0
   28.8130   31.5090   19.1430 O   0  0  0  0  0  0  0  0  0  0  0  0
   28.8740   29.6020   16.4970 H   0  0  0  0  0  0  0  0  0  0  0  0
   30.3870   31.1060   16.9130 C   0  0  0  0  0  0  0  0  0  0  0  0
   30.3070   31.9740   15.6810 C   0  0  2  0  0  0  0  0  0  0  0  0
   31.3600   33.0470   15.8190 C   0  0  1  0  0  0  0  0  0  0  0  0
   31.0170   34.2710   14.9670 C   0  0  2  0  0  0  0  0  0  0  0  0
   29.8680   34.9400   13.1430 C   0  0  2  0  0  0  0  0  0  0  0  0
   30.8220   36.0640   12.9660 C   0  0  0  0  0  0  0  0  0  0  0  0
   30.4440   33.8800   13.7810 O   0  0  0  0  0  0  0  0  0  0  0  0
   32.2410   35.7940   13.4070 C   0  0  1  0  0  0  0  0  0  0  0  0
   32.3090   35.0230   14.6960 C   0  0  1  0  0  0  0  0  0  0  0  0
   29.5160   34.4310   11.8460 O   0  0  0  0  0  0  0  0  0  0  0  0
   29.3120   35.2050   11.2530 H   0  0  0  0  0  0  0  0  0  0  0  0
   28.5710   35.3870   13.7290 C   0  0  0  0  0  0  0  0  0  0  0  0
   28.3100   36.5830   13.8570 O   0  0  0  0  0  0  0  0  0  0  0  0
   27.6060   34.4690   14.1540 O   0  0  0  0  0  0  0  0  0  0  0  0
   27.5120   33.5600   13.7360 H   0  0  0  0  0  0  0  0  0  0  0  0
   32.8620   35.1000   12.3660 O   0  0  0  0  0  0  0  0  0  0  0  0
   32.2870   34.3580   12.0230 H   0  0  0  0  0  0  0  0  0  0  0  0
   32.6430   35.7940   15.8420 N   0  0  0  0  0  0  0  0  0  0  0  0
   33.9600   36.0060   16.3250 C   0  0  0  0  0  0  0  0  0  0  0  0
   31.8780   36.2530   16.3950 H   0  0  0  0  0  0  0  0  0  0  0  0
   34.2380   36.8270   17.5440 C   0  0  0  0  0  0  0  0  0  0  0  0
   34.8960   35.4800   15.6970 O   0  0  0  0  0  0  0  0  0  0  0  0
   31.5600   33.4100   17.1370 O   0  0  0  0  0  0  0  0  0  0  0  0
   31.3130   34.3800   17.2330 H   0  0  0  0  0  0  0  0  0  0  0  0
   29.0250   32.5160   15.6270 O   0  0  0  0  0  0  0  0  0  0  0  0
   28.5430   32.0500   14.8920 H   0  0  0  0  0  0  0  0  0  0  0  0
   27.2910   29.9270   18.6350 O   0  0  0  0  0  0  0  0  0  0  0  0
   26.3180   29.5110   17.7230 C   0  0  0  0  0  0  0  0  0  0  0  0
   25.9090   30.6410   16.8610 C   0  0  0  0  0  0  0  0  0  0  0  0
   24.9150   31.5730   17.0730 C   0  0  0  0  0  0  0  0  0  0  0  0
   26.4810   30.9470   15.6850 N   0  0  0  0  0  0  0  0  0  0  0  0
   24.9220   32.4010   16.0300 N   0  0  0  0  0  0  0  0  0  0  0  0
   25.8760   31.9960   15.2110 N   0  0  0  0  0  0  0  0  0  0  0  0
   24.0200   33.5470   15.8720 C   0  0  0  0  0  0  0  0  0  0  0  0
   24.3880   34.3140   14.6450 C   0  0  0  0  0  0  0  0  0  0  0  0
   24.8450   35.4690   14.6540 O   0  0  0  0  0  0  0  0  0  0  0  0
   24.2020   33.6740   13.3770 N   0  0  0  0  0  0  0  0  0  0  0  0
   23.8180   32.7030   13.3400 H   0  0  0  0  0  0  0  0  0  0  0  0
   24.5270   34.3170   12.1600 C   0  0  0  0  0  0  0  0  0  0  0  0
   23.6220   34.9510   11.3900 N   0  0  0  0  0  0  0  0  0  0  0  0
   25.7990   34.3160   11.7170 N   0  0  0  0  0  0  0  0  0  0  0  0
   23.9620   35.5560   10.2350 C   0  0  0  0  0  0  0  0  0  0  0  0
   26.1990   34.8950   10.5880 C   0  0  0  0  0  0  0  0  0  0  0  0
   25.2710   35.5450    9.7980 C   0  0  0  0  0  0  0  0  0  0  0  0
   29.8670   25.5550   16.9770 C   0  0  0  0  0  0  0  0  0  0  0  0
   28.3450   25.7220   17.0260 C   0  0  0  0  0  0  0  0  0  0  0  0
   27.6020   24.4000   16.9130 C   0  0  0  0  0  0  0  0  0  0  0  0
   26.3480   24.3820   17.7430 C   0  0  0  0  0  0  0  0  0  0  0  0
   26.0770   25.7820   18.2860 C   0  0  0  0  0  0  0  0  0  0  0  0
   25.8550   25.7360   19.7510 N   0  0  0  0  0  0  0  0  0  0  0  0
  1  2  1  0  0  0  0
  2 31  1  0  0  0  0
  2  3  2  0  0  0  0
  4  1  1  0  0  0  0
  5  1  1  0  0  0  0
  6  7  1  0  0  0  0
  6  5  1  1  0  0  0
  7 27  1  1  0  0  0
  8  7  1  1  0  0  0
  9 14  1  6  0  0  0
  9 16  1  0  0  0  0
  9 11  1  0  0  0  0
 10  9  1  0  0  0  0
 10 12  1  0  0  0  0
 11  8  1  0  0  0  0
 12 20  1  6  0  0  0
 12 13  1  0  0  0  0
 13  8  1  0  0  0  0
 13 22  1  1  0  0  0
 15 14  1  0  0  0  0
 16 17  2  0  0  0  0
 16 18  1  0  0  0  0
 19 18  1  0  0  0  0
 21 20  1  0  0  0  0
 22 23  1  0  0  0  0
 22 24  1  0  0  0  0
 23 25  1  0  0  0  0
 26 23  2  0  0  0  0
 27 28  1  0  0  0  0
 29  6  1  0  0  0  0
 30 29  1  0  0  0  0
 32 31  1  0  0  0  0
 33 34  2  0  0  0  0
 33 32  1  0  0  0  0
 35 33  1  0  0  0  0
 36 34  1  0  0  0  0
 37 35  2  0  0  0  0
 37 36  1  0  0  0  0
 38 36  1  0  0  0  0
 39 40  2  0  0  0  0
 39 38  1  0  0  0  0
 41 39  1  0  0  0  0
 42 41  1  0  0  0  0
 43 41  1  0  0  0  0
 44 43  2  0  0  0  0
 45 43  1  0  0  0  0
 46 44  1  0  0  0  0
 47 45  2  0  0  0  0
 48 46  2  0  0  0  0
 48 47  1  0  0  0  0
 49 50  1  0  0  0  0
 51 50  1  0  0  0  0
 51 52  1  0  0  0  0
 52 53  1  0  0  0  0
 53 54  1  0  0  0  0
M  END
>  <REMARK>
 VINA RESULT:    -4.289      0.000      0.000
 INTER + INTRA:         -15.491
 INTER:                  -8.243
 INTRA:                  -7.248
 UNBOUND:                -7.565
 SMILES CC(=O)N[C@@H]1[C@@H](O)C[C@](O)(C(=O)O)O[C@H]1C(O)[C@H](O)CNC(=O)OCc1cn(CC(=O)Nc2ncccn2)nn1
 SMILES IDX 21 1 22 2 23 3 20 5 18 6 16 7 15 8 9 9 8 10 14 11 6 12 5 13
 SMILES IDX 10 14 11 16 12 17 13 18 7 20 4 22 2 23 1 25 3 26 17 27 19 29
 SMILES IDX 24 31 25 32 26 33 27 34 40 35 28 36 39 37 29 38 30 39 31 40
 SMILES IDX 32 41 33 43 34 44 38 45 35 46 37 47 36 48
 H PARENT 21 4 10 15 13 19 7 21 4 24 17 28 19 30 32 42
 Flexibility Score: inf
  4 active torsions:
  status: ('A' for Active; 'I' for Inactive)
    1  A    between atoms: CA   and  CB  
    2  A    between atoms: CB   and  CG  
    3  A    between atoms: CG   and  CD  
    4  A    between atoms: CD   and  CE  

>  <TORSDO>
F 17

>  <BEGIN_>
RES LYS A 131

$$$$
ligand_71_pose_0_2HRL.pdbqt
 OpenBabel07062320523D

  6  5  0  0  0  0  0  0  0  0999 V2000
   33.1930   34.6630    9.2900 C   0  0  0  0  0  0  0  0  0  0  0  0
   32.0600   35.3600   10.0340 C   0  0  0  0  0  0  0  0  0  0  0  0
   30.8930   35.7230    9.1520 C   0  0  0  0  0  0  0  0  0  0  0  0
   30.4190   34.5120    8.3640 C   0  0  0  0  0  0  0  0  0  0  0  0
   28.9050   34.4940    8.2740 C   0  0  0  0  0  0  0  0  0  0  0  0
   28.4220   35.3960    7.1910 N   0  0  0  0  0  0  0  0  0  0  0  0
  1  2  1  0  0  0  0
  3  2  1  0  0  0  0
  4  3  1  0  0  0  0
  5  4  1  0  0  0  0
  6  5  1  0  0  0  0
M  END
>  <EGIN_R>
ES LYS A 135

>  <REMARK>
  4 active torsions:
  status: ('A' for Active; 'I' for Inactive)
    5  A    between atoms: CA   and  CB  
    6  A    between atoms: CB   and  CG  
    7  A    between atoms: CG   and  CD  
    8  A    between atoms: CD   and  CE  

$$$$
ligand_72_pose_0_2HRL.pdbqt
 OpenBabel07062320523D

 49 49  0  0  1  0  0  0  0  0999 V2000
   28.1720   40.3070    4.4860 N   0  0  0  0  0  0  0  0  0  0  0  0
   28.1400   41.7370    4.4140 C   0  0  0  0  0  0  0  0  0  0  0  0
   27.1350   42.4010    4.8390 O   0  0  0  0  0  0  0  0  0  0  0  0
   29.0170   39.8170    4.1380 H   0  0  0  0  0  0  0  0  0  0  0  0
   27.0450   39.5960    5.0520 C   0  0  0  0  0  0  0  0  0  0  0  0
   27.4390   38.3930    5.8150 C   0  0  2  0  0  0  0  0  0  0  0  0
   28.6700   38.4540    6.6370 C   0  0  1  0  0  0  0  0  0  0  0  0
   28.4910   37.7480    7.9580 C   0  0  2  0  0  0  0  0  0  0  0  0
   29.2270   35.5480    7.4980 C   0  0  2  0  0  0  0  0  0  0  0  0
   27.7780   35.0500    7.6540 C   0  0  0  0  0  0  0  0  0  0  0  0
   29.4340   36.7500    8.0940 O   0  0  0  0  0  0  0  0  0  0  0  0
   27.2040   35.8480    8.7760 C   0  0  1  0  0  0  0  0  0  0  0  0
   27.0890   37.3090    8.2520 C   0  0  1  0  0  0  0  0  0  0  0  0
   29.5840   35.4540    6.1690 O   0  0  0  0  0  0  0  0  0  0  0  0
   29.9800   36.3060    5.8660 H   0  0  0  0  0  0  0  0  0  0  0  0
   30.0990   34.5650    8.2540 C   0  0  0  0  0  0  0  0  0  0  0  0
   29.6170   33.8420    9.1570 O   0  0  0  0  0  0  0  0  0  0  0  0
   31.4330   34.4920    7.9160 O   0  0  0  0  0  0  0  0  0  0  0  0
   31.8930   35.2390    7.4090 H   0  0  0  0  0  0  0  0  0  0  0  0
   25.9680   35.4040    9.2020 O   0  0  0  0  0  0  0  0  0  0  0  0
   25.2880   35.8510    8.6310 H   0  0  0  0  0  0  0  0  0  0  0  0
   26.5010   37.9980    9.4120 N   0  0  0  0  0  0  0  0  0  0  0  0
   25.3820   38.8320    9.3260 C   0  0  0  0  0  0  0  0  0  0  0  0
   26.9610   37.8370   10.3320 H   0  0  0  0  0  0  0  0  0  0  0  0
   24.7760   39.5410   10.4820 C   0  0  0  0  0  0  0  0  0  0  0  0
   24.8440   39.0030    8.1970 O   0  0  0  0  0  0  0  0  0  0  0  0
   29.8720   38.3100    6.0260 O   0  0  0  0  0  0  0  0  0  0  0  0
   29.8330   38.2300    5.0380 H   0  0  0  0  0  0  0  0  0  0  0  0
   27.5540   37.2960    4.9300 O   0  0  0  0  0  0  0  0  0  0  0  0
   28.2540   36.7030    5.2820 H   0  0  0  0  0  0  0  0  0  0  0  0
   29.2220   42.3830    3.8740 O   0  0  0  0  0  0  0  0  0  0  0  0
   30.2540   42.9300    4.6400 C   0  0  0  0  0  0  0  0  0  0  0  0
   31.0330   41.8720    5.3330 C   0  0  0  0  0  0  0  0  0  0  0  0
   31.4510   41.9420    6.6380 C   0  0  0  0  0  0  0  0  0  0  0  0
   31.4650   40.7030    4.8590 N   0  0  0  0  0  0  0  0  0  0  0  0
   32.1210   40.8220    6.9280 N   0  0  0  0  0  0  0  0  0  0  0  0
   32.1130   40.0810    5.8180 N   0  0  0  0  0  0  0  0  0  0  0  0
   32.7220   40.5100    8.2000 C   0  0  0  0  0  0  0  0  0  0  0  0
   32.7730   41.7360    9.0850 C   0  0  0  0  0  0  0  0  0  0  0  0
   34.1290   39.9790    7.9550 C   0  0  0  0  0  0  0  0  0  0  0  0
   31.9490   39.4030    8.8690 C   0  0  0  0  0  0  0  0  0  0  0  0
   31.9190   38.2740    8.0440 O   0  0  0  0  0  0  0  0  0  0  0  0
   31.1010   37.7550    8.2520 H   0  0  0  0  0  0  0  0  0  0  0  0
   29.8670   25.5550   16.9770 C   0  0  0  0  0  0  0  0  0  0  0  0
   28.3450   25.7220   17.0260 C   0  0  0  0  0  0  0  0  0  0  0  0
   27.6000   24.4140   16.8090 C   0  0  0  0  0  0  0  0  0  0  0  0
   26.1660   24.4990   17.2530 C   0  0  0  0  0  0  0  0  0  0  0  0
   25.7400   23.1650   17.8570 C   0  0  0  0  0  0  0  0  0  0  0  0
   25.5050   23.3060   19.3130 N   0  0  0  0  0  0  0  0  0  0  0  0
  1  5  1  0  0  0  0
  2  1  1  0  0  0  0
  2  3  2  0  0  0  0
  4  1  1  0  0  0  0
  6  5  1  6  0  0  0
  6  7  1  0  0  0  0
  7 27  1  6  0  0  0
  8  7  1  6  0  0  0
  8 11  1  0  0  0  0
  8 13  1  0  0  0  0
  9 14  1  6  0  0  0
  9 10  1  0  0  0  0
  9 11  1  0  0  0  0
  9 16  1  0  0  0  0
 10 12  1  0  0  0  0
 12 20  1  6  0  0  0
 13 12  1  0  0  0  0
 13 22  1  1  0  0  0
 15 14  1  0  0  0  0
 16 17  2  0  0  0  0
 18 16  1  0  0  0  0
 19 18  1  0  0  0  0
 21 20  1  0  0  0  0
 22 24  1  0  0  0  0
 23 22  1  0  0  0  0
 23 25  1  0  0  0  0
 26 23  2  0  0  0  0
 28 27  1  0  0  0  0
 29 30  1  0  0  0  0
 29  6  1  0  0  0  0
 31  2  1  0  0  0  0
 31 32  1  0  0  0  0
 32 33  1  0  0  0  0
 33 34  2  0  0  0  0
 34 36  1  0  0  0  0
 35 33  1  0  0  0  0
 35 37  2  0  0  0  0
 36 38  1  0  0  0  0
 37 36  1  0  0  0  0
 38 41  1  0  0  0  0
 38 39  1  0  0  0  0
 40 38  1  0  0  0  0
 42 43  1  0  0  0  0
 42 41  1  0  0  0  0
 44 45  1  0  0  0  0
 46 45  1  0  0  0  0
 46 47  1  0  0  0  0
 47 48  1  0  0  0  0
 48 49  1  0  0  0  0
M  END
>  <REMARK>
 VINA RESULT:    -4.807      0.000      0.000
 INTER + INTRA:         -14.885
 INTER:                  -9.335
 INTRA:                  -5.550
 UNBOUND:                -6.145
 SMILES CC(=O)N[C@@H]1[C@@H](O)C[C@](O)(C(=O)O)O[C@H]1C(O)[C@H](O)CNC(=O)OCc1cn(C(C)(C)CO)nn1
 SMILES IDX 21 1 22 2 23 3 20 5 18 6 16 7 15 8 9 9 8 10 14 11 6 12 5 13
 SMILES IDX 10 14 11 16 12 17 13 18 7 20 4 22 2 23 1 25 3 26 17 27 19 29
 SMILES IDX 24 31 25 32 26 33 27 34 35 35 28 36 34 37 29 38 30 39 31 40
 SMILES IDX 32 41 33 42
 H PARENT 21 4 10 15 13 19 7 21 4 24 17 28 19 30 33 43
 Flexibility Score: inf
  4 active torsions:
  status: ('A' for Active; 'I' for Inactive)
    1  A    between atoms: CA   and  CB  
    2  A    between atoms: CB   and  CG  
    3  A    between atoms: CG   and  CD  
    4  A    between atoms: CD   and  CE  

>  <TORSDO>
F 17

>  <BEGIN_>
RES LYS A 131

$$$$
ligand_72_pose_0_2HRL.pdbqt
 OpenBabel07062320523D

  6  5  0  0  0  0  0  0  0  0999 V2000
   33.1930   34.6630    9.2900 C   0  0  0  0  0  0  0  0  0  0  0  0
   32.0600   35.3600   10.0340 C   0  0  0  0  0  0  0  0  0  0  0  0
   32.3880   35.6770   11.4700 C   0  0  0  0  0  0  0  0  0  0  0  0
   31.2590   35.2340   12.3890 C   0  0  0  0  0  0  0  0  0  0  0  0
   31.6250   35.4800   13.8400 C   0  0  0  0  0  0  0  0  0  0  0  0
   32.1110   36.8740   14.0410 N   0  0  0  0  0  0  0  0  0  0  0  0
  1  2  1  0  0  0  0
  2  3  1  0  0  0  0
  3  4  1  0  0  0  0
  4  5  1  0  0  0  0
  5  6  1  0  0  0  0
M  END
>  <EGIN_R>
ES LYS A 135

>  <REMARK>
  4 active torsions:
  status: ('A' for Active; 'I' for Inactive)
    5  A    between atoms: CA   and  CB  
    6  A    between atoms: CB   and  CG  
    7  A    between atoms: CG   and  CD  
    8  A    between atoms: CD   and  CE  

$$$$
ligand_73_pose_0_2HRL.pdbqt
 OpenBabel07062320523D

 54 55  0  0  1  0  0  0  0  0999 V2000
   27.7360   28.1400   18.4770 N   0  0  0  0  0  0  0  0  0  0  0  0
   27.7960   27.8710   19.8710 C   0  0  0  0  0  0  0  0  0  0  0  0
   26.7520   27.5790   20.5440 O   0  0  0  0  0  0  0  0  0  0  0  0
   28.6050   28.3660   17.9680 H   0  0  0  0  0  0  0  0  0  0  0  0
   26.4700   28.0810   17.8070 C   0  0  0  0  0  0  0  0  0  0  0  0
   25.9460   29.3590   17.2590 C   0  0  2  0  0  0  0  0  0  0  0  0
   26.6790   29.9010   16.0590 C   0  0  1  0  0  0  0  0  0  0  0  0
   26.2840   31.2890   15.6620 C   0  0  2  0  0  0  0  0  0  0  0  0
   26.5080   33.5240   16.1430 C   0  0  2  0  0  0  0  0  0  0  0  0
   25.9420   33.6000   14.7430 C   0  0  0  0  0  0  0  0  0  0  0  0
   26.7060   32.2290   16.5880 O   0  0  0  0  0  0  0  0  0  0  0  0
   24.6570   32.8450   14.6870 C   0  0  1  0  0  0  0  0  0  0  0  0
   24.8790   31.4190   15.2050 C   0  0  1  0  0  0  0  0  0  0  0  0
   25.6020   34.1580   16.9810 O   0  0  0  0  0  0  0  0  0  0  0  0
   24.6960   34.0060   16.5940 H   0  0  0  0  0  0  0  0  0  0  0  0
   27.7740   34.2980   16.1500 C   0  0  0  0  0  0  0  0  0  0  0  0
   28.4620   34.4360   15.1050 O   0  0  0  0  0  0  0  0  0  0  0  0
   28.2250   34.8890   17.3150 O   0  0  0  0  0  0  0  0  0  0  0  0
   28.0120   34.5470   18.2320 H   0  0  0  0  0  0  0  0  0  0  0  0
   23.7350   33.5400   15.4920 O   0  0  0  0  0  0  0  0  0  0  0  0
   22.8530   33.0750   15.3590 H   0  0  0  0  0  0  0  0  0  0  0  0
   24.7220   30.5180   14.0530 N   0  0  0  0  0  0  0  0  0  0  0  0
   23.5640   29.7400   13.8430 C   0  0  0  0  0  0  0  0  0  0  0  0
   25.5060   30.4540   13.3610 H   0  0  0  0  0  0  0  0  0  0  0  0
   23.4460   28.8420   12.6690 C   0  0  0  0  0  0  0  0  0  0  0  0
   22.6290   29.8050   14.6510 O   0  0  0  0  0  0  0  0  0  0  0  0
   28.0590   29.8870   16.2600 O   0  0  0  0  0  0  0  0  0  0  0  0
   28.5750   29.8820   15.4370 H   0  0  0  0  0  0  0  0  0  0  0  0
   25.9960   30.2940   18.3050 O   0  0  0  0  0  0  0  0  0  0  0  0
   26.8570   30.7940   18.2120 H   0  0  0  0  0  0  0  0  0  0  0  0
   29.0210   27.9350   20.4920 O   0  0  0  0  0  0  0  0  0  0  0  0
   29.4770   29.1480   21.0060 C   0  0  0  0  0  0  0  0  0  0  0  0
   29.4460   30.2590   20.0170 C   0  0  0  0  0  0  0  0  0  0  0  0
   30.4360   30.6380   19.1220 C   0  0  0  0  0  0  0  0  0  0  0  0
   28.4410   31.1260   19.7940 N   0  0  0  0  0  0  0  0  0  0  0  0
   30.0230   31.6910   18.3990 N   0  0  0  0  0  0  0  0  0  0  0  0
   28.8040   31.9710   18.8270 N   0  0  0  0  0  0  0  0  0  0  0  0
   30.7120   32.3980   17.3740 C   0  0  0  0  0  0  0  0  0  0  0  0
   30.7780   31.8780   16.0980 C   0  0  0  0  0  0  0  0  0  0  0  0
   31.3360   33.6080   17.5920 C   0  0  0  0  0  0  0  0  0  0  0  0
   31.4440   32.5500   15.0860 C   0  0  0  0  0  0  0  0  0  0  0  0
   32.0140   34.3160   16.6120 C   0  0  0  0  0  0  0  0  0  0  0  0
   32.0540   33.7550   15.3390 C   0  0  0  0  0  0  0  0  0  0  0  0
   32.6470   35.5520   16.8520 N   0  0  0  0  0  0  0  0  0  0  0  0
   32.1990   36.5750   16.3320 O   0  0  0  0  0  0  0  0  0  0  0  0
   33.7430   35.6110   17.6540 O   0  0  0  0  0  0  0  0  0  0  0  0
   32.7370   34.4680   14.3560 O   0  0  0  0  0  0  0  0  0  0  0  0
   32.6090   34.1790   13.3750 H   0  0  0  0  0  0  0  0  0  0  0  0
   29.8670   25.5550   16.9770 C   0  0  0  0  0  0  0  0  0  0  0  0
   28.3450   25.7220   17.0260 C   0  0  0  0  0  0  0  0  0  0  0  0
   27.6010   24.4040   16.8770 C   0  0  0  0  0  0  0  0  0  0  0  0
   26.1520   24.5250   17.2600 C   0  0  0  0  0  0  0  0  0  0  0  0
   26.0210   24.4800   18.7790 C   0  0  0  0  0  0  0  0  0  0  0  0
   25.5330   23.1510   19.2190 N   0  0  0  0  0  0  0  0  0  0  0  0
  1  2  1  0  0  0  0
  2 31  1  0  0  0  0
  2  3  2  0  0  0  0
  4  1  1  0  0  0  0
  5  1  1  0  0  0  0
  6  5  1  1  0  0  0
  6 29  1  0  0  0  0
  7 27  1  1  0  0  0
  7  6  1  0  0  0  0
  8  7  1  1  0  0  0
  8 11  1  0  0  0  0
  9 16  1  1  0  0  0
  9 11  1  0  0  0  0
  9 14  1  0  0  0  0
 10  9  1  0  0  0  0
 12 10  1  0  0  0  0
 12 13  1  0  0  0  0
 12 20  1  1  0  0  0
 13 22  1  6  0  0  0
 13  8  1  0  0  0  0
 15 14  1  0  0  0  0
 16 18  1  0  0  0  0
 17 16  2  0  0  0  0
 18 19  1  0  0  0  0
 21 20  1  0  0  0  0
 23 22  1  0  0  0  0
 23 26  2  0  0  0  0
 24 22  1  0  0  0  0
 25 23  1  0  0  0  0
 28 27  1  0  0  0  0
 30 29  1  0  0  0  0
 31 32  1  0  0  0  0
 33 32  1  0  0  0  0
 34 33  2  0  0  0  0
 35 33  1  0  0  0  0
 36 37  1  0  0  0  0
 36 34  1  0  0  0  0
 37 35  2  0  0  0  0
 38 40  1  0  0  0  0
 38 36  1  0  0  0  0
 39 38  2  0  0  0  0
 41 43  2  0  0  0  0
 41 39  1  0  0  0  0
 42 44  1  0  0  0  0
 42 40  2  0  0  0  0
 43 42  1  0  0  0  0
 44 46  2  0  0  0  0
 45 44  2  0  0  0  0
 47 43  1  0  0  0  0
 48 47  1  0  0  0  0
 49 50  1  0  0  0  0
 51 50  1  0  0  0  0
 51 52  1  0  0  0  0
 52 53  1  0  0  0  0
 53 54  1  0  0  0  0
M  END
>  <REMARK>
 VINA RESULT:    -4.518      0.000      0.000
 INTER + INTRA:         -15.527
 INTER:                  -8.796
 INTRA:                  -6.731
 UNBOUND:                -7.311
 SMILES CC(=O)N[C@@H]1[C@@H](O)C[C@](O)(C(=O)O)O[C@H]1C(O)[C@H](O)CNC(=O)OCc1cn(-c2ccc(O)c([N+](=O)[O-])c2)nn1
 SMILES IDX 21 1 22 2 23 3 20 5 18 6 16 7 15 8 9 9 8 10 14 11 6 12 5 13
 SMILES IDX 10 14 11 16 12 17 13 18 7 20 4 22 2 23 1 25 3 26 17 27 19 29
 SMILES IDX 24 31 25 32 26 33 27 34 40 35 28 36 39 37 29 38 30 39 38 40
 SMILES IDX 31 41 34 42 32 43 35 44 36 45 37 46 33 47
 H PARENT 21 4 10 15 13 19 7 21 4 24 17 28 19 30 33 48
 Flexibility Score: inf
  4 active torsions:
  status: ('A' for Active; 'I' for Inactive)
    1  A    between atoms: CA   and  CB  
    2  A    between atoms: CB   and  CG  
    3  A    between atoms: CG   and  CD  
    4  A    between atoms: CD   and  CE  

>  <TORSDO>
F 17

>  <BEGIN_>
RES LYS A 131

$$$$
ligand_73_pose_0_2HRL.pdbqt
 OpenBabel07062320523D

  6  5  0  0  0  0  0  0  0  0999 V2000
   33.1930   34.6630    9.2900 C   0  0  0  0  0  0  0  0  0  0  0  0
   32.0600   35.3600   10.0340 C   0  0  0  0  0  0  0  0  0  0  0  0
   30.7620   35.3840    9.2690 C   0  0  0  0  0  0  0  0  0  0  0  0
   30.1300   34.0010    9.2420 C   0  0  0  0  0  0  0  0  0  0  0  0
   28.6350   34.1030    9.0030 C   0  0  0  0  0  0  0  0  0  0  0  0
   28.3360   34.9910    7.8460 N   0  0  0  0  0  0  0  0  0  0  0  0
  1  2  1  0  0  0  0
  3  2  1  0  0  0  0
  4  3  1  0  0  0  0
  5  4  1  0  0  0  0
  6  5  1  0  0  0  0
M  END
>  <EGIN_R>
ES LYS A 135

>  <REMARK>
  4 active torsions:
  status: ('A' for Active; 'I' for Inactive)
    5  A    between atoms: CA   and  CB  
    6  A    between atoms: CB   and  CG  
    7  A    between atoms: CG   and  CD  
    8  A    between atoms: CD   and  CE  

$$$$
ligand_74_pose_0_2HRL.pdbqt
 OpenBabel07062320523D

 54 54  0  0  1  0  0  0  0  0999 V2000
   27.4830   30.0490   16.8700 O   0  0  0  0  0  0  0  0  0  0  0  0
   27.2200   28.8770   17.6020 C   0  0  0  0  0  0  0  0  0  0  0  0
   28.0140   28.5120   18.7150 N   0  0  0  0  0  0  0  0  0  0  0  0
   28.8130   29.1790   18.9600 H   0  0  0  0  0  0  0  0  0  0  0  0
   26.2570   28.1630   17.2350 O   0  0  0  0  0  0  0  0  0  0  0  0
   27.7920   27.3180   19.5000 C   0  0  0  0  0  0  0  0  0  0  0  0
   27.8070   27.6640   20.9490 C   0  0  2  0  0  0  0  0  0  0  0  0
   29.1990   27.6730   21.5600 C   0  0  2  0  0  0  0  0  0  0  0  0
   29.6460   29.0610   21.8950 C   0  0  2  0  0  0  0  0  0  0  0  0
   30.3680   30.5490   20.2640 C   0  0  2  0  0  0  0  0  0  0  0  0
   31.4270   31.1700   21.1420 C   0  0  0  0  0  0  0  0  0  0  0  0
   29.3100   30.0260   20.9920 O   0  0  0  0  0  0  0  0  0  0  0  0
   31.4300   30.5670   22.5310 C   0  0  1  0  0  0  0  0  0  0  0  0
   31.1110   29.0810   22.3210 C   0  0  1  0  0  0  0  0  0  0  0  0
   30.9270   29.6030   19.4000 O   0  0  0  0  0  0  0  0  0  0  0  0
   30.2670   29.1450   18.8460 H   0  0  0  0  0  0  0  0  0  0  0  0
   29.8110   31.6330   19.4110 C   0  0  0  0  0  0  0  0  0  0  0  0
   28.5520   31.7330   19.2950 O   0  0  0  0  0  0  0  0  0  0  0  0
   30.5900   32.5470   18.7340 O   0  0  0  0  0  0  0  0  0  0  0  0
   31.5900   32.3410   18.5850 H   0  0  0  0  0  0  0  0  0  0  0  0
   32.6120   30.7570   23.2030 O   0  0  0  0  0  0  0  0  0  0  0  0
   33.3500   30.5120   22.5650 H   0  0  0  0  0  0  0  0  0  0  0  0
   31.2480   28.3480   23.5550 N   0  0  0  0  0  0  0  0  0  0  0  0
   32.1030   27.2060   23.6340 C   0  0  0  0  0  0  0  0  0  0  0  0
   30.7410   28.6040   24.4380 H   0  0  0  0  0  0  0  0  0  0  0  0
   32.2650   26.4340   24.8800 C   0  0  0  0  0  0  0  0  0  0  0  0
   32.7390   26.8410   22.6140 O   0  0  0  0  0  0  0  0  0  0  0  0
   30.0800   26.9610   20.7810 O   0  0  0  0  0  0  0  0  0  0  0  0
   29.6970   26.0800   20.5890 H   0  0  0  0  0  0  0  0  0  0  0  0
   27.0620   26.6830   21.6440 O   0  0  0  0  0  0  0  0  0  0  0  0
   26.3070   26.3610   21.1010 H   0  0  0  0  0  0  0  0  0  0  0  0
   28.5120   30.0000   15.9140 C   0  0  0  0  0  0  0  0  0  0  0  0
   29.2150   31.2880   15.7770 C   0  0  0  0  0  0  0  0  0  0  0  0
   28.7100   32.5620   15.5660 C   0  0  0  0  0  0  0  0  0  0  0  0
   30.5420   31.4490   15.8380 N   0  0  0  0  0  0  0  0  0  0  0  0
   29.7310   33.4340   15.5100 N   0  0  0  0  0  0  0  0  0  0  0  0
   30.8260   32.7370   15.6760 N   0  0  0  0  0  0  0  0  0  0  0  0
   29.5870   34.9000   15.2960 C   0  0  0  0  0  0  0  0  0  0  0  0
   30.8750   35.4640   14.8070 C   0  0  2  0  0  0  0  0  0  0  0  0
   31.4780   36.2870   15.9320 C   0  0  0  0  0  0  0  0  0  0  0  0
   32.6140   35.5410   16.5310 C   0  0  0  0  0  0  0  0  0  0  0  0
   33.7710   35.6770   16.0960 O   0  0  0  0  0  0  0  0  0  0  0  0
   32.3280   34.6830   17.5970 O   0  0  0  0  0  0  0  0  0  0  0  0
   31.3770   34.4390   17.7930 H   0  0  0  0  0  0  0  0  0  0  0  0
   30.7600   36.1720   13.5210 C   0  0  0  0  0  0  0  0  0  0  0  0
   31.9650   36.8360   12.9730 C   0  0  0  0  0  0  0  0  0  0  0  0
   32.9370   35.6830   12.5940 C   0  0  0  0  0  0  0  0  0  0  0  0
   31.7900   37.6710   11.7510 C   0  0  0  0  0  0  0  0  0  0  0  0
   29.8670   25.5550   16.9770 C   0  0  0  0  0  0  0  0  0  0  0  0
   28.3450   25.7220   17.0260 C   0  0  0  0  0  0  0  0  0  0  0  0
   27.6010   24.4030   16.8800 C   0  0  0  0  0  0  0  0  0  0  0  0
   26.5160   24.2490   17.9090 C   0  0  0  0  0  0  0  0  0  0  0  0
   25.1600   24.1770   17.2130 C   0  0  0  0  0  0  0  0  0  0  0  0
   24.3200   25.3370   17.5920 N   0  0  0  0  0  0  0  0  0  0  0  0
  1  2  1  0  0  0  0
  2  3  1  0  0  0  0
  3  4  1  0  0  0  0
  3  6  1  0  0  0  0
  5  2  2  0  0  0  0
  7  6  1  6  0  0  0
  7  8  1  0  0  0  0
  7 30  1  0  0  0  0
  8 28  1  6  0  0  0
  9  8  1  6  0  0  0
  9 14  1  0  0  0  0
 10 15  1  6  0  0  0
 10 12  1  0  0  0  0
 10 11  1  0  0  0  0
 11 13  1  0  0  0  0
 12  9  1  0  0  0  0
 13 21  1  6  0  0  0
 14 13  1  0  0  0  0
 14 23  1  1  0  0  0
 16 15  1  0  0  0  0
 17 10  1  0  0  0  0
 18 17  2  0  0  0  0
 19 17  1  0  0  0  0
 20 19  1  0  0  0  0
 22 21  1  0  0  0  0
 23 24  1  0  0  0  0
 23 25  1  0  0  0  0
 24 26  1  0  0  0  0
 27 24  2  0  0  0  0
 29 28  1  0  0  0  0
 31 30  1  0  0  0  0
 32  1  1  0  0  0  0
 33 35  1  0  0  0  0
 33 32  1  0  0  0  0
 34 33  2  0  0  0  0
 36 34  1  0  0  0  0
 36 37  1  0  0  0  0
 37 35  2  0  0  0  0
 38 36  1  0  0  0  0
 39 45  1  6  0  0  0
 39 38  1  0  0  0  0
 39 40  1  0  0  0  0
 40 41  1  0  0  0  0
 41 43  1  0  0  0  0
 42 41  2  0  0  0  0
 43 44  1  0  0  0  0
 46 45  1  0  0  0  0
 47 46  1  0  0  0  0
 48 46  1  0  0  0  0
 49 50  1  0  0  0  0
 51 50  1  0  0  0  0
 51 52  1  0  0  0  0
 53 54  1  0  0  0  0
 53 52  1  0  0  0  0
M  END
>  <REMARK>
 VINA RESULT:    -4.836      0.000      0.000
 INTER + INTRA:         -17.043
 INTER:                  -9.432
 INTRA:                  -7.611
 UNBOUND:                -7.118
 SMILES CC(=O)N[C@@H]1[C@@H](O)C[C@](O)(C(=O)O)O[C@H]1C(O)[C@H](O)CNC(=O)OCc1cn(C[C@H](CC(=O)O)CC(C)C)nn1
 SMILES IDX 24 1 22 2 21 3 23 5 20 6 18 7 16 8 15 9 9 10 8 11 14 12 6 13
 SMILES IDX 5 14 10 15 11 17 12 18 13 19 7 21 4 23 2 24 1 26 3 27 17 28
 SMILES IDX 19 30 25 32 26 33 27 34 40 35 28 36 39 37 29 38 30 39 31 40
 SMILES IDX 32 41 33 42 34 43 35 45 36 46 37 47 38 48
 H PARENT 21 4 10 16 13 20 7 22 4 25 17 29 19 31 34 44
 Flexibility Score: inf
  4 active torsions:
  status: ('A' for Active; 'I' for Inactive)
    1  A    between atoms: CA   and  CB  
    2  A    between atoms: CB   and  CG  
    3  A    between atoms: CG   and  CD  
    4  A    between atoms: CD   and  CE  

>  <TORSDO>
F 21

>  <BEGIN_>
RES LYS A 131

$$$$
ligand_74_pose_0_2HRL.pdbqt
 OpenBabel07062320523D

  6  5  0  0  0  0  0  0  0  0999 V2000
   33.1930   34.6630    9.2900 C   0  0  0  0  0  0  0  0  0  0  0  0
   32.0600   35.3600   10.0340 C   0  0  0  0  0  0  0  0  0  0  0  0
   30.7040   34.7620    9.7630 C   0  0  0  0  0  0  0  0  0  0  0  0
   30.5450   34.4400    8.2850 C   0  0  0  0  0  0  0  0  0  0  0  0
   29.2540   35.0280    7.7480 C   0  0  0  0  0  0  0  0  0  0  0  0
   28.0740   34.4950    8.4840 N   0  0  0  0  0  0  0  0  0  0  0  0
  1  2  1  0  0  0  0
  3  2  1  0  0  0  0
  4  3  1  0  0  0  0
  5  4  1  0  0  0  0
  5  6  1  0  0  0  0
M  END
>  <EGIN_R>
ES LYS A 135

>  <REMARK>
  4 active torsions:
  status: ('A' for Active; 'I' for Inactive)
    5  A    between atoms: CA   and  CB  
    6  A    between atoms: CB   and  CG  
    7  A    between atoms: CG   and  CD  
    8  A    between atoms: CD   and  CE  

$$$$
ligand_75_pose_0_2HRL.pdbqt
 OpenBabel07062320523D

 55 56  0  0  1  0  0  0  0  0999 V2000
   21.7580   41.5080    8.1110 N   0  0  0  0  0  0  0  0  0  0  0  0
   21.9020   42.0140    6.7990 C   0  0  0  0  0  0  0  0  0  0  0  0
   20.9440   42.4760    6.1460 O   0  0  0  0  0  0  0  0  0  0  0  0
   22.6600   41.1280    8.5630 H   0  0  0  0  0  0  0  0  0  0  0  0
   20.5440   41.4590    8.8740 C   0  0  0  0  0  0  0  0  0  0  0  0
   20.1540   40.0480    9.1780 C   0  0  2  0  0  0  0  0  0  0  0  0
   21.1270   39.3220   10.0880 C   0  0  2  0  0  0  0  0  0  0  0  0
   21.4640   37.9810    9.5470 C   0  0  2  0  0  0  0  0  0  0  0  0
   20.8320   35.8290    9.0000 C   0  0  2  0  0  0  0  0  0  0  0  0
   22.2320   35.7790    8.4550 C   0  0  0  0  0  0  0  0  0  0  0  0
   20.4470   37.0910    9.4100 O   0  0  0  0  0  0  0  0  0  0  0  0
   23.2760   36.3790    9.3230 C   0  0  1  0  0  0  0  0  0  0  0  0
   22.6350   37.3420   10.2920 C   0  0  1  0  0  0  0  0  0  0  0  0
   20.6910   34.8660    9.9990 O   0  0  0  0  0  0  0  0  0  0  0  0
   21.1640   34.0320    9.7880 H   0  0  0  0  0  0  0  0  0  0  0  0
   19.9180   35.4370    7.8910 C   0  0  0  0  0  0  0  0  0  0  0  0
   19.1190   36.3070    7.4030 O   0  0  0  0  0  0  0  0  0  0  0  0
   19.9000   34.1540    7.3630 O   0  0  0  0  0  0  0  0  0  0  0  0
   20.6880   33.5380    7.4020 H   0  0  0  0  0  0  0  0  0  0  0  0
   24.0660   35.4380    9.9770 O   0  0  0  0  0  0  0  0  0  0  0  0
   24.2410   35.7320   10.8850 H   0  0  0  0  0  0  0  0  0  0  0  0
   23.5540   38.3070   10.8100 N   0  0  0  0  0  0  0  0  0  0  0  0
   24.3130   38.0840   11.9880 C   0  0  0  0  0  0  0  0  0  0  0  0
   23.7080   39.2400   10.3250 H   0  0  0  0  0  0  0  0  0  0  0  0
   25.2510   39.1090   12.4840 C   0  0  0  0  0  0  0  0  0  0  0  0
   24.2000   37.0110   12.6310 O   0  0  0  0  0  0  0  0  0  0  0  0
   20.7140   39.3330   11.4160 O   0  0  0  0  0  0  0  0  0  0  0  0
   21.2440   40.0100   11.8910 H   0  0  0  0  0  0  0  0  0  0  0  0
   19.9880   39.2920    8.0160 O   0  0  0  0  0  0  0  0  0  0  0  0
   19.3840   38.5260    8.2220 H   0  0  0  0  0  0  0  0  0  0  0  0
   23.1580   42.0190    6.1580 O   0  0  0  0  0  0  0  0  0  0  0  0
   24.3080   42.1730    6.9290 C   0  0  0  0  0  0  0  0  0  0  0  0
   24.8760   40.8810    7.3820 C   0  0  0  0  0  0  0  0  0  0  0  0
   25.6400   39.9590    6.7070 C   0  0  0  0  0  0  0  0  0  0  0  0
   24.7190   40.3720    8.6160 N   0  0  0  0  0  0  0  0  0  0  0  0
   25.9320   38.9210    7.5310 N   0  0  0  0  0  0  0  0  0  0  0  0
   25.3560   39.2030    8.6850 N   0  0  0  0  0  0  0  0  0  0  0  0
   26.7090   37.7770    7.1710 C   0  0  0  0  0  0  0  0  0  0  0  0
   26.6990   36.6420    7.9390 C   0  0  0  0  0  0  0  0  0  0  0  0
   27.4890   37.7980    6.0390 C   0  0  0  0  0  0  0  0  0  0  0  0
   27.4710   35.4990    7.5890 C   0  0  0  0  0  0  0  0  0  0  0  0
   28.2510   36.7370    5.6490 C   0  0  0  0  0  0  0  0  0  0  0  0
   28.2260   35.5820    6.4500 C   0  0  0  0  0  0  0  0  0  0  0  0
   27.3860   34.3370    8.4030 C   0  0  0  0  0  0  0  0  0  0  0  0
   27.3910   34.0210    9.6390 C   0  0  0  0  0  0  0  0  0  0  0  0
   27.4840   34.7130   10.8630 C   0  0  0  0  0  0  0  0  0  0  0  0
   28.5740   34.5200   11.6040 O   0  0  0  0  0  0  0  0  0  0  0  0
   26.6400   35.5910   11.4930 O   0  0  0  0  0  0  0  0  0  0  0  0
   25.7260   35.8350   11.1440 H   0  0  0  0  0  0  0  0  0  0  0  0
   29.8670   25.5550   16.9770 C   0  0  0  0  0  0  0  0  0  0  0  0
   28.3450   25.7220   17.0260 C   0  0  0  0  0  0  0  0  0  0  0  0
   27.6010   24.4000   16.9070 C   0  0  0  0  0  0  0  0  0  0  0  0
   26.1560   24.5270   17.3000 C   0  0  0  0  0  0  0  0  0  0  0  0
   25.6660   23.2000   17.8710 C   0  0  0  0  0  0  0  0  0  0  0  0
   24.3960   22.7930   17.2230 N   0  0  0  0  0  0  0  0  0  0  0  0
  1  4  1  0  0  0  0
  1  5  1  0  0  0  0
  2  1  1  0  0  0  0
  3  2  2  0  0  0  0
  6  5  1  6  0  0  0
  6  7  1  0  0  0  0
  7 27  1  1  0  0  0
  8  7  1  1  0  0  0
  8 13  1  0  0  0  0
  9 16  1  6  0  0  0
  9 11  1  0  0  0  0
  9 14  1  0  0  0  0
 10  9  1  0  0  0  0
 10 12  1  0  0  0  0
 11  8  1  0  0  0  0
 12 20  1  1  0  0  0
 12 13  1  0  0  0  0
 13 22  1  6  0  0  0
 15 14  1  0  0  0  0
 17 16  2  0  0  0  0
 18 19  1  0  0  0  0
 18 16  1  0  0  0  0
 20 21  1  0  0  0  0
 22 23  1  0  0  0  0
 23 25  1  0  0  0  0
 23 26  2  0  0  0  0
 24 22  1  0  0  0  0
 27 28  1  0  0  0  0
 29 30  1  0  0  0  0
 29  6  1  0  0  0  0
 31  2  1  0  0  0  0
 31 32  1  0  0  0  0
 32 33  1  0  0  0  0
 33 35  1  0  0  0  0
 34 33  2  0  0  0  0
 34 36  1  0  0  0  0
 35 37  2  0  0  0  0
 36 37  1  0  0  0  0
 38 36  1  0  0  0  0
 38 39  2  0  0  0  0
 40 38  1  0  0  0  0
 41 39  1  0  0  0  0
 41 44  1  0  0  0  0
 42 40  2  0  0  0  0
 42 43  1  0  0  0  0
 43 41  2  0  0  0  0
 44 45  2  0  0  0  0
 45 46  1  0  0  0  0
 46 48  1  0  0  0  0
 46 47  2  0  0  0  0
 49 48  1  0  0  0  0
 50 51  1  0  0  0  0
 52 51  1  0  0  0  0
 52 53  1  0  0  0  0
 53 54  1  0  0  0  0
 55 54  1  0  0  0  0
M  END
>  <REMARK>
 VINA RESULT:    -5.721      0.000      0.000
 INTER + INTRA:         -17.056
 INTER:                 -10.510
 INTRA:                  -6.546
 UNBOUND:                -6.317
 SMILES CC(=O)N[C@@H]1[C@@H](O)C[C@](O)(C(=O)O)O[C@H]1C(O)[C@H](O)CNC(=O)OCc1cn(-c2cccc(C=CC(=O)O)c2)nn1
 SMILES IDX 21 1 22 2 23 3 20 5 18 6 16 7 15 8 9 9 8 10 14 11 6 12 5 13
 SMILES IDX 10 14 11 16 12 17 13 18 7 20 4 22 2 23 1 25 3 26 17 27 19 29
 SMILES IDX 24 31 25 32 26 33 27 34 41 35 28 36 40 37 29 38 39 39 30 40
 SMILES IDX 33 41 31 42 32 43 34 44 35 45 36 46 37 47 38 48
 H PARENT 21 4 10 15 13 19 7 21 4 24 17 28 19 30 38 49
 Flexibility Score: inf
  4 active torsions:
  status: ('A' for Active; 'I' for Inactive)
    1  A    between atoms: CA   and  CB  
    2  A    between atoms: CB   and  CG  
    3  A    between atoms: CG   and  CD  
    4  A    between atoms: CD   and  CE  

>  <TORSDO>
F 18

>  <BEGIN_>
RES LYS A 131

$$$$
ligand_75_pose_0_2HRL.pdbqt
 OpenBabel07062320523D

  6  5  0  0  0  0  0  0  0  0999 V2000
   33.1930   34.6630    9.2900 C   0  0  0  0  0  0  0  0  0  0  0  0
   32.0600   35.3600   10.0340 C   0  0  0  0  0  0  0  0  0  0  0  0
   30.8610   35.6520    9.1690 C   0  0  0  0  0  0  0  0  0  0  0  0
   30.1930   36.9490    9.5980 C   0  0  0  0  0  0  0  0  0  0  0  0
   30.9780   38.1450    9.0930 C   0  0  0  0  0  0  0  0  0  0  0  0
   30.3810   38.6900    7.8430 N   0  0  0  0  0  0  0  0  0  0  0  0
  1  2  1  0  0  0  0
  3  4  1  0  0  0  0
  3  2  1  0  0  0  0
  5  4  1  0  0  0  0
  6  5  1  0  0  0  0
M  END
>  <EGIN_R>
ES LYS A 135

>  <REMARK>
  4 active torsions:
  status: ('A' for Active; 'I' for Inactive)
    5  A    between atoms: CA   and  CB  
    6  A    between atoms: CB   and  CG  
    7  A    between atoms: CG   and  CD  
    8  A    between atoms: CD   and  CE  

$$$$
ligand_76_pose_0_2HRL.pdbqt
 OpenBabel07062320523D

 55 56  0  0  1  0  0  0  0  0999 V2000
   27.0890   35.9660   11.7150 O   0  0  0  0  0  0  0  0  0  0  0  0
   25.8710   35.8820   12.3680 C   0  0  0  0  0  0  0  0  0  0  0  0
   24.9760   36.9720   12.3660 N   0  0  0  0  0  0  0  0  0  0  0  0
   25.2390   37.8420   11.8680 H   0  0  0  0  0  0  0  0  0  0  0  0
   25.5540   34.8310   12.9690 O   0  0  0  0  0  0  0  0  0  0  0  0
   23.6850   36.9240   13.0370 C   0  0  0  0  0  0  0  0  0  0  0  0
   22.5660   37.3020   12.0850 C   0  0  2  0  0  0  0  0  0  0  0  0
   23.1790   38.0340   10.9020 C   0  0  1  0  0  0  0  0  0  0  0  0
   22.1540   38.1620    9.7710 C   0  0  2  0  0  0  0  0  0  0  0  0
   21.6050   36.0570    8.9230 C   0  0  2  0  0  0  0  0  0  0  0  0
   22.8760   36.1310    8.1510 C   0  0  0  0  0  0  0  0  0  0  0  0
   21.2970   37.1230    9.6900 O   0  0  0  0  0  0  0  0  0  0  0  0
   23.1470   37.4670    7.5580 C   0  0  1  0  0  0  0  0  0  0  0  0
   22.8480   38.5890    8.5150 C   0  0  1  0  0  0  0  0  0  0  0  0
   21.7020   34.9240    9.7670 O   0  0  0  0  0  0  0  0  0  0  0  0
   22.4060   35.0810   10.4470 H   0  0  0  0  0  0  0  0  0  0  0  0
   20.4990   35.7390    7.9500 C   0  0  0  0  0  0  0  0  0  0  0  0
   19.7150   36.6090    7.5050 O   0  0  0  0  0  0  0  0  0  0  0  0
   20.2960   34.4340    7.4910 O   0  0  0  0  0  0  0  0  0  0  0  0
   19.6590   34.2580    6.7010 H   0  0  0  0  0  0  0  0  0  0  0  0
   24.4930   37.4980    7.1220 O   0  0  0  0  0  0  0  0  0  0  0  0
   24.7930   36.5780    6.8560 H   0  0  0  0  0  0  0  0  0  0  0  0
   22.1030   39.6660    7.8600 N   0  0  0  0  0  0  0  0  0  0  0  0
   22.7390   40.8200    7.3820 C   0  0  0  0  0  0  0  0  0  0  0  0
   21.0540   39.5210    7.7690 H   0  0  0  0  0  0  0  0  0  0  0  0
   21.9470   41.8770    6.7300 C   0  0  0  0  0  0  0  0  0  0  0  0
   23.9710   40.9620    7.5030 O   0  0  0  0  0  0  0  0  0  0  0  0
   23.3860   39.3510   11.3480 O   0  0  0  0  0  0  0  0  0  0  0  0
   23.0530   40.0230   10.6800 H   0  0  0  0  0  0  0  0  0  0  0  0
   21.6470   38.1210   12.7300 O   0  0  0  0  0  0  0  0  0  0  0  0
   21.4620   37.7170   13.6110 H   0  0  0  0  0  0  0  0  0  0  0  0
   27.6970   37.2680   11.6790 C   0  0  0  0  0  0  0  0  0  0  0  0
   27.5780   37.8460   10.3230 C   0  0  0  0  0  0  0  0  0  0  0  0
   28.5630   38.3120    9.4830 C   0  0  0  0  0  0  0  0  0  0  0  0
   26.4160   38.0110    9.6670 N   0  0  0  0  0  0  0  0  0  0  0  0
   27.9820   38.7420    8.3540 N   0  0  0  0  0  0  0  0  0  0  0  0
   26.7060   38.5560    8.4790 N   0  0  0  0  0  0  0  0  0  0  0  0
   28.6410   39.3280    7.1650 C   0  0  0  0  0  0  0  0  0  0  0  0
   28.1700   38.5820    5.9550 C   0  0  2  0  0  0  0  0  0  0  0  0
   26.8120   38.8140    5.6930 O   0  0  0  0  0  0  0  0  0  0  0  0
   26.3800   37.9200    5.5710 H   0  0  0  0  0  0  0  0  0  0  0  0
   28.6760   37.2430    5.7520 C   0  0  0  0  0  0  0  0  0  0  0  0
   27.7930   36.0910    5.9710 C   0  0  0  0  0  0  0  0  0  0  0  0
   28.0100   35.3630    7.2110 C   0  0  0  0  0  0  0  0  0  0  0  0
   29.3310   35.1240    7.6120 C   0  0  0  0  0  0  0  0  0  0  0  0
   27.0390   34.8240    7.9960 C   0  0  0  0  0  0  0  0  0  0  0  0
   29.6080   34.3840    8.7370 C   0  0  0  0  0  0  0  0  0  0  0  0
   27.2980   34.0770    9.1310 C   0  0  0  0  0  0  0  0  0  0  0  0
   28.6050   33.8510    9.5120 C   0  0  0  0  0  0  0  0  0  0  0  0
   29.8670   25.5550   16.9770 C   0  0  0  0  0  0  0  0  0  0  0  0
   28.3450   25.7220   17.0260 C   0  0  0  0  0  0  0  0  0  0  0  0
   27.6020   24.4000   16.9130 C   0  0  0  0  0  0  0  0  0  0  0  0
   26.2670   24.4390   17.6050 C   0  0  0  0  0  0  0  0  0  0  0  0
   25.6060   23.0680   17.5130 C   0  0  0  0  0  0  0  0  0  0  0  0
   24.1540   23.2090   17.2510 N   0  0  0  0  0  0  0  0  0  0  0  0
  1  2  1  0  0  0  0
  2  5  2  0  0  0  0
  3  2  1  0  0  0  0
  3  6  1  0  0  0  0
  4  3  1  0  0  0  0
  7 30  1  0  0  0  0
  7  6  1  1  0  0  0
  8 28  1  1  0  0  0
  8  7  1  0  0  0  0
  9  8  1  1  0  0  0
 10 17  1  6  0  0  0
 10 12  1  0  0  0  0
 10 15  1  0  0  0  0
 11 10  1  0  0  0  0
 12  9  1  0  0  0  0
 13 21  1  1  0  0  0
 13 11  1  0  0  0  0
 13 14  1  0  0  0  0
 14 23  1  6  0  0  0
 14  9  1  0  0  0  0
 15 16  1  0  0  0  0
 18 17  2  0  0  0  0
 19 17  1  0  0  0  0
 20 19  1  0  0  0  0
 22 21  1  0  0  0  0
 24 27  2  0  0  0  0
 24 23  1  0  0  0  0
 25 23  1  0  0  0  0
 26 24  1  0  0  0  0
 29 28  1  0  0  0  0
 30 31  1  0  0  0  0
 32  1  1  0  0  0  0
 33 32  1  0  0  0  0
 34 33  2  0  0  0  0
 35 33  1  0  0  0  0
 36 37  1  0  0  0  0
 36 34  1  0  0  0  0
 37 35  2  0  0  0  0
 38 36  1  0  0  0  0
 39 42  1  1  0  0  0
 39 38  1  0  0  0  0
 40 39  1  0  0  0  0
 41 40  1  0  0  0  0
 42 43  1  0  0  0  0
 43 44  1  0  0  0  0
 44 45  2  0  0  0  0
 44 46  1  0  0  0  0
 45 47  1  0  0  0  0
 46 48  2  0  0  0  0
 47 49  2  0  0  0  0
 48 49  1  0  0  0  0
 50 51  1  0  0  0  0
 52 51  1  0  0  0  0
 52 53  1  0  0  0  0
 54 53  1  0  0  0  0
 55 54  1  0  0  0  0
M  END
>  <REMARK>
 VINA RESULT:    -5.660      0.000      0.000
 INTER + INTRA:         -18.056
 INTER:                 -11.795
 INTRA:                  -6.261
 UNBOUND:                -6.771
 SMILES CC(=O)N[C@@H]1[C@@H](O)C[C@](O)(C(=O)O)O[C@H]1C(O)[C@H](O)CNC(=O)OCc1cn(CC(O)CCc2ccccc2)nn1
 SMILES IDX 24 1 22 2 21 3 23 5 20 6 18 7 16 8 15 9 9 10 8 11 14 12 6 13
 SMILES IDX 5 14 10 15 11 17 12 18 13 19 7 21 4 23 2 24 1 26 3 27 17 28
 SMILES IDX 19 30 25 32 26 33 27 34 41 35 28 36 40 37 29 38 30 39 31 40
 SMILES IDX 32 42 33 43 34 44 35 45 39 46 36 47 38 48 37 49
 H PARENT 21 4 10 16 13 20 7 22 4 25 17 29 19 31 31 41
 Flexibility Score: inf
  4 active torsions:
  status: ('A' for Active; 'I' for Inactive)
    1  A    between atoms: CA   and  CB  
    2  A    between atoms: CB   and  CG  
    3  A    between atoms: CG   and  CD  
    4  A    between atoms: CD   and  CE  

>  <TORSDO>
F 20

>  <BEGIN_>
RES LYS A 131

$$$$
ligand_76_pose_0_2HRL.pdbqt
 OpenBabel07062320523D

  6  5  0  0  0  0  0  0  0  0999 V2000
   33.1930   34.6630    9.2900 C   0  0  0  0  0  0  0  0  0  0  0  0
   32.0600   35.3600   10.0340 C   0  0  0  0  0  0  0  0  0  0  0  0
   32.5160   36.1130   11.2570 C   0  0  0  0  0  0  0  0  0  0  0  0
   31.3640   36.3000   12.2320 C   0  0  0  0  0  0  0  0  0  0  0  0
   31.0310   34.9900   12.9210 C   0  0  0  0  0  0  0  0  0  0  0  0
   29.8320   35.1330   13.7940 N   0  0  0  0  0  0  0  0  0  0  0  0
  1  2  1  0  0  0  0
  2  3  1  0  0  0  0
  3  4  1  0  0  0  0
  4  5  1  0  0  0  0
  5  6  1  0  0  0  0
M  END
>  <EGIN_R>
ES LYS A 135

>  <REMARK>
  4 active torsions:
  status: ('A' for Active; 'I' for Inactive)
    5  A    between atoms: CA   and  CB  
    6  A    between atoms: CB   and  CG  
    7  A    between atoms: CG   and  CD  
    8  A    between atoms: CD   and  CE  

$$$$
ligand_77_pose_0_2HRL.pdbqt
 OpenBabel07062320523D

 61 63  0  0  1  0  0  0  0  0999 V2000
   29.6180   26.9890   20.3460 N   0  0  0  0  0  0  0  0  0  0  0  0
   28.3180   27.5340   20.4660 C   0  0  0  0  0  0  0  0  0  0  0  0
   27.9740   28.0920   21.5140 O   0  0  0  0  0  0  0  0  0  0  0  0
   29.8280   26.5300   19.4060 H   0  0  0  0  0  0  0  0  0  0  0  0
   30.6320   27.0160   21.3750 C   0  0  0  0  0  0  0  0  0  0  0  0
   31.8220   27.7610   20.8760 C   0  0  2  0  0  0  0  0  0  0  0  0
   31.6330   29.2630   20.9030 C   0  0  1  0  0  0  0  0  0  0  0  0
   32.8620   30.0380   21.2370 C   0  0  2  0  0  0  0  0  0  0  0  0
   34.5000   30.0540   22.8760 C   0  0  2  0  0  0  0  0  0  0  0  0
   34.9560   31.3900   22.3780 C   0  0  0  0  0  0  0  0  0  0  0  0
   33.8090   29.3190   21.9290 O   0  0  0  0  0  0  0  0  0  0  0  0
   33.9170   32.1720   21.6570 C   0  0  1  0  0  0  0  0  0  0  0  0
   32.5860   31.4130   21.7910 C   0  0  1  0  0  0  0  0  0  0  0  0
   33.7630   30.1750   24.0770 O   0  0  0  0  0  0  0  0  0  0  0  0
   33.0030   30.7600   23.9130 H   0  0  0  0  0  0  0  0  0  0  0  0
   35.7180   29.2690   23.2340 C   0  0  0  0  0  0  0  0  0  0  0  0
   35.6080   28.0120   23.3800 O   0  0  0  0  0  0  0  0  0  0  0  0
   36.9610   29.8190   23.4150 O   0  0  0  0  0  0  0  0  0  0  0  0
   37.1640   30.3740   24.2450 H   0  0  0  0  0  0  0  0  0  0  0  0
   33.7850   33.4760   22.1070 O   0  0  0  0  0  0  0  0  0  0  0  0
   33.9100   33.4940   23.1090 H   0  0  0  0  0  0  0  0  0  0  0  0
   31.6090   32.0530   20.9190 N   0  0  0  0  0  0  0  0  0  0  0  0
   30.4860   32.7150   21.4740 C   0  0  0  0  0  0  0  0  0  0  0  0
   31.6990   32.0440   19.8810 H   0  0  0  0  0  0  0  0  0  0  0  0
   29.4570   33.3820   20.6010 C   0  0  0  0  0  0  0  0  0  0  0  0
   30.2830   32.7840   22.7050 O   0  0  0  0  0  0  0  0  0  0  0  0
   31.1210   29.6020   19.6450 O   0  0  0  0  0  0  0  0  0  0  0  0
   30.7800   30.5200   19.6960 H   0  0  0  0  0  0  0  0  0  0  0  0
   32.2280   27.2860   19.6370 O   0  0  0  0  0  0  0  0  0  0  0  0
   32.4400   26.3220   19.7230 H   0  0  0  0  0  0  0  0  0  0  0  0
   27.3790   27.4760   19.4410 O   0  0  0  0  0  0  0  0  0  0  0  0
   26.6950   28.6320   18.9810 C   0  0  0  0  0  0  0  0  0  0  0  0
   27.4060   29.2790   17.8420 C   0  0  0  0  0  0  0  0  0  0  0  0
   28.1440   30.4260   17.9490 C   0  0  0  0  0  0  0  0  0  0  0  0
   27.4610   28.8900   16.5610 N   0  0  0  0  0  0  0  0  0  0  0  0
   28.6370   30.7140   16.7230 N   0  0  0  0  0  0  0  0  0  0  0  0
   28.2060   29.7740   15.9290 N   0  0  0  0  0  0  0  0  0  0  0  0
   29.4550   31.8420   16.4570 C   0  0  0  0  0  0  0  0  0  0  0  0
   30.7450   31.6730   16.0040 C   0  0  0  0  0  0  0  0  0  0  0  0
   29.0100   33.1340   16.6340 C   0  0  0  0  0  0  0  0  0  0  0  0
   31.5760   32.7460   15.7310 C   0  0  0  0  0  0  0  0  0  0  0  0
   29.8410   34.2260   16.3620 C   0  0  0  0  0  0  0  0  0  0  0  0
   31.1240   34.0310   15.9110 C   0  0  0  0  0  0  0  0  0  0  0  0
   32.1630   35.3700   15.5710 S   0  0  0  0  0  0  0  0  0  0  0  0
   31.3480   36.5850   15.2850 O   0  0  0  0  0  0  0  0  0  0  0  0
   33.0540   35.1230   14.3890 O   0  0  0  0  0  0  0  0  0  0  0  0
   33.2020   35.6100   16.9720 C   0  0  0  0  0  0  0  0  0  0  0  0
   32.6990   35.3500   18.2190 C   0  0  0  0  0  0  0  0  0  0  0  0
   34.5140   36.0530   16.8360 C   0  0  0  0  0  0  0  0  0  0  0  0
   33.4830   35.5250   19.3520 C   0  0  0  0  0  0  0  0  0  0  0  0
   35.3230   36.2380   17.9460 C   0  0  0  0  0  0  0  0  0  0  0  0
   34.7810   35.9680   19.1800 C   0  0  0  0  0  0  0  0  0  0  0  0
   35.5890   36.1500   20.3240 N   0  0  0  0  0  0  0  0  0  0  0  0
   36.1400   37.0160   20.4440 H   0  0  0  0  0  0  0  0  0  0  0  0
   35.6260   35.4070   21.0430 H   0  0  0  0  0  0  0  0  0  0  0  0
   29.8670   25.5550   16.9770 C   0  0  0  0  0  0  0  0  0  0  0  0
   28.3450   25.7220   17.0260 C   0  0  0  0  0  0  0  0  0  0  0  0
   27.6010   24.4030   16.8870 C   0  0  0  0  0  0  0  0  0  0  0  0
   26.6260   24.1820   18.0100 C   0  0  0  0  0  0  0  0  0  0  0  0
   25.5970   23.1360   17.5920 C   0  0  0  0  0  0  0  0  0  0  0  0
   24.2700   23.4550   18.1690 N   0  0  0  0  0  0  0  0  0  0  0  0
  1  2  1  0  0  0  0
  1  5  1  0  0  0  0
  2  3  2  0  0  0  0
  4  1  1  0  0  0  0
  6  7  1  0  0  0  0
  6  5  1  6  0  0  0
  7 27  1  6  0  0  0
  8  7  1  1  0  0  0
  8 13  1  0  0  0  0
  8 11  1  0  0  0  0
  9 16  1  1  0  0  0
  9 14  1  0  0  0  0
 10  9  1  0  0  0  0
 11  9  1  0  0  0  0
 12 13  1  0  0  0  0
 12 20  1  1  0  0  0
 12 10  1  0  0  0  0
 13 22  1  6  0  0  0
 15 14  1  0  0  0  0
 16 17  2  0  0  0  0
 16 18  1  0  0  0  0
 18 19  1  0  0  0  0
 20 21  1  0  0  0  0
 22 23  1  0  0  0  0
 23 26  2  0  0  0  0
 24 22  1  0  0  0  0
 25 23  1  0  0  0  0
 27 28  1  0  0  0  0
 29 30  1  0  0  0  0
 29  6  1  0  0  0  0
 31  2  1  0  0  0  0
 32 31  1  0  0  0  0
 33 34  2  0  0  0  0
 33 32  1  0  0  0  0
 35 33  1  0  0  0  0
 36 34  1  0  0  0  0
 37 35  2  0  0  0  0
 37 36  1  0  0  0  0
 38 40  1  0  0  0  0
 38 36  1  0  0  0  0
 39 38  2  0  0  0  0
 41 43  2  0  0  0  0
 41 39  1  0  0  0  0
 42 40  2  0  0  0  0
 43 42  1  0  0  0  0
 44 43  1  0  0  0  0
 44 47  1  0  0  0  0
 45 44  2  0  0  0  0
 46 44  2  0  0  0  0
 47 48  1  0  0  0  0
 48 50  2  0  0  0  0
 49 47  2  0  0  0  0
 49 51  1  0  0  0  0
 51 52  2  0  0  0  0
 52 50  1  0  0  0  0
 52 53  1  0  0  0  0
 53 54  1  0  0  0  0
 53 55  1  0  0  0  0
 56 57  1  0  0  0  0
 58 57  1  0  0  0  0
 58 59  1  0  0  0  0
 60 59  1  0  0  0  0
 60 61  1  0  0  0  0
M  END
>  <REMARK>
 VINA RESULT:    -5.684      0.000      0.000
 INTER + INTRA:         -17.196
 INTER:                 -10.788
 INTRA:                  -6.408
 UNBOUND:                -6.527
 SMILES CC(=O)N[C@@H]1[C@@H](O)C[C@](O)(C(=O)O)O[C@H]1C(O)[C@H](O)CNC(=O)OCc1cn(-c2ccc(S(=O)(=O)c3ccc(N)cc3)cc2)nn1
 SMILES IDX 21 1 22 2 23 3 20 5 18 6 16 7 15 8 9 9 8 10 14 11 6 12 5 13
 SMILES IDX 10 14 11 16 12 17 13 18 7 20 4 22 2 23 1 25 3 26 17 27 19 29
 SMILES IDX 24 31 25 32 26 33 27 34 46 35 28 36 45 37 29 38 30 39 44 40
 SMILES IDX 31 41 43 42 32 43 33 44 34 45 35 46 36 47 37 48 42 49 38 50
 SMILES IDX 41 51 39 52 40 53
 H PARENT 21 4 10 15 13 19 7 21 4 24 17 28 19 30 40 54 40 55
 Flexibility Score: inf
  4 active torsions:
  status: ('A' for Active; 'I' for Inactive)
    1  A    between atoms: CA   and  CB  
    2  A    between atoms: CB   and  CG  
    3  A    between atoms: CG   and  CD  
    4  A    between atoms: CD   and  CE  

>  <TORSDO>
F 18

>  <BEGIN_>
RES LYS A 131

$$$$
ligand_77_pose_0_2HRL.pdbqt
 OpenBabel07062320523D

  6  5  0  0  0  0  0  0  0  0999 V2000
   33.1930   34.6630    9.2900 C   0  0  0  0  0  0  0  0  0  0  0  0
   32.0600   35.3600   10.0340 C   0  0  0  0  0  0  0  0  0  0  0  0
   30.8900   35.7150    9.1540 C   0  0  0  0  0  0  0  0  0  0  0  0
   30.3870   34.4880    8.4090 C   0  0  0  0  0  0  0  0  0  0  0  0
   28.8710   34.4780    8.3620 C   0  0  0  0  0  0  0  0  0  0  0  0
   28.3650   35.2450    7.1900 N   0  0  0  0  0  0  0  0  0  0  0  0
  1  2  1  0  0  0  0
  3  2  1  0  0  0  0
  4  3  1  0  0  0  0
  5  4  1  0  0  0  0
  6  5  1  0  0  0  0
M  END
>  <EGIN_R>
ES LYS A 135

>  <REMARK>
  4 active torsions:
  status: ('A' for Active; 'I' for Inactive)
    5  A    between atoms: CA   and  CB  
    6  A    between atoms: CB   and  CG  
    7  A    between atoms: CG   and  CD  
    8  A    between atoms: CD   and  CE  

$$$$
ligand_78_pose_0_2HRL.pdbqt
 OpenBabel07062320523D

 53 54  0  0  1  0  0  0  0  0999 V2000
   27.2280   29.7270   21.9450 N   0  0  0  0  0  0  0  0  0  0  0  0
   27.6500   30.6180   22.9970 C   0  0  0  0  0  0  0  0  0  0  0  0
   27.6640   30.2030   24.1640 O   0  0  0  0  0  0  0  0  0  0  0  0
   27.2510   30.1490   20.9970 H   0  0  0  0  0  0  0  0  0  0  0  0
   26.8250   28.3660   22.2510 C   0  0  0  0  0  0  0  0  0  0  0  0
   27.3110   27.3810   21.2420 C   0  0  2  0  0  0  0  0  0  0  0  0
   27.7250   27.9820   19.9420 C   0  0  2  0  0  0  0  0  0  0  0  0
   26.8220   27.7680   18.7820 C   0  0  2  0  0  0  0  0  0  0  0  0
   27.6070   29.6090   17.5720 C   0  0  2  0  0  0  0  0  0  0  0  0
   26.6040   30.4680   18.2700 C   0  0  0  0  0  0  0  0  0  0  0  0
   27.4000   28.2540   17.6110 O   0  0  0  0  0  0  0  0  0  0  0  0
   25.3780   29.8030   18.7610 C   0  0  1  0  0  0  0  0  0  0  0  0
   25.4460   28.3030   18.8170 C   0  0  1  0  0  0  0  0  0  0  0  0
   28.8960   29.8330   18.0600 O   0  0  0  0  0  0  0  0  0  0  0  0
   29.2420   29.1170   18.6170 H   0  0  0  0  0  0  0  0  0  0  0  0
   27.6290   29.9790   16.1330 C   0  0  0  0  0  0  0  0  0  0  0  0
   26.5760   30.3700   15.5860 O   0  0  0  0  0  0  0  0  0  0  0  0
   28.7750   29.9120   15.3500 O   0  0  0  0  0  0  0  0  0  0  0  0
   28.9190   30.5670   14.5680 H   0  0  0  0  0  0  0  0  0  0  0  0
   25.0320   30.3370   20.0000 O   0  0  0  0  0  0  0  0  0  0  0  0
   25.7930   30.4300   20.6020 H   0  0  0  0  0  0  0  0  0  0  0  0
   24.6920   27.6940   17.7160 N   0  0  0  0  0  0  0  0  0  0  0  0
   23.8150   26.6070   17.9240 C   0  0  0  0  0  0  0  0  0  0  0  0
   24.7970   28.0630   16.7510 H   0  0  0  0  0  0  0  0  0  0  0  0
   23.0390   25.9760   16.8140 C   0  0  0  0  0  0  0  0  0  0  0  0
   23.7020   26.1760   19.0980 O   0  0  0  0  0  0  0  0  0  0  0  0
   28.8790   27.1580   19.5780 O   0  0  0  0  0  0  0  0  0  0  0  0
   29.6580   27.6480   19.8940 H   0  0  0  0  0  0  0  0  0  0  0  0
   26.5500   26.2380   21.1020 O   0  0  0  0  0  0  0  0  0  0  0  0
   26.8870   25.4880   21.6510 H   0  0  0  0  0  0  0  0  0  0  0  0
   28.0370   31.9160   22.7240 O   0  0  0  0  0  0  0  0  0  0  0  0
   27.7300   32.5650   21.5030 C   0  0  0  0  0  0  0  0  0  0  0  0
   28.8430   32.4850   20.5470 C   0  0  0  0  0  0  0  0  0  0  0  0
   29.2570   33.3660   19.5880 C   0  0  0  0  0  0  0  0  0  0  0  0
   29.6950   31.4410   20.4650 N   0  0  0  0  0  0  0  0  0  0  0  0
   30.3350   32.8370   18.9580 N   0  0  0  0  0  0  0  0  0  0  0  0
   30.5780   31.6620   19.5150 N   0  0  0  0  0  0  0  0  0  0  0  0
   31.0520   33.4750   17.8850 C   0  0  0  0  0  0  0  0  0  0  0  0
   30.4750   32.8720   16.3050 S   0  0  0  0  0  0  0  0  0  0  0  0
   28.9730   33.0050   16.2810 O   0  0  0  0  0  0  0  0  0  0  0  0
   30.8600   31.4440   16.1980 O   0  0  0  0  0  0  0  0  0  0  0  0
   31.2020   33.8430   15.0380 C   0  0  0  0  0  0  0  0  0  0  0  0
   32.5140   34.2690   15.2160 C   0  0  0  0  0  0  0  0  0  0  0  0
   30.4850   34.1640   13.9110 C   0  0  0  0  0  0  0  0  0  0  0  0
   33.0820   35.0290   14.2220 C   0  0  0  0  0  0  0  0  0  0  0  0
   31.1010   34.9290   12.9440 C   0  0  0  0  0  0  0  0  0  0  0  0
   32.3940   35.3780   13.0640 C   0  0  0  0  0  0  0  0  0  0  0  0
   29.8670   25.5550   16.9770 C   0  0  0  0  0  0  0  0  0  0  0  0
   28.3450   25.7220   17.0260 C   0  0  0  0  0  0  0  0  0  0  0  0
   27.6000   24.4070   16.8530 C   0  0  0  0  0  0  0  0  0  0  0  0
   26.5690   24.1950   17.9260 C   0  0  0  0  0  0  0  0  0  0  0  0
   25.6850   23.0090   17.5560 C   0  0  0  0  0  0  0  0  0  0  0  0
   24.5860   22.8540   18.5370 N   0  0  0  0  0  0  0  0  0  0  0  0
  1  5  1  0  0  0  0
  1  2  1  0  0  0  0
  2  3  2  0  0  0  0
  4  1  1  0  0  0  0
  6  5  1  6  0  0  0
  7 27  1  6  0  0  0
  7  6  1  0  0  0  0
  8 13  1  0  0  0  0
  8  7  1  1  0  0  0
  9 16  1  6  0  0  0
  9 11  1  0  0  0  0
  9 14  1  0  0  0  0
  9 10  1  0  0  0  0
 10 12  1  0  0  0  0
 11  8  1  0  0  0  0
 12 13  1  0  0  0  0
 12 20  1  1  0  0  0
 13 22  1  6  0  0  0
 14 15  1  0  0  0  0
 17 16  2  0  0  0  0
 18 16  1  0  0  0  0
 19 18  1  0  0  0  0
 20 21  1  0  0  0  0
 22 23  1  0  0  0  0
 23 26  2  0  0  0  0
 24 22  1  0  0  0  0
 25 23  1  0  0  0  0
 27 28  1  0  0  0  0
 29  6  1  0  0  0  0
 29 30  1  0  0  0  0
 31  2  1  0  0  0  0
 32 31  1  0  0  0  0
 33 32  1  0  0  0  0
 34 33  2  0  0  0  0
 35 33  1  0  0  0  0
 36 37  1  0  0  0  0
 36 34  1  0  0  0  0
 37 35  2  0  0  0  0
 38 36  1  0  0  0  0
 39 38  1  0  0  0  0
 40 39  2  0  0  0  0
 41 39  2  0  0  0  0
 42 43  1  0  0  0  0
 42 39  1  0  0  0  0
 44 42  2  0  0  0  0
 45 43  2  0  0  0  0
 46 47  2  0  0  0  0
 46 44  1  0  0  0  0
 47 45  1  0  0  0  0
 48 49  1  0  0  0  0
 50 49  1  0  0  0  0
 50 51  1  0  0  0  0
 52 51  1  0  0  0  0
 52 53  1  0  0  0  0
M  END
>  <REMARK>
 VINA RESULT:    -5.862      0.000      0.000
 INTER + INTRA:         -15.842
 INTER:                  -8.852
 INTRA:                  -6.990
 UNBOUND:                -5.011
 SMILES CC(=O)N[C@@H]1[C@@H](O)C[C@](O)(C(=O)O)O[C@H]1C(O)[C@H](O)CNC(=O)OCc1cn(CS(=O)(=O)c2ccccc2)nn1
 SMILES IDX 21 1 22 2 23 3 20 5 18 6 16 7 15 8 9 9 8 10 14 11 6 12 5 13
 SMILES IDX 10 14 11 16 12 17 13 18 7 20 4 22 2 23 1 25 3 26 17 27 19 29
 SMILES IDX 24 31 25 32 26 33 27 34 40 35 28 36 39 37 29 38 30 39 31 40
 SMILES IDX 32 41 33 42 34 43 38 44 35 45 37 46 36 47
 H PARENT 21 4 10 15 13 19 7 21 4 24 17 28 19 30
 Flexibility Score: inf
  4 active torsions:
  status: ('A' for Active; 'I' for Inactive)
    1  A    between atoms: CA   and  CB  
    2  A    between atoms: CB   and  CG  
    3  A    between atoms: CG   and  CD  
    4  A    between atoms: CD   and  CE  

>  <TORSDO>
F 17

>  <BEGIN_>
RES LYS A 131

$$$$
ligand_78_pose_0_2HRL.pdbqt
 OpenBabel07062320523D

  6  5  0  0  0  0  0  0  0  0999 V2000
   33.1930   34.6630    9.2900 C   0  0  0  0  0  0  0  0  0  0  0  0
   32.0600   35.3600   10.0340 C   0  0  0  0  0  0  0  0  0  0  0  0
   30.8010   35.5030    9.2180 C   0  0  0  0  0  0  0  0  0  0  0  0
   30.1310   34.1520    9.0240 C   0  0  0  0  0  0  0  0  0  0  0  0
   28.6760   34.3300    8.6360 C   0  0  0  0  0  0  0  0  0  0  0  0
   27.7720   33.7280    9.6560 N   0  0  0  0  0  0  0  0  0  0  0  0
  1  2  1  0  0  0  0
  3  2  1  0  0  0  0
  4  3  1  0  0  0  0
  5  4  1  0  0  0  0
  5  6  1  0  0  0  0
M  END
>  <EGIN_R>
ES LYS A 135

>  <REMARK>
  4 active torsions:
  status: ('A' for Active; 'I' for Inactive)
    5  A    between atoms: CA   and  CB  
    6  A    between atoms: CB   and  CG  
    7  A    between atoms: CG   and  CD  
    8  A    between atoms: CD   and  CE  

$$$$
ligand_79_pose_0_2HRL.pdbqt
 OpenBabel07062320523D

 58 60  0  0  1  0  0  0  0  0999 V2000
   25.4570   36.9930   11.2330 N   0  0  0  0  0  0  0  0  0  0  0  0
   25.1440   36.4000   12.4790 C   0  0  0  0  0  0  0  0  0  0  0  0
   24.0550   36.5960   13.0230 O   0  0  0  0  0  0  0  0  0  0  0  0
   26.4310   36.7490   10.8470 H   0  0  0  0  0  0  0  0  0  0  0  0
   24.6050   37.8650   10.4730 C   0  0  0  0  0  0  0  0  0  0  0  0
   24.3210   37.4430    9.0800 C   0  0  2  0  0  0  0  0  0  0  0  0
   25.3930   37.8630    8.0860 C   0  0  1  0  0  0  0  0  0  0  0  0
   26.0790   36.6700    7.4700 C   0  0  2  0  0  0  0  0  0  0  0  0
   27.4770   35.4760    8.8800 C   0  0  2  0  0  0  0  0  0  0  0  0
   28.5420   35.2500    7.8290 C   0  0  0  0  0  0  0  0  0  0  0  0
   26.2140   35.6090    8.3190 O   0  0  0  0  0  0  0  0  0  0  0  0
   28.1020   35.7620    6.4730 C   0  0  1  0  0  0  0  0  0  0  0  0
   27.3510   37.0650    6.7510 C   0  0  1  0  0  0  0  0  0  0  0  0
   27.7680   36.5550    9.7130 O   0  0  0  0  0  0  0  0  0  0  0  0
   27.9030   37.3900    9.1790 H   0  0  0  0  0  0  0  0  0  0  0  0
   27.4490   34.2620    9.7390 C   0  0  0  0  0  0  0  0  0  0  0  0
   28.2680   33.3160    9.5090 O   0  0  0  0  0  0  0  0  0  0  0  0
   26.5750   34.0940   10.7870 O   0  0  0  0  0  0  0  0  0  0  0  0
   26.7000   34.5330   11.6910 H   0  0  0  0  0  0  0  0  0  0  0  0
   29.1570   35.9600    5.6150 O   0  0  0  0  0  0  0  0  0  0  0  0
   28.7790   36.2190    4.7150 H   0  0  0  0  0  0  0  0  0  0  0  0
   27.0270   37.7580    5.5340 N   0  0  0  0  0  0  0  0  0  0  0  0
   27.6020   39.0370    5.2080 C   0  0  0  0  0  0  0  0  0  0  0  0
   26.3600   37.3830    4.8150 H   0  0  0  0  0  0  0  0  0  0  0  0
   27.2990   39.7750    3.9820 C   0  0  0  0  0  0  0  0  0  0  0  0
   28.4150   39.5160    6.0630 O   0  0  0  0  0  0  0  0  0  0  0  0
   24.7190   38.5790    7.0920 O   0  0  0  0  0  0  0  0  0  0  0  0
   23.7600   38.6540    7.2610 H   0  0  0  0  0  0  0  0  0  0  0  0
   23.1340   37.9900    8.6300 O   0  0  0  0  0  0  0  0  0  0  0  0
   22.7220   37.3400    8.0040 H   0  0  0  0  0  0  0  0  0  0  0  0
   26.0450   35.5700   13.1500 O   0  0  0  0  0  0  0  0  0  0  0  0
   26.9600   36.0950   14.0660 C   0  0  0  0  0  0  0  0  0  0  0  0
   28.3390   35.6550   13.7320 C   0  0  0  0  0  0  0  0  0  0  0  0
   29.5110   36.3140   14.0710 C   0  0  0  0  0  0  0  0  0  0  0  0
   28.7470   34.5620   13.0550 N   0  0  0  0  0  0  0  0  0  0  0  0
   30.5650   35.6180   13.6000 N   0  0  0  0  0  0  0  0  0  0  0  0
   30.0660   34.5590   12.9880 N   0  0  0  0  0  0  0  0  0  0  0  0
   31.9860   35.9860   13.7520 C   0  0  0  0  0  0  0  0  0  0  0  0
   32.5930   36.1580   12.4020 C   0  0  0  0  0  0  0  0  0  0  0  0
   31.9310   37.3310   14.5010 C   0  0  0  0  0  0  0  0  0  0  0  0
   32.6030   34.9920   14.6280 C   0  0  0  0  0  0  0  0  0  0  0  0
   33.6480   34.3500   14.2610 O   0  0  0  0  0  0  0  0  0  0  0  0
   32.1210   34.6300   15.9560 C   0  0  0  0  0  0  0  0  0  0  0  0
   32.2580   35.4190   17.0970 C   0  0  0  0  0  0  0  0  0  0  0  0
   31.4900   33.4570   16.2800 C   0  0  0  0  0  0  0  0  0  0  0  0
   31.7170   34.7270   18.0960 N   0  0  0  0  0  0  0  0  0  0  0  0
   31.2430   33.5430   17.6540 C   0  0  0  0  0  0  0  0  0  0  0  0
   31.0880   32.3280   15.5720 C   0  0  0  0  0  0  0  0  0  0  0  0
   31.6590   35.0370   19.0770 H   0  0  0  0  0  0  0  0  0  0  0  0
   30.6000   32.4850   18.2670 C   0  0  0  0  0  0  0  0  0  0  0  0
   30.4560   31.3020   16.2100 C   0  0  0  0  0  0  0  0  0  0  0  0
   30.2120   31.3790   17.5500 C   0  0  0  0  0  0  0  0  0  0  0  0
   29.8670   25.5550   16.9770 C   0  0  0  0  0  0  0  0  0  0  0  0
   28.3450   25.7220   17.0260 C   0  0  0  0  0  0  0  0  0  0  0  0
   27.5990   24.4350   16.7110 C   0  0  0  0  0  0  0  0  0  0  0  0
   27.0280   23.7950   17.9460 C   0  0  0  0  0  0  0  0  0  0  0  0
   25.6230   24.3350   18.1960 C   0  0  0  0  0  0  0  0  0  0  0  0
   24.9020   24.5190   16.9150 N   0  0  0  0  0  0  0  0  0  0  0  0
  1  2  1  0  0  0  0
  2  3  2  0  0  0  0
  2 31  1  0  0  0  0
  4  1  1  0  0  0  0
  5  1  1  0  0  0  0
  6  5  1  1  0  0  0
  7 27  1  6  0  0  0
  7  6  1  0  0  0  0
  8  7  1  1  0  0  0
  8 11  1  0  0  0  0
  9 14  1  1  0  0  0
  9 16  1  0  0  0  0
 10  9  1  0  0  0  0
 11  9  1  0  0  0  0
 12 20  1  6  0  0  0
 12 13  1  0  0  0  0
 12 10  1  0  0  0  0
 13 22  1  6  0  0  0
 13  8  1  0  0  0  0
 15 14  1  0  0  0  0
 16 18  1  0  0  0  0
 17 16  2  0  0  0  0
 18 19  1  0  0  0  0
 21 20  1  0  0  0  0
 23 22  1  0  0  0  0
 23 26  2  0  0  0  0
 24 22  1  0  0  0  0
 25 23  1  0  0  0  0
 27 28  1  0  0  0  0
 29  6  1  0  0  0  0
 30 29  1  0  0  0  0
 31 32  1  0  0  0  0
 33 32  1  0  0  0  0
 33 34  2  0  0  0  0
 35 33  1  0  0  0  0
 36 38  1  0  0  0  0
 36 34  1  0  0  0  0
 37 35  2  0  0  0  0
 37 36  1  0  0  0  0
 38 40  1  0  0  0  0
 38 41  1  0  0  0  0
 39 38  1  0  0  0  0
 41 43  1  0  0  0  0
 42 41  2  0  0  0  0
 43 45  1  0  0  0  0
 43 44  2  0  0  0  0
 44 46  1  0  0  0  0
 45 47  2  0  0  0  0
 46 49  1  0  0  0  0
 47 46  1  0  0  0  0
 47 50  1  0  0  0  0
 48 51  2  0  0  0  0
 48 45  1  0  0  0  0
 51 52  1  0  0  0  0
 52 50  2  0  0  0  0
 53 54  1  0  0  0  0
 55 54  1  0  0  0  0
 55 56  1  0  0  0  0
 56 57  1  0  0  0  0
 58 57  1  0  0  0  0
M  END
>  <REMARK>
 VINA RESULT:    -6.706      0.000      0.000
 INTER + INTRA:         -17.167
 INTER:                 -12.138
 INTRA:                  -5.029
 UNBOUND:                -4.777
 SMILES CC(=O)N[C@@H]1[C@@H](O)C[C@](O)(C(=O)O)O[C@H]1C(O)[C@H](O)CNC(=O)OCc1cn(C(C)(C)C(=O)c2c[nH]c3ccccc23)nn1
 SMILES IDX 21 1 22 2 23 3 20 5 18 6 16 7 15 8 9 9 8 10 14 11 6 12 5 13
 SMILES IDX 10 14 11 16 12 17 13 18 7 20 4 22 2 23 1 25 3 26 17 27 19 29
 SMILES IDX 24 31 25 32 26 33 27 34 44 35 28 36 43 37 29 38 30 39 31 40
 SMILES IDX 32 41 33 42 34 43 35 44 42 45 36 46 37 47 41 48 38 50 40 51
 SMILES IDX 39 52
 H PARENT 21 4 10 15 13 19 7 21 4 24 17 28 19 30 36 49
 Flexibility Score: inf
  4 active torsions:
  status: ('A' for Active; 'I' for Inactive)
    1  A    between atoms: CA   and  CB  
    2  A    between atoms: CB   and  CG  
    3  A    between atoms: CG   and  CD  
    4  A    between atoms: CD   and  CE  

>  <TORSDO>
F 17

>  <BEGIN_>
RES LYS A 131

$$$$
ligand_79_pose_0_2HRL.pdbqt
 OpenBabel07062320523D

  6  5  0  0  0  0  0  0  0  0999 V2000
   33.1930   34.6630    9.2900 C   0  0  0  0  0  0  0  0  0  0  0  0
   32.0600   35.3600   10.0340 C   0  0  0  0  0  0  0  0  0  0  0  0
   31.1130   36.1050    9.1290 C   0  0  0  0  0  0  0  0  0  0  0  0
   31.0540   37.5770    9.5090 C   0  0  0  0  0  0  0  0  0  0  0  0
   30.7260   38.4270    8.2970 C   0  0  0  0  0  0  0  0  0  0  0  0
   31.7190   39.5240    8.1270 N   0  0  0  0  0  0  0  0  0  0  0  0
  1  2  1  0  0  0  0
  3  4  1  0  0  0  0
  3  2  1  0  0  0  0
  5  4  1  0  0  0  0
  6  5  1  0  0  0  0
M  END
>  <EGIN_R>
ES LYS A 135

>  <REMARK>
  4 active torsions:
  status: ('A' for Active; 'I' for Inactive)
    5  A    between atoms: CA   and  CB  
    6  A    between atoms: CB   and  CG  
    7  A    between atoms: CG   and  CD  
    8  A    between atoms: CD   and  CE  

$$$$
ligand_7_pose_0_2HRL.pdbqt
 OpenBabel07062320523D

 52 53  0  0  1  0  0  0  0  0999 V2000
   26.9760   30.5160   20.5160 C   0  0  0  0  0  0  0  0  0  0  0  0
   26.7960   29.3030   21.3540 C   0  0  2  0  0  0  0  0  0  0  0  0
   27.5290   29.3040   22.6570 C   0  0  1  0  0  0  0  0  0  0  0  0
   28.7240   28.4310   22.7360 C   0  0  2  0  0  0  0  0  0  0  0  0
   30.3330   27.6150   21.2470 C   0  0  2  0  0  0  0  0  0  0  0  0
   30.7750   26.5900   22.2520 C   0  0  0  0  0  0  0  0  0  0  0  0
   29.6500   28.6750   21.7650 O   0  0  0  0  0  0  0  0  0  0  0  0
   29.7860   26.3460   23.3400 C   0  0  1  0  0  0  0  0  0  0  0  0
   28.4420   26.9700   22.9210 C   0  0  1  0  0  0  0  0  0  0  0  0
   29.5730   26.9630   20.2800 O   0  0  0  0  0  0  0  0  0  0  0  0
   28.6120   27.0500   20.5430 H   0  0  0  0  0  0  0  0  0  0  0  0
   31.5650   28.1400   20.6000 C   0  0  0  0  0  0  0  0  0  0  0  0
   32.0180   29.2590   20.9120 O   0  0  0  0  0  0  0  0  0  0  0  0
   32.2390   27.3900   19.6280 O   0  0  0  0  0  0  0  0  0  0  0  0
   32.3250   27.7840   18.6800 H   0  0  0  0  0  0  0  0  0  0  0  0
   29.6440   25.0210   23.7020 O   0  0  0  0  0  0  0  0  0  0  0  0
   29.3790   24.5150   22.8770 H   0  0  0  0  0  0  0  0  0  0  0  0
   27.5570   26.7230   24.0290 N   0  0  0  0  0  0  0  0  0  0  0  0
   26.2720   26.1820   23.7590 C   0  0  0  0  0  0  0  0  0  0  0  0
   27.8260   26.9250   25.0240 H   0  0  0  0  0  0  0  0  0  0  0  0
   25.2840   25.8930   24.8310 C   0  0  0  0  0  0  0  0  0  0  0  0
   25.9240   25.9290   22.5780 O   0  0  0  0  0  0  0  0  0  0  0  0
   27.8930   30.6180   22.9420 O   0  0  0  0  0  0  0  0  0  0  0  0
   28.7550   30.5940   23.4270 H   0  0  0  0  0  0  0  0  0  0  0  0
   27.0150   28.1380   20.6170 O   0  0  0  0  0  0  0  0  0  0  0  0
   27.9780   27.9290   20.5300 H   0  0  0  0  0  0  0  0  0  0  0  0
   28.3610   30.7750   20.1800 N   0  0  0  0  0  0  0  0  0  0  0  0
   28.8990   30.5630   18.8790 C   0  0  0  0  0  0  0  0  0  0  0  0
   29.0600   31.1420   20.8930 H   0  0  0  0  0  0  0  0  0  0  0  0
   28.1730   30.1350   17.9630 O   0  0  0  0  0  0  0  0  0  0  0  0
   30.2420   30.8280   18.6020 O   0  0  0  0  0  0  0  0  0  0  0  0
   30.6810   32.1940   18.5240 C   0  0  0  0  0  0  0  0  0  0  0  0
   30.7710   32.5710   17.0910 C   0  0  0  0  0  0  0  0  0  0  0  0
   30.8540   33.8640   16.6030 C   0  0  0  0  0  0  0  0  0  0  0  0
   30.7910   31.7810   16.0260 N   0  0  0  0  0  0  0  0  0  0  0  0
   30.9210   33.8310   15.2700 N   0  0  0  0  0  0  0  0  0  0  0  0
   30.8800   32.5250   14.9600 N   0  0  0  0  0  0  0  0  0  0  0  0
   31.0170   34.8940   14.3310 C   0  0  0  0  0  0  0  0  0  0  0  0
   32.2500   35.3860   13.9630 C   0  0  0  0  0  0  0  0  0  0  0  0
   29.8930   35.4680   13.7580 C   0  0  0  0  0  0  0  0  0  0  0  0
   33.4660   34.7900   14.5590 C   0  0  0  0  0  0  0  0  0  0  0  0
   32.3400   36.4340   13.0380 C   0  0  0  0  0  0  0  0  0  0  0  0
   29.9930   36.5010   12.8460 C   0  0  0  0  0  0  0  0  0  0  0  0
   28.5550   34.9160   14.1730 C   0  0  0  0  0  0  0  0  0  0  0  0
   31.2200   37.0030   12.4700 C   0  0  0  0  0  0  0  0  0  0  0  0
   31.3430   38.1190   11.4840 C   0  0  0  0  0  0  0  0  0  0  0  0
   29.8670   25.5550   16.9770 C   0  0  0  0  0  0  0  0  0  0  0  0
   28.3450   25.7220   17.0260 C   0  0  0  0  0  0  0  0  0  0  0  0
   27.5990   24.4320   16.7220 C   0  0  0  0  0  0  0  0  0  0  0  0
   26.9710   23.8370   17.9510 C   0  0  0  0  0  0  0  0  0  0  0  0
   25.5760   23.3210   17.6120 C   0  0  0  0  0  0  0  0  0  0  0  0
   24.7960   24.3640   16.9050 N   0  0  0  0  0  0  0  0  0  0  0  0
  2  1  1  6  0  0  0
  2  3  1  0  0  0  0
  3 23  1  6  0  0  0
  4  3  1  6  0  0  0
  4  9  1  0  0  0  0
  5 10  1  6  0  0  0
  5  7  1  0  0  0  0
  5  6  1  0  0  0  0
  6  8  1  0  0  0  0
  7  4  1  0  0  0  0
  8 16  1  6  0  0  0
  9  8  1  0  0  0  0
  9 18  1  1  0  0  0
 10 11  1  0  0  0  0
 12 13  2  0  0  0  0
 12  5  1  0  0  0  0
 14 12  1  0  0  0  0
 15 14  1  0  0  0  0
 17 16  1  0  0  0  0
 18 20  1  0  0  0  0
 19 18  1  0  0  0  0
 19 21  1  0  0  0  0
 22 19  2  0  0  0  0
 23 24  1  0  0  0  0
 25  2  1  0  0  0  0
 26 25  1  0  0  0  0
 27  1  1  0  0  0  0
 27 29  1  0  0  0  0
 28 27  1  0  0  0  0
 30 28  2  0  0  0  0
 31 28  1  0  0  0  0
 32 31  1  0  0  0  0
 33 32  1  0  0  0  0
 34 33  2  0  0  0  0
 35 33  1  0  0  0  0
 36 34  1  0  0  0  0
 37 36  1  0  0  0  0
 37 35  2  0  0  0  0
 38 36  1  0  0  0  0
 39 38  1  0  0  0  0
 39 41  1  0  0  0  0
 40 44  1  0  0  0  0
 40 38  2  0  0  0  0
 42 39  2  0  0  0  0
 43 40  1  0  0  0  0
 45 43  2  0  0  0  0
 45 42  1  0  0  0  0
 46 45  1  0  0  0  0
 47 48  1  0  0  0  0
 49 48  1  0  0  0  0
 49 50  1  0  0  0  0
 51 50  1  0  0  0  0
 52 51  1  0  0  0  0
M  END
>  <REMARK>
 VINA RESULT:    -5.145      0.000      0.000
 INTER + INTRA:         -14.822
 INTER:                  -9.343
 INTRA:                  -5.479
 UNBOUND:                -5.917
 SMILES CC(=O)N[C@@H]1[C@@H](O)C[C@](O)(C(=O)O)O[C@H]1C(O)[C@H](O)CNC(=O)OCc1cn(-c2c(C)cc(C)cc2C)nn1
 SMILES IDX 20 1 18 2 16 3 15 4 9 5 8 6 14 7 6 8 5 9 10 10 11 12 12 13
 SMILES IDX 13 14 7 16 4 18 2 19 1 21 3 22 17 23 19 25 21 27 22 28 23 30
 SMILES IDX 24 31 25 32 26 33 27 34 39 35 28 36 38 37 29 38 30 39 36 40
 SMILES IDX 31 41 32 42 35 43 37 44 33 45 34 46
 H PARENT 10 11 13 15 7 17 4 20 17 24 19 26 21 29
 Flexibility Score: inf
  4 active torsions:
  status: ('A' for Active; 'I' for Inactive)
    1  A    between atoms: CA   and  CB  
    2  A    between atoms: CB   and  CG  
    3  A    between atoms: CG   and  CD  
    4  A    between atoms: CD   and  CE  

>  <TORSDO>
F 15

>  <BEGIN_>
RES LYS A 131

$$$$
ligand_7_pose_0_2HRL.pdbqt
 OpenBabel07062320523D

  6  5  0  0  0  0  0  0  0  0999 V2000
   33.1930   34.6630    9.2900 C   0  0  0  0  0  0  0  0  0  0  0  0
   32.0600   35.3600   10.0340 C   0  0  0  0  0  0  0  0  0  0  0  0
   30.7080   34.7390    9.7920 C   0  0  0  0  0  0  0  0  0  0  0  0
   30.4010   34.6880    8.3030 C   0  0  0  0  0  0  0  0  0  0  0  0
   29.1610   35.5030    7.9870 C   0  0  0  0  0  0  0  0  0  0  0  0
   28.8910   35.5230    6.5230 N   0  0  0  0  0  0  0  0  0  0  0  0
  1  2  1  0  0  0  0
  3  2  1  0  0  0  0
  4  3  1  0  0  0  0
  5  4  1  0  0  0  0
  6  5  1  0  0  0  0
M  END
>  <EGIN_R>
ES LYS A 135

>  <REMARK>
  4 active torsions:
  status: ('A' for Active; 'I' for Inactive)
    5  A    between atoms: CA   and  CB  
    6  A    between atoms: CB   and  CG  
    7  A    between atoms: CG   and  CD  
    8  A    between atoms: CD   and  CE  

$$$$
ligand_80_pose_0_2HRL.pdbqt
 OpenBabel07062320523D

 56 54  0  0  1  0  0  0  0  0999 V2000
   28.5750   35.4730   12.5700 O   0  0  0  0  0  0  0  0  0  0  0  0
   29.8440   35.9480   12.7950 C   0  0  0  0  0  0  0  0  0  0  0  0
   30.9510   35.0370   12.8630 N   0  0  0  0  0  0  0  0  0  0  0  0
   30.7220   34.0240   12.7300 H   0  0  0  0  0  0  0  0  0  0  0  0
   30.0860   37.1720   12.9480 O   0  0  0  0  0  0  0  0  0  0  0  0
   32.3070   35.4950   13.1010 C   0  0  0  0  0  0  0  0  0  0  0  0
   32.9790   34.5230   14.0400 C   0  0  2  0  0  0  0  0  0  0  0  0
   33.1290   35.0780   15.4400 C   0  0  2  0  0  0  0  0  0  0  0  0
   32.0390   34.5120   16.3630 C   0  0  2  0  0  0  0  0  0  0  0  0
   30.1290   33.1840   16.0610 C   0  0  2  0  0  0  0  0  0  0  0  0
   29.5330   33.9690   17.1870 C   0  0  0  0  0  0  0  0  0  0  0  0
   31.3870   33.5600   15.6780 O   0  0  0  0  0  0  0  0  0  0  0  0
   29.7550   35.4340   16.8470 C   0  0  1  0  0  0  0  0  0  0  0  0
   31.2430   35.6780   16.8480 C   0  0  1  0  0  0  0  0  0  0  0  0
   29.3120   33.3640   14.9250 O   0  0  0  0  0  0  0  0  0  0  0  0
   28.6700   32.6090   14.9480 H   0  0  0  0  0  0  0  0  0  0  0  0
   30.1570   31.7270   16.3410 C   0  0  0  0  0  0  0  0  0  0  0  0
   30.6760   31.3170   17.4010 O   0  0  0  0  0  0  0  0  0  0  0  0
   29.6220   30.7900   15.4600 O   0  0  0  0  0  0  0  0  0  0  0  0
   29.5900   31.0670   14.4680 H   0  0  0  0  0  0  0  0  0  0  0  0
   29.2710   35.6350   15.5590 O   0  0  0  0  0  0  0  0  0  0  0  0
   28.8930   36.5460   15.5210 H   0  0  0  0  0  0  0  0  0  0  0  0
   31.6260   35.9350   18.2260 N   0  0  0  0  0  0  0  0  0  0  0  0
   32.1380   37.1790   18.6780 C   0  0  0  0  0  0  0  0  0  0  0  0
   31.5180   35.1510   18.9390 H   0  0  0  0  0  0  0  0  0  0  0  0
   32.4950   37.3210   20.1100 C   0  0  0  0  0  0  0  0  0  0  0  0
   32.2700   38.1130   17.8430 O   0  0  0  0  0  0  0  0  0  0  0  0
   32.9290   36.4590   15.3390 O   0  0  0  0  0  0  0  0  0  0  0  0
   33.5850   36.9860   15.8450 H   0  0  0  0  0  0  0  0  0  0  0  0
   34.2070   34.1040   13.5410 O   0  0  0  0  0  0  0  0  0  0  0  0
   34.4840   34.6040   12.7450 H   0  0  0  0  0  0  0  0  0  0  0  0
   27.5580   36.2940   12.0200 C   0  0  0  0  0  0  0  0  0  0  0  0
   26.2180   35.6800   12.1950 C   0  0  0  0  0  0  0  0  0  0  0  0
   25.7320   35.1740   13.4060 C   0  0  0  0  0  0  0  0  0  0  0  0
   25.2280   35.4740   11.3080 N   0  0  0  0  0  0  0  0  0  0  0  0
   24.4940   34.6900   13.2090 N   0  0  0  0  0  0  0  0  0  0  0  0
   24.2250   34.8870   11.9370 N   0  0  0  0  0  0  0  0  0  0  0  0
   23.6380   34.0690   14.1950 *   0  0  0  0  0  0  0  0  0  0  0  0
   22.2450   33.9210   13.6880 C   0  0  0  0  0  0  0  0  0  0  0  0
   21.5970   32.8820   12.9780 N   0  0  0  0  0  0  0  0  0  0  0  0
   21.5340   34.9210   13.9550 O   0  0  0  0  0  0  0  0  0  0  0  0
   20.6940   33.0850   12.4990 H   0  0  0  0  0  0  0  0  0  0  0  0
   22.0410   31.5210   12.8260 C   0  0  0  0  0  0  0  0  0  0  0  0
   23.3180   31.0320   13.0310 C   0  0  0  0  0  0  0  0  0  0  0  0
   20.9970   30.7070   12.4340 C   0  0  0  0  0  0  0  0  0  0  0  0
   23.5410   29.7050   12.8350 C   0  0  0  0  0  0  0  0  0  0  0  0
   21.2250   29.3630   12.2370 C   0  0  0  0  0  0  0  0  0  0  0  0
   22.4970   28.8770   12.4410 C   0  0  0  0  0  0  0  0  0  0  0  0
   24.5130   31.8130   13.4520 C   0  0  0  0  0  0  0  0  0  0  0  0
   24.2200   32.7250   14.6310 *   0  0  0  0  0  0  0  0  0  0  0  0
   29.8670   25.5550   16.9770 C   0  0  0  0  0  0  0  0  0  0  0  0
   28.3450   25.7220   17.0260 C   0  0  0  0  0  0  0  0  0  0  0  0
   27.5990   24.4370   16.7010 C   0  0  0  0  0  0  0  0  0  0  0  0
   26.9820   23.8150   17.9230 C   0  0  0  0  0  0  0  0  0  0  0  0
   25.6580   23.1580   17.5460 C   0  0  0  0  0  0  0  0  0  0  0  0
   24.5840   23.5850   18.4750 N   0  0  0  0  0  0  0  0  0  0  0  0
  1  2  1  0  0  0  0
  2  3  1  0  0  0  0
  2  5  2  0  0  0  0
  3  6  1  0  0  0  0
  4  3  1  0  0  0  0
  7  6  1  6  0  0  0
  7  8  1  0  0  0  0
  8 28  1  6  0  0  0
  9  8  1  6  0  0  0
  9 14  1  0  0  0  0
 10 15  1  6  0  0  0
 10 17  1  0  0  0  0
 10 11  1  0  0  0  0
 12 10  1  0  0  0  0
 12  9  1  0  0  0  0
 13 21  1  6  0  0  0
 13 14  1  0  0  0  0
 13 11  1  0  0  0  0
 14 23  1  1  0  0  0
 15 16  1  0  0  0  0
 17 18  2  0  0  0  0
 19 17  1  0  0  0  0
 20 19  1  0  0  0  0
 22 21  1  0  0  0  0
 23 24  1  0  0  0  0
 23 25  1  0  0  0  0
 24 26  1  0  0  0  0
 27 24  2  0  0  0  0
 28 29  1  0  0  0  0
 30  7  1  0  0  0  0
 31 30  1  0  0  0  0
 32 33  1  0  0  0  0
 32  1  1  0  0  0  0
 33 34  2  0  0  0  0
 35 37  1  0  0  0  0
 35 33  1  0  0  0  0
 36 34  1  0  0  0  0
 37 36  2  0  0  0  0
 39 41  2  0  0  0  0
 40 39  1  0  0  0  0
 42 40  1  0  0  0  0
 43 40  1  0  0  0  0
 43 44  2  0  0  0  0
 44 49  1  0  0  0  0
 45 43  1  0  0  0  0
 46 44  1  0  0  0  0
 47 45  2  0  0  0  0
 47 48  1  0  0  0  0
 48 46  2  0  0  0  0
 51 52  1  0  0  0  0
 53 52  1  0  0  0  0
 53 54  1  0  0  0  0
 55 54  1  0  0  0  0
 55 56  1  0  0  0  0
M  END
>  <REMARK>
 VINA RESULT:    -9.402      0.000      0.000
 INTER + INTRA:         -13.917
 INTER:                  -9.141
 INTRA:                  -4.776
 UNBOUND:                 4.555
 SMILES CC(=O)N[C@@H]1[C@@H](O)C[C@](O)(C(=O)O)O[C@H]1C(O)[C@H](O)CNC(=O)OCc1cn(C2CCc3ccccc3NC2=O)nn1
 SMILES IDX 24 1 22 2 21 3 23 5 20 6 18 7 16 8 15 9 9 10 8 11 14 12 6 13
 SMILES IDX 5 14 10 15 11 17 12 18 13 19 7 21 4 23 2 24 1 26 3 27 17 28
 SMILES IDX 19 30 25 32 26 33 27 34 42 35 28 36 41 37 29 38 39 40 38 41
 SMILES IDX 40 42 37 44 32 45 36 46 33 47 35 48 34 49 31 50 30 51
 H PARENT 21 4 10 16 13 20 7 22 4 25 17 29 19 31 38 43
 Flexibility Score: 80.00
  4 active torsions:
  status: ('A' for Active; 'I' for Inactive)
    1  A    between atoms: CA   and  CB  
    2  A    between atoms: CB   and  CG  
    3  A    between atoms: CG   and  CD  
    4  A    between atoms: CD   and  CE  

>  <TORSDO>
F 15

>  <BEGIN_>
RES LYS A 131

$$$$
ligand_80_pose_0_2HRL.pdbqt
 OpenBabel07062320523D

  6  5  0  0  0  0  0  0  0  0999 V2000
   33.1930   34.6630    9.2900 C   0  0  0  0  0  0  0  0  0  0  0  0
   32.0600   35.3600   10.0340 C   0  0  0  0  0  0  0  0  0  0  0  0
   30.7430   35.3180    9.3030 C   0  0  0  0  0  0  0  0  0  0  0  0
   30.1280   36.7060    9.2230 C   0  0  0  0  0  0  0  0  0  0  0  0
   28.8140   36.6650    8.4680 C   0  0  0  0  0  0  0  0  0  0  0  0
   28.1690   35.3270    8.5870 N   0  0  0  0  0  0  0  0  0  0  0  0
  1  2  1  0  0  0  0
  3  2  1  0  0  0  0
  4  3  1  0  0  0  0
  5  6  1  0  0  0  0
  5  4  1  0  0  0  0
M  END
>  <EGIN_R>
ES LYS A 135

>  <REMARK>
  4 active torsions:
  status: ('A' for Active; 'I' for Inactive)
    5  A    between atoms: CA   and  CB  
    6  A    between atoms: CB   and  CG  
    7  A    between atoms: CG   and  CD  
    8  A    between atoms: CD   and  CE  

$$$$
ligand_81_pose_0_2HRL.pdbqt
 OpenBabel07062320523D

 63 65  0  0  1  0  0  0  0  0999 V2000
   26.7090   36.9740   10.5180 O   0  0  0  0  0  0  0  0  0  0  0  0
   25.8810   36.8150    9.4290 C   0  0  0  0  0  0  0  0  0  0  0  0
   24.8930   37.8070    9.0770 N   0  0  0  0  0  0  0  0  0  0  0  0
   24.8640   38.6300    9.7110 H   0  0  0  0  0  0  0  0  0  0  0  0
   26.0050   35.7730    8.7370 O   0  0  0  0  0  0  0  0  0  0  0  0
   24.0510   37.5880    7.9240 C   0  0  0  0  0  0  0  0  0  0  0  0
   22.6490   38.0660    8.2780 C   0  0  2  0  0  0  0  0  0  0  0  0
   21.6910   37.0620    7.6830 C   0  0  2  0  0  0  0  0  0  0  0  0
   21.5890   35.7660    8.4280 C   0  0  2  0  0  0  0  0  0  0  0  0
   19.2820   35.5050    8.1130 C   0  0  2  0  0  0  0  0  0  0  0  0
   19.1070   36.0860    9.5060 C   0  0  0  0  0  0  0  0  0  0  0  0
   20.5490   35.0490    7.8860 O   0  0  0  0  0  0  0  0  0  0  0  0
   20.1550   35.4700   10.4100 C   0  0  1  0  0  0  0  0  0  0  0  0
   21.5620   35.8520    9.9100 C   0  0  1  0  0  0  0  0  0  0  0  0
   18.8970   36.5200    7.2280 O   0  0  0  0  0  0  0  0  0  0  0  0
   18.1250   37.0290    7.5600 H   0  0  0  0  0  0  0  0  0  0  0  0
   18.3580   34.3700    7.9060 C   0  0  0  0  0  0  0  0  0  0  0  0
   17.6910   33.9420    8.8670 O   0  0  0  0  0  0  0  0  0  0  0  0
   18.2350   33.7930    6.6700 O   0  0  0  0  0  0  0  0  0  0  0  0
   18.5230   32.8500    6.4410 H   0  0  0  0  0  0  0  0  0  0  0  0
   19.9690   35.8530   11.7190 O   0  0  0  0  0  0  0  0  0  0  0  0
   19.5500   35.1410   12.2470 H   0  0  0  0  0  0  0  0  0  0  0  0
   22.4530   34.8720   10.5460 N   0  0  0  0  0  0  0  0  0  0  0  0
   23.4120   35.3110   11.4900 C   0  0  0  0  0  0  0  0  0  0  0  0
   22.3920   33.8580   10.3160 H   0  0  0  0  0  0  0  0  0  0  0  0
   24.3500   34.3700   12.1750 C   0  0  0  0  0  0  0  0  0  0  0  0
   23.4560   36.5470   11.7440 O   0  0  0  0  0  0  0  0  0  0  0  0
   22.3310   36.7090    6.4490 O   0  0  0  0  0  0  0  0  0  0  0  0
   22.2600   35.7450    6.3040 H   0  0  0  0  0  0  0  0  0  0  0  0
   22.5310   39.3440    7.7550 O   0  0  0  0  0  0  0  0  0  0  0  0
   22.6670   40.0360    8.4370 H   0  0  0  0  0  0  0  0  0  0  0  0
   27.2480   38.1970   10.9680 C   0  0  0  0  0  0  0  0  0  0  0  0
   28.3320   37.9310   11.9670 C   0  0  0  0  0  0  0  0  0  0  0  0
   29.0570   36.7800   12.1440 C   0  0  0  0  0  0  0  0  0  0  0  0
   28.7980   38.7930   12.8970 N   0  0  0  0  0  0  0  0  0  0  0  0
   29.9490   36.9470   13.1670 N   0  0  0  0  0  0  0  0  0  0  0  0
   29.7480   38.1900   13.5870 N   0  0  0  0  0  0  0  0  0  0  0  0
   30.8600   35.9830   13.6630 C   0  0  0  0  0  0  0  0  0  0  0  0
   32.0440   35.7740   13.0710 N   0  0  0  0  0  0  0  0  0  0  0  0
   30.5340   35.1970   14.7750 C   0  0  0  0  0  0  0  0  0  0  0  0
   32.9090   34.8330   13.5270 C   0  0  0  0  0  0  0  0  0  0  0  0
   31.4010   34.2470   15.2340 C   0  0  0  0  0  0  0  0  0  0  0  0
   32.6100   34.0740   14.5860 N   0  0  0  0  0  0  0  0  0  0  0  0
   29.2170   35.3990   15.4140 C   0  0  0  0  0  0  0  0  0  0  0  0
   28.1090   34.5430   14.8690 C   0  0  0  0  0  0  0  0  0  0  0  0
   27.1210   34.3090   15.7840 O   0  0  0  0  0  0  0  0  0  0  0  0
   27.1710   33.0620   16.3640 C   0  0  0  0  0  0  0  0  0  0  0  0
   27.0550   33.1370   17.8720 C   0  0  0  0  0  0  0  0  0  0  0  0
   34.1480   34.6480   12.8710 N   0  0  0  0  0  0  0  0  0  0  0  0
   34.7030   33.7900   13.0380 H   0  0  0  0  0  0  0  0  0  0  0  0
   34.5330   35.3540   12.2160 H   0  0  0  0  0  0  0  0  0  0  0  0
   31.0740   33.3280   16.3070 C   0  0  0  0  0  0  0  0  0  0  0  0
   31.0650   33.5520   17.6340 C   0  0  0  0  0  0  0  0  0  0  0  0
   30.6940   32.0330   15.8880 C   0  0  0  0  0  0  0  0  0  0  0  0
   30.6940   32.5400   18.5400 C   0  0  0  0  0  0  0  0  0  0  0  0
   30.3320   31.0420   16.7570 C   0  0  0  0  0  0  0  0  0  0  0  0
   30.3270   31.2850   18.1200 C   0  0  0  0  0  0  0  0  0  0  0  0
   29.8670   25.5550   16.9770 C   0  0  0  0  0  0  0  0  0  0  0  0
   28.3450   25.7220   17.0260 C   0  0  0  0  0  0  0  0  0  0  0  0
   27.6000   24.4100   16.8320 C   0  0  0  0  0  0  0  0  0  0  0  0
   26.8110   24.0210   18.0510 C   0  0  0  0  0  0  0  0  0  0  0  0
   26.2960   25.2770   18.7460 C   0  0  0  0  0  0  0  0  0  0  0  0
   24.9170   25.0650   19.2450 N   0  0  0  0  0  0  0  0  0  0  0  0
  1 32  1  0  0  0  0
  2  1  1  0  0  0  0
  3  2  1  0  0  0  0
  3  4  1  0  0  0  0
  5  2  2  0  0  0  0
  6  3  1  0  0  0  0
  7  6  1  6  0  0  0
  8 28  1  6  0  0  0
  8  7  1  0  0  0  0
  9  8  1  6  0  0  0
  9 14  1  0  0  0  0
 10 15  1  6  0  0  0
 10 11  1  0  0  0  0
 11 13  1  0  0  0  0
 12 10  1  0  0  0  0
 12  9  1  0  0  0  0
 13 21  1  1  0  0  0
 14 13  1  0  0  0  0
 14 23  1  1  0  0  0
 15 16  1  0  0  0  0
 17 10  1  0  0  0  0
 17 18  2  0  0  0  0
 19 17  1  0  0  0  0
 20 19  1  0  0  0  0
 21 22  1  0  0  0  0
 23 24  1  0  0  0  0
 24 27  2  0  0  0  0
 24 26  1  0  0  0  0
 25 23  1  0  0  0  0
 29 28  1  0  0  0  0
 30  7  1  0  0  0  0
 30 31  1  0  0  0  0
 32 33  1  0  0  0  0
 33 34  2  0  0  0  0
 33 35  1  0  0  0  0
 34 36  1  0  0  0  0
 35 37  2  0  0  0  0
 36 37  1  0  0  0  0
 36 38  1  0  0  0  0
 38 40  2  0  0  0  0
 39 41  2  0  0  0  0
 39 38  1  0  0  0  0
 40 42  1  0  0  0  0
 40 44  1  0  0  0  0
 41 43  1  0  0  0  0
 42 52  1  0  0  0  0
 43 42  2  0  0  0  0
 45 44  1  0  0  0  0
 45 46  1  0  0  0  0
 46 47  1  0  0  0  0
 47 48  1  0  0  0  0
 49 50  1  0  0  0  0
 49 41  1  0  0  0  0
 51 49  1  0  0  0  0
 52 53  1  0  0  0  0
 53 55  2  0  0  0  0
 54 52  2  0  0  0  0
 54 56  1  0  0  0  0
 56 57  2  0  0  0  0
 57 55  1  0  0  0  0
 58 59  1  0  0  0  0
 60 59  1  0  0  0  0
 60 61  1  0  0  0  0
 61 62  1  0  0  0  0
 62 63  1  0  0  0  0
M  END
>  <REMARK>
 VINA RESULT:    -5.039      0.000      0.000
 INTER + INTRA:         -17.512
 INTER:                 -11.641
 INTRA:                  -5.871
 UNBOUND:                -7.171
 SMILES CCOCCc1c(-c2ccccc2)nc(N)nc1-n1cc(COC(=O)NC[C@@H](O)C(O)[C@@H]2O[C@@](O)(C(=O)O)C[C@H](O)[C@H]2NC(C)=O)nn1
 SMILES IDX 23 1 24 2 26 3 25 5 27 6 28 7 30 8 32 9 34 10 39 11 33 12
 SMILES IDX 40 13 42 14 35 15 36 17 37 18 38 19 41 21 43 23 44 24 45 26
 SMILES IDX 46 27 31 28 29 30 22 32 21 33 20 34 47 35 19 36 48 37 18 38
 SMILES IDX 17 39 6 40 15 41 7 42 14 43 5 44 4 45 3 46 2 47 1 48 16 49
 SMILES IDX 8 52 9 53 13 54 10 55 12 56 11 57
 H PARENT 26 4 35 16 38 20 41 22 43 25 31 29 29 31 16 50 16 51
 Flexibility Score: inf
  4 active torsions:
  status: ('A' for Active; 'I' for Inactive)
    1  A    between atoms: CA   and  CB  
    2  A    between atoms: CB   and  CG  
    3  A    between atoms: CG   and  CD  
    4  A    between atoms: CD   and  CE  

>  <TORSDO>
F 21

>  <BEGIN_>
RES LYS A 131

$$$$
ligand_81_pose_0_2HRL.pdbqt
 OpenBabel07062320523D

  6  5  0  0  0  0  0  0  0  0999 V2000
   33.1930   34.6630    9.2900 C   0  0  0  0  0  0  0  0  0  0  0  0
   32.0600   35.3600   10.0340 C   0  0  0  0  0  0  0  0  0  0  0  0
   30.7010   34.7740    9.7480 C   0  0  0  0  0  0  0  0  0  0  0  0
   30.5370   34.5010    8.2610 C   0  0  0  0  0  0  0  0  0  0  0  0
   29.3020   35.2000    7.7250 C   0  0  0  0  0  0  0  0  0  0  0  0
   29.3250   36.6530    8.0470 N   0  0  0  0  0  0  0  0  0  0  0  0
  1  2  1  0  0  0  0
  3  2  1  0  0  0  0
  4  3  1  0  0  0  0
  5  6  1  0  0  0  0
  5  4  1  0  0  0  0
M  END
>  <EGIN_R>
ES LYS A 135

>  <REMARK>
  4 active torsions:
  status: ('A' for Active; 'I' for Inactive)
    5  A    between atoms: CA   and  CB  
    6  A    between atoms: CB   and  CG  
    7  A    between atoms: CG   and  CD  
    8  A    between atoms: CD   and  CE  

$$$$
ligand_82_pose_0_2HRL.pdbqt
 OpenBabel07062320523D

 53 55  0  0  1  0  0  0  0  0999 V2000
   26.0490   29.0570   19.3380 N   0  0  0  0  0  0  0  0  0  0  0  0
   25.1720   29.1960   18.2070 C   0  0  0  0  0  0  0  0  0  0  0  0
   24.0950   28.5460   18.2000 O   0  0  0  0  0  0  0  0  0  0  0  0
   26.9420   29.5940   19.3490 H   0  0  0  0  0  0  0  0  0  0  0  0
   25.6800   28.1830   20.4300 C   0  0  0  0  0  0  0  0  0  0  0  0
   26.9390   27.7320   21.1150 C   0  0  2  0  0  0  0  0  0  0  0  0
   28.1820   28.1330   20.3530 C   0  0  1  0  0  0  0  0  0  0  0  0
   29.2710   28.3820   21.3700 C   0  0  2  0  0  0  0  0  0  0  0  0
   30.7290   29.8850   20.3780 C   0  0  2  0  0  0  0  0  0  0  0  0
   31.9060   28.9380   20.4340 C   0  0  0  0  0  0  0  0  0  0  0  0
   29.7840   29.6450   21.3470 O   0  0  0  0  0  0  0  0  0  0  0  0
   31.6580   27.9530   21.5490 C   0  0  1  0  0  0  0  0  0  0  0  0
   30.3200   27.2980   21.2760 C   0  0  1  0  0  0  0  0  0  0  0  0
   30.1920   29.8840   19.0880 O   0  0  0  0  0  0  0  0  0  0  0  0
   30.5630   30.6930   18.6410 H   0  0  0  0  0  0  0  0  0  0  0  0
   31.2700   31.2560   20.6130 C   0  0  0  0  0  0  0  0  0  0  0  0
   31.9500   31.4820   21.6710 O   0  0  0  0  0  0  0  0  0  0  0  0
   31.0720   32.3000   19.7350 O   0  0  0  0  0  0  0  0  0  0  0  0
   30.3460   32.2720   19.0240 H   0  0  0  0  0  0  0  0  0  0  0  0
   32.6230   26.9660   21.6070 O   0  0  0  0  0  0  0  0  0  0  0  0
   33.1280   26.9930   20.7550 H   0  0  0  0  0  0  0  0  0  0  0  0
   30.0720   26.1960   22.1690 N   0  0  0  0  0  0  0  0  0  0  0  0
   29.7540   26.3990   23.5360 C   0  0  0  0  0  0  0  0  0  0  0  0
   30.1330   25.2290   21.7830 H   0  0  0  0  0  0  0  0  0  0  0  0
   29.5150   25.2030   24.3890 C   0  0  0  0  0  0  0  0  0  0  0  0
   29.6800   27.5610   24.0080 O   0  0  0  0  0  0  0  0  0  0  0  0
   28.6080   27.1000   19.5210 O   0  0  0  0  0  0  0  0  0  0  0  0
   29.1850   26.4570   19.9660 H   0  0  0  0  0  0  0  0  0  0  0  0
   26.8870   26.3220   21.1620 O   0  0  0  0  0  0  0  0  0  0  0  0
   27.6440   25.9680   21.7070 H   0  0  0  0  0  0  0  0  0  0  0  0
   25.4550   30.0040   17.1400 O   0  0  0  0  0  0  0  0  0  0  0  0
   26.4360   29.7110   16.1610 C   0  0  0  0  0  0  0  0  0  0  0  0
   27.6630   30.4920   16.4210 C   0  0  0  0  0  0  0  0  0  0  0  0
   28.8030   30.5830   15.6570 C   0  0  0  0  0  0  0  0  0  0  0  0
   27.8730   31.2740   17.4890 N   0  0  0  0  0  0  0  0  0  0  0  0
   29.6870   31.4200   16.2760 N   0  0  0  0  0  0  0  0  0  0  0  0
   29.0870   31.8210   17.3880 N   0  0  0  0  0  0  0  0  0  0  0  0
   30.9960   31.7610   15.7740 C   0  0  0  0  0  0  0  0  0  0  0  0
   31.1380   33.2490   15.6030 C   0  0  0  0  0  0  0  0  0  0  0  0
   30.5770   33.8830   14.5770 C   0  0  0  0  0  0  0  0  0  0  0  0
   31.9070   34.0600   16.5680 C   0  0  2  0  0  0  0  0  0  0  0  0
   30.5430   35.3710   14.5930 C   0  0  0  0  0  0  0  0  0  0  0  0
   30.9690   35.1910   17.0140 C   0  0  0  0  0  0  0  0  0  0  0  0
   32.6890   35.1200   15.8190 C   0  0  0  0  0  0  0  0  0  0  0  0
   31.3660   35.8970   15.7280 C   0  0  1  0  0  0  0  0  0  0  0  0
   33.6660   35.8760   16.6750 C   0  0  0  0  0  0  0  0  0  0  0  0
   33.2620   34.7050   14.5070 C   0  0  0  0  0  0  0  0  0  0  0  0
   29.8670   25.5550   16.9770 C   0  0  0  0  0  0  0  0  0  0  0  0
   28.3450   25.7220   17.0260 C   0  0  0  0  0  0  0  0  0  0  0  0
   27.6020   24.3980   16.9280 C   0  0  0  0  0  0  0  0  0  0  0  0
   26.6250   24.2130   18.0560 C   0  0  0  0  0  0  0  0  0  0  0  0
   25.5730   25.3160   18.0050 C   0  0  0  0  0  0  0  0  0  0  0  0
   24.5040   25.0590   18.9990 N   0  0  0  0  0  0  0  0  0  0  0  0
  1  4  1  0  0  0  0
  1  5  1  0  0  0  0
  2  1  1  0  0  0  0
  3  2  2  0  0  0  0
  6  5  1  6  0  0  0
  6 29  1  0  0  0  0
  7 27  1  6  0  0  0
  7  6  1  0  0  0  0
  8  7  1  6  0  0  0
  9 14  1  6  0  0  0
  9 10  1  0  0  0  0
  9 16  1  0  0  0  0
  9 11  1  0  0  0  0
 10 12  1  0  0  0  0
 11  8  1  0  0  0  0
 12 20  1  6  0  0  0
 13  8  1  0  0  0  0
 13 12  1  0  0  0  0
 13 22  1  1  0  0  0
 15 14  1  0  0  0  0
 16 17  2  0  0  0  0
 18 16  1  0  0  0  0
 19 18  1  0  0  0  0
 21 20  1  0  0  0  0
 22 23  1  0  0  0  0
 23 26  2  0  0  0  0
 23 25  1  0  0  0  0
 24 22  1  0  0  0  0
 27 28  1  0  0  0  0
 29 30  1  0  0  0  0
 31  2  1  0  0  0  0
 32 33  1  0  0  0  0
 32 31  1  0  0  0  0
 33 35  1  0  0  0  0
 34 36  1  0  0  0  0
 34 33  2  0  0  0  0
 36 37  1  0  0  0  0
 37 35  2  0  0  0  0
 38 36  1  0  0  0  0
 39 38  1  0  0  0  0
 39 41  1  0  0  0  0
 40 42  1  0  0  0  0
 40 39  2  0  0  0  0
 41 43  1  1  0  0  0
 44 41  1  0  0  0  0
 44 46  1  0  0  0  0
 45 42  1  6  0  0  0
 45 44  1  0  0  0  0
 45 43  1  0  0  0  0
 47 44  1  0  0  0  0
 48 49  1  0  0  0  0
 50 49  1  0  0  0  0
 50 51  1  0  0  0  0
 52 51  1  0  0  0  0
 52 53  1  0  0  0  0
M  END
>  <REMARK>
 VINA RESULT:    -6.224      0.000      0.000
 INTER + INTRA:         -16.474
 INTER:                 -10.525
 INTRA:                  -5.948
 UNBOUND:                -5.337
 SMILES CC(=O)N[C@@H]1[C@@H](O)C[C@](O)(C(=O)O)O[C@H]1C(O)[C@H](O)CNC(=O)OCc1cn(CC2=CC[C@H]3C[C@@H]2C3(C)C)nn1
 SMILES IDX 21 1 22 2 23 3 20 5 18 6 16 7 15 8 9 9 8 10 14 11 6 12 5 13
 SMILES IDX 10 14 11 16 12 17 13 18 7 20 4 22 2 23 1 25 3 26 17 27 19 29
 SMILES IDX 24 31 25 32 26 33 27 34 40 35 28 36 39 37 29 38 30 39 31 40
 SMILES IDX 35 41 32 42 34 43 36 44 33 45 37 46 38 47
 H PARENT 21 4 10 15 13 19 7 21 4 24 17 28 19 30
 Flexibility Score: inf
  4 active torsions:
  status: ('A' for Active; 'I' for Inactive)
    1  A    between atoms: CA   and  CB  
    2  A    between atoms: CB   and  CG  
    3  A    between atoms: CG   and  CD  
    4  A    between atoms: CD   and  CE  

>  <TORSDO>
F 16

>  <BEGIN_>
RES LYS A 131

$$$$
ligand_82_pose_0_2HRL.pdbqt
 OpenBabel07062320523D

  6  5  0  0  0  0  0  0  0  0999 V2000
   33.1930   34.6630    9.2900 C   0  0  0  0  0  0  0  0  0  0  0  0
   32.0600   35.3600   10.0340 C   0  0  0  0  0  0  0  0  0  0  0  0
   30.7930   35.4810    9.2260 C   0  0  0  0  0  0  0  0  0  0  0  0
   30.0150   34.1740    9.2500 C   0  0  0  0  0  0  0  0  0  0  0  0
   28.5980   34.3890    8.7560 C   0  0  0  0  0  0  0  0  0  0  0  0
   27.6180   33.6430    9.5930 N   0  0  0  0  0  0  0  0  0  0  0  0
  1  2  1  0  0  0  0
  3  4  1  0  0  0  0
  3  2  1  0  0  0  0
  5  4  1  0  0  0  0
  5  6  1  0  0  0  0
M  END
>  <EGIN_R>
ES LYS A 135

>  <REMARK>
  4 active torsions:
  status: ('A' for Active; 'I' for Inactive)
    5  A    between atoms: CA   and  CB  
    6  A    between atoms: CB   and  CG  
    7  A    between atoms: CG   and  CD  
    8  A    between atoms: CD   and  CE  

$$$$
ligand_83_pose_0_2HRL.pdbqt
 OpenBabel07062320523D

 56 57  0  0  1  0  0  0  0  0999 V2000
   32.2390   32.4210   22.2630 O   0  0  0  0  0  0  0  0  0  0  0  0
   32.7500   31.1360   22.0120 C   0  0  0  0  0  0  0  0  0  0  0  0
   31.9470   29.9920   21.9780 N   0  0  0  0  0  0  0  0  0  0  0  0
   30.9060   30.1210   22.1550 H   0  0  0  0  0  0  0  0  0  0  0  0
   33.9710   31.0630   21.8180 O   0  0  0  0  0  0  0  0  0  0  0  0
   32.4310   28.6560   21.7220 C   0  0  0  0  0  0  0  0  0  0  0  0
   31.5200   28.0080   20.7140 C   0  0  2  0  0  0  0  0  0  0  0  0
   30.6890   26.9700   21.4310 C   0  0  2  0  0  0  0  0  0  0  0  0
   29.2050   27.3010   21.3410 C   0  0  2  0  0  0  0  0  0  0  0  0
   27.7910   28.6690   20.0950 C   0  0  2  0  0  0  0  0  0  0  0  0
   27.0150   28.8190   21.3890 C   0  0  0  0  0  0  0  0  0  0  0  0
   29.0720   28.2540   20.3690 O   0  0  0  0  0  0  0  0  0  0  0  0
   27.9790   29.0580   22.5290 C   0  0  1  0  0  0  0  0  0  0  0  0
   28.7490   27.7560   22.7160 C   0  0  1  0  0  0  0  0  0  0  0  0
   27.8980   29.9140   19.4440 O   0  0  0  0  0  0  0  0  0  0  0  0
   27.1900   30.4890   19.8160 H   0  0  0  0  0  0  0  0  0  0  0  0
   27.1600   27.7190   19.1710 C   0  0  0  0  0  0  0  0  0  0  0  0
   26.1960   27.0260   19.5360 O   0  0  0  0  0  0  0  0  0  0  0  0
   27.6330   27.5840   17.8780 O   0  0  0  0  0  0  0  0  0  0  0  0
   27.3800   26.7920   17.3170 H   0  0  0  0  0  0  0  0  0  0  0  0
   28.9220   30.0350   22.2520 O   0  0  0  0  0  0  0  0  0  0  0  0
   29.3550   29.8590   21.3940 H   0  0  0  0  0  0  0  0  0  0  0  0
   27.8900   26.7940   23.3450 N   0  0  0  0  0  0  0  0  0  0  0  0
   28.2750   26.1590   24.5440 C   0  0  0  0  0  0  0  0  0  0  0  0
   26.9510   26.5140   22.9560 H   0  0  0  0  0  0  0  0  0  0  0  0
   27.3760   25.1570   25.1940 C   0  0  0  0  0  0  0  0  0  0  0  0
   29.3780   26.4220   25.0890 O   0  0  0  0  0  0  0  0  0  0  0  0
   31.0210   26.9980   22.7710 O   0  0  0  0  0  0  0  0  0  0  0  0
   30.6630   27.7860   23.2410 H   0  0  0  0  0  0  0  0  0  0  0  0
   32.2200   27.4660   19.6410 O   0  0  0  0  0  0  0  0  0  0  0  0
   31.5500   27.0270   19.0580 H   0  0  0  0  0  0  0  0  0  0  0  0
   30.9420   32.7750   21.7570 C   0  0  0  0  0  0  0  0  0  0  0  0
   30.8160   32.4640   20.3370 C   0  0  0  0  0  0  0  0  0  0  0  0
   31.1660   33.2860   19.2950 C   0  0  0  0  0  0  0  0  0  0  0  0
   30.3360   31.3200   19.8250 N   0  0  0  0  0  0  0  0  0  0  0  0
   30.8850   32.6120   18.1710 N   0  0  0  0  0  0  0  0  0  0  0  0
   30.3920   31.4450   18.5090 N   0  0  0  0  0  0  0  0  0  0  0  0
   31.1120   33.1390   16.8140 C   0  0  0  0  0  0  0  0  0  0  0  0
   30.2680   32.3760   15.8180 C   0  0  2  0  0  0  0  0  0  0  0  0
   31.1080   32.1650   14.7020 O   0  0  0  0  0  0  0  0  0  0  0  0
   31.3160   31.2220   14.5650 H   0  0  0  0  0  0  0  0  0  0  0  0
   29.0750   33.1970   15.4480 C   0  0  0  0  0  0  0  0  0  0  0  0
   28.1240   33.1480   16.5630 N   0  0  0  0  0  0  0  0  0  0  0  0
   27.8990   34.1300   17.4660 C   0  0  0  0  0  0  0  0  0  0  0  0
   27.3380   32.1190   16.8270 C   0  0  0  0  0  0  0  0  0  0  0  0
   26.9390   33.6870   18.3170 C   0  0  0  0  0  0  0  0  0  0  0  0
   26.6020   32.4610   17.9210 N   0  0  0  0  0  0  0  0  0  0  0  0
   27.2430   30.8660   16.1300 N   0  0  0  0  0  0  0  0  0  0  0  0
   26.3980   30.6410   15.2490 O   0  0  0  0  0  0  0  0  0  0  0  0
   28.1300   29.8570   16.4480 O   0  0  0  0  0  0  0  0  0  0  0  0
   29.8670   25.5550   16.9770 C   0  0  0  0  0  0  0  0  0  0  0  0
   28.3450   25.7220   17.0260 C   0  0  0  0  0  0  0  0  0  0  0  0
   27.5990   24.4200   16.7740 C   0  0  0  0  0  0  0  0  0  0  0  0
   26.8170   23.9740   17.9780 C   0  0  0  0  0  0  0  0  0  0  0  0
   25.5060   23.3400   17.5260 C   0  0  0  0  0  0  0  0  0  0  0  0
   24.6070   24.3650   16.9450 N   0  0  0  0  0  0  0  0  0  0  0  0
  2  1  1  0  0  0  0
  3  2  1  0  0  0  0
  3  4  1  0  0  0  0
  5  2  2  0  0  0  0
  6  3  1  0  0  0  0
  7  8  1  0  0  0  0
  7  6  1  1  0  0  0
  8 28  1  1  0  0  0
  9  8  1  1  0  0  0
  9 14  1  0  0  0  0
 10 17  1  6  0  0  0
 10 12  1  0  0  0  0
 10 11  1  0  0  0  0
 11 13  1  0  0  0  0
 12  9  1  0  0  0  0
 13 21  1  6  0  0  0
 13 14  1  0  0  0  0
 14 23  1  6  0  0  0
 15 16  1  0  0  0  0
 15 10  1  0  0  0  0
 17 18  2  0  0  0  0
 19 17  1  0  0  0  0
 20 19  1  0  0  0  0
 22 21  1  0  0  0  0
 23 24  1  0  0  0  0
 24 27  2  0  0  0  0
 24 26  1  0  0  0  0
 25 23  1  0  0  0  0
 28 29  1  0  0  0  0
 30  7  1  0  0  0  0
 31 30  1  0  0  0  0
 32  1  1  0  0  0  0
 33 32  1  0  0  0  0
 34 33  2  0  0  0  0
 35 33  1  0  0  0  0
 36 37  1  0  0  0  0
 36 34  1  0  0  0  0
 37 35  2  0  0  0  0
 38 36  1  0  0  0  0
 39 42  1  6  0  0  0
 39 38  1  0  0  0  0
 40 39  1  0  0  0  0
 41 40  1  0  0  0  0
 42 43  1  0  0  0  0
 43 45  1  0  0  0  0
 43 44  1  0  0  0  0
 44 46  2  0  0  0  0
 45 47  2  0  0  0  0
 47 46  1  0  0  0  0
 48 50  2  0  0  0  0
 48 45  1  0  0  0  0
 49 48  2  0  0  0  0
 51 52  1  0  0  0  0
 53 52  1  0  0  0  0
 53 54  1  0  0  0  0
 55 54  1  0  0  0  0
 56 55  1  0  0  0  0
M  END
>  <REMARK>
 VINA RESULT:    -4.086      0.000      0.000
 INTER + INTRA:         -16.592
 INTER:                  -8.244
 INTRA:                  -8.348
 UNBOUND:                -8.446
 SMILES CC(=O)N[C@@H]1[C@@H](O)C[C@](O)(C(=O)O)O[C@H]1C(O)[C@H](O)CNC(=O)OCc1cn(CC(O)Cn2ccnc2[N+](=O)[O-])nn1
 SMILES IDX 24 1 22 2 21 3 23 5 20 6 18 7 16 8 15 9 9 10 8 11 14 12 6 13
 SMILES IDX 5 14 10 15 11 17 12 18 13 19 7 21 4 23 2 24 1 26 3 27 17 28
 SMILES IDX 19 30 25 32 26 33 27 34 42 35 28 36 41 37 29 38 30 39 31 40
 SMILES IDX 32 42 33 43 34 44 37 45 35 46 36 47 38 48 39 49 40 50
 H PARENT 21 4 10 16 13 20 7 22 4 25 17 29 19 31 31 41
 Flexibility Score: inf
  4 active torsions:
  status: ('A' for Active; 'I' for Inactive)
    1  A    between atoms: CA   and  CB  
    2  A    between atoms: CB   and  CG  
    3  A    between atoms: CG   and  CD  
    4  A    between atoms: CD   and  CE  

>  <TORSDO>
F 20

>  <BEGIN_>
RES LYS A 131

$$$$
ligand_83_pose_0_2HRL.pdbqt
 OpenBabel07062320523D

  6  5  0  0  0  0  0  0  0  0999 V2000
   33.1930   34.6630    9.2900 C   0  0  0  0  0  0  0  0  0  0  0  0
   32.0600   35.3600   10.0340 C   0  0  0  0  0  0  0  0  0  0  0  0
   30.8360   35.5940    9.1860 C   0  0  0  0  0  0  0  0  0  0  0  0
   30.1670   34.2740    8.8350 C   0  0  0  0  0  0  0  0  0  0  0  0
   28.7170   34.4980    8.4510 C   0  0  0  0  0  0  0  0  0  0  0  0
   28.6110   35.2860    7.1920 N   0  0  0  0  0  0  0  0  0  0  0  0
  1  2  1  0  0  0  0
  3  2  1  0  0  0  0
  4  3  1  0  0  0  0
  5  4  1  0  0  0  0
  6  5  1  0  0  0  0
M  END
>  <EGIN_R>
ES LYS A 135

>  <REMARK>
  4 active torsions:
  status: ('A' for Active; 'I' for Inactive)
    5  A    between atoms: CA   and  CB  
    6  A    between atoms: CB   and  CG  
    7  A    between atoms: CG   and  CD  
    8  A    between atoms: CD   and  CE  

$$$$
ligand_84_pose_0_2HRL.pdbqt
 OpenBabel07062320523D

 60 62  0  0  1  0  0  0  0  0999 V2000
   22.3660   34.8700   10.7090 O   0  0  0  0  0  0  0  0  0  0  0  0
   23.1020   36.0210   10.4720 C   0  0  0  0  0  0  0  0  0  0  0  0
   24.4040   36.2580   10.9950 N   0  0  0  0  0  0  0  0  0  0  0  0
   24.8040   35.5130   11.5960 H   0  0  0  0  0  0  0  0  0  0  0  0
   22.5500   36.8880    9.7410 O   0  0  0  0  0  0  0  0  0  0  0  0
   25.0300   37.4910   10.6430 C   0  0  0  0  0  0  0  0  0  0  0  0
   25.9360   37.4670    9.4780 C   0  0  2  0  0  0  0  0  0  0  0  0
   25.7250   38.5740    8.4600 C   0  0  1  0  0  0  0  0  0  0  0  0
   26.6550   38.1990    7.3050 C   0  0  2  0  0  0  0  0  0  0  0  0
   28.8070   37.3440    7.0120 C   0  0  2  0  0  0  0  0  0  0  0  0
   29.0210   38.2810    5.8580 C   0  0  0  0  0  0  0  0  0  0  0  0
   27.8080   37.7250    7.8670 O   0  0  0  0  0  0  0  0  0  0  0  0
   27.7780   38.8590    5.2830 C   0  0  1  0  0  0  0  0  0  0  0  0
   26.9370   39.3970    6.4600 C   0  0  1  0  0  0  0  0  0  0  0  0
   30.0130   37.4060    7.7560 O   0  0  0  0  0  0  0  0  0  0  0  0
   30.7850   37.5160    7.1700 H   0  0  0  0  0  0  0  0  0  0  0  0
   28.6660   35.9200    6.5860 C   0  0  0  0  0  0  0  0  0  0  0  0
   27.5530   35.3420    6.6690 O   0  0  0  0  0  0  0  0  0  0  0  0
   29.7240   35.1750    6.0860 O   0  0  0  0  0  0  0  0  0  0  0  0
   29.6210   34.3660    5.4850 H   0  0  0  0  0  0  0  0  0  0  0  0
   28.1210   39.9380    4.4680 O   0  0  0  0  0  0  0  0  0  0  0  0
   27.3300   40.2600    3.9610 H   0  0  0  0  0  0  0  0  0  0  0  0
   25.7470   40.0340    5.9620 N   0  0  0  0  0  0  0  0  0  0  0  0
   25.4930   41.4040    6.1980 C   0  0  0  0  0  0  0  0  0  0  0  0
   25.0650   39.4760    5.4220 H   0  0  0  0  0  0  0  0  0  0  0  0
   24.2270   41.9630    5.6370 C   0  0  0  0  0  0  0  0  0  0  0  0
   26.2680   42.1450    6.8390 O   0  0  0  0  0  0  0  0  0  0  0  0
   24.3840   38.5530    8.0460 O   0  0  0  0  0  0  0  0  0  0  0  0
   24.3900   38.7990    7.0860 H   0  0  0  0  0  0  0  0  0  0  0  0
   25.6280   36.2830    8.7510 O   0  0  0  0  0  0  0  0  0  0  0  0
   25.6870   36.5670    7.7940 H   0  0  0  0  0  0  0  0  0  0  0  0
   22.0320   34.4810   12.0310 C   0  0  0  0  0  0  0  0  0  0  0  0
   23.0120   33.4980   12.5450 C   0  0  0  0  0  0  0  0  0  0  0  0
   22.6920   32.1780   12.8740 C   0  0  0  0  0  0  0  0  0  0  0  0
   24.3260   33.5880   12.7930 N   0  0  0  0  0  0  0  0  0  0  0  0
   23.7840   31.5260   13.2970 N   0  0  0  0  0  0  0  0  0  0  0  0
   24.7850   32.4320   13.2380 N   0  0  0  0  0  0  0  0  0  0  0  0
   23.9330   30.1450   13.7190 C   0  0  0  0  0  0  0  0  0  0  0  0
   23.7190   30.0540   15.2350 C   0  0  1  0  0  0  0  0  0  0  0  0
   22.3790   29.5210   15.5770 C   0  0  0  0  0  0  0  0  0  0  0  0
   24.9060   29.5250   15.9250 C   0  0  0  0  0  0  0  0  0  0  0  0
   26.0810   30.3180   15.7430 N   0  0  0  0  0  0  0  0  0  0  0  0
   25.9440   31.6000   16.4870 C   0  0  0  0  0  0  0  0  0  0  0  0
   27.2180   29.6740   16.3930 C   0  0  0  0  0  0  0  0  0  0  0  0
   27.2070   32.3860   16.4580 C   0  0  0  0  0  0  0  0  0  0  0  0
   28.4460   30.3140   15.7260 C   0  0  0  0  0  0  0  0  0  0  0  0
   28.3480   31.7350   15.8940 N   0  0  0  0  0  0  0  0  0  0  0  0
   29.4570   32.5240   15.4780 C   0  0  0  0  0  0  0  0  0  0  0  0
   30.7250   32.1770   15.8890 C   0  0  0  0  0  0  0  0  0  0  0  0
   29.2770   33.6400   14.6740 C   0  0  0  0  0  0  0  0  0  0  0  0
   31.7920   32.9480   15.4910 C   0  0  0  0  0  0  0  0  0  0  0  0
   30.3480   34.4020   14.2850 C   0  0  0  0  0  0  0  0  0  0  0  0
   31.6210   34.0450   14.7010 C   0  0  0  0  0  0  0  0  0  0  0  0
   32.9710   35.0290   14.2030 Cl  0  0  0  0  0  0  0  0  0  0  0  0
   29.8670   25.5550   16.9770 C   0  0  0  0  0  0  0  0  0  0  0  0
   28.3450   25.7220   17.0260 C   0  0  0  0  0  0  0  0  0  0  0  0
   27.6020   24.3990   16.9230 C   0  0  0  0  0  0  0  0  0  0  0  0
   26.5900   24.2300   18.0220 C   0  0  0  0  0  0  0  0  0  0  0  0
   26.3950   25.5600   18.7430 C   0  0  0  0  0  0  0  0  0  0  0  0
   25.5380   25.3810   19.9390 N   0  0  0  0  0  0  0  0  0  0  0  0
  1 32  1  0  0  0  0
  2  1  1  0  0  0  0
  2  3  1  0  0  0  0
  3  4  1  0  0  0  0
  5  2  2  0  0  0  0
  6  3  1  0  0  0  0
  7  6  1  1  0  0  0
  8 28  1  6  0  0  0
  8  7  1  0  0  0  0
  9 12  1  0  0  0  0
  9  8  1  1  0  0  0
 10 17  1  6  0  0  0
 10 15  1  0  0  0  0
 10 12  1  0  0  0  0
 11 10  1  0  0  0  0
 13 21  1  6  0  0  0
 13 11  1  0  0  0  0
 13 14  1  0  0  0  0
 14 23  1  6  0  0  0
 14  9  1  0  0  0  0
 16 15  1  0  0  0  0
 17 18  2  0  0  0  0
 19 17  1  0  0  0  0
 20 19  1  0  0  0  0
 22 21  1  0  0  0  0
 23 24  1  0  0  0  0
 24 27  2  0  0  0  0
 25 23  1  0  0  0  0
 26 24  1  0  0  0  0
 29 28  1  0  0  0  0
 30  7  1  0  0  0  0
 31 30  1  0  0  0  0
 32 33  1  0  0  0  0
 33 35  1  0  0  0  0
 33 34  2  0  0  0  0
 34 36  1  0  0  0  0
 35 37  2  0  0  0  0
 36 38  1  0  0  0  0
 37 36  1  0  0  0  0
 38 39  1  0  0  0  0
 39 40  1  6  0  0  0
 39 41  1  0  0  0  0
 42 41  1  0  0  0  0
 42 44  1  0  0  0  0
 42 43  1  0  0  0  0
 45 43  1  0  0  0  0
 46 47  1  0  0  0  0
 46 44  1  0  0  0  0
 47 45  1  0  0  0  0
 48 49  2  0  0  0  0
 48 47  1  0  0  0  0
 50 48  1  0  0  0  0
 51 49  1  0  0  0  0
 52 50  2  0  0  0  0
 52 53  1  0  0  0  0
 53 51  2  0  0  0  0
 54 53  1  0  0  0  0
 55 56  1  0  0  0  0
 57 56  1  0  0  0  0
 57 58  1  0  0  0  0
 58 59  1  0  0  0  0
 59 60  1  0  0  0  0
M  END
>  <REMARK>
 VINA RESULT:    -5.392      0.000      0.000
 INTER + INTRA:         -16.715
 INTER:                 -11.691
 INTRA:                  -5.023
 UNBOUND:                -6.121
 SMILES CC(=O)N[C@@H]1[C@@H](O)C[C@](O)(C(=O)O)O[C@H]1C(O)[C@H](O)CNC(=O)OCc1cn(C[C@@H](C)CN2CCN(c3ccc(Cl)cc3)CC2)nn1
 SMILES IDX 24 1 22 2 21 3 23 5 20 6 18 7 16 8 15 9 9 10 8 11 14 12 6 13
 SMILES IDX 5 14 10 15 11 17 12 18 13 19 7 21 4 23 2 24 1 26 3 27 17 28
 SMILES IDX 19 30 25 32 26 33 27 34 47 35 28 36 46 37 29 38 30 39 31 40
 SMILES IDX 32 41 33 42 34 43 45 44 35 45 44 46 36 47 37 48 38 49 43 50
 SMILES IDX 39 51 42 52 40 53 41 54
 H PARENT 21 4 10 16 13 20 7 22 4 25 17 29 19 31
 Flexibility Score: inf
  4 active torsions:
  status: ('A' for Active; 'I' for Inactive)
    1  A    between atoms: CA   and  CB  
    2  A    between atoms: CB   and  CG  
    3  A    between atoms: CG   and  CD  
    4  A    between atoms: CD   and  CE  

>  <TORSDO>
F 19

>  <BEGIN_>
RES LYS A 131

$$$$
ligand_84_pose_0_2HRL.pdbqt
 OpenBabel07062320523D

  6  5  0  0  0  0  0  0  0  0999 V2000
   33.1930   34.6630    9.2900 C   0  0  0  0  0  0  0  0  0  0  0  0
   32.0600   35.3600   10.0340 C   0  0  0  0  0  0  0  0  0  0  0  0
   30.7220   34.6900    9.8580 C   0  0  0  0  0  0  0  0  0  0  0  0
   29.6590   35.3860   10.6950 C   0  0  0  0  0  0  0  0  0  0  0  0
   28.3130   34.7100   10.5150 C   0  0  0  0  0  0  0  0  0  0  0  0
   28.3680   33.6810    9.4400 N   0  0  0  0  0  0  0  0  0  0  0  0
  1  2  1  0  0  0  0
  3  2  1  0  0  0  0
  3  4  1  0  0  0  0
  5  4  1  0  0  0  0
  6  5  1  0  0  0  0
M  END
>  <EGIN_R>
ES LYS A 135

>  <REMARK>
  4 active torsions:
  status: ('A' for Active; 'I' for Inactive)
    5  A    between atoms: CA   and  CB  
    6  A    between atoms: CB   and  CG  
    7  A    between atoms: CG   and  CD  
    8  A    between atoms: CD   and  CE  

$$$$
ligand_85_pose_0_2HRL.pdbqt
 OpenBabel07062320523D

 55 56  0  0  1  0  0  0  0  0999 V2000
   23.0350   35.2320    9.9330 N   0  0  0  0  0  0  0  0  0  0  0  0
   23.5280   35.7680   11.1320 C   0  0  0  0  0  0  0  0  0  0  0  0
   22.9600   36.7420   11.6670 O   0  0  0  0  0  0  0  0  0  0  0  0
   23.5160   34.4140    9.4950 H   0  0  0  0  0  0  0  0  0  0  0  0
   21.8760   35.7640    9.2650 C   0  0  0  0  0  0  0  0  0  0  0  0
   22.2720   36.3280    7.9250 C   0  0  2  0  0  0  0  0  0  0  0  0
   22.8010   37.7370    8.0210 C   0  0  2  0  0  0  0  0  0  0  0  0
   24.2650   37.7690    7.7960 C   0  0  2  0  0  0  0  0  0  0  0  0
   26.3370   36.9630    8.3570 C   0  0  2  0  0  0  0  0  0  0  0  0
   26.6910   37.6660    7.0710 C   0  0  0  0  0  0  0  0  0  0  0  0
   25.0360   37.1400    8.7580 O   0  0  0  0  0  0  0  0  0  0  0  0
   26.1610   39.0590    6.9930 C   0  0  1  0  0  0  0  0  0  0  0  0
   24.8030   39.1950    7.6770 C   0  0  1  0  0  0  0  0  0  0  0  0
   27.1430   37.5080    9.3720 O   0  0  0  0  0  0  0  0  0  0  0  0
   26.5040   37.7910   10.0950 H   0  0  0  0  0  0  0  0  0  0  0  0
   26.6020   35.5230    8.2740 C   0  0  0  0  0  0  0  0  0  0  0  0
   27.3880   35.0850    7.4000 O   0  0  0  0  0  0  0  0  0  0  0  0
   26.0310   34.5790    9.1140 O   0  0  0  0  0  0  0  0  0  0  0  0
   26.4390   33.6310    9.0870 H   0  0  0  0  0  0  0  0  0  0  0  0
   27.1010   39.9240    7.5890 O   0  0  0  0  0  0  0  0  0  0  0  0
   27.9250   39.3800    7.7050 H   0  0  0  0  0  0  0  0  0  0  0  0
   23.9170   40.0500    6.9640 N   0  0  0  0  0  0  0  0  0  0  0  0
   23.9630   41.4540    7.1590 C   0  0  0  0  0  0  0  0  0  0  0  0
   23.2250   39.6720    6.2900 H   0  0  0  0  0  0  0  0  0  0  0  0
   23.0080   42.3140    6.3820 C   0  0  0  0  0  0  0  0  0  0  0  0
   24.7480   42.0220    7.9380 O   0  0  0  0  0  0  0  0  0  0  0  0
   22.3580   38.3220    9.1800 O   0  0  0  0  0  0  0  0  0  0  0  0
   22.1790   39.2940    8.9730 H   0  0  0  0  0  0  0  0  0  0  0  0
   21.1160   36.4040    7.0870 O   0  0  0  0  0  0  0  0  0  0  0  0
   21.1860   35.7800    6.3370 H   0  0  0  0  0  0  0  0  0  0  0  0
   24.6490   35.2710   11.7890 O   0  0  0  0  0  0  0  0  0  0  0  0
   25.6000   36.1710   12.3210 C   0  0  0  0  0  0  0  0  0  0  0  0
   26.9090   35.5230   12.4870 C   0  0  0  0  0  0  0  0  0  0  0  0
   27.5810   35.1690   13.6380 C   0  0  0  0  0  0  0  0  0  0  0  0
   27.7150   35.1470   11.4790 N   0  0  0  0  0  0  0  0  0  0  0  0
   28.7660   34.5920   13.3060 N   0  0  0  0  0  0  0  0  0  0  0  0
   28.8040   34.6000   11.9960 N   0  0  0  0  0  0  0  0  0  0  0  0
   29.7650   34.0820   14.1780 C   0  0  0  0  0  0  0  0  0  0  0  0
   29.5670   32.8940   14.8660 C   0  0  0  0  0  0  0  0  0  0  0  0
   30.9400   34.7800   14.3370 C   0  0  0  0  0  0  0  0  0  0  0  0
   30.5180   32.3840   15.7130 C   0  0  0  0  0  0  0  0  0  0  0  0
   31.9220   34.2950   15.1840 C   0  0  0  0  0  0  0  0  0  0  0  0
   30.2770   30.8770   16.5920 Cl  0  0  0  0  0  0  0  0  0  0  0  0
   31.6900   33.0980   15.8600 C   0  0  0  0  0  0  0  0  0  0  0  0
   31.1330   36.0150   13.6140 C   0  0  0  0  0  0  0  0  0  0  0  0
   31.6850   36.0710   12.4780 O   0  0  0  0  0  0  0  0  0  0  0  0
   30.6950   37.2360   14.1770 N   0  0  0  0  0  0  0  0  0  0  0  0
   30.0580   37.2210   15.4710 C   0  0  0  0  0  0  0  0  0  0  0  0
   30.8630   38.5090   13.4920 C   0  0  0  0  0  0  0  0  0  0  0  0
   29.8670   25.5550   16.9770 C   0  0  0  0  0  0  0  0  0  0  0  0
   28.3450   25.7220   17.0260 C   0  0  0  0  0  0  0  0  0  0  0  0
   27.5990   24.4440   16.6750 C   0  0  0  0  0  0  0  0  0  0  0  0
   27.0290   23.7680   17.8910 C   0  0  0  0  0  0  0  0  0  0  0  0
   25.5940   23.3360   17.6080 C   0  0  0  0  0  0  0  0  0  0  0  0
   24.8470   24.4250   16.9370 N   0  0  0  0  0  0  0  0  0  0  0  0
  1  2  1  0  0  0  0
  2  3  2  0  0  0  0
  2 31  1  0  0  0  0
  4  1  1  0  0  0  0
  5  1  1  0  0  0  0
  6  7  1  0  0  0  0
  6  5  1  1  0  0  0
  7 27  1  1  0  0  0
  8  7  1  1  0  0  0
  8 11  1  0  0  0  0
  9 16  1  6  0  0  0
  9 11  1  0  0  0  0
  9 14  1  0  0  0  0
 10  9  1  0  0  0  0
 12 10  1  0  0  0  0
 12 20  1  1  0  0  0
 12 13  1  0  0  0  0
 13 22  1  6  0  0  0
 13  8  1  0  0  0  0
 14 15  1  0  0  0  0
 16 18  1  0  0  0  0
 17 16  2  0  0  0  0
 19 18  1  0  0  0  0
 20 21  1  0  0  0  0
 22 23  1  0  0  0  0
 23 26  2  0  0  0  0
 24 22  1  0  0  0  0
 25 23  1  0  0  0  0
 28 27  1  0  0  0  0
 29  6  1  0  0  0  0
 30 29  1  0  0  0  0
 31 32  1  0  0  0  0
 32 33  1  0  0  0  0
 33 34  2  0  0  0  0
 35 37  2  0  0  0  0
 35 33  1  0  0  0  0
 36 34  1  0  0  0  0
 36 38  1  0  0  0  0
 37 36  1  0  0  0  0
 38 40  2  0  0  0  0
 38 39  1  0  0  0  0
 39 41  2  0  0  0  0
 40 42  1  0  0  0  0
 41 44  1  0  0  0  0
 41 43  1  0  0  0  0
 42 44  2  0  0  0  0
 45 47  1  0  0  0  0
 45 40  1  0  0  0  0
 46 45  2  0  0  0  0
 47 48  1  0  0  0  0
 49 47  1  0  0  0  0
 50 51  1  0  0  0  0
 52 51  1  0  0  0  0
 52 53  1  0  0  0  0
 54 53  1  0  0  0  0
 55 54  1  0  0  0  0
M  END
>  <REMARK>
 VINA RESULT:    -5.223      0.000      0.000
 INTER + INTRA:         -15.532
 INTER:                  -9.562
 INTRA:                  -5.970
 UNBOUND:                -6.187
 SMILES CC(=O)N[C@@H]1[C@@H](O)C[C@](O)(C(=O)O)O[C@H]1C(O)[C@H](O)CNC(=O)OCc1cn(-c2cc(Cl)ccc2C(=O)N(C)C)nn1
 SMILES IDX 21 1 22 2 23 3 20 5 18 6 16 7 15 8 9 9 8 10 14 11 6 12 5 13
 SMILES IDX 10 14 11 16 12 17 13 18 7 20 4 22 2 23 1 25 3 26 17 27 19 29
 SMILES IDX 24 31 25 32 26 33 27 34 42 35 28 36 41 37 29 38 30 39 35 40
 SMILES IDX 31 41 34 42 32 43 33 44 36 45 37 46 38 47 39 48 40 49
 H PARENT 21 4 10 15 13 19 7 21 4 24 17 28 19 30
 Flexibility Score: inf
  4 active torsions:
  status: ('A' for Active; 'I' for Inactive)
    1  A    between atoms: CA   and  CB  
    2  A    between atoms: CB   and  CG  
    3  A    between atoms: CG   and  CD  
    4  A    between atoms: CD   and  CE  

>  <TORSDO>
F 16

>  <BEGIN_>
RES LYS A 131

$$$$
ligand_85_pose_0_2HRL.pdbqt
 OpenBabel07062320523D

  6  5  0  0  0  0  0  0  0  0999 V2000
   33.1930   34.6630    9.2900 C   0  0  0  0  0  0  0  0  0  0  0  0
   32.0600   35.3600   10.0340 C   0  0  0  0  0  0  0  0  0  0  0  0
   30.7370   35.2940    9.3160 C   0  0  0  0  0  0  0  0  0  0  0  0
   30.3920   36.6410    8.7010 C   0  0  0  0  0  0  0  0  0  0  0  0
   30.9890   37.7690    9.5200 C   0  0  0  0  0  0  0  0  0  0  0  0
   31.4690   38.8740    8.6440 N   0  0  0  0  0  0  0  0  0  0  0  0
  1  2  1  0  0  0  0
  3  2  1  0  0  0  0
  4  3  1  0  0  0  0
  4  5  1  0  0  0  0
  6  5  1  0  0  0  0
M  END
>  <EGIN_R>
ES LYS A 135

>  <REMARK>
  4 active torsions:
  status: ('A' for Active; 'I' for Inactive)
    5  A    between atoms: CA   and  CB  
    6  A    between atoms: CB   and  CG  
    7  A    between atoms: CG   and  CD  
    8  A    between atoms: CD   and  CE  

$$$$
ligand_86_pose_0_2HRL.pdbqt
 OpenBabel07062320523D

 52 54  0  0  1  0  0  0  0  0999 V2000
   28.2690   33.5140   20.5330 C   0  0  0  0  0  0  0  0  0  0  0  0
   29.5110   32.6920   20.4880 C   0  0  2  0  0  0  0  0  0  0  0  0
   29.3320   31.3540   19.8420 C   0  0  2  0  0  0  0  0  0  0  0  0
   29.9270   30.2280   20.6550 C   0  0  2  0  0  0  0  0  0  0  0  0
   31.8500   28.9610   20.8620 C   0  0  2  0  0  0  0  0  0  0  0  0
   30.9590   28.2560   21.8490 C   0  0  0  0  0  0  0  0  0  0  0  0
   31.2680   30.0960   20.3210 O   0  0  0  0  0  0  0  0  0  0  0  0
   29.6080   27.9120   21.2990 C   0  0  1  0  0  0  0  0  0  0  0  0
   29.2410   28.9360   20.2600 C   0  0  1  0  0  0  0  0  0  0  0  0
   32.3100   28.1120   19.8570 O   0  0  0  0  0  0  0  0  0  0  0  0
   31.8830   27.2270   19.9300 H   0  0  0  0  0  0  0  0  0  0  0  0
   33.0590   29.4190   21.6180 C   0  0  0  0  0  0  0  0  0  0  0  0
   33.3560   30.6600   21.6790 O   0  0  0  0  0  0  0  0  0  0  0  0
   33.9030   28.5560   22.2770 O   0  0  0  0  0  0  0  0  0  0  0  0
   34.6950   28.9620   22.7910 H   0  0  0  0  0  0  0  0  0  0  0  0
   29.4980   26.6120   20.8660 O   0  0  0  0  0  0  0  0  0  0  0  0
   28.7840   26.5800   20.1760 H   0  0  0  0  0  0  0  0  0  0  0  0
   27.8190   29.0970   20.0950 N   0  0  0  0  0  0  0  0  0  0  0  0
   27.0560   28.2920   19.1960 C   0  0  0  0  0  0  0  0  0  0  0  0
   27.2950   29.8190   20.6380 H   0  0  0  0  0  0  0  0  0  0  0  0
   25.6000   28.5070   19.0730 C   0  0  0  0  0  0  0  0  0  0  0  0
   27.6660   27.4190   18.5360 O   0  0  0  0  0  0  0  0  0  0  0  0
   29.9620   31.3620   18.5980 O   0  0  0  0  0  0  0  0  0  0  0  0
   29.8560   32.2130   18.1360 H   0  0  0  0  0  0  0  0  0  0  0  0
   30.0260   32.4820   21.7880 O   0  0  0  0  0  0  0  0  0  0  0  0
   29.9300   33.3620   22.2490 H   0  0  0  0  0  0  0  0  0  0  0  0
   27.5530   33.4990   19.2800 N   0  0  0  0  0  0  0  0  0  0  0  0
   26.4380   32.6360   19.1160 C   0  0  0  0  0  0  0  0  0  0  0  0
   27.8160   34.1040   18.4660 H   0  0  0  0  0  0  0  0  0  0  0  0
   26.0260   31.8610   20.0230 O   0  0  0  0  0  0  0  0  0  0  0  0
   25.7090   32.5810   17.9280 O   0  0  0  0  0  0  0  0  0  0  0  0
   25.7660   31.4760   17.0490 C   0  0  0  0  0  0  0  0  0  0  0  0
   27.1290   31.3620   16.4630 C   0  0  0  0  0  0  0  0  0  0  0  0
   27.8110   32.3840   15.8370 C   0  0  0  0  0  0  0  0  0  0  0  0
   27.9550   30.3020   16.4150 N   0  0  0  0  0  0  0  0  0  0  0  0
   29.0260   31.9240   15.4270 N   0  0  0  0  0  0  0  0  0  0  0  0
   29.0600   30.6570   15.8020 N   0  0  0  0  0  0  0  0  0  0  0  0
   30.0610   32.6760   14.7240 C   0  0  2  0  0  0  0  0  0  0  0  0
   31.3140   32.5850   15.5140 C   0  0  0  0  0  0  0  0  0  0  0  0
   29.5470   34.0530   14.4970 C   0  0  0  0  0  0  0  0  0  0  0  0
   32.2020   33.7750   15.4520 C   0  0  1  0  0  0  0  0  0  0  0  0
   30.5380   35.1430   14.8100 C   0  0  2  0  0  0  0  0  0  0  0  0
   31.8430   34.6730   14.3770 N   0  0  0  0  0  0  0  0  0  0  0  0
   31.9320   34.6280   16.6810 C   0  0  0  0  0  0  0  0  0  0  0  0
   30.6190   35.2870   16.3080 C   0  0  0  0  0  0  0  0  0  0  0  0
   32.8030   35.7440   14.2820 C   0  0  0  0  0  0  0  0  0  0  0  0
   29.8670   25.5550   16.9770 C   0  0  0  0  0  0  0  0  0  0  0  0
   28.3450   25.7220   17.0260 C   0  0  0  0  0  0  0  0  0  0  0  0
   27.5990   24.4470   16.6640 C   0  0  0  0  0  0  0  0  0  0  0  0
   27.0520   23.7470   17.8770 C   0  0  0  0  0  0  0  0  0  0  0  0
   25.8920   24.5530   18.4510 C   0  0  0  0  0  0  0  0  0  0  0  0
   25.4090   23.9430   19.7120 N   0  0  0  0  0  0  0  0  0  0  0  0
  2  1  1  1  0  0  0
  2 25  1  0  0  0  0
  3 23  1  6  0  0  0
  3  2  1  0  0  0  0
  4  3  1  6  0  0  0
  5 10  1  6  0  0  0
  5 12  1  0  0  0  0
  5  6  1  0  0  0  0
  7  4  1  0  0  0  0
  7  5  1  0  0  0  0
  8 16  1  6  0  0  0
  8  6  1  0  0  0  0
  9 18  1  1  0  0  0
  9  4  1  0  0  0  0
  9  8  1  0  0  0  0
 10 11  1  0  0  0  0
 12 13  2  0  0  0  0
 12 14  1  0  0  0  0
 14 15  1  0  0  0  0
 17 16  1  0  0  0  0
 18 20  1  0  0  0  0
 19 18  1  0  0  0  0
 21 19  1  0  0  0  0
 22 19  2  0  0  0  0
 24 23  1  0  0  0  0
 25 26  1  0  0  0  0
 27  1  1  0  0  0  0
 28 27  1  0  0  0  0
 28 30  2  0  0  0  0
 29 27  1  0  0  0  0
 31 28  1  0  0  0  0
 32 31  1  0  0  0  0
 33 32  1  0  0  0  0
 34 33  2  0  0  0  0
 35 33  1  0  0  0  0
 36 37  1  0  0  0  0
 36 34  1  0  0  0  0
 37 35  2  0  0  0  0
 38 40  1  1  0  0  0
 38 36  1  0  0  0  0
 38 39  1  0  0  0  0
 41 39  1  1  0  0  0
 41 44  1  0  0  0  0
 42 40  1  1  0  0  0
 42 45  1  0  0  0  0
 43 42  1  0  0  0  0
 43 41  1  0  0  0  0
 45 44  1  0  0  0  0
 46 43  1  0  0  0  0
 47 48  1  0  0  0  0
 49 48  1  0  0  0  0
 49 50  1  0  0  0  0
 50 51  1  0  0  0  0
 51 52  1  0  0  0  0
M  END
>  <REMARK>
 VINA RESULT:    -5.136      0.000      0.000
 INTER + INTRA:         -15.444
 INTER:                  -8.781
 INTRA:                  -6.662
 UNBOUND:                -6.555
 SMILES CC(=O)N[C@@H]1[C@@H](O)C[C@](O)(C(=O)O)O[C@H]1C(O)[C@H](O)CNC(=O)OCc1cn([C@H]2C[C@H]3CC[C@@H](C2)N3C)nn1
 SMILES IDX 20 1 18 2 16 3 15 4 9 5 8 6 14 7 6 8 5 9 10 10 11 12 12 13
 SMILES IDX 13 14 7 16 4 18 2 19 1 21 3 22 17 23 19 25 21 27 22 28 23 30
 SMILES IDX 24 31 25 32 26 33 27 34 39 35 28 36 38 37 29 38 35 39 30 40
 SMILES IDX 34 41 31 42 36 43 33 44 32 45 37 46
 H PARENT 10 11 13 15 7 17 4 20 17 24 19 26 21 29
 Flexibility Score: inf
  4 active torsions:
  status: ('A' for Active; 'I' for Inactive)
    1  A    between atoms: CA   and  CB  
    2  A    between atoms: CB   and  CG  
    3  A    between atoms: CG   and  CD  
    4  A    between atoms: CD   and  CE  

>  <TORSDO>
F 15

>  <BEGIN_>
RES LYS A 131

$$$$
ligand_86_pose_0_2HRL.pdbqt
 OpenBabel07062320523D

  6  5  0  0  0  0  0  0  0  0999 V2000
   33.1930   34.6630    9.2900 C   0  0  0  0  0  0  0  0  0  0  0  0
   32.0600   35.3600   10.0340 C   0  0  0  0  0  0  0  0  0  0  0  0
   30.8020   35.5040    9.2170 C   0  0  0  0  0  0  0  0  0  0  0  0
   30.1560   34.1470    8.9830 C   0  0  0  0  0  0  0  0  0  0  0  0
   28.6900   34.3100    8.6270 C   0  0  0  0  0  0  0  0  0  0  0  0
   27.8160   33.6710    9.6500 N   0  0  0  0  0  0  0  0  0  0  0  0
  1  2  1  0  0  0  0
  3  2  1  0  0  0  0
  4  3  1  0  0  0  0
  5  4  1  0  0  0  0
  5  6  1  0  0  0  0
M  END
>  <EGIN_R>
ES LYS A 135

>  <REMARK>
  4 active torsions:
  status: ('A' for Active; 'I' for Inactive)
    5  A    between atoms: CA   and  CB  
    6  A    between atoms: CB   and  CG  
    7  A    between atoms: CG   and  CD  
    8  A    between atoms: CD   and  CE  

$$$$
ligand_87_pose_0_2HRL.pdbqt
 OpenBabel07062320523D

 52 54  0  0  1  0  0  0  0  0999 V2000
   27.4530   27.4120   19.1410 C   0  0  0  0  0  0  0  0  0  0  0  0
   27.4270   27.5730   20.6320 C   0  0  2  0  0  0  0  0  0  0  0  0
   28.8340   27.4810   21.2100 C   0  0  2  0  0  0  0  0  0  0  0  0
   29.2680   28.8930   21.5990 C   0  0  2  0  0  0  0  0  0  0  0  0
   28.4550   31.0620   21.2720 C   0  0  2  0  0  0  0  0  0  0  0  0
   29.6820   31.5320   20.5560 C   0  0  0  0  0  0  0  0  0  0  0  0
   28.2610   29.7210   21.3010 O   0  0  0  0  0  0  0  0  0  0  0  0
   30.6570   30.4600   20.2050 C   0  0  1  0  0  0  0  0  0  0  0  0
   30.6300   29.2420   21.0670 C   0  0  1  0  0  0  0  0  0  0  0  0
   27.3440   31.6060   20.6200 O   0  0  0  0  0  0  0  0  0  0  0  0
   27.4610   31.6460   19.6400 H   0  0  0  0  0  0  0  0  0  0  0  0
   28.3920   31.5590   22.6630 C   0  0  0  0  0  0  0  0  0  0  0  0
   29.3970   32.0950   23.1760 O   0  0  0  0  0  0  0  0  0  0  0  0
   27.2610   31.4690   23.4680 O   0  0  0  0  0  0  0  0  0  0  0  0
   27.2420   31.9380   24.3870 H   0  0  0  0  0  0  0  0  0  0  0  0
   30.4370   30.1260   18.8610 O   0  0  0  0  0  0  0  0  0  0  0  0
   29.5050   30.3270   18.6090 H   0  0  0  0  0  0  0  0  0  0  0  0
   31.6310   29.2100   22.0990 N   0  0  0  0  0  0  0  0  0  0  0  0
   32.4420   28.0860   22.3810 C   0  0  0  0  0  0  0  0  0  0  0  0
   31.7900   30.0630   22.6990 H   0  0  0  0  0  0  0  0  0  0  0  0
   33.4750   28.0300   23.4380 C   0  0  0  0  0  0  0  0  0  0  0  0
   32.2390   27.0820   21.6560 O   0  0  0  0  0  0  0  0  0  0  0  0
   29.7300   26.9140   20.3190 O   0  0  0  0  0  0  0  0  0  0  0  0
   29.2590   26.1890   19.8340 H   0  0  0  0  0  0  0  0  0  0  0  0
   26.6520   26.6410   21.2610 O   0  0  0  0  0  0  0  0  0  0  0  0
   25.6810   26.8600   21.1420 H   0  0  0  0  0  0  0  0  0  0  0  0
   27.9050   28.5790   18.4630 N   0  0  0  0  0  0  0  0  0  0  0  0
   27.1120   29.6970   18.1540 C   0  0  0  0  0  0  0  0  0  0  0  0
   28.9270   28.6270   18.1550 H   0  0  0  0  0  0  0  0  0  0  0  0
   25.9040   29.7690   18.4460 O   0  0  0  0  0  0  0  0  0  0  0  0
   27.6980   30.7900   17.4850 O   0  0  0  0  0  0  0  0  0  0  0  0
   28.0660   30.6310   16.1300 C   0  0  0  0  0  0  0  0  0  0  0  0
   29.2640   31.4140   15.8250 C   0  0  0  0  0  0  0  0  0  0  0  0
   29.2960   32.5780   15.0660 C   0  0  0  0  0  0  0  0  0  0  0  0
   30.5160   31.1650   16.2040 N   0  0  0  0  0  0  0  0  0  0  0  0
   30.5680   32.9900   15.0150 N   0  0  0  0  0  0  0  0  0  0  0  0
   31.2760   32.1240   15.7060 N   0  0  0  0  0  0  0  0  0  0  0  0
   31.0960   34.1520   14.3460 C   0  0  1  0  0  0  0  0  0  0  0  0
   30.4290   35.3980   14.9270 C   0  0  0  0  0  0  0  0  0  0  0  0
   32.5710   34.2220   14.6780 C   0  0  0  0  0  0  0  0  0  0  0  0
   31.1530   36.6130   14.4130 C   0  0  1  0  0  0  0  0  0  0  0  0
   33.1330   35.5570   14.3120 C   0  0  2  0  0  0  0  0  0  0  0  0
   32.4950   36.6580   14.9630 N   0  0  0  0  0  0  0  0  0  0  0  0
   31.4320   36.4640   12.9290 C   0  0  0  0  0  0  0  0  0  0  0  0
   32.7750   35.8050   12.8410 C   0  0  0  0  0  0  0  0  0  0  0  0
   32.5170   36.5840   16.3950 C   0  0  0  0  0  0  0  0  0  0  0  0
   29.8670   25.5550   16.9770 C   0  0  0  0  0  0  0  0  0  0  0  0
   28.3450   25.7220   17.0260 C   0  0  0  0  0  0  0  0  0  0  0  0
   27.6020   24.3990   16.9250 C   0  0  0  0  0  0  0  0  0  0  0  0
   26.6440   24.1980   18.0660 C   0  0  0  0  0  0  0  0  0  0  0  0
   25.2760   23.8030   17.5190 C   0  0  0  0  0  0  0  0  0  0  0  0
   25.1440   22.3280   17.4670 N   0  0  0  0  0  0  0  0  0  0  0  0
  2  1  1  6  0  0  0
  2  3  1  0  0  0  0
  2 25  1  0  0  0  0
  3 23  1  6  0  0  0
  4  3  1  6  0  0  0
  5 10  1  6  0  0  0
  5  7  1  0  0  0  0
  5 12  1  0  0  0  0
  6  5  1  0  0  0  0
  7  4  1  0  0  0  0
  8 16  1  6  0  0  0
  8  6  1  0  0  0  0
  8  9  1  0  0  0  0
  9  4  1  0  0  0  0
  9 18  1  1  0  0  0
 11 10  1  0  0  0  0
 12 13  2  0  0  0  0
 12 14  1  0  0  0  0
 14 15  1  0  0  0  0
 17 16  1  0  0  0  0
 18 19  1  0  0  0  0
 18 20  1  0  0  0  0
 19 21  1  0  0  0  0
 22 19  2  0  0  0  0
 24 23  1  0  0  0  0
 26 25  1  0  0  0  0
 27  1  1  0  0  0  0
 28 30  2  0  0  0  0
 28 27  1  0  0  0  0
 29 27  1  0  0  0  0
 31 28  1  0  0  0  0
 32 31  1  0  0  0  0
 33 32  1  0  0  0  0
 33 35  1  0  0  0  0
 34 33  2  0  0  0  0
 36 34  1  0  0  0  0
 36 37  1  0  0  0  0
 37 35  2  0  0  0  0
 38 40  1  1  0  0  0
 38 39  1  0  0  0  0
 38 36  1  0  0  0  0
 41 44  1  6  0  0  0
 41 39  1  0  0  0  0
 41 43  1  0  0  0  0
 42 45  1  6  0  0  0
 42 40  1  0  0  0  0
 42 43  1  0  0  0  0
 43 46  1  0  0  0  0
 45 44  1  0  0  0  0
 47 48  1  0  0  0  0
 49 48  1  0  0  0  0
 49 50  1  0  0  0  0
 51 50  1  0  0  0  0
 52 51  1  0  0  0  0
M  END
>  <REMARK>
 VINA RESULT:    -5.591      0.000      0.000
 INTER + INTRA:         -15.179
 INTER:                  -8.558
 INTRA:                  -6.622
 UNBOUND:                -5.502
 SMILES CC(=O)N[C@@H]1[C@@H](O)C[C@](O)(C(=O)O)O[C@H]1C(O)[C@H](O)CNC(=O)OCc1cn([C@@H]2C[C@H]3CC[C@@H](C2)N3C)nn1
 SMILES IDX 20 1 18 2 16 3 15 4 9 5 8 6 14 7 6 8 5 9 10 10 11 12 12 13
 SMILES IDX 13 14 7 16 4 18 2 19 1 21 3 22 17 23 19 25 21 27 22 28 23 30
 SMILES IDX 24 31 25 32 26 33 27 34 39 35 28 36 38 37 29 38 35 39 30 40
 SMILES IDX 34 41 31 42 36 43 33 44 32 45 37 46
 H PARENT 10 11 13 15 7 17 4 20 17 24 19 26 21 29
 Flexibility Score: inf
  4 active torsions:
  status: ('A' for Active; 'I' for Inactive)
    1  A    between atoms: CA   and  CB  
    2  A    between atoms: CB   and  CG  
    3  A    between atoms: CG   and  CD  
    4  A    between atoms: CD   and  CE  

>  <TORSDO>
F 15

>  <BEGIN_>
RES LYS A 131

$$$$
ligand_87_pose_0_2HRL.pdbqt
 OpenBabel07062320523D

  6  5  0  0  0  0  0  0  0  0999 V2000
   33.1930   34.6630    9.2900 C   0  0  0  0  0  0  0  0  0  0  0  0
   32.0600   35.3600   10.0340 C   0  0  0  0  0  0  0  0  0  0  0  0
   30.7120   34.7250    9.8100 C   0  0  0  0  0  0  0  0  0  0  0  0
   30.4460   34.5400    8.3240 C   0  0  0  0  0  0  0  0  0  0  0  0
   29.0010   34.8630    7.9970 C   0  0  0  0  0  0  0  0  0  0  0  0
   28.8890   35.5430    6.6770 N   0  0  0  0  0  0  0  0  0  0  0  0
  1  2  1  0  0  0  0
  3  2  1  0  0  0  0
  4  3  1  0  0  0  0
  5  4  1  0  0  0  0
  6  5  1  0  0  0  0
M  END
>  <EGIN_R>
ES LYS A 135

>  <REMARK>
  4 active torsions:
  status: ('A' for Active; 'I' for Inactive)
    5  A    between atoms: CA   and  CB  
    6  A    between atoms: CB   and  CG  
    7  A    between atoms: CG   and  CD  
    8  A    between atoms: CD   and  CE  

$$$$
ligand_88_pose_0_2HRL.pdbqt
 OpenBabel07062320523D

 54 54  0  0  1  0  0  0  0  0999 V2000
   26.6690   28.8240   17.1980 N   0  0  0  0  0  0  0  0  0  0  0  0
   25.6970   29.6080   16.5150 C   0  0  0  0  0  0  0  0  0  0  0  0
   24.5040   29.5580   16.8910 O   0  0  0  0  0  0  0  0  0  0  0  0
   27.6480   28.8830   16.8670 H   0  0  0  0  0  0  0  0  0  0  0  0
   26.3240   27.9750   18.3060 C   0  0  0  0  0  0  0  0  0  0  0  0
   27.4130   27.9660   19.3400 C   0  0  2  0  0  0  0  0  0  0  0  0
   28.0680   29.3210   19.4920 C   0  0  1  0  0  0  0  0  0  0  0  0
   28.8100   29.3800   20.8400 C   0  0  2  0  0  0  0  0  0  0  0  0
   30.5700   27.9490   21.4680 C   0  0  1  0  0  0  0  0  0  0  0  0
   30.0460   28.1240   22.9020 C   0  0  0  0  0  0  0  0  0  0  0  0
   30.0340   28.8770   20.6400 O   0  0  0  0  0  0  0  0  0  0  0  0
   28.5690   27.7850   22.7790 C   0  0  1  0  0  0  0  0  0  0  0  0
   27.9580   28.8480   21.9120 C   0  0  1  0  0  0  0  0  0  0  0  0
   30.3000   26.6380   21.1310 O   0  0  0  0  0  0  0  0  0  0  0  0
   29.3930   26.3390   21.3840 H   0  0  0  0  0  0  0  0  0  0  0  0
   32.0430   28.1380   21.4700 C   0  0  0  0  0  0  0  0  0  0  0  0
   32.5380   29.0340   20.7420 O   0  0  0  0  0  0  0  0  0  0  0  0
   32.8920   27.3580   22.2490 O   0  0  0  0  0  0  0  0  0  0  0  0
   33.4780   26.6900   21.7270 H   0  0  0  0  0  0  0  0  0  0  0  0
   28.3970   26.5070   22.2500 O   0  0  0  0  0  0  0  0  0  0  0  0
   29.2160   26.2740   21.7670 H   0  0  0  0  0  0  0  0  0  0  0  0
   27.4500   29.8840   22.8110 N   0  0  0  0  0  0  0  0  0  0  0  0
   26.1590   30.4540   22.6870 C   0  0  0  0  0  0  0  0  0  0  0  0
   28.0430   30.2530   23.6050 H   0  0  0  0  0  0  0  0  0  0  0  0
   25.6800   31.5120   23.6280 C   0  0  0  0  0  0  0  0  0  0  0  0
   25.3950   30.0660   21.7660 O   0  0  0  0  0  0  0  0  0  0  0  0
   28.8700   29.6780   18.4360 O   0  0  0  0  0  0  0  0  0  0  0  0
   29.7860   29.3410   18.5260 H   0  0  0  0  0  0  0  0  0  0  0  0
   28.2960   26.9380   19.0960 O   0  0  0  0  0  0  0  0  0  0  0  0
   28.2100   26.1780   19.7020 H   0  0  0  0  0  0  0  0  0  0  0  0
   26.0560   30.4090   15.4590 O   0  0  0  0  0  0  0  0  0  0  0  0
   26.2160   31.8090   15.5990 C   0  0  0  0  0  0  0  0  0  0  0  0
   27.5630   32.0800   16.1660 C   0  0  0  0  0  0  0  0  0  0  0  0
   28.7780   32.0130   15.4960 C   0  0  0  0  0  0  0  0  0  0  0  0
   27.9020   32.4400   17.4180 N   0  0  0  0  0  0  0  0  0  0  0  0
   29.7700   32.3260   16.3430 N   0  0  0  0  0  0  0  0  0  0  0  0
   29.2030   32.5880   17.5320 N   0  0  0  0  0  0  0  0  0  0  0  0
   31.1790   32.3840   16.0710 C   0  0  0  0  0  0  0  0  0  0  0  0
   31.6750   33.7680   15.8630 C   0  0  0  0  0  0  0  0  0  0  0  0
   32.2070   34.4390   16.9460 C   0  0  0  0  0  0  0  0  0  0  0  0
   31.6300   34.4120   14.6490 C   0  0  0  0  0  0  0  0  0  0  0  0
   32.6940   35.7260   16.8680 C   0  0  0  0  0  0  0  0  0  0  0  0
   32.1180   35.7190   14.5420 C   0  0  0  0  0  0  0  0  0  0  0  0
   33.4210   36.6250   18.3760 Br  0  0  0  0  0  0  0  0  0  0  0  0
   32.6410   36.3640   15.6360 C   0  0  0  0  0  0  0  0  0  0  0  0
   32.0160   36.5430   12.8110 Br  0  0  0  0  0  0  0  0  0  0  0  0
   31.1040   33.7680   13.5450 O   0  0  0  0  0  0  0  0  0  0  0  0
   31.6640   33.0770   13.0640 H   0  0  0  0  0  0  0  0  0  0  0  0
   29.8670   25.5550   16.9770 C   0  0  0  0  0  0  0  0  0  0  0  0
   28.3450   25.7220   17.0260 C   0  0  0  0  0  0  0  0  0  0  0  0
   27.6000   24.4120   16.8190 C   0  0  0  0  0  0  0  0  0  0  0  0
   26.5640   24.1750   17.8830 C   0  0  0  0  0  0  0  0  0  0  0  0
   25.1720   24.3520   17.2860 C   0  0  0  0  0  0  0  0  0  0  0  0
   24.4570   23.0540   17.2430 N   0  0  0  0  0  0  0  0  0  0  0  0
  1  5  1  0  0  0  0
  2  3  2  0  0  0  0
  2  1  1  0  0  0  0
  4  1  1  0  0  0  0
  6  5  1  6  0  0  0
  6  7  1  0  0  0  0
  7 27  1  6  0  0  0
  8  7  1  6  0  0  0
  8 13  1  0  0  0  0
  9 16  1  1  0  0  0
  9 10  1  0  0  0  0
 11  8  1  0  0  0  0
 11  9  1  0  0  0  0
 12 20  1  6  0  0  0
 12 10  1  0  0  0  0
 13 12  1  0  0  0  0
 13 22  1  1  0  0  0
 14 15  1  0  0  0  0
 16 18  1  0  0  0  0
 17 16  2  0  0  0  0
 19 18  1  0  0  0  0
 21 20  1  0  0  0  0
 22 24  1  0  0  0  0
 23 22  1  0  0  0  0
 23 25  1  0  0  0  0
 26 23  2  0  0  0  0
 27 28  1  0  0  0  0
 29  6  1  0  0  0  0
 29 30  1  0  0  0  0
 31 32  1  0  0  0  0
 31  2  1  0  0  0  0
 32 33  1  0  0  0  0
 33 35  1  0  0  0  0
 34 33  2  0  0  0  0
 34 36  1  0  0  0  0
 35 37  2  0  0  0  0
 36 37  1  0  0  0  0
 38 36  1  0  0  0  0
 39 38  1  0  0  0  0
 39 40  2  0  0  0  0
 41 39  1  0  0  0  0
 42 40  1  0  0  0  0
 42 44  1  0  0  0  0
 43 41  2  0  0  0  0
 43 45  1  0  0  0  0
 45 42  2  0  0  0  0
 46 43  1  0  0  0  0
 47 41  1  0  0  0  0
 48 47  1  0  0  0  0
 49 50  1  0  0  0  0
 51 50  1  0  0  0  0
 51 52  1  0  0  0  0
 53 52  1  0  0  0  0
 54 53  1  0  0  0  0
M  END
>  <REMARK>
 VINA RESULT:    -5.485      0.000      0.000
 INTER + INTRA:         -15.769
 INTER:                  -9.396
 INTRA:                  -6.373
 UNBOUND:                -5.794
 SMILES CC(=O)N[C@@H]1[C@@H](O)C[C@](O)(C(=O)O)O[C@H]1C(O)[C@H](O)CNC(=O)OCc1cn(Cc2cc(Br)cc(Br)c2O)nn1
 SMILES IDX 21 1 22 2 23 3 20 5 18 6 16 7 15 8 9 9 8 10 14 11 6 12 5 13
 SMILES IDX 10 14 11 16 12 17 13 18 7 20 4 22 2 23 1 25 3 26 17 27 19 29
 SMILES IDX 24 31 25 32 26 33 27 34 40 35 28 36 39 37 29 38 30 39 31 40
 SMILES IDX 37 41 32 42 35 43 33 44 34 45 36 46 38 47
 H PARENT 21 4 10 15 13 19 7 21 4 24 17 28 19 30 38 48
 Flexibility Score: inf
  4 active torsions:
  status: ('A' for Active; 'I' for Inactive)
    1  A    between atoms: CA   and  CB  
    2  A    between atoms: CB   and  CG  
    3  A    between atoms: CG   and  CD  
    4  A    between atoms: CD   and  CE  

>  <TORSDO>
F 17

>  <BEGIN_>
RES LYS A 131

$$$$
ligand_88_pose_0_2HRL.pdbqt
 OpenBabel07062320523D

  6  5  0  0  0  0  0  0  0  0999 V2000
   33.1930   34.6630    9.2900 C   0  0  0  0  0  0  0  0  0  0  0  0
   32.0600   35.3600   10.0340 C   0  0  0  0  0  0  0  0  0  0  0  0
   30.8040   35.5090    9.2150 C   0  0  0  0  0  0  0  0  0  0  0  0
   30.1540   34.1550    8.9770 C   0  0  0  0  0  0  0  0  0  0  0  0
   28.6950   34.3230    8.6000 C   0  0  0  0  0  0  0  0  0  0  0  0
   27.8030   33.6880    9.6100 N   0  0  0  0  0  0  0  0  0  0  0  0
  1  2  1  0  0  0  0
  3  2  1  0  0  0  0
  4  3  1  0  0  0  0
  5  4  1  0  0  0  0
  5  6  1  0  0  0  0
M  END
>  <EGIN_R>
ES LYS A 135

>  <REMARK>
  4 active torsions:
  status: ('A' for Active; 'I' for Inactive)
    5  A    between atoms: CA   and  CB  
    6  A    between atoms: CB   and  CG  
    7  A    between atoms: CG   and  CD  
    8  A    between atoms: CD   and  CE  

$$$$
ligand_89_pose_0_2HRL.pdbqt
 OpenBabel07062320523D

 60 63  0  0  1  0  0  0  0  0999 V2000
   26.3550   29.0930   19.6180 N   0  0  0  0  0  0  0  0  0  0  0  0
   26.0930   28.3550   18.4630 C   0  0  0  0  0  0  0  0  0  0  0  0
   25.7510   27.1710   18.4650 O   0  0  0  0  0  0  0  0  0  0  0  0
   26.6180   30.1440   19.4560 H   0  0  0  0  0  0  0  0  0  0  0  0
   26.3140   28.6250   20.9490 C   0  0  0  0  0  0  0  0  0  0  0  0
   27.4300   27.7890   21.3940 C   0  0  2  0  0  0  0  0  0  0  0  0
   28.7580   27.8130   20.7580 C   0  0  1  0  0  0  0  0  0  0  0  0
   29.7180   28.4480   21.8080 C   0  0  2  0  0  0  0  0  0  0  0  0
   30.8830   30.0980   20.6110 C   0  0  2  0  0  0  0  0  0  0  0  0
   32.1770   29.4310   20.9400 C   0  0  0  0  0  0  0  0  0  0  0  0
   29.9050   29.7370   21.4790 O   0  0  0  0  0  0  0  0  0  0  0  0
   32.0750   27.9410   21.1410 C   0  0  1  0  0  0  0  0  0  0  0  0
   30.9030   27.5840   22.0290 C   0  0  1  0  0  0  0  0  0  0  0  0
   30.4720   29.7370   19.3030 O   0  0  0  0  0  0  0  0  0  0  0  0
   29.5620   30.1250   19.2050 H   0  0  0  0  0  0  0  0  0  0  0  0
   31.1520   31.5760   20.6390 C   0  0  0  0  0  0  0  0  0  0  0  0
   32.1990   31.9980   21.1470 O   0  0  0  0  0  0  0  0  0  0  0  0
   30.2380   32.4500   20.1020 O   0  0  0  0  0  0  0  0  0  0  0  0
   29.3630   32.6580   20.5920 H   0  0  0  0  0  0  0  0  0  0  0  0
   32.0020   27.2410   19.9360 O   0  0  0  0  0  0  0  0  0  0  0  0
   32.1870   27.8590   19.1870 H   0  0  0  0  0  0  0  0  0  0  0  0
   31.3830   27.6590   23.4150 N   0  0  0  0  0  0  0  0  0  0  0  0
   30.9760   26.7470   24.4100 C   0  0  0  0  0  0  0  0  0  0  0  0
   32.0620   28.4160   23.7090 H   0  0  0  0  0  0  0  0  0  0  0  0
   31.4650   26.8270   25.8110 C   0  0  0  0  0  0  0  0  0  0  0  0
   30.1640   25.8170   24.1220 O   0  0  0  0  0  0  0  0  0  0  0  0
   29.2710   26.5640   20.4020 O   0  0  0  0  0  0  0  0  0  0  0  0
   28.6510   25.8320   20.7120 H   0  0  0  0  0  0  0  0  0  0  0  0
   26.9290   26.4320   21.3680 O   0  0  0  0  0  0  0  0  0  0  0  0
   27.1650   25.9970   20.5310 H   0  0  0  0  0  0  0  0  0  0  0  0
   26.2150   28.9450   17.1850 O   0  0  0  0  0  0  0  0  0  0  0  0
   27.4160   28.9090   16.4700 C   0  0  0  0  0  0  0  0  0  0  0  0
   28.1780   30.1610   16.7070 C   0  0  0  0  0  0  0  0  0  0  0  0
   28.9370   30.8670   15.7790 C   0  0  0  0  0  0  0  0  0  0  0  0
   28.2940   30.8710   17.8440 N   0  0  0  0  0  0  0  0  0  0  0  0
   29.4840   31.9690   16.3670 N   0  0  0  0  0  0  0  0  0  0  0  0
   29.0620   31.9160   17.6050 N   0  0  0  0  0  0  0  0  0  0  0  0
   30.3120   32.9000   15.6780 C   0  0  0  0  0  0  0  0  0  0  0  0
   31.6760   32.9480   15.7380 N   0  0  0  0  0  0  0  0  0  0  0  0
   29.9500   33.9150   14.8320 C   0  0  0  0  0  0  0  0  0  0  0  0
   32.1050   33.9500   14.9600 C   0  0  0  0  0  0  0  0  0  0  0  0
   31.0620   34.5740   14.3820 N   0  0  0  0  0  0  0  0  0  0  0  0
   28.7420   34.3540   14.3890 C   0  0  0  0  0  0  0  0  0  0  0  0
   30.9840   35.6160   13.5340 C   0  0  0  0  0  0  0  0  0  0  0  0
   28.6180   35.3800   13.5510 N   0  0  0  0  0  0  0  0  0  0  0  0
   27.6760   33.8000   14.7600 O   0  0  0  0  0  0  0  0  0  0  0  0
   32.1280   36.2550   13.1020 C   0  0  0  0  0  0  0  0  0  0  0  0
   29.7290   36.0130   13.1210 C   0  0  0  0  0  0  0  0  0  0  0  0
   32.0780   37.3300   12.2300 C   0  0  0  0  0  0  0  0  0  0  0  0
   29.7060   37.0920   12.2490 C   0  0  0  0  0  0  0  0  0  0  0  0
   30.8430   37.7400   11.8080 C   0  0  0  0  0  0  0  0  0  0  0  0
   27.3660   35.8930   13.0410 C   0  0  0  0  0  0  0  0  0  0  0  0
   26.5610   36.3680   14.2310 C   0  0  0  0  0  0  0  0  0  0  0  0
   26.5370   34.8940   12.3000 C   0  0  0  0  0  0  0  0  0  0  0  0
   29.8670   25.5550   16.9770 C   0  0  0  0  0  0  0  0  0  0  0  0
   28.3450   25.7220   17.0260 C   0  0  0  0  0  0  0  0  0  0  0  0
   27.5990   24.4320   16.7200 C   0  0  0  0  0  0  0  0  0  0  0  0
   26.9740   23.8340   17.9500 C   0  0  0  0  0  0  0  0  0  0  0  0
   25.6140   23.2420   17.5930 C   0  0  0  0  0  0  0  0  0  0  0  0
   24.7690   24.2540   16.9170 N   0  0  0  0  0  0  0  0  0  0  0  0
  1  5  1  0  0  0  0
  2  3  2  0  0  0  0
  2  1  1  0  0  0  0
  4  1  1  0  0  0  0
  6  5  1  6  0  0  0
  7 27  1  1  0  0  0
  7  6  1  0  0  0  0
  8  7  1  6  0  0  0
  8 13  1  0  0  0  0
  9 14  1  6  0  0  0
  9 16  1  0  0  0  0
  9 10  1  0  0  0  0
  9 11  1  0  0  0  0
 10 12  1  0  0  0  0
 11  8  1  0  0  0  0
 12 20  1  6  0  0  0
 12 13  1  0  0  0  0
 13 22  1  1  0  0  0
 15 14  1  0  0  0  0
 16 17  2  0  0  0  0
 18 19  1  0  0  0  0
 18 16  1  0  0  0  0
 21 20  1  0  0  0  0
 22 24  1  0  0  0  0
 22 23  1  0  0  0  0
 23 25  1  0  0  0  0
 26 23  2  0  0  0  0
 27 28  1  0  0  0  0
 29  6  1  0  0  0  0
 30 29  1  0  0  0  0
 31  2  1  0  0  0  0
 32 33  1  0  0  0  0
 32 31  1  0  0  0  0
 33 35  1  0  0  0  0
 34 36  1  0  0  0  0
 34 33  2  0  0  0  0
 36 37  1  0  0  0  0
 37 35  2  0  0  0  0
 38 39  1  0  0  0  0
 38 36  1  0  0  0  0
 40 38  2  0  0  0  0
 41 39  2  0  0  0  0
 42 40  1  0  0  0  0
 42 41  1  0  0  0  0
 43 46  2  0  0  0  0
 43 40  1  0  0  0  0
 44 42  1  0  0  0  0
 45 43  1  0  0  0  0
 47 44  2  0  0  0  0
 48 44  1  0  0  0  0
 48 45  1  0  0  0  0
 49 47  1  0  0  0  0
 50 48  2  0  0  0  0
 51 49  2  0  0  0  0
 51 50  1  0  0  0  0
 52 45  1  0  0  0  0
 52 53  1  0  0  0  0
 54 52  1  0  0  0  0
 55 56  1  0  0  0  0
 57 56  1  0  0  0  0
 57 58  1  0  0  0  0
 59 58  1  0  0  0  0
 60 59  1  0  0  0  0
M  END
>  <REMARK>
 VINA RESULT:    -5.287      0.000      0.000
 INTER + INTRA:         -16.568
 INTER:                 -10.669
 INTRA:                  -5.898
 UNBOUND:                -7.109
 SMILES CC(=O)N[C@@H]1[C@@H](O)C[C@](O)(C(=O)O)O[C@H]1C(O)[C@H](O)CNC(=O)OCc1cn(-c2ncn3c2c(=O)n(C(C)C)c2ccccc23)nn1
 SMILES IDX 21 1 22 2 23 3 20 5 18 6 16 7 15 8 9 9 8 10 14 11 6 12 5 13
 SMILES IDX 10 14 11 16 12 17 13 18 7 20 4 22 2 23 1 25 3 26 17 27 19 29
 SMILES IDX 24 31 25 32 26 33 27 34 47 35 28 36 46 37 29 38 30 39 33 40
 SMILES IDX 31 41 32 42 34 43 45 44 36 45 35 46 44 47 40 48 43 49 41 50
 SMILES IDX 42 51 37 52 38 53 39 54
 H PARENT 21 4 10 15 13 19 7 21 4 24 17 28 19 30
 Flexibility Score: inf
  4 active torsions:
  status: ('A' for Active; 'I' for Inactive)
    1  A    between atoms: CA   and  CB  
    2  A    between atoms: CB   and  CG  
    3  A    between atoms: CG   and  CD  
    4  A    between atoms: CD   and  CE  

>  <TORSDO>
F 16

>  <BEGIN_>
RES LYS A 131

$$$$
ligand_89_pose_0_2HRL.pdbqt
 OpenBabel07062320523D

  6  5  0  0  0  0  0  0  0  0999 V2000
   33.1930   34.6630    9.2900 C   0  0  0  0  0  0  0  0  0  0  0  0
   32.0600   35.3600   10.0340 C   0  0  0  0  0  0  0  0  0  0  0  0
   30.7720   35.4150    9.2540 C   0  0  0  0  0  0  0  0  0  0  0  0
   30.1830   34.0220    9.0910 C   0  0  0  0  0  0  0  0  0  0  0  0
   28.6690   34.0710    9.1700 C   0  0  0  0  0  0  0  0  0  0  0  0
   28.0970   34.8320    8.0250 N   0  0  0  0  0  0  0  0  0  0  0  0
  1  2  1  0  0  0  0
  3  2  1  0  0  0  0
  4  5  1  0  0  0  0
  4  3  1  0  0  0  0
  6  5  1  0  0  0  0
M  END
>  <EGIN_R>
ES LYS A 135

>  <REMARK>
  4 active torsions:
  status: ('A' for Active; 'I' for Inactive)
    5  A    between atoms: CA   and  CB  
    6  A    between atoms: CB   and  CG  
    7  A    between atoms: CG   and  CD  
    8  A    between atoms: CD   and  CE  

$$$$
ligand_8_pose_0_2HRL.pdbqt
 OpenBabel07062320523D

 50 51  0  0  1  0  0  0  0  0999 V2000
   26.5890   27.4340   19.6280 C   0  0  0  0  0  0  0  0  0  0  0  0
   27.3170   27.5710   20.9400 C   0  0  2  0  0  0  0  0  0  0  0  0
   28.7560   27.8600   20.6420 C   0  0  1  0  0  0  0  0  0  0  0  0
   29.3970   28.9340   21.4890 C   0  0  2  0  0  0  0  0  0  0  0  0
   30.3150   30.5720   20.0840 C   0  0  2  0  0  0  0  0  0  0  0  0
   31.3440   30.9510   21.1500 C   0  0  0  0  0  0  0  0  0  0  0  0
   29.2400   30.1110   20.7670 O   0  0  0  0  0  0  0  0  0  0  0  0
   31.8260   29.6480   21.7200 C   0  0  1  0  0  0  0  0  0  0  0  0
   30.7420   28.6410   21.9960 C   0  0  1  0  0  0  0  0  0  0  0  0
   30.9340   29.7030   19.2230 O   0  0  0  0  0  0  0  0  0  0  0  0
   30.6690   29.9510   18.3030 H   0  0  0  0  0  0  0  0  0  0  0  0
   29.9330   31.7950   19.3250 C   0  0  0  0  0  0  0  0  0  0  0  0
   30.8120   32.4020   18.6650 O   0  0  0  0  0  0  0  0  0  0  0  0
   28.6290   32.2780   19.3310 O   0  0  0  0  0  0  0  0  0  0  0  0
   27.8480   31.7760   18.9160 H   0  0  0  0  0  0  0  0  0  0  0  0
   32.7270   29.1220   20.7930 O   0  0  0  0  0  0  0  0  0  0  0  0
   32.2730   28.6120   20.0990 H   0  0  0  0  0  0  0  0  0  0  0  0
   30.6520   28.4520   23.4590 N   0  0  0  0  0  0  0  0  0  0  0  0
   30.4750   27.1700   24.0260 C   0  0  0  0  0  0  0  0  0  0  0  0
   30.7230   29.2860   24.1100 H   0  0  0  0  0  0  0  0  0  0  0  0
   30.3740   26.9720   25.5120 C   0  0  0  0  0  0  0  0  0  0  0  0
   30.4000   26.1850   23.2500 O   0  0  0  0  0  0  0  0  0  0  0  0
   29.4730   26.6970   20.5320 O   0  0  0  0  0  0  0  0  0  0  0  0
   29.9030   26.4220   21.3970 H   0  0  0  0  0  0  0  0  0  0  0  0
   27.1890   26.4220   21.6760 O   0  0  0  0  0  0  0  0  0  0  0  0
   26.4890   25.8090   21.3180 H   0  0  0  0  0  0  0  0  0  0  0  0
   27.2530   27.9270   18.4700 N   0  0  0  0  0  0  0  0  0  0  0  0
   27.2050   29.2700   18.0350 C   0  0  0  0  0  0  0  0  0  0  0  0
   27.8390   27.2640   17.8610 H   0  0  0  0  0  0  0  0  0  0  0  0
   26.5550   30.1640   18.6260 O   0  0  0  0  0  0  0  0  0  0  0  0
   27.9200   29.6260   16.8820 O   0  0  0  0  0  0  0  0  0  0  0  0
   27.2840   30.4870   15.9650 C   0  0  0  0  0  0  0  0  0  0  0  0
   27.9900   31.7910   15.9980 C   0  0  0  0  0  0  0  0  0  0  0  0
   29.1470   32.0840   15.2640 C   0  0  0  0  0  0  0  0  0  0  0  0
   27.7430   32.9210   16.6710 N   0  0  0  0  0  0  0  0  0  0  0  0
   29.5420   33.3440   15.5160 N   0  0  0  0  0  0  0  0  0  0  0  0
   28.6660   33.8300   16.3780 N   0  0  0  0  0  0  0  0  0  0  0  0
   30.6780   34.0010   14.9550 C   0  0  0  0  0  0  0  0  0  0  0  0
   31.9360   33.8660   15.5000 C   0  0  0  0  0  0  0  0  0  0  0  0
   30.5590   34.7990   13.8370 C   0  0  0  0  0  0  0  0  0  0  0  0
   33.0370   34.5160   14.9380 C   0  0  0  0  0  0  0  0  0  0  0  0
   31.6490   35.4460   13.2760 C   0  0  0  0  0  0  0  0  0  0  0  0
   28.8110   34.9930   13.0690 Br  0  0  0  0  0  0  0  0  0  0  0  0
   32.9090   35.3130   13.8190 C   0  0  0  0  0  0  0  0  0  0  0  0
   29.8670   25.5550   16.9770 C   0  0  0  0  0  0  0  0  0  0  0  0
   28.3450   25.7220   17.0260 C   0  0  0  0  0  0  0  0  0  0  0  0
   27.6000   24.4120   16.8180 C   0  0  0  0  0  0  0  0  0  0  0  0
   26.8280   23.9990   18.0400 C   0  0  0  0  0  0  0  0  0  0  0  0
   25.5010   23.3780   17.6180 C   0  0  0  0  0  0  0  0  0  0  0  0
   24.6710   24.3700   16.8940 N   0  0  0  0  0  0  0  0  0  0  0  0
  2  1  1  6  0  0  0
  2 25  1  0  0  0  0
  3 23  1  1  0  0  0
  3  2  1  0  0  0  0
  4  3  1  6  0  0  0
  4  9  1  0  0  0  0
  5 10  1  6  0  0  0
  5  7  1  0  0  0  0
  5  6  1  0  0  0  0
  6  8  1  0  0  0  0
  7  4  1  0  0  0  0
  8 16  1  6  0  0  0
  8  9  1  0  0  0  0
  9 18  1  1  0  0  0
 11 10  1  0  0  0  0
 12 14  1  0  0  0  0
 12  5  1  0  0  0  0
 13 12  2  0  0  0  0
 15 14  1  0  0  0  0
 17 16  1  0  0  0  0
 18 19  1  0  0  0  0
 18 20  1  0  0  0  0
 19 21  1  0  0  0  0
 22 19  2  0  0  0  0
 23 24  1  0  0  0  0
 26 25  1  0  0  0  0
 27  1  1  0  0  0  0
 28 27  1  0  0  0  0
 28 30  2  0  0  0  0
 29 27  1  0  0  0  0
 31 28  1  0  0  0  0
 32 33  1  0  0  0  0
 32 31  1  0  0  0  0
 33 35  1  0  0  0  0
 34 36  1  0  0  0  0
 34 33  2  0  0  0  0
 36 37  1  0  0  0  0
 37 35  2  0  0  0  0
 38 39  1  0  0  0  0
 38 36  1  0  0  0  0
 40 38  2  0  0  0  0
 41 39  2  0  0  0  0
 42 44  2  0  0  0  0
 42 40  1  0  0  0  0
 43 40  1  0  0  0  0
 44 41  1  0  0  0  0
 45 46  1  0  0  0  0
 47 46  1  0  0  0  0
 47 48  1  0  0  0  0
 49 48  1  0  0  0  0
 50 49  1  0  0  0  0
M  END
>  <REMARK>
 VINA RESULT:    -6.078      0.000      0.000
 INTER + INTRA:         -14.914
 INTER:                  -8.762
 INTRA:                  -6.153
 UNBOUND:                -4.396
 SMILES CC(=O)N[C@@H]1[C@@H](O)C[C@](O)(C(=O)O)O[C@H]1C(O)[C@H](O)CNC(=O)OCc1cn(-c2ccccc2Br)nn1
 SMILES IDX 20 1 18 2 16 3 15 4 9 5 8 6 14 7 6 8 5 9 10 10 11 12 12 13
 SMILES IDX 13 14 7 16 4 18 2 19 1 21 3 22 17 23 19 25 21 27 22 28 23 30
 SMILES IDX 24 31 25 32 26 33 27 34 37 35 28 36 36 37 29 38 30 39 34 40
 SMILES IDX 31 41 33 42 35 43 32 44
 H PARENT 10 11 13 15 7 17 4 20 17 24 19 26 21 29
 Flexibility Score: inf
  4 active torsions:
  status: ('A' for Active; 'I' for Inactive)
    1  A    between atoms: CA   and  CB  
    2  A    between atoms: CB   and  CG  
    3  A    between atoms: CG   and  CD  
    4  A    between atoms: CD   and  CE  

>  <TORSDO>
F 15

>  <BEGIN_>
RES LYS A 131

$$$$
ligand_8_pose_0_2HRL.pdbqt
 OpenBabel07062320523D

  6  5  0  0  0  0  0  0  0  0999 V2000
   33.1930   34.6630    9.2900 C   0  0  0  0  0  0  0  0  0  0  0  0
   32.0600   35.3600   10.0340 C   0  0  0  0  0  0  0  0  0  0  0  0
   30.7050   34.7530    9.7740 C   0  0  0  0  0  0  0  0  0  0  0  0
   30.1910   35.1570    8.4010 C   0  0  0  0  0  0  0  0  0  0  0  0
   28.8310   34.5400    8.1390 C   0  0  0  0  0  0  0  0  0  0  0  0
   28.2710   33.9310    9.3770 N   0  0  0  0  0  0  0  0  0  0  0  0
  1  2  1  0  0  0  0
  3  2  1  0  0  0  0
  4  3  1  0  0  0  0
  5  4  1  0  0  0  0
  5  6  1  0  0  0  0
M  END
>  <EGIN_R>
ES LYS A 135

>  <REMARK>
  4 active torsions:
  status: ('A' for Active; 'I' for Inactive)
    5  A    between atoms: CA   and  CB  
    6  A    between atoms: CB   and  CG  
    7  A    between atoms: CG   and  CD  
    8  A    between atoms: CD   and  CE  

$$$$
ligand_90_pose_0_2HRL.pdbqt
 OpenBabel07062320523D

 61 62  0  0  1  0  0  0  0  0999 V2000
   27.6360   39.0310    4.3100 C   0  0  0  0  0  0  0  0  0  0  0  0
   28.3800   38.0290    4.9760 O   0  0  0  0  0  0  0  0  0  0  0  0
   27.9920   37.5340    6.2080 C   0  0  0  0  0  0  0  0  0  0  0  0
   26.6370   37.1240    6.4540 N   0  0  0  0  0  0  0  0  0  0  0  0
   25.9760   37.2290    5.6590 H   0  0  0  0  0  0  0  0  0  0  0  0
   28.8450   37.4520    7.1090 O   0  0  0  0  0  0  0  0  0  0  0  0
   26.1910   36.6000    7.7000 C   0  0  0  0  0  0  0  0  0  0  0  0
   25.2990   37.5080    8.4710 C   0  0  2  0  0  0  0  0  0  0  0  0
   23.8890   37.4060    7.9120 C   0  0  1  0  0  0  0  0  0  0  0  0
   22.8360   37.6620    8.9420 C   0  0  2  0  0  0  0  0  0  0  0  0
   20.8670   36.5560    8.3720 C   0  0  2  0  0  0  0  0  0  0  0  0
   19.9340   37.6860    8.7800 C   0  0  0  0  0  0  0  0  0  0  0  0
   22.0280   36.5650    9.0940 O   0  0  0  0  0  0  0  0  0  0  0  0
   20.7330   38.7830    9.4710 C   0  0  1  0  0  0  0  0  0  0  0  0
   22.0440   38.9020    8.6850 C   0  0  1  0  0  0  0  0  0  0  0  0
   21.1480   36.7570    7.0330 O   0  0  0  0  0  0  0  0  0  0  0  0
   21.7200   37.5560    6.9090 H   0  0  0  0  0  0  0  0  0  0  0  0
   20.2060   35.2320    8.5080 C   0  0  0  0  0  0  0  0  0  0  0  0
   19.6130   34.8910    9.5710 O   0  0  0  0  0  0  0  0  0  0  0  0
   20.2140   34.3180    7.4690 O   0  0  0  0  0  0  0  0  0  0  0  0
   20.7320   33.4580    7.4500 H   0  0  0  0  0  0  0  0  0  0  0  0
   19.9960   39.9510    9.3930 O   0  0  0  0  0  0  0  0  0  0  0  0
   20.2450   40.5200    8.6300 H   0  0  0  0  0  0  0  0  0  0  0  0
   22.7590   40.0970    9.1140 N   0  0  0  0  0  0  0  0  0  0  0  0
   22.6820   41.2680    8.3340 C   0  0  0  0  0  0  0  0  0  0  0  0
   23.3120   40.0740    9.9730 H   0  0  0  0  0  0  0  0  0  0  0  0
   23.4050   42.5280    8.7410 C   0  0  0  0  0  0  0  0  0  0  0  0
   22.0240   41.3470    7.2690 O   0  0  0  0  0  0  0  0  0  0  0  0
   23.7090   38.2700    6.8430 O   0  0  0  0  0  0  0  0  0  0  0  0
   22.8710   38.1290    6.3660 H   0  0  0  0  0  0  0  0  0  0  0  0
   25.6880   38.8380    8.4760 O   0  0  0  0  0  0  0  0  0  0  0  0
   24.9160   39.4620    8.5440 H   0  0  0  0  0  0  0  0  0  0  0  0
   27.1950   39.9720    5.3680 C   0  0  0  0  0  0  0  0  0  0  0  0
   28.0400   40.8160    6.0540 C   0  0  0  0  0  0  0  0  0  0  0  0
   25.9820   40.2190    5.8850 N   0  0  0  0  0  0  0  0  0  0  0  0
   27.3300   41.5510    6.9650 N   0  0  0  0  0  0  0  0  0  0  0  0
   26.0840   41.1650    6.8370 N   0  0  0  0  0  0  0  0  0  0  0  0
   27.9670   42.5160    7.8330 C   0  0  0  0  0  0  0  0  0  0  0  0
   28.4490   41.7410    9.0450 C   0  0  0  0  0  0  0  0  0  0  0  0
   29.6430   41.8250    9.4060 O   0  0  0  0  0  0  0  0  0  0  0  0
   27.5990   40.9190    9.7890 N   0  0  0  0  0  0  0  0  0  0  0  0
   26.5760   40.9240    9.4150 H   0  0  0  0  0  0  0  0  0  0  0  0
   27.8680   40.1060   10.9180 C   0  0  0  0  0  0  0  0  0  0  0  0
   28.4040   38.7570   10.7510 C   0  0  1  0  0  0  0  0  0  0  0  0
   29.2100   38.6190    9.5890 O   0  0  0  0  0  0  0  0  0  0  0  0
   30.0760   39.0710    9.7390 H   0  0  0  0  0  0  0  0  0  0  0  0
   28.8530   37.9490   11.8960 C   0  0  0  0  0  0  0  0  0  0  0  0
   28.0100   36.8000   12.1640 N   0  0  0  0  0  0  0  0  0  0  0  0
   26.6950   36.6920   11.8450 C   0  0  0  0  0  0  0  0  0  0  0  0
   28.3900   35.6690   12.7860 C   0  0  0  0  0  0  0  0  0  0  0  0
   26.2800   35.4530   12.2950 C   0  0  0  0  0  0  0  0  0  0  0  0
   27.3120   34.8310   12.8680 N   0  0  0  0  0  0  0  0  0  0  0  0
   29.6620   35.3140   13.2990 N   0  0  0  0  0  0  0  0  0  0  0  0
   30.3450   34.4730   12.6440 O   0  0  0  0  0  0  0  0  0  0  0  0
   30.2290   35.7860   14.4340 O   0  0  0  0  0  0  0  0  0  0  0  0
   29.8670   25.5550   16.9770 C   0  0  0  0  0  0  0  0  0  0  0  0
   28.3450   25.7220   17.0260 C   0  0  0  0  0  0  0  0  0  0  0  0
   27.6050   24.3930   17.0490 C   0  0  0  0  0  0  0  0  0  0  0  0
   26.5370   24.3580   18.1070 C   0  0  0  0  0  0  0  0  0  0  0  0
   25.3170   25.1360   17.6240 C   0  0  0  0  0  0  0  0  0  0  0  0
   24.4410   24.2690   16.8010 N   0  0  0  0  0  0  0  0  0  0  0  0
  1  2  1  0  0  0  0
  1 33  1  0  0  0  0
  2  3  1  0  0  0  0
  3  4  1  0  0  0  0
  3  6  2  0  0  0  0
  4  7  1  0  0  0  0
  5  4  1  0  0  0  0
  8  7  1  6  0  0  0
  8 31  1  0  0  0  0
  9 29  1  6  0  0  0
  9  8  1  0  0  0  0
 10  9  1  6  0  0  0
 10 13  1  0  0  0  0
 11 16  1  6  0  0  0
 11 18  1  0  0  0  0
 11 12  1  0  0  0  0
 11 13  1  0  0  0  0
 12 14  1  0  0  0  0
 14 22  1  6  0  0  0
 15 10  1  0  0  0  0
 15 24  1  1  0  0  0
 15 14  1  0  0  0  0
 17 16  1  0  0  0  0
 18 19  2  0  0  0  0
 20 18  1  0  0  0  0
 21 20  1  0  0  0  0
 23 22  1  0  0  0  0
 24 26  1  0  0  0  0
 25 27  1  0  0  0  0
 25 24  1  0  0  0  0
 28 25  2  0  0  0  0
 30 29  1  0  0  0  0
 31 32  1  0  0  0  0
 33 35  1  0  0  0  0
 33 34  2  0  0  0  0
 34 36  1  0  0  0  0
 35 37  2  0  0  0  0
 36 38  1  0  0  0  0
 37 36  1  0  0  0  0
 38 39  1  0  0  0  0
 39 40  2  0  0  0  0
 39 41  1  0  0  0  0
 41 43  1  0  0  0  0
 42 41  1  0  0  0  0
 44 43  1  1  0  0  0
 44 47  1  0  0  0  0
 45 46  1  0  0  0  0
 45 44  1  0  0  0  0
 47 48  1  0  0  0  0
 48 50  1  0  0  0  0
 49 48  1  0  0  0  0
 49 51  2  0  0  0  0
 50 52  2  0  0  0  0
 50 53  1  0  0  0  0
 51 52  1  0  0  0  0
 53 55  2  0  0  0  0
 54 53  2  0  0  0  0
 56 57  1  0  0  0  0
 57 58  1  0  0  0  0
 58 59  1  0  0  0  0
 60 59  1  0  0  0  0
 61 60  1  0  0  0  0
M  END
>  <REMARK>
 VINA RESULT:    -5.470      0.000      0.000
 INTER + INTRA:         -17.304
 INTER:                  -9.080
 INTRA:                  -8.225
 UNBOUND:                -5.759
 SMILES CC(=O)N[C@@H]1[C@@H](O)C[C@](O)(C(=O)O)O[C@H]1C(O)[C@H](O)CNC(=O)OCc1cn(CC(=O)NCC(O)Cn2ccnc2[N+](=O)[O-])nn1
 SMILES IDX 25 1 24 2 22 3 21 4 23 6 20 7 18 8 16 9 15 10 9 11 8 12
 SMILES IDX 14 13 6 14 5 15 10 16 11 18 12 19 13 20 7 22 4 24 2 25 1 27
 SMILES IDX 3 28 17 29 19 31 26 33 27 34 46 35 28 36 45 37 29 38 30 39
 SMILES IDX 31 40 32 41 33 43 34 44 35 45 36 47 37 48 38 49 41 50 39 51
 SMILES IDX 40 52 42 53 43 54 44 55
 H PARENT 21 5 10 17 13 21 7 23 4 26 17 30 19 32 32 42 35 46
 Flexibility Score: inf
  4 active torsions:
  status: ('A' for Active; 'I' for Inactive)
    1  A    between atoms: CA   and  CB  
    2  A    between atoms: CB   and  CG  
    3  A    between atoms: CG   and  CD  
    4  A    between atoms: CD   and  CE  

>  <TORSDO>
F 22

>  <BEGIN_>
RES LYS A 131

$$$$
ligand_90_pose_0_2HRL.pdbqt
 OpenBabel07062320523D

  6  5  0  0  0  0  0  0  0  0999 V2000
   33.1930   34.6630    9.2900 C   0  0  0  0  0  0  0  0  0  0  0  0
   32.0600   35.3600   10.0340 C   0  0  0  0  0  0  0  0  0  0  0  0
   30.7910   35.4750    9.2290 C   0  0  0  0  0  0  0  0  0  0  0  0
   30.1210   34.1170    9.0880 C   0  0  0  0  0  0  0  0  0  0  0  0
   28.6830   34.2780    8.6320 C   0  0  0  0  0  0  0  0  0  0  0  0
   27.7410   33.6370    9.5920 N   0  0  0  0  0  0  0  0  0  0  0  0
  1  2  1  0  0  0  0
  3  2  1  0  0  0  0
  4  3  1  0  0  0  0
  5  4  1  0  0  0  0
  5  6  1  0  0  0  0
M  END
>  <EGIN_R>
ES LYS A 135

>  <REMARK>
  4 active torsions:
  status: ('A' for Active; 'I' for Inactive)
    5  A    between atoms: CA   and  CB  
    6  A    between atoms: CB   and  CG  
    7  A    between atoms: CG   and  CD  
    8  A    between atoms: CD   and  CE  

$$$$
ligand_91_pose_0_2HRL.pdbqt
 OpenBabel07062320523D

 57 60  0  0  1  0  0  0  0  0999 V2000
   24.6410   37.1930    9.1640 C   0  0  0  0  0  0  0  0  0  0  0  0
   25.7380   37.3340    8.1440 C   0  0  2  0  0  0  0  0  0  0  0  0
   26.9330   37.8820    8.8590 C   0  0  2  0  0  0  0  0  0  0  0  0
   28.1410   38.1050    7.9610 C   0  0  2  0  0  0  0  0  0  0  0  0
   28.8740   39.5790    6.4040 C   0  0  2  0  0  0  0  0  0  0  0  0
   29.1890   38.5590    5.3430 C   0  0  0  0  0  0  0  0  0  0  0  0
   27.8460   39.2070    7.2080 O   0  0  0  0  0  0  0  0  0  0  0  0
   28.6150   37.2050    5.6460 C   0  0  1  0  0  0  0  0  0  0  0  0
   28.4320   36.9310    7.1010 C   0  0  1  0  0  0  0  0  0  0  0  0
   28.4140   40.7680    5.7450 O   0  0  0  0  0  0  0  0  0  0  0  0
   27.4740   40.6430    5.4660 H   0  0  0  0  0  0  0  0  0  0  0  0
   30.1150   40.0100    7.0920 C   0  0  0  0  0  0  0  0  0  0  0  0
   30.1770   41.0830    7.7490 O   0  0  0  0  0  0  0  0  0  0  0  0
   31.2980   39.2540    7.0550 O   0  0  0  0  0  0  0  0  0  0  0  0
   31.8130   39.1860    6.1900 H   0  0  0  0  0  0  0  0  0  0  0  0
   27.4090   37.0670    4.9520 O   0  0  0  0  0  0  0  0  0  0  0  0
   26.6760   36.7880    5.5550 H   0  0  0  0  0  0  0  0  0  0  0  0
   29.5600   36.1180    7.5700 N   0  0  0  0  0  0  0  0  0  0  0  0
   29.3830   34.8820    8.2510 C   0  0  0  0  0  0  0  0  0  0  0  0
   30.5490   36.4170    7.4210 H   0  0  0  0  0  0  0  0  0  0  0  0
   30.5460   34.0660    8.7190 C   0  0  0  0  0  0  0  0  0  0  0  0
   28.2230   34.4480    8.4750 O   0  0  0  0  0  0  0  0  0  0  0  0
   27.3040   37.0040    9.8650 O   0  0  0  0  0  0  0  0  0  0  0  0
   26.9580   37.3610   10.7190 H   0  0  0  0  0  0  0  0  0  0  0  0
   25.3190   38.1190    7.0960 O   0  0  0  0  0  0  0  0  0  0  0  0
   25.2420   39.0620    7.4330 H   0  0  0  0  0  0  0  0  0  0  0  0
   24.5840   35.9580    9.8660 N   0  0  0  0  0  0  0  0  0  0  0  0
   23.8440   35.7350   11.0460 C   0  0  0  0  0  0  0  0  0  0  0  0
   25.1270   35.0890    9.5180 H   0  0  0  0  0  0  0  0  0  0  0  0
   23.1730   36.6400   11.5810 O   0  0  0  0  0  0  0  0  0  0  0  0
   23.8210   34.4830   11.6820 O   0  0  0  0  0  0  0  0  0  0  0  0
   24.4760   34.2990   12.9370 C   0  0  0  0  0  0  0  0  0  0  0  0
   25.9090   34.6220   12.7470 C   0  0  0  0  0  0  0  0  0  0  0  0
   26.7720   35.1270   13.6980 C   0  0  0  0  0  0  0  0  0  0  0  0
   26.6730   34.5000   11.6340 N   0  0  0  0  0  0  0  0  0  0  0  0
   27.9930   35.2930   13.1640 N   0  0  0  0  0  0  0  0  0  0  0  0
   27.9130   34.9080   11.9090 N   0  0  0  0  0  0  0  0  0  0  0  0
   29.1530   35.7830   13.8030 C   0  0  0  0  0  0  0  0  0  0  0  0
   29.4010   37.1570   13.8590 C   0  0  0  0  0  0  0  0  0  0  0  0
   30.0770   34.9380   14.3950 C   0  0  0  0  0  0  0  0  0  0  0  0
   28.5190   38.0510   13.2890 C   0  0  0  0  0  0  0  0  0  0  0  0
   30.5060   37.6590   14.4720 C   0  0  0  0  0  0  0  0  0  0  0  0
   31.1910   35.4670   15.0110 C   0  0  0  0  0  0  0  0  0  0  0  0
   29.8350   33.5890   14.3360 C   0  0  0  0  0  0  0  0  0  0  0  0
   28.7180   39.4140   13.3170 C   0  0  0  0  0  0  0  0  0  0  0  0
   30.7200   39.0320   14.5090 C   0  0  0  0  0  0  0  0  0  0  0  0
   31.3810   36.8030   15.0360 N   0  0  0  0  0  0  0  0  0  0  0  0
   32.0810   34.5900   15.5830 C   0  0  0  0  0  0  0  0  0  0  0  0
   30.7580   32.7240   14.9270 C   0  0  0  0  0  0  0  0  0  0  0  0
   29.8520   39.9400   13.9450 C   0  0  0  0  0  0  0  0  0  0  0  0
   31.8850   33.2100   15.5530 C   0  0  0  0  0  0  0  0  0  0  0  0
   29.8670   25.5550   16.9770 C   0  0  0  0  0  0  0  0  0  0  0  0
   28.3450   25.7220   17.0260 C   0  0  0  0  0  0  0  0  0  0  0  0
   27.6010   24.4030   16.8810 C   0  0  0  0  0  0  0  0  0  0  0  0
   26.1650   24.5130   17.3120 C   0  0  0  0  0  0  0  0  0  0  0  0
   26.0990   25.0940   18.7200 C   0  0  0  0  0  0  0  0  0  0  0  0
   25.4170   24.1530   19.6390 N   0  0  0  0  0  0  0  0  0  0  0  0
  1 27  1  0  0  0  0
  2  3  1  0  0  0  0
  2  1  1  1  0  0  0
  3 23  1  1  0  0  0
  4  3  1  1  0  0  0
  5 10  1  6  0  0  0
  5 12  1  0  0  0  0
  5  7  1  0  0  0  0
  6  8  1  0  0  0  0
  6  5  1  0  0  0  0
  7  4  1  0  0  0  0
  8 16  1  6  0  0  0
  8  9  1  0  0  0  0
  9 18  1  1  0  0  0
  9  4  1  0  0  0  0
 11 10  1  0  0  0  0
 12 13  2  0  0  0  0
 14 12  1  0  0  0  0
 15 14  1  0  0  0  0
 16 17  1  0  0  0  0
 18 19  1  0  0  0  0
 19 22  2  0  0  0  0
 19 21  1  0  0  0  0
 20 18  1  0  0  0  0
 23 24  1  0  0  0  0
 25 26  1  0  0  0  0
 25  2  1  0  0  0  0
 27 28  1  0  0  0  0
 28 30  2  0  0  0  0
 28 31  1  0  0  0  0
 29 27  1  0  0  0  0
 31 32  1  0  0  0  0
 33 32  1  0  0  0  0
 33 34  2  0  0  0  0
 35 37  2  0  0  0  0
 35 33  1  0  0  0  0
 36 34  1  0  0  0  0
 36 38  1  0  0  0  0
 37 36  1  0  0  0  0
 38 39  2  0  0  0  0
 38 40  1  0  0  0  0
 39 42  1  0  0  0  0
 40 43  1  0  0  0  0
 41 45  2  0  0  0  0
 41 39  1  0  0  0  0
 42 46  1  0  0  0  0
 42 47  2  0  0  0  0
 43 47  1  0  0  0  0
 43 48  2  0  0  0  0
 44 40  2  0  0  0  0
 44 49  1  0  0  0  0
 45 50  1  0  0  0  0
 49 51  2  0  0  0  0
 50 46  2  0  0  0  0
 51 48  1  0  0  0  0
 52 53  1  0  0  0  0
 54 53  1  0  0  0  0
 54 55  1  0  0  0  0
 55 56  1  0  0  0  0
 56 57  1  0  0  0  0
M  END
>  <REMARK>
 VINA RESULT:    -6.124      0.000      0.000
 INTER + INTRA:         -16.683
 INTER:                 -11.511
 INTRA:                  -5.172
 UNBOUND:                -6.084
 SMILES CC(=O)N[C@@H]1[C@@H](O)C[C@](O)(C(=O)O)O[C@H]1C(O)[C@H](O)CNC(=O)OCc1cn(-c2c3ccccc3nc3ccccc23)nn1
 SMILES IDX 20 1 18 2 16 3 15 4 9 5 8 6 14 7 6 8 5 9 10 10 11 12 12 13
 SMILES IDX 13 14 7 16 4 18 2 19 1 21 3 22 17 23 19 25 21 27 22 28 23 30
 SMILES IDX 24 31 25 32 26 33 27 34 44 35 28 36 43 37 29 38 30 39 42 40
 SMILES IDX 31 41 35 42 37 43 41 44 32 45 34 46 36 47 38 48 40 49 33 50
 SMILES IDX 39 51
 H PARENT 10 11 13 15 7 17 4 20 17 24 19 26 21 29
 Flexibility Score: inf
  4 active torsions:
  status: ('A' for Active; 'I' for Inactive)
    1  A    between atoms: CA   and  CB  
    2  A    between atoms: CB   and  CG  
    3  A    between atoms: CG   and  CD  
    4  A    between atoms: CD   and  CE  

>  <TORSDO>
F 15

>  <BEGIN_>
RES LYS A 131

$$$$
ligand_91_pose_0_2HRL.pdbqt
 OpenBabel07062320523D

  6  5  0  0  0  0  0  0  0  0999 V2000
   33.1930   34.6630    9.2900 C   0  0  0  0  0  0  0  0  0  0  0  0
   32.0600   35.3600   10.0340 C   0  0  0  0  0  0  0  0  0  0  0  0
   32.4570   35.8710   11.3950 C   0  0  0  0  0  0  0  0  0  0  0  0
   32.2580   37.3760   11.4830 C   0  0  0  0  0  0  0  0  0  0  0  0
   31.0810   37.8080   10.6290 C   0  0  0  0  0  0  0  0  0  0  0  0
   31.0090   39.2920   10.5270 N   0  0  0  0  0  0  0  0  0  0  0  0
  1  2  1  0  0  0  0
  2  3  1  0  0  0  0
  3  4  1  0  0  0  0
  5  4  1  0  0  0  0
  6  5  1  0  0  0  0
M  END
>  <EGIN_R>
ES LYS A 135

>  <REMARK>
  4 active torsions:
  status: ('A' for Active; 'I' for Inactive)
    5  A    between atoms: CA   and  CB  
    6  A    between atoms: CB   and  CG  
    7  A    between atoms: CG   and  CD  
    8  A    between atoms: CD   and  CE  

$$$$
ligand_92_pose_0_2HRL.pdbqt
 OpenBabel07062320523D

 59 60  0  0  1  0  0  0  0  0999 V2000
   29.7370   27.0510   20.3620 N   0  0  0  0  0  0  0  0  0  0  0  0
   28.4280   27.5490   20.5430 C   0  0  0  0  0  0  0  0  0  0  0  0
   28.0090   27.7450   21.7350 O   0  0  0  0  0  0  0  0  0  0  0  0
   30.0830   26.8910   19.4010 H   0  0  0  0  0  0  0  0  0  0  0  0
   30.5990   26.7630   21.4760 C   0  0  0  0  0  0  0  0  0  0  0  0
   31.9000   27.5250   21.4200 C   0  0  2  0  0  0  0  0  0  0  0  0
   31.9000   28.7150   22.3340 C   0  0  1  0  0  0  0  0  0  0  0  0
   33.0360   29.6860   21.9650 C   0  0  2  0  0  0  0  0  0  0  0  0
   34.6890   29.2280   23.5850 C   0  0  1  0  0  0  0  0  0  0  0  0
   34.6610   30.6860   24.0000 C   0  0  0  0  0  0  0  0  0  0  0  0
   34.2030   29.0890   22.3330 O   0  0  0  0  0  0  0  0  0  0  0  0
   33.2070   31.0930   23.9700 C   0  0  1  0  0  0  0  0  0  0  0  0
   32.7350   31.0140   22.5390 C   0  0  1  0  0  0  0  0  0  0  0  0
   33.8470   28.5630   24.4870 O   0  0  0  0  0  0  0  0  0  0  0  0
   34.1600   28.6110   25.4100 H   0  0  0  0  0  0  0  0  0  0  0  0
   36.0490   28.6540   23.7510 C   0  0  0  0  0  0  0  0  0  0  0  0
   36.9710   29.0420   23.0200 O   0  0  0  0  0  0  0  0  0  0  0  0
   36.2990   27.6910   24.7100 O   0  0  0  0  0  0  0  0  0  0  0  0
   36.8230   27.9350   25.5630 H   0  0  0  0  0  0  0  0  0  0  0  0
   32.4710   30.2900   24.8330 O   0  0  0  0  0  0  0  0  0  0  0  0
   32.8800   29.3760   24.8080 H   0  0  0  0  0  0  0  0  0  0  0  0
   33.2820   32.1340   21.8420 N   0  0  0  0  0  0  0  0  0  0  0  0
   32.4430   33.1790   21.3980 C   0  0  0  0  0  0  0  0  0  0  0  0
   34.2970   32.1890   21.6540 H   0  0  0  0  0  0  0  0  0  0  0  0
   32.9250   34.3780   20.6660 C   0  0  0  0  0  0  0  0  0  0  0  0
   31.2310   33.0880   21.6330 O   0  0  0  0  0  0  0  0  0  0  0  0
   30.6690   29.4110   22.3080 O   0  0  0  0  0  0  0  0  0  0  0  0
   30.6450   29.9300   21.4840 H   0  0  0  0  0  0  0  0  0  0  0  0
   32.0460   27.9140   20.0710 O   0  0  0  0  0  0  0  0  0  0  0  0
   31.6430   27.1900   19.5310 H   0  0  0  0  0  0  0  0  0  0  0  0
   27.5650   27.8380   19.5060 O   0  0  0  0  0  0  0  0  0  0  0  0
   27.1910   29.1860   19.1860 C   0  0  0  0  0  0  0  0  0  0  0  0
   28.4670   29.9400   19.0070 C   0  0  0  0  0  0  0  0  0  0  0  0
   28.7800   30.8210   17.9700 C   0  0  0  0  0  0  0  0  0  0  0  0
   29.5680   29.9380   19.7860 N   0  0  0  0  0  0  0  0  0  0  0  0
   30.0200   31.3030   18.1540 N   0  0  0  0  0  0  0  0  0  0  0  0
   30.4600   30.7430   19.2630 N   0  0  0  0  0  0  0  0  0  0  0  0
   30.6760   32.2270   17.2960 C   0  0  0  0  0  0  0  0  0  0  0  0
   31.0710   33.4760   17.7140 C   0  0  0  0  0  0  0  0  0  0  0  0
   30.9340   31.8780   15.9880 C   0  0  0  0  0  0  0  0  0  0  0  0
   31.7120   34.3690   16.8560 C   0  0  0  0  0  0  0  0  0  0  0  0
   31.5670   32.7570   15.1380 C   0  0  0  0  0  0  0  0  0  0  0  0
   31.9760   34.0300   15.5490 C   0  0  0  0  0  0  0  0  0  0  0  0
   32.7830   35.1040   14.4450 S   0  0  0  0  0  0  0  0  0  0  0  0
   34.0680   34.4080   14.0150 O   0  0  0  0  0  0  0  0  0  0  0  0
   33.1960   36.3160   15.2070 O   0  0  0  0  0  0  0  0  0  0  0  0
   31.8790   35.5090   13.0650 N   0  0  0  0  0  0  0  0  0  0  0  0
   32.4090   35.8510   12.2180 H   0  0  0  0  0  0  0  0  0  0  0  0
   30.4850   35.4420   12.9140 C   0  0  0  0  0  0  0  0  0  0  0  0
   29.5450   34.6650   12.9730 N   0  0  0  0  0  0  0  0  0  0  0  0
   29.5350   37.0130   12.4640 S   0  0  0  0  0  0  0  0  0  0  0  0
   28.2870   34.8970   12.7780 C   0  0  0  0  0  0  0  0  0  0  0  0
   27.8880   36.1490   12.4610 C   0  0  0  0  0  0  0  0  0  0  0  0
   29.8670   25.5550   16.9770 C   0  0  0  0  0  0  0  0  0  0  0  0
   28.3450   25.7220   17.0260 C   0  0  0  0  0  0  0  0  0  0  0  0
   27.6010   24.4020   16.8950 C   0  0  0  0  0  0  0  0  0  0  0  0
   26.6610   24.1650   18.0440 C   0  0  0  0  0  0  0  0  0  0  0  0
   25.5450   23.2240   17.6030 C   0  0  0  0  0  0  0  0  0  0  0  0
   24.4840   23.9760   16.8910 N   0  0  0  0  0  0  0  0  0  0  0  0
  1  2  1  0  0  0  0
  1  5  1  0  0  0  0
  2  3  2  0  0  0  0
  4  1  1  0  0  0  0
  6  5  1  6  0  0  0
  6  7  1  0  0  0  0
  7 27  1  6  0  0  0
  8 11  1  0  0  0  0
  8  7  1  1  0  0  0
  8 13  1  0  0  0  0
  9 16  1  6  0  0  0
  9 10  1  0  0  0  0
 11  9  1  0  0  0  0
 12 10  1  0  0  0  0
 12 20  1  1  0  0  0
 13 22  1  6  0  0  0
 13 12  1  0  0  0  0
 14 15  1  0  0  0  0
 16 18  1  0  0  0  0
 17 16  2  0  0  0  0
 18 19  1  0  0  0  0
 21 20  1  0  0  0  0
 23 26  2  0  0  0  0
 23 22  1  0  0  0  0
 24 22  1  0  0  0  0
 25 23  1  0  0  0  0
 28 27  1  0  0  0  0
 29  6  1  0  0  0  0
 30 29  1  0  0  0  0
 31  2  1  0  0  0  0
 32 31  1  0  0  0  0
 33 32  1  0  0  0  0
 33 35  1  0  0  0  0
 34 36  1  0  0  0  0
 34 33  2  0  0  0  0
 36 37  1  0  0  0  0
 37 35  2  0  0  0  0
 38 39  1  0  0  0  0
 38 36  1  0  0  0  0
 40 38  2  0  0  0  0
 41 39  2  0  0  0  0
 42 43  2  0  0  0  0
 42 40  1  0  0  0  0
 43 41  1  0  0  0  0
 44 46  2  0  0  0  0
 44 43  1  0  0  0  0
 45 44  2  0  0  0  0
 47 44  1  0  0  0  0
 48 47  1  0  0  0  0
 49 50  2  0  0  0  0
 49 47  1  0  0  0  0
 51 49  1  0  0  0  0
 52 50  1  0  0  0  0
 53 51  1  0  0  0  0
 53 52  2  0  0  0  0
 54 55  1  0  0  0  0
 56 55  1  0  0  0  0
 56 57  1  0  0  0  0
 58 57  1  0  0  0  0
 59 58  1  0  0  0  0
M  END
>  <REMARK>
 VINA RESULT:    -5.556      0.000      0.000
 INTER + INTRA:         -16.999
 INTER:                 -10.794
 INTRA:                  -6.205
 UNBOUND:                -6.408
 SMILES CC(=O)N[C@@H]1[C@@H](O)C[C@](O)(C(=O)O)O[C@H]1C(O)[C@H](O)CNC(=O)OCc1cn(-c2ccc(S(=O)(=O)Nc3nccs3)cc2)nn1
 SMILES IDX 21 1 22 2 23 3 20 5 18 6 16 7 15 8 9 9 8 10 14 11 6 12 5 13
 SMILES IDX 10 14 11 16 12 17 13 18 7 20 4 22 2 23 1 25 3 26 17 27 19 29
 SMILES IDX 24 31 25 32 26 33 27 34 45 35 28 36 44 37 29 38 30 39 43 40
 SMILES IDX 31 41 42 42 32 43 33 44 34 45 35 46 36 47 37 49 38 50 41 51
 SMILES IDX 39 52 40 53
 H PARENT 21 4 10 15 13 19 7 21 4 24 17 28 19 30 36 48
 Flexibility Score: inf
  4 active torsions:
  status: ('A' for Active; 'I' for Inactive)
    1  A    between atoms: CA   and  CB  
    2  A    between atoms: CB   and  CG  
    3  A    between atoms: CG   and  CD  
    4  A    between atoms: CD   and  CE  

>  <TORSDO>
F 18

>  <BEGIN_>
RES LYS A 131

$$$$
ligand_92_pose_0_2HRL.pdbqt
 OpenBabel07062320523D

  6  5  0  0  0  0  0  0  0  0999 V2000
   33.1930   34.6630    9.2900 C   0  0  0  0  0  0  0  0  0  0  0  0
   32.0600   35.3600   10.0340 C   0  0  0  0  0  0  0  0  0  0  0  0
   30.8160   35.5410    9.2040 C   0  0  0  0  0  0  0  0  0  0  0  0
   29.9510   34.2910    9.2530 C   0  0  0  0  0  0  0  0  0  0  0  0
   28.4980   34.6380    8.9880 C   0  0  0  0  0  0  0  0  0  0  0  0
   27.5880   33.5940    9.5370 N   0  0  0  0  0  0  0  0  0  0  0  0
  1  2  1  0  0  0  0
  3  4  1  0  0  0  0
  3  2  1  0  0  0  0
  5  4  1  0  0  0  0
  5  6  1  0  0  0  0
M  END
>  <EGIN_R>
ES LYS A 135

>  <REMARK>
  4 active torsions:
  status: ('A' for Active; 'I' for Inactive)
    5  A    between atoms: CA   and  CB  
    6  A    between atoms: CB   and  CG  
    7  A    between atoms: CG   and  CD  
    8  A    between atoms: CD   and  CE  

$$$$
ligand_93_pose_0_2HRL.pdbqt
 OpenBabel07062320523D

 50 51  0  0  1  0  0  0  0  0999 V2000
   30.5800   32.9260   14.6570 C   0  0  0  0  0  0  0  0  0  0  0  0
   31.4950   32.8990   15.8590 C   0  0  2  0  0  0  0  0  0  0  0  0
   30.7100   32.8070   17.1200 C   0  0  1  0  0  0  0  0  0  0  0  0
   30.4100   31.4140   17.6090 C   0  0  2  0  0  0  0  0  0  0  0  0
   28.1790   30.7970   17.1640 C   0  0  2  0  0  0  0  0  0  0  0  0
   27.9570   30.4480   18.6210 C   0  0  0  0  0  0  0  0  0  0  0  0
   29.4710   30.8880   16.7860 O   0  0  0  0  0  0  0  0  0  0  0  0
   28.7680   31.4220   19.4350 C   0  0  1  0  0  0  0  0  0  0  0  0
   30.2180   31.2460   19.0630 C   0  0  1  0  0  0  0  0  0  0  0  0
   27.5730   32.0400   16.9770 O   0  0  0  0  0  0  0  0  0  0  0  0
   26.6000   31.9160   17.1940 H   0  0  0  0  0  0  0  0  0  0  0  0
   27.4040   29.8020   16.3580 C   0  0  0  0  0  0  0  0  0  0  0  0
   27.4600   28.5690   16.5570 O   0  0  0  0  0  0  0  0  0  0  0  0
   26.5930   30.2710   15.3470 O   0  0  0  0  0  0  0  0  0  0  0  0
   26.1500   31.1920   15.3710 H   0  0  0  0  0  0  0  0  0  0  0  0
   28.2820   32.6970   19.1360 O   0  0  0  0  0  0  0  0  0  0  0  0
   27.3000   32.7550   19.2350 H   0  0  0  0  0  0  0  0  0  0  0  0
   30.5870   29.8770   19.4660 N   0  0  0  0  0  0  0  0  0  0  0  0
   31.4740   29.6260   20.5410 C   0  0  0  0  0  0  0  0  0  0  0  0
   30.1940   29.0620   18.9540 H   0  0  0  0  0  0  0  0  0  0  0  0
   31.7940   28.2220   20.8840 C   0  0  0  0  0  0  0  0  0  0  0  0
   31.9880   30.5770   21.2030 O   0  0  0  0  0  0  0  0  0  0  0  0
   31.1720   33.6650   18.1080 O   0  0  0  0  0  0  0  0  0  0  0  0
   30.6050   34.4840   18.1800 H   0  0  0  0  0  0  0  0  0  0  0  0
   32.2310   34.1110   15.7970 O   0  0  0  0  0  0  0  0  0  0  0  0
   33.2040   33.9010   15.8230 H   0  0  0  0  0  0  0  0  0  0  0  0
   29.3130   33.5780   14.9020 N   0  0  0  0  0  0  0  0  0  0  0  0
   28.9190   34.6600   14.0540 C   0  0  0  0  0  0  0  0  0  0  0  0
   28.7220   33.2400   15.6800 H   0  0  0  0  0  0  0  0  0  0  0  0
   29.6840   35.0010   13.1360 O   0  0  0  0  0  0  0  0  0  0  0  0
   27.7010   35.2670   14.3100 O   0  0  0  0  0  0  0  0  0  0  0  0
   26.6600   35.1160   13.3800 C   0  0  0  0  0  0  0  0  0  0  0  0
   25.8340   33.9570   13.7980 C   0  0  0  0  0  0  0  0  0  0  0  0
   25.0480   33.1980   12.9230 C   0  0  0  0  0  0  0  0  0  0  0  0
   25.6610   33.4140   15.0080 N   0  0  0  0  0  0  0  0  0  0  0  0
   24.4700   32.2630   13.6840 N   0  0  0  0  0  0  0  0  0  0  0  0
   24.8340   32.3840   14.9460 N   0  0  0  0  0  0  0  0  0  0  0  0
   23.5830   31.2670   13.2080 C   0  0  0  0  0  0  0  0  0  0  0  0
   24.0640   29.9740   13.0110 C   0  0  0  0  0  0  0  0  0  0  0  0
   22.2790   31.5940   12.9530 C   0  0  0  0  0  0  0  0  0  0  0  0
   23.2070   28.9980   12.5480 C   0  0  0  0  0  0  0  0  0  0  0  0
   21.4360   30.6020   12.4880 C   0  0  0  0  0  0  0  0  0  0  0  0
   21.5070   33.5330   13.2330 I   0  0  0  0  0  0  0  0  0  0  0  0
   21.8920   29.3110   12.2860 C   0  0  0  0  0  0  0  0  0  0  0  0
   29.8670   25.5550   16.9770 C   0  0  0  0  0  0  0  0  0  0  0  0
   28.3450   25.7220   17.0260 C   0  0  0  0  0  0  0  0  0  0  0  0
   27.6010   24.4000   16.9080 C   0  0  0  0  0  0  0  0  0  0  0  0
   26.5310   24.2580   17.9540 C   0  0  0  0  0  0  0  0  0  0  0  0
   25.2100   24.7870   17.4060 C   0  0  0  0  0  0  0  0  0  0  0  0
   24.8280   26.0430   18.0940 N   0  0  0  0  0  0  0  0  0  0  0  0
  1 27  1  0  0  0  0
  2  1  1  6  0  0  0
  2  3  1  0  0  0  0
  3 23  1  1  0  0  0
  4  3  1  1  0  0  0
  4  9  1  0  0  0  0
  5 12  1  6  0  0  0
  5  6  1  0  0  0  0
  6  8  1  0  0  0  0
  7  5  1  0  0  0  0
  7  4  1  0  0  0  0
  8 16  1  6  0  0  0
  9  8  1  0  0  0  0
  9 18  1  6  0  0  0
 10  5  1  0  0  0  0
 10 11  1  0  0  0  0
 12 13  2  0  0  0  0
 14 15  1  0  0  0  0
 14 12  1  0  0  0  0
 16 17  1  0  0  0  0
 18 19  1  0  0  0  0
 19 21  1  0  0  0  0
 19 22  2  0  0  0  0
 20 18  1  0  0  0  0
 23 24  1  0  0  0  0
 25 26  1  0  0  0  0
 25  2  1  0  0  0  0
 27 29  1  0  0  0  0
 28 31  1  0  0  0  0
 28 27  1  0  0  0  0
 30 28  2  0  0  0  0
 32 33  1  0  0  0  0
 32 31  1  0  0  0  0
 33 35  1  0  0  0  0
 34 36  1  0  0  0  0
 34 33  2  0  0  0  0
 36 37  1  0  0  0  0
 37 35  2  0  0  0  0
 38 36  1  0  0  0  0
 39 38  1  0  0  0  0
 40 38  2  0  0  0  0
 40 43  1  0  0  0  0
 41 39  2  0  0  0  0
 42 40  1  0  0  0  0
 44 42  2  0  0  0  0
 44 41  1  0  0  0  0
 45 46  1  0  0  0  0
 47 46  1  0  0  0  0
 47 48  1  0  0  0  0
 49 48  1  0  0  0  0
 49 50  1  0  0  0  0
M  END
>  <REMARK>
 VINA RESULT:    -5.003      0.000      0.000
 INTER + INTRA:         -14.944
 INTER:                  -9.395
 INTRA:                  -5.548
 UNBOUND:                -6.285
 SMILES CC(=O)N[C@@H]1[C@@H](O)C[C@](O)(C(=O)O)O[C@H]1C(O)[C@H](O)CNC(=O)OCc1cn(-c2ccccc2I)nn1
 SMILES IDX 20 1 18 2 16 3 15 4 9 5 8 6 14 7 6 8 5 9 10 10 11 12 12 13
 SMILES IDX 13 14 7 16 4 18 2 19 1 21 3 22 17 23 19 25 21 27 22 28 23 30
 SMILES IDX 24 31 25 32 26 33 27 34 37 35 28 36 36 37 29 38 30 39 34 40
 SMILES IDX 31 41 33 42 35 43 32 44
 H PARENT 10 11 13 15 7 17 4 20 17 24 19 26 21 29
 Flexibility Score: inf
  4 active torsions:
  status: ('A' for Active; 'I' for Inactive)
    1  A    between atoms: CA   and  CB  
    2  A    between atoms: CB   and  CG  
    3  A    between atoms: CG   and  CD  
    4  A    between atoms: CD   and  CE  

>  <TORSDO>
F 15

>  <BEGIN_>
RES LYS A 131

$$$$
ligand_93_pose_0_2HRL.pdbqt
 OpenBabel07062320523D

  6  5  0  0  0  0  0  0  0  0999 V2000
   33.1930   34.6630    9.2900 C   0  0  0  0  0  0  0  0  0  0  0  0
   32.0600   35.3600   10.0340 C   0  0  0  0  0  0  0  0  0  0  0  0
   30.7750   35.4270    9.2490 C   0  0  0  0  0  0  0  0  0  0  0  0
   30.1990   34.0350    9.0440 C   0  0  0  0  0  0  0  0  0  0  0  0
   28.7110   34.0250    9.3380 C   0  0  0  0  0  0  0  0  0  0  0  0
   28.2710   35.3250    9.9180 N   0  0  0  0  0  0  0  0  0  0  0  0
  1  2  1  0  0  0  0
  3  2  1  0  0  0  0
  4  3  1  0  0  0  0
  4  5  1  0  0  0  0
  5  6  1  0  0  0  0
M  END
>  <EGIN_R>
ES LYS A 135

>  <REMARK>
  4 active torsions:
  status: ('A' for Active; 'I' for Inactive)
    5  A    between atoms: CA   and  CB  
    6  A    between atoms: CB   and  CG  
    7  A    between atoms: CG   and  CD  
    8  A    between atoms: CD   and  CE  

$$$$
ligand_9_pose_0_2HRL.pdbqt
 OpenBabel07062320523D

 54 55  0  0  1  0  0  0  0  0999 V2000
   25.8220   27.8020   18.1440 N   0  0  0  0  0  0  0  0  0  0  0  0
   24.5140   28.1300   17.6960 C   0  0  0  0  0  0  0  0  0  0  0  0
   23.5740   28.1090   18.5290 O   0  0  0  0  0  0  0  0  0  0  0  0
   26.5850   27.8270   17.4380 H   0  0  0  0  0  0  0  0  0  0  0  0
   26.0840   27.4480   19.5240 C   0  0  0  0  0  0  0  0  0  0  0  0
   27.5130   27.6290   19.9100 C   0  0  2  0  0  0  0  0  0  0  0  0
   28.0360   29.0070   19.6570 C   0  0  1  0  0  0  0  0  0  0  0  0
   29.4370   29.1810   20.2990 C   0  0  2  0  0  0  0  0  0  0  0  0
   30.8720   28.2020   21.7480 C   0  0  2  0  0  0  0  0  0  0  0  0
   30.8250   29.3490   22.7320 C   0  0  0  0  0  0  0  0  0  0  0  0
   29.6730   28.1060   21.1150 O   0  0  0  0  0  0  0  0  0  0  0  0
   30.4790   30.6540   22.0810 C   0  0  1  0  0  0  0  0  0  0  0  0
   29.5260   30.5210   20.9280 C   0  0  1  0  0  0  0  0  0  0  0  0
   30.9970   27.0360   22.5560 O   0  0  0  0  0  0  0  0  0  0  0  0
   30.8140   27.2200   23.4950 H   0  0  0  0  0  0  0  0  0  0  0  0
   32.0670   28.2850   20.8970 C   0  0  0  0  0  0  0  0  0  0  0  0
   32.9960   29.1430   21.0770 O   0  0  0  0  0  0  0  0  0  0  0  0
   32.1900   27.3710   19.8330 O   0  0  0  0  0  0  0  0  0  0  0  0
   31.3670   26.7970   19.6120 H   0  0  0  0  0  0  0  0  0  0  0  0
   29.9890   31.5220   23.0540 O   0  0  0  0  0  0  0  0  0  0  0  0
   29.0170   31.4160   23.2060 H   0  0  0  0  0  0  0  0  0  0  0  0
   29.7820   31.5210   19.9060 N   0  0  0  0  0  0  0  0  0  0  0  0
   29.2180   32.8230   19.9700 C   0  0  0  0  0  0  0  0  0  0  0  0
   30.4130   31.2510   19.0940 H   0  0  0  0  0  0  0  0  0  0  0  0
   29.5240   33.7910   18.8860 C   0  0  0  0  0  0  0  0  0  0  0  0
   28.4600   33.1660   20.9400 O   0  0  0  0  0  0  0  0  0  0  0  0
   28.1360   29.3600   18.3350 O   0  0  0  0  0  0  0  0  0  0  0  0
   27.6940   30.1910   18.0860 H   0  0  0  0  0  0  0  0  0  0  0  0
   28.3100   26.6280   19.3620 O   0  0  0  0  0  0  0  0  0  0  0  0
   28.1780   25.8120   19.9160 H   0  0  0  0  0  0  0  0  0  0  0  0
   24.2120   28.4740   16.3900 O   0  0  0  0  0  0  0  0  0  0  0  0
   24.1060   29.8220   15.9740 C   0  0  0  0  0  0  0  0  0  0  0  0
   25.3370   30.5650   16.3050 C   0  0  0  0  0  0  0  0  0  0  0  0
   26.4430   30.8080   15.5100 C   0  0  0  0  0  0  0  0  0  0  0  0
   25.6270   31.1660   17.4800 N   0  0  0  0  0  0  0  0  0  0  0  0
   27.3450   31.5290   16.2090 N   0  0  0  0  0  0  0  0  0  0  0  0
   26.8030   31.7270   17.4140 N   0  0  0  0  0  0  0  0  0  0  0  0
   28.6120   32.0020   15.8040 C   0  0  0  0  0  0  0  0  0  0  0  0
   28.7430   33.1250   15.0080 C   0  0  0  0  0  0  0  0  0  0  0  0
   29.7690   31.3630   16.1900 C   0  0  0  0  0  0  0  0  0  0  0  0
   29.9620   33.6210   14.5900 C   0  0  0  0  0  0  0  0  0  0  0  0
   31.0130   31.8400   15.7860 C   0  0  0  0  0  0  0  0  0  0  0  0
   31.0980   32.9570   14.9950 C   0  0  0  0  0  0  0  0  0  0  0  0
   30.0710   34.8080   13.7500 C   0  0  0  0  0  0  0  0  0  0  0  0
   29.7130   34.7460   12.5490 O   0  0  0  0  0  0  0  0  0  0  0  0
   30.5550   36.0160   14.2250 O   0  0  0  0  0  0  0  0  0  0  0  0
   31.8680   36.4690   13.9600 C   0  0  0  0  0  0  0  0  0  0  0  0
   32.5840   36.6560   15.2660 C   0  0  0  0  0  0  0  0  0  0  0  0
   29.8670   25.5550   16.9770 C   0  0  0  0  0  0  0  0  0  0  0  0
   28.3450   25.7220   17.0260 C   0  0  0  0  0  0  0  0  0  0  0  0
   27.5990   24.4390   16.6920 C   0  0  0  0  0  0  0  0  0  0  0  0
   26.9800   23.8110   17.9100 C   0  0  0  0  0  0  0  0  0  0  0  0
   25.5580   23.3660   17.5860 C   0  0  0  0  0  0  0  0  0  0  0  0
   24.8160   24.4540   16.9070 N   0  0  0  0  0  0  0  0  0  0  0  0
  1  5  1  0  0  0  0
  2  1  1  0  0  0  0
  2  3  2  0  0  0  0
  4  1  1  0  0  0  0
  6  5  1  6  0  0  0
  7 27  1  6  0  0  0
  7  6  1  0  0  0  0
  8  7  1  1  0  0  0
  8 13  1  0  0  0  0
  8 11  1  0  0  0  0
  9 16  1  6  0  0  0
  9 14  1  0  0  0  0
  9 10  1  0  0  0  0
 11  9  1  0  0  0  0
 12 10  1  0  0  0  0
 12 20  1  1  0  0  0
 13 22  1  6  0  0  0
 13 12  1  0  0  0  0
 14 15  1  0  0  0  0
 16 17  2  0  0  0  0
 18 16  1  0  0  0  0
 19 18  1  0  0  0  0
 20 21  1  0  0  0  0
 22 23  1  0  0  0  0
 23 26  2  0  0  0  0
 24 22  1  0  0  0  0
 25 23  1  0  0  0  0
 28 27  1  0  0  0  0
 29  6  1  0  0  0  0
 29 30  1  0  0  0  0
 31  2  1  0  0  0  0
 32 33  1  0  0  0  0
 32 31  1  0  0  0  0
 33 35  1  0  0  0  0
 34 36  1  0  0  0  0
 34 33  2  0  0  0  0
 36 37  1  0  0  0  0
 37 35  2  0  0  0  0
 38 40  1  0  0  0  0
 38 36  1  0  0  0  0
 39 38  2  0  0  0  0
 41 43  2  0  0  0  0
 41 39  1  0  0  0  0
 42 40  2  0  0  0  0
 43 42  1  0  0  0  0
 44 46  1  0  0  0  0
 44 41  1  0  0  0  0
 45 44  2  0  0  0  0
 47 46  1  0  0  0  0
 47 48  1  0  0  0  0
 49 50  1  0  0  0  0
 51 50  1  0  0  0  0
 51 52  1  0  0  0  0
 53 52  1  0  0  0  0
 54 53  1  0  0  0  0
M  END
>  <REMARK>
 VINA RESULT:    -5.521      0.000      0.000
 INTER + INTRA:         -16.196
 INTER:                  -9.417
 INTRA:                  -6.779
 UNBOUND:                -5.671
 SMILES CCOC(=O)c1cccc(-n2cc(COC(=O)NC[C@@H](O)C(O)[C@@H]3O[C@@](O)(C(=O)O)C[C@H](O)[C@H]3NC(C)=O)nn2)c1
 SMILES IDX 18 1 16 2 17 3 19 5 20 6 22 7 24 8 26 9 31 10 25 11 32 12
 SMILES IDX 34 13 27 14 28 16 29 17 30 18 33 20 35 22 36 23 37 25 38 26
 SMILES IDX 23 27 21 29 15 31 14 32 13 33 12 34 39 35 11 36 40 37 10 38
 SMILES IDX 41 39 9 40 6 41 8 42 7 43 4 44 5 45 3 46 2 47 1 48
 H PARENT 18 4 27 15 30 19 33 21 35 24 23 28 21 30
 Flexibility Score: inf
  4 active torsions:
  status: ('A' for Active; 'I' for Inactive)
    1  A    between atoms: CA   and  CB  
    2  A    between atoms: CB   and  CG  
    3  A    between atoms: CG   and  CD  
    4  A    between atoms: CD   and  CE  

>  <TORSDO>
F 18

>  <BEGIN_>
RES LYS A 131

$$$$
ligand_9_pose_0_2HRL.pdbqt
 OpenBabel07062320523D

  6  5  0  0  0  0  0  0  0  0999 V2000
   33.1930   34.6630    9.2900 C   0  0  0  0  0  0  0  0  0  0  0  0
   32.0600   35.3600   10.0340 C   0  0  0  0  0  0  0  0  0  0  0  0
   30.7990   35.4960    9.2200 C   0  0  0  0  0  0  0  0  0  0  0  0
   30.1350   34.1410    9.0290 C   0  0  0  0  0  0  0  0  0  0  0  0
   28.6680   34.3120    8.6830 C   0  0  0  0  0  0  0  0  0  0  0  0
   27.7960   33.6920    9.7190 N   0  0  0  0  0  0  0  0  0  0  0  0
  1  2  1  0  0  0  0
  3  2  1  0  0  0  0
  4  3  1  0  0  0  0
  5  4  1  0  0  0  0
  5  6  1  0  0  0  0
M  END
>  <EGIN_R>
ES LYS A 135

>  <REMARK>
  4 active torsions:
  status: ('A' for Active; 'I' for Inactive)
    5  A    between atoms: CA   and  CB  
    6  A    between atoms: CB   and  CG  
    7  A    between atoms: CG   and  CD  
    8  A    between atoms: CD   and  CE  

$$$$
