ligand_39_pose_0_2HRL.pdbqt
 OpenBabel07062320523D

 51 52  0  0  1  0  0  0  0  0999 V2000
   25.6690   27.4200   19.5350 N   0  0  0  0  0  0  0  0  0  0  0  0
   25.8390   28.0650   18.3050 C   0  0  0  0  0  0  0  0  0  0  0  0
   26.9480   27.9740   17.7100 O   0  0  0  0  0  0  0  0  0  0  0  0
   24.7240   27.5200   20.0000 H   0  0  0  0  0  0  0  0  0  0  0  0
   26.6830   26.6370   20.2070 C   0  0  0  0  0  0  0  0  0  0  0  0
   27.3220   27.4710   21.2960 C   0  0  2  0  0  0  0  0  0  0  0  0
   28.7030   27.9410   20.8910 C   0  0  2  0  0  0  0  0  0  0  0  0
   28.7740   29.4490   20.7570 C   0  0  2  0  0  0  0  0  0  0  0  0
   27.3990   31.2550   20.2200 C   0  0  2  0  0  0  0  0  0  0  0  0
   28.3350   31.7420   19.1810 C   0  0  0  0  0  0  0  0  0  0  0  0
   27.5390   29.8850   20.3850 O   0  0  0  0  0  0  0  0  0  0  0  0
   29.4530   30.8540   18.7920 C   0  0  1  0  0  0  0  0  0  0  0  0
   29.8860   29.8640   19.8350 C   0  0  1  0  0  0  0  0  0  0  0  0
   26.0720   31.4290   19.7490 O   0  0  0  0  0  0  0  0  0  0  0  0
   25.4360   30.8570   20.2540 H   0  0  0  0  0  0  0  0  0  0  0  0
   27.5260   32.0110   21.4670 C   0  0  0  0  0  0  0  0  0  0  0  0
   26.7230   31.8920   22.4330 O   0  0  0  0  0  0  0  0  0  0  0  0
   28.5730   32.9090   21.6130 O   0  0  0  0  0  0  0  0  0  0  0  0
   29.5340   32.6190   21.7520 H   0  0  0  0  0  0  0  0  0  0  0  0
   29.1610   30.2030   17.5780 O   0  0  0  0  0  0  0  0  0  0  0  0
   30.0590   30.1040   17.1270 H   0  0  0  0  0  0  0  0  0  0  0  0
   31.0540   30.3260   20.5510 N   0  0  0  0  0  0  0  0  0  0  0  0
   32.1460   29.4770   20.8650 C   0  0  0  0  0  0  0  0  0  0  0  0
   31.1090   31.3180   20.8540 H   0  0  0  0  0  0  0  0  0  0  0  0
   33.3560   29.9380   21.6020 C   0  0  0  0  0  0  0  0  0  0  0  0
   32.0540   28.2620   20.4810 O   0  0  0  0  0  0  0  0  0  0  0  0
   29.1000   27.2920   19.7270 O   0  0  0  0  0  0  0  0  0  0  0  0
   28.5220   27.6150   18.9690 H   0  0  0  0  0  0  0  0  0  0  0  0
   27.4090   26.6130   22.4180 O   0  0  0  0  0  0  0  0  0  0  0  0
   27.0730   27.0320   23.2260 H   0  0  0  0  0  0  0  0  0  0  0  0
   24.8600   28.8150   17.6690 O   0  0  0  0  0  0  0  0  0  0  0  0
   25.0630   29.2740   16.3430 C   0  0  0  0  0  0  0  0  0  0  0  0
   25.5420   30.6720   16.3210 C   0  0  0  0  0  0  0  0  0  0  0  0
   26.5520   31.2020   15.5040 C   0  0  0  0  0  0  0  0  0  0  0  0
   25.1410   31.7180   17.0510 N   0  0  0  0  0  0  0  0  0  0  0  0
   26.7290   32.4890   15.7470 N   0  0  0  0  0  0  0  0  0  0  0  0
   25.8330   32.7870   16.7180 N   0  0  0  0  0  0  0  0  0  0  0  0
   27.6140   33.5040   15.2250 C   0  0  0  0  0  0  0  0  0  0  0  0
   29.0040   33.4150   15.6520 C   0  0  0  0  0  0  0  0  0  0  0  0
   29.8920   32.5320   15.0300 C   0  0  0  0  0  0  0  0  0  0  0  0
   29.5130   34.2000   16.6450 C   0  0  0  0  0  0  0  0  0  0  0  0
   31.2010   32.4850   15.4210 C   0  0  0  0  0  0  0  0  0  0  0  0
   30.8380   34.1490   17.0380 C   0  0  0  0  0  0  0  0  0  0  0  0
   28.3870   35.4270   17.6200 Br  0  0  0  0  0  0  0  0  0  0  0  0
   31.7030   33.2810   16.4210 C   0  0  0  0  0  0  0  0  0  0  0  0
   29.8670   25.5550   16.9770 C   0  0  0  0  0  0  0  0  0  0  0  0
   28.3450   25.7220   17.0260 C   0  0  0  0  0  0  0  0  0  0  0  0
   27.6000   24.4120   16.8210 C   0  0  0  0  0  0  0  0  0  0  0  0
   26.1630   24.5030   17.2550 C   0  0  0  0  0  0  0  0  0  0  0  0
   25.7150   23.1580   17.8160 C   0  0  0  0  0  0  0  0  0  0  0  0
   25.4850   23.2560   19.2770 N   0  0  0  0  0  0  0  0  0  0  0  0
  1  4  1  0  0  0  0
  1  5  1  0  0  0  0
  2  1  1  0  0  0  0
  3  2  2  0  0  0  0
  6  5  1  6  0  0  0
  6 29  1  0  0  0  0
  7 27  1  6  0  0  0
  7  6  1  0  0  0  0
  8  7  1  6  0  0  0
  9 14  1  6  0  0  0
  9 11  1  0  0  0  0
  9 16  1  0  0  0  0
 10  9  1  0  0  0  0
 11  8  1  0  0  0  0
 12 20  1  6  0  0  0
 12 10  1  0  0  0  0
 12 13  1  0  0  0  0
 13 22  1  1  0  0  0
 13  8  1  0  0  0  0
 14 15  1  0  0  0  0
 16 18  1  0  0  0  0
 16 17  2  0  0  0  0
 18 19  1  0  0  0  0
 21 20  1  0  0  0  0
 22 24  1  0  0  0  0
 22 23  1  0  0  0  0
 23 25  1  0  0  0  0
 26 23  2  0  0  0  0
 28 27  1  0  0  0  0
 29 30  1  0  0  0  0
 31  2  1  0  0  0  0
 32 31  1  0  0  0  0
 33 32  1  0  0  0  0
 33 35  1  0  0  0  0
 34 36  1  0  0  0  0
 34 33  2  0  0  0  0
 36 37  1  0  0  0  0
 37 35  2  0  0  0  0
 38 39  1  0  0  0  0
 38 36  1  0  0  0  0
 39 41  2  0  0  0  0
 40 42  2  0  0  0  0
 40 39  1  0  0  0  0
 41 43  1  0  0  0  0
 41 44  1  0  0  0  0
 42 45  1  0  0  0  0
 45 43  2  0  0  0  0
 46 47  1  0  0  0  0
 48 47  1  0  0  0  0
 48 49  1  0  0  0  0
 49 50  1  0  0  0  0
 50 51  1  0  0  0  0
M  END
>  <REMARK>
 VINA RESULT:    -4.577      0.000      0.000
 INTER + INTRA:         -15.616
 INTER:                  -7.890
 INTRA:                  -7.726
 UNBOUND:                -7.426
 SMILES CC(=O)N[C@@H]1[C@@H](O)C[C@](O)(C(=O)O)O[C@H]1C(O)[C@H](O)CNC(=O)OCc1cn(Cc2ccccc2Br)nn1
 SMILES IDX 21 1 22 2 23 3 20 5 18 6 16 7 15 8 9 9 8 10 14 11 6 12 5 13
 SMILES IDX 10 14 11 16 12 17 13 18 7 20 4 22 2 23 1 25 3 26 17 27 19 29
 SMILES IDX 24 31 25 32 26 33 27 34 38 35 28 36 37 37 29 38 30 39 31 40
 SMILES IDX 35 41 32 42 34 43 36 44 33 45
 H PARENT 21 4 10 15 13 19 7 21 4 24 17 28 19 30
 Flexibility Score: inf
  4 active torsions:
  status: ('A' for Active; 'I' for Inactive)
    1  A    between atoms: CA   and  CB  
    2  A    between atoms: CB   and  CG  
    3  A    between atoms: CG   and  CD  
    4  A    between atoms: CD   and  CE  

>  <TORSDO>
F 16

>  <BEGIN_>
RES LYS A 131

$$$$
ligand_39_pose_0_2HRL.pdbqt
 OpenBabel07062320523D

  6  5  0  0  0  0  0  0  0  0999 V2000
   33.1930   34.6630    9.2900 C   0  0  0  0  0  0  0  0  0  0  0  0
   32.0600   35.3600   10.0340 C   0  0  0  0  0  0  0  0  0  0  0  0
   30.7990   35.4960    9.2200 C   0  0  0  0  0  0  0  0  0  0  0  0
   30.1310   34.1420    9.0360 C   0  0  0  0  0  0  0  0  0  0  0  0
   28.6710   34.3150    8.6610 C   0  0  0  0  0  0  0  0  0  0  0  0
   27.7810   33.6270    9.6370 N   0  0  0  0  0  0  0  0  0  0  0  0
  1  2  1  0  0  0  0
  3  2  1  0  0  0  0
  4  3  1  0  0  0  0
  5  4  1  0  0  0  0
  5  6  1  0  0  0  0
M  END
>  <EGIN_R>
ES LYS A 135

>  <REMARK>
  4 active torsions:
  status: ('A' for Active; 'I' for Inactive)
    5  A    between atoms: CA   and  CB  
    6  A    between atoms: CB   and  CG  
    7  A    between atoms: CG   and  CD  
    8  A    between atoms: CD   and  CE  

$$$$
