ligand_10_pose_0_2HRL.pdbqt
 OpenBabel07062320523D

 53 53  0  0  1  0  0  0  0  0999 V2000
   26.3310   29.6490   16.0440 N   0  0  0  0  0  0  0  0  0  0  0  0
   24.9780   29.4510   16.4520 C   0  0  0  0  0  0  0  0  0  0  0  0
   24.7610   28.8960   17.5350 O   0  0  0  0  0  0  0  0  0  0  0  0
   26.4390   30.1280   15.1110 H   0  0  0  0  0  0  0  0  0  0  0  0
   27.4760   29.2500   16.8000 C   0  0  0  0  0  0  0  0  0  0  0  0
   28.2440   30.4570   17.2990 C   0  0  2  0  0  0  0  0  0  0  0  0
   29.0980   31.0570   16.1970 C   0  0  2  0  0  0  0  0  0  0  0  0
   28.6130   32.3690   15.6930 C   0  0  2  0  0  0  0  0  0  0  0  0
   30.7510   33.1430   15.2190 C   0  0  2  0  0  0  0  0  0  0  0  0
   30.9080   33.5970   16.6090 C   0  0  0  0  0  0  0  0  0  0  0  0
   29.4830   32.9230   14.7490 O   0  0  0  0  0  0  0  0  0  0  0  0
   29.6980   33.7980   17.4330 C   0  0  1  0  0  0  0  0  0  0  0  0
   28.4070   33.3730   16.7930 C   0  0  1  0  0  0  0  0  0  0  0  0
   31.4530   31.9310   14.9950 O   0  0  0  0  0  0  0  0  0  0  0  0
   31.9950   32.0990   14.1790 H   0  0  0  0  0  0  0  0  0  0  0  0
   31.3840   34.1030   14.2720 C   0  0  0  0  0  0  0  0  0  0  0  0
   32.3690   34.8250   14.5510 O   0  0  0  0  0  0  0  0  0  0  0  0
   30.8440   34.1980   12.9990 O   0  0  0  0  0  0  0  0  0  0  0  0
   31.4170   34.0940   12.1510 H   0  0  0  0  0  0  0  0  0  0  0  0
   29.8360   33.1670   18.6660 O   0  0  0  0  0  0  0  0  0  0  0  0
   29.9460   32.2030   18.6180 H   0  0  0  0  0  0  0  0  0  0  0  0
   27.7070   34.5520   16.2280 N   0  0  0  0  0  0  0  0  0  0  0  0
   26.3130   34.7160   16.3910 C   0  0  0  0  0  0  0  0  0  0  0  0
   28.2220   35.2860   15.6980 H   0  0  0  0  0  0  0  0  0  0  0  0
   25.5680   35.8850   15.8390 C   0  0  0  0  0  0  0  0  0  0  0  0
   25.6830   33.8420   17.0240 O   0  0  0  0  0  0  0  0  0  0  0  0
   29.0000   30.0860   15.1590 O   0  0  0  0  0  0  0  0  0  0  0  0
   28.0970   29.6910   15.1420 H   0  0  0  0  0  0  0  0  0  0  0  0
   28.9690   30.0760   18.4200 O   0  0  0  0  0  0  0  0  0  0  0  0
   29.2470   30.8390   18.9860 H   0  0  0  0  0  0  0  0  0  0  0  0
   23.9030   29.8590   15.6800 O   0  0  0  0  0  0  0  0  0  0  0  0
   24.1000   30.2500   14.3450 C   0  0  0  0  0  0  0  0  0  0  0  0
   23.8600   31.6980   14.1310 C   0  0  0  0  0  0  0  0  0  0  0  0
   24.5830   32.4470   13.2350 C   0  0  0  0  0  0  0  0  0  0  0  0
   22.9810   32.5200   14.6980 N   0  0  0  0  0  0  0  0  0  0  0  0
   24.1130   33.7200   13.2850 N   0  0  0  0  0  0  0  0  0  0  0  0
   23.1580   33.7200   14.1710 N   0  0  0  0  0  0  0  0  0  0  0  0
   24.6560   34.7920   12.4570 C   0  0  1  0  0  0  0  0  0  0  0  0
   25.9440   34.3360   11.8270 C   0  0  0  0  0  0  0  0  0  0  0  0
   27.0860   35.1850   12.2020 C   0  0  0  0  0  0  0  0  0  0  0  0
   27.2620   36.2700   11.5940 O   0  0  0  0  0  0  0  0  0  0  0  0
   27.9370   34.7680   13.2140 O   0  0  0  0  0  0  0  0  0  0  0  0
   27.5810   34.1110   13.9260 H   0  0  0  0  0  0  0  0  0  0  0  0
   23.6970   35.0570   11.3490 C   0  0  0  0  0  0  0  0  0  0  0  0
   23.8740   35.9310   10.4630 O   0  0  0  0  0  0  0  0  0  0  0  0
   22.5420   34.2980   11.2910 O   0  0  0  0  0  0  0  0  0  0  0  0
   21.6230   34.6850   11.4730 H   0  0  0  0  0  0  0  0  0  0  0  0
   29.8670   25.5550   16.9770 C   0  0  0  0  0  0  0  0  0  0  0  0
   28.3450   25.7220   17.0260 C   0  0  0  0  0  0  0  0  0  0  0  0
   27.6010   24.4030   16.8800 C   0  0  0  0  0  0  0  0  0  0  0  0
   26.1650   24.5130   17.3110 C   0  0  0  0  0  0  0  0  0  0  0  0
   25.8760   23.4730   18.3890 C   0  0  0  0  0  0  0  0  0  0  0  0
   25.4890   24.1340   19.6580 N   0  0  0  0  0  0  0  0  0  0  0  0
  1  2  1  0  0  0  0
  1  5  1  0  0  0  0
  2  3  2  0  0  0  0
  4  1  1  0  0  0  0
  6  5  1  6  0  0  0
  6 29  1  0  0  0  0
  7 27  1  6  0  0  0
  7  6  1  0  0  0  0
  8  7  1  1  0  0  0
  8 13  1  0  0  0  0
  9 16  1  6  0  0  0
  9 10  1  0  0  0  0
 10 12  1  0  0  0  0
 11  9  1  0  0  0  0
 11  8  1  0  0  0  0
 12 20  1  1  0  0  0
 13 22  1  6  0  0  0
 13 12  1  0  0  0  0
 14  9  1  0  0  0  0
 15 14  1  0  0  0  0
 16 17  2  0  0  0  0
 18 16  1  0  0  0  0
 19 18  1  0  0  0  0
 21 20  1  0  0  0  0
 22 23  1  0  0  0  0
 23 26  2  0  0  0  0
 24 22  1  0  0  0  0
 25 23  1  0  0  0  0
 28 27  1  0  0  0  0
 29 30  1  0  0  0  0
 31  2  1  0  0  0  0
 32 31  1  0  0  0  0
 33 32  1  0  0  0  0
 33 35  1  0  0  0  0
 34 36  1  0  0  0  0
 34 33  2  0  0  0  0
 36 37  1  0  0  0  0
 37 35  2  0  0  0  0
 38 39  1  6  0  0  0
 38 36  1  0  0  0  0
 39 40  1  0  0  0  0
 40 42  1  0  0  0  0
 41 40  2  0  0  0  0
 42 43  1  0  0  0  0
 44 38  1  0  0  0  0
 45 44  2  0  0  0  0
 46 44  1  0  0  0  0
 46 47  1  0  0  0  0
 48 49  1  0  0  0  0
 50 49  1  0  0  0  0
 50 51  1  0  0  0  0
 51 52  1  0  0  0  0
 52 53  1  0  0  0  0
M  END
>  <REMARK>
 VINA RESULT:    -5.014      0.000      0.000
 INTER + INTRA:         -15.595
 INTER:                  -8.362
 INTRA:                  -7.233
 UNBOUND:                -5.744
 SMILES CC(=O)N[C@@H]1[C@@H](O)C[C@](O)(C(=O)O)O[C@H]1C(O)[C@H](O)CNC(=O)OCc1cn([C@@H](CC(=O)O)C(=O)O)nn1
 SMILES IDX 21 1 22 2 23 3 20 5 18 6 16 7 15 8 9 9 8 10 14 11 6 12 5 13
 SMILES IDX 10 14 11 16 12 17 13 18 7 20 4 22 2 23 1 25 3 26 17 27 19 29
 SMILES IDX 24 31 25 32 26 33 27 34 38 35 28 36 37 37 29 38 30 39 31 40
 SMILES IDX 32 41 33 42 34 44 35 45 36 46
 H PARENT 21 4 10 15 13 19 7 21 4 24 17 28 19 30 33 43 36 47
 Flexibility Score: inf
  4 active torsions:
  status: ('A' for Active; 'I' for Inactive)
    1  A    between atoms: CA   and  CB  
    2  A    between atoms: CB   and  CG  
    3  A    between atoms: CG   and  CD  
    4  A    between atoms: CD   and  CE  

>  <TORSDO>
F 20

>  <BEGIN_>
RES LYS A 131

$$$$
ligand_10_pose_0_2HRL.pdbqt
 OpenBabel07062320523D

  6  5  0  0  0  0  0  0  0  0999 V2000
   33.1930   34.6630    9.2900 C   0  0  0  0  0  0  0  0  0  0  0  0
   32.0600   35.3600   10.0340 C   0  0  0  0  0  0  0  0  0  0  0  0
   30.7790   35.4380    9.2440 C   0  0  0  0  0  0  0  0  0  0  0  0
   30.2440   34.0450    8.9500 C   0  0  0  0  0  0  0  0  0  0  0  0
   28.7590   33.9710    9.2480 C   0  0  0  0  0  0  0  0  0  0  0  0
   27.9710   34.7340    8.2410 N   0  0  0  0  0  0  0  0  0  0  0  0
  1  2  1  0  0  0  0
  3  2  1  0  0  0  0
  4  3  1  0  0  0  0
  4  5  1  0  0  0  0
  6  5  1  0  0  0  0
M  END
>  <EGIN_R>
ES LYS A 135

>  <REMARK>
  4 active torsions:
  status: ('A' for Active; 'I' for Inactive)
    5  A    between atoms: CA   and  CB  
    6  A    between atoms: CB   and  CG  
    7  A    between atoms: CG   and  CD  
    8  A    between atoms: CD   and  CE  

$$$$
