ligand_43_pose_0_2HRL.pdbqt
 OpenBabel07062320523D

 49 49  0  0  1  0  0  0  0  0999 V2000
   31.6870   36.2380   18.0290 O   0  0  0  0  0  0  0  0  0  0  0  0
   31.0310   35.0320   18.1910 C   0  0  0  0  0  0  0  0  0  0  0  0
   31.4750   33.9320   17.3850 N   0  0  0  0  0  0  0  0  0  0  0  0
   32.2610   34.0890   16.7240 H   0  0  0  0  0  0  0  0  0  0  0  0
   30.0730   34.8940   19.0180 O   0  0  0  0  0  0  0  0  0  0  0  0
   30.8710   32.6460   17.4710 C   0  0  0  0  0  0  0  0  0  0  0  0
   30.6390   31.9820   16.1120 C   0  0  2  0  0  0  0  0  0  0  0  0
   29.4260   32.6600   15.5270 C   0  0  2  0  0  0  0  0  0  0  0  0
   29.7240   33.5350   14.3540 C   0  0  2  0  0  0  0  0  0  0  0  0
   31.3230   35.1540   13.8950 C   0  0  2  0  0  0  0  0  0  0  0  0
   30.3920   35.5220   12.7590 C   0  0  0  0  0  0  0  0  0  0  0  0
   31.0520   33.8710   14.3380 O   0  0  0  0  0  0  0  0  0  0  0  0
   29.0170   35.7290   13.3520 C   0  0  1  0  0  0  0  0  0  0  0  0
   28.8270   34.7710   14.5050 C   0  0  1  0  0  0  0  0  0  0  0  0
   31.2620   36.0940   14.9190 O   0  0  0  0  0  0  0  0  0  0  0  0
   31.2820   37.0030   14.5460 H   0  0  0  0  0  0  0  0  0  0  0  0
   32.7040   35.1940   13.3490 C   0  0  0  0  0  0  0  0  0  0  0  0
   33.0220   35.9290   12.3790 O   0  0  0  0  0  0  0  0  0  0  0  0
   33.7410   34.4130   13.8860 O   0  0  0  0  0  0  0  0  0  0  0  0
   33.6230   34.0680   14.8350 H   0  0  0  0  0  0  0  0  0  0  0  0
   28.9340   37.0140   13.8550 O   0  0  0  0  0  0  0  0  0  0  0  0
   29.1130   37.6670   13.1340 H   0  0  0  0  0  0  0  0  0  0  0  0
   27.4540   34.3070   14.5970 N   0  0  0  0  0  0  0  0  0  0  0  0
   26.4200   35.0520   15.2330 C   0  0  0  0  0  0  0  0  0  0  0  0
   27.1510   33.3780   14.1900 H   0  0  0  0  0  0  0  0  0  0  0  0
   25.0120   34.5640   15.3230 C   0  0  0  0  0  0  0  0  0  0  0  0
   26.7490   36.1640   15.7300 O   0  0  0  0  0  0  0  0  0  0  0  0
   28.8250   33.3620   16.5850 O   0  0  0  0  0  0  0  0  0  0  0  0
   27.8450   33.4390   16.4640 H   0  0  0  0  0  0  0  0  0  0  0  0
   30.5160   30.6140   16.2290 O   0  0  0  0  0  0  0  0  0  0  0  0
   31.1150   30.1900   16.8650 H   0  0  0  0  0  0  0  0  0  0  0  0
   32.8720   36.5010   18.7320 C   0  0  0  0  0  0  0  0  0  0  0  0
   34.0040   36.2230   17.7880 C   0  0  0  0  0  0  0  0  0  0  0  0
   35.3290   36.1210   18.1810 C   0  0  0  0  0  0  0  0  0  0  0  0
   34.0000   36.0260   16.4700 N   0  0  0  0  0  0  0  0  0  0  0  0
   36.0740   35.8680   17.0970 N   0  0  0  0  0  0  0  0  0  0  0  0
   35.2430   35.8160   16.0740 N   0  0  0  0  0  0  0  0  0  0  0  0
   37.5130   35.6780   16.9860 C   0  0  0  0  0  0  0  0  0  0  0  0
   37.9170   35.6610   15.5360 C   0  0  0  0  0  0  0  0  0  0  0  0
   38.1340   34.2530   15.0400 C   0  0  0  0  0  0  0  0  0  0  0  0
   38.6730   34.2180   13.6340 C   0  0  0  0  0  0  0  0  0  0  0  0
   37.9810   33.1690   12.8510 C   0  0  0  0  0  0  0  0  0  0  0  0
   37.0480   33.4390   11.9650 C   0  0  0  0  0  0  0  0  0  0  0  0
   29.8670   25.5550   16.9770 C   0  0  0  0  0  0  0  0  0  0  0  0
   28.3450   25.7220   17.0260 C   0  0  0  0  0  0  0  0  0  0  0  0
   27.6010   24.4020   16.8930 C   0  0  0  0  0  0  0  0  0  0  0  0
   26.1470   24.5320   17.2540 C   0  0  0  0  0  0  0  0  0  0  0  0
   25.6220   23.1860   17.7430 C   0  0  0  0  0  0  0  0  0  0  0  0
   25.5300   23.1710   19.2220 N   0  0  0  0  0  0  0  0  0  0  0  0
  1  2  1  0  0  0  0
  1 32  1  0  0  0  0
  2  5  2  0  0  0  0
  3  6  1  0  0  0  0
  3  2  1  0  0  0  0
  4  3  1  0  0  0  0
  7 30  1  0  0  0  0
  7  6  1  1  0  0  0
  8  7  1  0  0  0  0
  8 28  1  1  0  0  0
  9 14  1  0  0  0  0
  9  8  1  1  0  0  0
 10 17  1  6  0  0  0
 10 12  1  0  0  0  0
 10 15  1  0  0  0  0
 11 13  1  0  0  0  0
 11 10  1  0  0  0  0
 12  9  1  0  0  0  0
 13 21  1  1  0  0  0
 13 14  1  0  0  0  0
 14 23  1  6  0  0  0
 16 15  1  0  0  0  0
 17 19  1  0  0  0  0
 18 17  2  0  0  0  0
 19 20  1  0  0  0  0
 22 21  1  0  0  0  0
 23 24  1  0  0  0  0
 24 26  1  0  0  0  0
 24 27  2  0  0  0  0
 25 23  1  0  0  0  0
 29 28  1  0  0  0  0
 30 31  1  0  0  0  0
 33 34  2  0  0  0  0
 33 32  1  0  0  0  0
 35 33  1  0  0  0  0
 36 34  1  0  0  0  0
 37 35  2  0  0  0  0
 37 36  1  0  0  0  0
 38 36  1  0  0  0  0
 39 38  1  0  0  0  0
 40 39  1  0  0  0  0
 41 40  1  0  0  0  0
 42 41  1  0  0  0  0
 43 42  2  0  0  0  0
 44 45  1  0  0  0  0
 46 45  1  0  0  0  0
 46 47  1  0  0  0  0
 47 48  1  0  0  0  0
 48 49  1  0  0  0  0
M  END
>  <REMARK>
 VINA RESULT:    -5.279      0.000      0.000
 INTER + INTRA:         -15.155
 INTER:                  -8.806
 INTRA:                  -6.350
 UNBOUND:                -4.785
 SMILES C=CCCCCn1cc(COC(=O)NC[C@@H](O)C(O)[C@@H]2O[C@@](O)(C(=O)O)C[C@H](O)[C@H]2NC(C)=O)nn1
 SMILES IDX 11 1 12 2 14 3 13 5 15 6 16 7 18 8 20 9 22 10 27 11 21 12
 SMILES IDX 28 13 30 14 23 15 24 17 25 18 26 19 29 21 31 23 32 24 33 26
 SMILES IDX 34 27 19 28 17 30 10 32 9 33 8 34 35 35 7 36 36 37 6 38 5 39
 SMILES IDX 4 40 3 41 2 42 1 43
 H PARENT 14 4 23 16 26 20 29 22 31 25 19 29 17 31
 Flexibility Score: inf
  4 active torsions:
  status: ('A' for Active; 'I' for Inactive)
    1  A    between atoms: CA   and  CB  
    2  A    between atoms: CB   and  CG  
    3  A    between atoms: CG   and  CD  
    4  A    between atoms: CD   and  CE  

>  <TORSDO>
F 19

>  <BEGIN_>
RES LYS A 131

$$$$
ligand_43_pose_0_2HRL.pdbqt
 OpenBabel07062320523D

  6  5  0  0  0  0  0  0  0  0999 V2000
   33.1930   34.6630    9.2900 C   0  0  0  0  0  0  0  0  0  0  0  0
   32.0600   35.3600   10.0340 C   0  0  0  0  0  0  0  0  0  0  0  0
   30.8670   35.6660    9.1650 C   0  0  0  0  0  0  0  0  0  0  0  0
   30.3150   34.3920    8.5450 C   0  0  0  0  0  0  0  0  0  0  0  0
   29.0250   33.9820    9.2290 C   0  0  0  0  0  0  0  0  0  0  0  0
   28.3090   35.1660    9.7780 N   0  0  0  0  0  0  0  0  0  0  0  0
  1  2  1  0  0  0  0
  3  2  1  0  0  0  0
  4  3  1  0  0  0  0
  4  5  1  0  0  0  0
  5  6  1  0  0  0  0
M  END
>  <EGIN_R>
ES LYS A 135

>  <REMARK>
  4 active torsions:
  status: ('A' for Active; 'I' for Inactive)
    5  A    between atoms: CA   and  CB  
    6  A    between atoms: CB   and  CG  
    7  A    between atoms: CG   and  CD  
    8  A    between atoms: CD   and  CE  

$$$$
