ligand_68_pose_0_2HRL.pdbqt
 OpenBabel07062320523D

 53 54  0  0  1  0  0  0  0  0999 V2000
   25.9550   28.1980   20.1670 N   0  0  0  0  0  0  0  0  0  0  0  0
   25.1920   29.3890   20.0730 C   0  0  0  0  0  0  0  0  0  0  0  0
   25.4140   30.3130   20.8880 O   0  0  0  0  0  0  0  0  0  0  0  0
   25.7060   27.4640   19.4340 H   0  0  0  0  0  0  0  0  0  0  0  0
   26.9870   27.9520   21.1480 C   0  0  0  0  0  0  0  0  0  0  0  0
   28.3410   27.7250   20.5090 C   0  0  2  0  0  0  0  0  0  0  0  0
   29.2770   28.8920   20.8270 C   0  0  2  0  0  0  0  0  0  0  0  0
   29.9940   28.7530   22.1430 C   0  0  2  0  0  0  0  0  0  0  0  0
   31.7090   30.2590   21.6250 C   0  0  2  0  0  0  0  0  0  0  0  0
   32.3580   29.1910   20.8400 C   0  0  0  0  0  0  0  0  0  0  0  0
   30.6450   29.9610   22.4050 O   0  0  0  0  0  0  0  0  0  0  0  0
   32.0990   27.7760   21.2530 C   0  0  1  0  0  0  0  0  0  0  0  0
   30.9130   27.6070   22.1730 C   0  0  1  0  0  0  0  0  0  0  0  0
   31.2350   31.2130   20.6750 O   0  0  0  0  0  0  0  0  0  0  0  0
   30.2780   31.3150   20.8700 H   0  0  0  0  0  0  0  0  0  0  0  0
   32.7780   31.0090   22.3850 C   0  0  0  0  0  0  0  0  0  0  0  0
   33.3280   30.5340   23.4070 O   0  0  0  0  0  0  0  0  0  0  0  0
   33.1770   32.2700   21.9520 O   0  0  0  0  0  0  0  0  0  0  0  0
   34.1410   32.5380   21.8260 H   0  0  0  0  0  0  0  0  0  0  0  0
   31.9380   26.9660   20.0940 O   0  0  0  0  0  0  0  0  0  0  0  0
   31.4120   26.1910   20.3680 H   0  0  0  0  0  0  0  0  0  0  0  0
   31.4690   27.3270   23.4880 N   0  0  0  0  0  0  0  0  0  0  0  0
   30.9140   26.3970   24.4000 C   0  0  0  0  0  0  0  0  0  0  0  0
   32.3280   27.8660   23.7330 H   0  0  0  0  0  0  0  0  0  0  0  0
   31.5060   26.1340   25.7340 C   0  0  0  0  0  0  0  0  0  0  0  0
   29.8780   25.7970   24.0110 O   0  0  0  0  0  0  0  0  0  0  0  0
   28.3350   29.9760   21.0090 O   0  0  0  0  0  0  0  0  0  0  0  0
   28.1390   30.1160   21.9480 H   0  0  0  0  0  0  0  0  0  0  0  0
   28.1690   27.5180   19.1600 O   0  0  0  0  0  0  0  0  0  0  0  0
   27.8410   28.3600   18.7650 H   0  0  0  0  0  0  0  0  0  0  0  0
   24.2070   29.5830   19.1170 O   0  0  0  0  0  0  0  0  0  0  0  0
   24.4330   30.3180   17.9300 C   0  0  0  0  0  0  0  0  0  0  0  0
   25.7460   29.9320   17.3740 C   0  0  0  0  0  0  0  0  0  0  0  0
   26.8060   30.7830   17.1030 C   0  0  0  0  0  0  0  0  0  0  0  0
   26.1990   28.7080   17.0170 N   0  0  0  0  0  0  0  0  0  0  0  0
   27.8350   30.0740   16.6060 N   0  0  0  0  0  0  0  0  0  0  0  0
   27.4380   28.8250   16.5660 N   0  0  0  0  0  0  0  0  0  0  0  0
   29.1330   30.6300   16.2010 C   0  0  0  0  0  0  0  0  0  0  0  0
   29.7420   31.3500   17.3790 C   0  0  1  0  0  0  0  0  0  0  0  0
   30.5270   30.4040   18.0770 O   0  0  0  0  0  0  0  0  0  0  0  0
   30.3370   30.4830   19.0520 H   0  0  0  0  0  0  0  0  0  0  0  0
   30.6440   32.4180   16.9020 C   0  0  0  0  0  0  0  0  0  0  0  0
   31.1640   32.4360   15.6230 C   0  0  0  0  0  0  0  0  0  0  0  0
   30.9880   33.4550   17.7790 C   0  0  0  0  0  0  0  0  0  0  0  0
   32.0000   33.4390   15.1980 C   0  0  0  0  0  0  0  0  0  0  0  0
   31.8190   34.4530   17.3580 C   0  0  0  0  0  0  0  0  0  0  0  0
   32.3220   34.4450   16.0770 C   0  0  0  0  0  0  0  0  0  0  0  0
   29.8670   25.5550   16.9770 C   0  0  0  0  0  0  0  0  0  0  0  0
   28.3450   25.7220   17.0260 C   0  0  0  0  0  0  0  0  0  0  0  0
   27.5990   24.4250   16.7540 C   0  0  0  0  0  0  0  0  0  0  0  0
   26.9090   23.9000   17.9820 C   0  0  0  0  0  0  0  0  0  0  0  0
   25.9060   24.9350   18.4840 C   0  0  0  0  0  0  0  0  0  0  0  0
   25.5490   24.6690   19.8970 N   0  0  0  0  0  0  0  0  0  0  0  0
  1  5  1  0  0  0  0
  2  1  1  0  0  0  0
  2  3  2  0  0  0  0
  4  1  1  0  0  0  0
  6  7  1  0  0  0  0
  6  5  1  1  0  0  0
  7 27  1  1  0  0  0
  8  7  1  6  0  0  0
  8 13  1  0  0  0  0
  8 11  1  0  0  0  0
  9 14  1  6  0  0  0
  9 16  1  0  0  0  0
  9 11  1  0  0  0  0
 10 12  1  0  0  0  0
 10  9  1  0  0  0  0
 12 20  1  6  0  0  0
 12 13  1  0  0  0  0
 13 22  1  1  0  0  0
 14 15  1  0  0  0  0
 16 17  2  0  0  0  0
 18 16  1  0  0  0  0
 19 18  1  0  0  0  0
 20 21  1  0  0  0  0
 22 24  1  0  0  0  0
 22 23  1  0  0  0  0
 23 25  1  0  0  0  0
 26 23  2  0  0  0  0
 27 28  1  0  0  0  0
 29  6  1  0  0  0  0
 30 29  1  0  0  0  0
 31  2  1  0  0  0  0
 32 31  1  0  0  0  0
 33 32  1  0  0  0  0
 34 33  2  0  0  0  0
 35 33  1  0  0  0  0
 36 34  1  0  0  0  0
 37 36  1  0  0  0  0
 37 35  2  0  0  0  0
 38 36  1  0  0  0  0
 39 38  1  6  0  0  0
 39 40  1  0  0  0  0
 40 41  1  0  0  0  0
 42 39  1  0  0  0  0
 42 44  2  0  0  0  0
 43 42  1  0  0  0  0
 45 43  2  0  0  0  0
 45 47  1  0  0  0  0
 46 44  1  0  0  0  0
 47 46  2  0  0  0  0
 48 49  1  0  0  0  0
 50 49  1  0  0  0  0
 50 51  1  0  0  0  0
 51 52  1  0  0  0  0
 52 53  1  0  0  0  0
M  END
>  <REMARK>
 VINA RESULT:    -5.978      0.000      0.000
 INTER + INTRA:         -16.233
 INTER:                  -9.494
 INTRA:                  -6.739
 UNBOUND:                -5.012
 SMILES CC(=O)N[C@@H]1[C@@H](O)C[C@](O)(C(=O)O)O[C@H]1C(O)[C@H](O)CNC(=O)OCc1cn(CC(O)c2ccccc2)nn1
 SMILES IDX 21 1 22 2 23 3 20 5 18 6 16 7 15 8 9 9 8 10 14 11 6 12 5 13
 SMILES IDX 10 14 11 16 12 17 13 18 7 20 4 22 2 23 1 25 3 26 17 27 19 29
 SMILES IDX 24 31 25 32 26 33 27 34 39 35 28 36 38 37 29 38 30 39 31 40
 SMILES IDX 32 42 33 43 37 44 34 45 36 46 35 47
 H PARENT 21 4 10 15 13 19 7 21 4 24 17 28 19 30 31 41
 Flexibility Score: inf
  4 active torsions:
  status: ('A' for Active; 'I' for Inactive)
    1  A    between atoms: CA   and  CB  
    2  A    between atoms: CB   and  CG  
    3  A    between atoms: CG   and  CD  
    4  A    between atoms: CD   and  CE  

>  <TORSDO>
F 18

>  <BEGIN_>
RES LYS A 131

$$$$
ligand_68_pose_0_2HRL.pdbqt
 OpenBabel07062320523D

  6  5  0  0  0  0  0  0  0  0999 V2000
   33.1930   34.6630    9.2900 C   0  0  0  0  0  0  0  0  0  0  0  0
   32.0600   35.3600   10.0340 C   0  0  0  0  0  0  0  0  0  0  0  0
   30.7100   34.7320    9.8010 C   0  0  0  0  0  0  0  0  0  0  0  0
   30.4670   34.5180    8.3150 C   0  0  0  0  0  0  0  0  0  0  0  0
   29.0240   34.8260    7.9620 C   0  0  0  0  0  0  0  0  0  0  0  0
   28.9310   35.5330    6.6550 N   0  0  0  0  0  0  0  0  0  0  0  0
  1  2  1  0  0  0  0
  3  2  1  0  0  0  0
  4  3  1  0  0  0  0
  5  4  1  0  0  0  0
  6  5  1  0  0  0  0
M  END
>  <EGIN_R>
ES LYS A 135

>  <REMARK>
  4 active torsions:
  status: ('A' for Active; 'I' for Inactive)
    5  A    between atoms: CA   and  CB  
    6  A    between atoms: CB   and  CG  
    7  A    between atoms: CG   and  CD  
    8  A    between atoms: CD   and  CE  

$$$$
