ligand_88_pose_0_2HRL.pdbqt
 OpenBabel07062320523D

 54 54  0  0  1  0  0  0  0  0999 V2000
   26.6690   28.8240   17.1980 N   0  0  0  0  0  0  0  0  0  0  0  0
   25.6970   29.6080   16.5150 C   0  0  0  0  0  0  0  0  0  0  0  0
   24.5040   29.5580   16.8910 O   0  0  0  0  0  0  0  0  0  0  0  0
   27.6480   28.8830   16.8670 H   0  0  0  0  0  0  0  0  0  0  0  0
   26.3240   27.9750   18.3060 C   0  0  0  0  0  0  0  0  0  0  0  0
   27.4130   27.9660   19.3400 C   0  0  2  0  0  0  0  0  0  0  0  0
   28.0680   29.3210   19.4920 C   0  0  1  0  0  0  0  0  0  0  0  0
   28.8100   29.3800   20.8400 C   0  0  2  0  0  0  0  0  0  0  0  0
   30.5700   27.9490   21.4680 C   0  0  1  0  0  0  0  0  0  0  0  0
   30.0460   28.1240   22.9020 C   0  0  0  0  0  0  0  0  0  0  0  0
   30.0340   28.8770   20.6400 O   0  0  0  0  0  0  0  0  0  0  0  0
   28.5690   27.7850   22.7790 C   0  0  1  0  0  0  0  0  0  0  0  0
   27.9580   28.8480   21.9120 C   0  0  1  0  0  0  0  0  0  0  0  0
   30.3000   26.6380   21.1310 O   0  0  0  0  0  0  0  0  0  0  0  0
   29.3930   26.3390   21.3840 H   0  0  0  0  0  0  0  0  0  0  0  0
   32.0430   28.1380   21.4700 C   0  0  0  0  0  0  0  0  0  0  0  0
   32.5380   29.0340   20.7420 O   0  0  0  0  0  0  0  0  0  0  0  0
   32.8920   27.3580   22.2490 O   0  0  0  0  0  0  0  0  0  0  0  0
   33.4780   26.6900   21.7270 H   0  0  0  0  0  0  0  0  0  0  0  0
   28.3970   26.5070   22.2500 O   0  0  0  0  0  0  0  0  0  0  0  0
   29.2160   26.2740   21.7670 H   0  0  0  0  0  0  0  0  0  0  0  0
   27.4500   29.8840   22.8110 N   0  0  0  0  0  0  0  0  0  0  0  0
   26.1590   30.4540   22.6870 C   0  0  0  0  0  0  0  0  0  0  0  0
   28.0430   30.2530   23.6050 H   0  0  0  0  0  0  0  0  0  0  0  0
   25.6800   31.5120   23.6280 C   0  0  0  0  0  0  0  0  0  0  0  0
   25.3950   30.0660   21.7660 O   0  0  0  0  0  0  0  0  0  0  0  0
   28.8700   29.6780   18.4360 O   0  0  0  0  0  0  0  0  0  0  0  0
   29.7860   29.3410   18.5260 H   0  0  0  0  0  0  0  0  0  0  0  0
   28.2960   26.9380   19.0960 O   0  0  0  0  0  0  0  0  0  0  0  0
   28.2100   26.1780   19.7020 H   0  0  0  0  0  0  0  0  0  0  0  0
   26.0560   30.4090   15.4590 O   0  0  0  0  0  0  0  0  0  0  0  0
   26.2160   31.8090   15.5990 C   0  0  0  0  0  0  0  0  0  0  0  0
   27.5630   32.0800   16.1660 C   0  0  0  0  0  0  0  0  0  0  0  0
   28.7780   32.0130   15.4960 C   0  0  0  0  0  0  0  0  0  0  0  0
   27.9020   32.4400   17.4180 N   0  0  0  0  0  0  0  0  0  0  0  0
   29.7700   32.3260   16.3430 N   0  0  0  0  0  0  0  0  0  0  0  0
   29.2030   32.5880   17.5320 N   0  0  0  0  0  0  0  0  0  0  0  0
   31.1790   32.3840   16.0710 C   0  0  0  0  0  0  0  0  0  0  0  0
   31.6750   33.7680   15.8630 C   0  0  0  0  0  0  0  0  0  0  0  0
   32.2070   34.4390   16.9460 C   0  0  0  0  0  0  0  0  0  0  0  0
   31.6300   34.4120   14.6490 C   0  0  0  0  0  0  0  0  0  0  0  0
   32.6940   35.7260   16.8680 C   0  0  0  0  0  0  0  0  0  0  0  0
   32.1180   35.7190   14.5420 C   0  0  0  0  0  0  0  0  0  0  0  0
   33.4210   36.6250   18.3760 Br  0  0  0  0  0  0  0  0  0  0  0  0
   32.6410   36.3640   15.6360 C   0  0  0  0  0  0  0  0  0  0  0  0
   32.0160   36.5430   12.8110 Br  0  0  0  0  0  0  0  0  0  0  0  0
   31.1040   33.7680   13.5450 O   0  0  0  0  0  0  0  0  0  0  0  0
   31.6640   33.0770   13.0640 H   0  0  0  0  0  0  0  0  0  0  0  0
   29.8670   25.5550   16.9770 C   0  0  0  0  0  0  0  0  0  0  0  0
   28.3450   25.7220   17.0260 C   0  0  0  0  0  0  0  0  0  0  0  0
   27.6000   24.4120   16.8190 C   0  0  0  0  0  0  0  0  0  0  0  0
   26.5640   24.1750   17.8830 C   0  0  0  0  0  0  0  0  0  0  0  0
   25.1720   24.3520   17.2860 C   0  0  0  0  0  0  0  0  0  0  0  0
   24.4570   23.0540   17.2430 N   0  0  0  0  0  0  0  0  0  0  0  0
  1  5  1  0  0  0  0
  2  3  2  0  0  0  0
  2  1  1  0  0  0  0
  4  1  1  0  0  0  0
  6  5  1  6  0  0  0
  6  7  1  0  0  0  0
  7 27  1  6  0  0  0
  8  7  1  6  0  0  0
  8 13  1  0  0  0  0
  9 16  1  1  0  0  0
  9 10  1  0  0  0  0
 11  8  1  0  0  0  0
 11  9  1  0  0  0  0
 12 20  1  6  0  0  0
 12 10  1  0  0  0  0
 13 12  1  0  0  0  0
 13 22  1  1  0  0  0
 14 15  1  0  0  0  0
 16 18  1  0  0  0  0
 17 16  2  0  0  0  0
 19 18  1  0  0  0  0
 21 20  1  0  0  0  0
 22 24  1  0  0  0  0
 23 22  1  0  0  0  0
 23 25  1  0  0  0  0
 26 23  2  0  0  0  0
 27 28  1  0  0  0  0
 29  6  1  0  0  0  0
 29 30  1  0  0  0  0
 31 32  1  0  0  0  0
 31  2  1  0  0  0  0
 32 33  1  0  0  0  0
 33 35  1  0  0  0  0
 34 33  2  0  0  0  0
 34 36  1  0  0  0  0
 35 37  2  0  0  0  0
 36 37  1  0  0  0  0
 38 36  1  0  0  0  0
 39 38  1  0  0  0  0
 39 40  2  0  0  0  0
 41 39  1  0  0  0  0
 42 40  1  0  0  0  0
 42 44  1  0  0  0  0
 43 41  2  0  0  0  0
 43 45  1  0  0  0  0
 45 42  2  0  0  0  0
 46 43  1  0  0  0  0
 47 41  1  0  0  0  0
 48 47  1  0  0  0  0
 49 50  1  0  0  0  0
 51 50  1  0  0  0  0
 51 52  1  0  0  0  0
 53 52  1  0  0  0  0
 54 53  1  0  0  0  0
M  END
>  <REMARK>
 VINA RESULT:    -5.485      0.000      0.000
 INTER + INTRA:         -15.769
 INTER:                  -9.396
 INTRA:                  -6.373
 UNBOUND:                -5.794
 SMILES CC(=O)N[C@@H]1[C@@H](O)C[C@](O)(C(=O)O)O[C@H]1C(O)[C@H](O)CNC(=O)OCc1cn(Cc2cc(Br)cc(Br)c2O)nn1
 SMILES IDX 21 1 22 2 23 3 20 5 18 6 16 7 15 8 9 9 8 10 14 11 6 12 5 13
 SMILES IDX 10 14 11 16 12 17 13 18 7 20 4 22 2 23 1 25 3 26 17 27 19 29
 SMILES IDX 24 31 25 32 26 33 27 34 40 35 28 36 39 37 29 38 30 39 31 40
 SMILES IDX 37 41 32 42 35 43 33 44 34 45 36 46 38 47
 H PARENT 21 4 10 15 13 19 7 21 4 24 17 28 19 30 38 48
 Flexibility Score: inf
  4 active torsions:
  status: ('A' for Active; 'I' for Inactive)
    1  A    between atoms: CA   and  CB  
    2  A    between atoms: CB   and  CG  
    3  A    between atoms: CG   and  CD  
    4  A    between atoms: CD   and  CE  

>  <TORSDO>
F 17

>  <BEGIN_>
RES LYS A 131

$$$$
ligand_88_pose_0_2HRL.pdbqt
 OpenBabel07062320523D

  6  5  0  0  0  0  0  0  0  0999 V2000
   33.1930   34.6630    9.2900 C   0  0  0  0  0  0  0  0  0  0  0  0
   32.0600   35.3600   10.0340 C   0  0  0  0  0  0  0  0  0  0  0  0
   30.8040   35.5090    9.2150 C   0  0  0  0  0  0  0  0  0  0  0  0
   30.1540   34.1550    8.9770 C   0  0  0  0  0  0  0  0  0  0  0  0
   28.6950   34.3230    8.6000 C   0  0  0  0  0  0  0  0  0  0  0  0
   27.8030   33.6880    9.6100 N   0  0  0  0  0  0  0  0  0  0  0  0
  1  2  1  0  0  0  0
  3  2  1  0  0  0  0
  4  3  1  0  0  0  0
  5  4  1  0  0  0  0
  5  6  1  0  0  0  0
M  END
>  <EGIN_R>
ES LYS A 135

>  <REMARK>
  4 active torsions:
  status: ('A' for Active; 'I' for Inactive)
    5  A    between atoms: CA   and  CB  
    6  A    between atoms: CB   and  CG  
    7  A    between atoms: CG   and  CD  
    8  A    between atoms: CD   and  CE  

$$$$
