ligand_24_pose_0_2HRL.pdbqt
 OpenBabel07062320523D

 52 53  0  0  1  0  0  0  0  0999 V2000
   25.0550   28.8610   18.9350 N   0  0  0  0  0  0  0  0  0  0  0  0
   24.6000   28.5890   17.6260 C   0  0  0  0  0  0  0  0  0  0  0  0
   24.2820   27.4410   17.2330 O   0  0  0  0  0  0  0  0  0  0  0  0
   25.2980   29.8560   19.1520 H   0  0  0  0  0  0  0  0  0  0  0  0
   25.1970   27.8770   19.9600 C   0  0  0  0  0  0  0  0  0  0  0  0
   26.5730   27.7420   20.5150 C   0  0  2  0  0  0  0  0  0  0  0  0
   27.6380   28.2600   19.5740 C   0  0  1  0  0  0  0  0  0  0  0  0
   28.8780   28.7290   20.2470 C   0  0  2  0  0  0  0  0  0  0  0  0
   30.6250   28.0870   21.6240 C   0  0  2  0  0  0  0  0  0  0  0  0
   30.5590   29.3660   22.4100 C   0  0  0  0  0  0  0  0  0  0  0  0
   29.4780   27.7190   20.9950 O   0  0  0  0  0  0  0  0  0  0  0  0
   29.7350   30.4340   21.7210 C   0  0  1  0  0  0  0  0  0  0  0  0
   28.4670   29.7890   21.2750 C   0  0  1  0  0  0  0  0  0  0  0  0
   30.8860   27.0790   22.5890 O   0  0  0  0  0  0  0  0  0  0  0  0
   30.0190   26.9100   23.0290 H   0  0  0  0  0  0  0  0  0  0  0  0
   31.8260   28.1490   20.7580 C   0  0  0  0  0  0  0  0  0  0  0  0
   32.6870   29.0730   20.8570 O   0  0  0  0  0  0  0  0  0  0  0  0
   32.0780   27.1880   19.7810 O   0  0  0  0  0  0  0  0  0  0  0  0
   31.8020   27.3370   18.8290 H   0  0  0  0  0  0  0  0  0  0  0  0
   29.5440   31.5020   22.5760 O   0  0  0  0  0  0  0  0  0  0  0  0
   30.3130   31.5940   23.1600 H   0  0  0  0  0  0  0  0  0  0  0  0
   27.4700   30.6930   20.7980 N   0  0  0  0  0  0  0  0  0  0  0  0
   26.4620   31.2750   21.5780 C   0  0  0  0  0  0  0  0  0  0  0  0
   27.4940   30.9490   19.7730 H   0  0  0  0  0  0  0  0  0  0  0  0
   25.4840   32.2010   20.9600 C   0  0  0  0  0  0  0  0  0  0  0  0
   26.3820   31.0190   22.7830 O   0  0  0  0  0  0  0  0  0  0  0  0
   27.9200   27.2960   18.6310 O   0  0  0  0  0  0  0  0  0  0  0  0
   28.5450   27.5670   17.9220 H   0  0  0  0  0  0  0  0  0  0  0  0
   26.8600   26.4920   20.9790 O   0  0  0  0  0  0  0  0  0  0  0  0
   26.4580   26.4060   21.8960 H   0  0  0  0  0  0  0  0  0  0  0  0
   24.4900   29.6430   16.6990 O   0  0  0  0  0  0  0  0  0  0  0  0
   25.6120   29.9510   15.9040 C   0  0  0  0  0  0  0  0  0  0  0  0
   26.7050   30.5580   16.6840 C   0  0  0  0  0  0  0  0  0  0  0  0
   28.0670   30.2520   16.6100 C   0  0  0  0  0  0  0  0  0  0  0  0
   26.6170   31.5190   17.6210 N   0  0  0  0  0  0  0  0  0  0  0  0
   28.7310   31.0230   17.4830 N   0  0  0  0  0  0  0  0  0  0  0  0
   27.8310   31.7790   18.0820 N   0  0  0  0  0  0  0  0  0  0  0  0
   30.1460   31.0450   17.7420 C   0  0  0  0  0  0  0  0  0  0  0  0
   30.8070   32.1730   17.0510 C   0  0  0  0  0  0  0  0  0  0  0  0
   31.1260   33.3220   17.7380 C   0  0  0  0  0  0  0  0  0  0  0  0
   31.1020   32.0730   15.7160 C   0  0  0  0  0  0  0  0  0  0  0  0
   31.7490   34.3790   17.0780 C   0  0  0  0  0  0  0  0  0  0  0  0
   31.7250   33.1240   15.0440 C   0  0  0  0  0  0  0  0  0  0  0  0
   32.0450   34.2680   15.7290 C   0  0  0  0  0  0  0  0  0  0  0  0
   32.6680   35.3390   15.0860 O   0  0  0  0  0  0  0  0  0  0  0  0
   32.7180   35.3680   13.6700 C   0  0  0  0  0  0  0  0  0  0  0  0
   29.8670   25.5550   16.9770 C   0  0  0  0  0  0  0  0  0  0  0  0
   28.3450   25.7220   17.0260 C   0  0  0  0  0  0  0  0  0  0  0  0
   27.5990   24.4610   16.6170 C   0  0  0  0  0  0  0  0  0  0  0  0
   27.0580   23.7130   17.8040 C   0  0  0  0  0  0  0  0  0  0  0  0
   25.8050   24.4130   18.3200 C   0  0  0  0  0  0  0  0  0  0  0  0
   25.3790   23.8270   19.6130 N   0  0  0  0  0  0  0  0  0  0  0  0
  1  4  1  0  0  0  0
  1  5  1  0  0  0  0
  2  1  1  0  0  0  0
  3  2  2  0  0  0  0
  6  5  1  6  0  0  0
  6 29  1  0  0  0  0
  7 27  1  6  0  0  0
  7  6  1  0  0  0  0
  8  7  1  1  0  0  0
  8 11  1  0  0  0  0
  8 13  1  0  0  0  0
  9 16  1  6  0  0  0
  9 10  1  0  0  0  0
  9 14  1  0  0  0  0
 11  9  1  0  0  0  0
 12 10  1  0  0  0  0
 12 20  1  1  0  0  0
 13 22  1  6  0  0  0
 13 12  1  0  0  0  0
 14 15  1  0  0  0  0
 16 17  2  0  0  0  0
 18 16  1  0  0  0  0
 19 18  1  0  0  0  0
 20 21  1  0  0  0  0
 22 23  1  0  0  0  0
 23 26  2  0  0  0  0
 24 22  1  0  0  0  0
 25 23  1  0  0  0  0
 28 27  1  0  0  0  0
 29 30  1  0  0  0  0
 31  2  1  0  0  0  0
 32 33  1  0  0  0  0
 32 31  1  0  0  0  0
 33 35  1  0  0  0  0
 34 33  2  0  0  0  0
 34 36  1  0  0  0  0
 35 37  2  0  0  0  0
 36 38  1  0  0  0  0
 36 37  1  0  0  0  0
 39 40  2  0  0  0  0
 39 38  1  0  0  0  0
 41 39  1  0  0  0  0
 42 40  1  0  0  0  0
 43 41  2  0  0  0  0
 43 44  1  0  0  0  0
 44 42  2  0  0  0  0
 45 44  1  0  0  0  0
 46 45  1  0  0  0  0
 47 48  1  0  0  0  0
 49 48  1  0  0  0  0
 49 50  1  0  0  0  0
 50 51  1  0  0  0  0
 51 52  1  0  0  0  0
M  END
>  <REMARK>
 VINA RESULT:    -5.612      0.000      0.000
 INTER + INTRA:         -15.646
 INTER:                  -9.188
 INTRA:                  -6.458
 UNBOUND:                -5.276
 SMILES COc1ccc(Cn2cc(COC(=O)NC[C@@H](O)C(O)[C@@H]3O[C@@](O)(C(=O)O)C[C@H](O)[C@H]3NC(C)=O)nn2)cc1
 SMILES IDX 15 1 13 2 14 3 16 5 17 6 19 7 21 8 23 9 28 10 22 11 29 12
 SMILES IDX 31 13 24 14 25 16 26 17 27 18 30 20 32 22 33 23 34 25 35 26
 SMILES IDX 20 27 18 29 12 31 11 32 10 33 9 34 36 35 8 36 37 37 7 38
 SMILES IDX 6 39 5 40 38 41 4 42 39 43 3 44 2 45 1 46
 H PARENT 15 4 24 15 27 19 30 21 32 24 20 28 18 30
 Flexibility Score: inf
  4 active torsions:
  status: ('A' for Active; 'I' for Inactive)
    1  A    between atoms: CA   and  CB  
    2  A    between atoms: CB   and  CG  
    3  A    between atoms: CG   and  CD  
    4  A    between atoms: CD   and  CE  

>  <TORSDO>
F 17

>  <BEGIN_>
RES LYS A 131

$$$$
ligand_24_pose_0_2HRL.pdbqt
 OpenBabel07062320523D

  6  5  0  0  0  0  0  0  0  0999 V2000
   33.1930   34.6630    9.2900 C   0  0  0  0  0  0  0  0  0  0  0  0
   32.0600   35.3600   10.0340 C   0  0  0  0  0  0  0  0  0  0  0  0
   30.7670   34.5860   10.0250 C   0  0  0  0  0  0  0  0  0  0  0  0
   30.3290   34.2900    8.5990 C   0  0  0  0  0  0  0  0  0  0  0  0
   28.8310   34.4750    8.4520 C   0  0  0  0  0  0  0  0  0  0  0  0
   28.0940   33.7500    9.5230 N   0  0  0  0  0  0  0  0  0  0  0  0
  1  2  1  0  0  0  0
  3  2  1  0  0  0  0
  4  3  1  0  0  0  0
  5  4  1  0  0  0  0
  5  6  1  0  0  0  0
M  END
>  <EGIN_R>
ES LYS A 135

>  <REMARK>
  4 active torsions:
  status: ('A' for Active; 'I' for Inactive)
    5  A    between atoms: CA   and  CB  
    6  A    between atoms: CB   and  CG  
    7  A    between atoms: CG   and  CD  
    8  A    between atoms: CD   and  CE  

$$$$
