ligand_45_pose_0_2HRL.pdbqt
 OpenBabel07062320523D

 52 52  0  0  1  0  0  0  0  0999 V2000
   27.2230   28.3730   18.6840 O   0  0  0  0  0  0  0  0  0  0  0  0
   27.9590   28.1700   19.8340 C   0  0  0  0  0  0  0  0  0  0  0  0
   29.1420   27.3640   19.8500 N   0  0  0  0  0  0  0  0  0  0  0  0
   29.4180   26.9530   18.9520 H   0  0  0  0  0  0  0  0  0  0  0  0
   27.5750   28.7090   20.8970 O   0  0  0  0  0  0  0  0  0  0  0  0
   29.8430   27.2020   21.0700 C   0  0  0  0  0  0  0  0  0  0  0  0
   31.2170   27.7800   21.1380 C   0  0  2  0  0  0  0  0  0  0  0  0
   31.3130   29.2560   20.9070 C   0  0  1  0  0  0  0  0  0  0  0  0
   32.5480   29.9060   21.4550 C   0  0  2  0  0  0  0  0  0  0  0  0
   34.2170   29.6150   23.0100 C   0  0  2  0  0  0  0  0  0  0  0  0
   34.7820   30.7660   22.2000 C   0  0  0  0  0  0  0  0  0  0  0  0
   33.0520   29.1270   22.4680 O   0  0  0  0  0  0  0  0  0  0  0  0
   33.7990   31.8930   22.1250 C   0  0  1  0  0  0  0  0  0  0  0  0
   32.3990   31.3190   21.8990 C   0  0  1  0  0  0  0  0  0  0  0  0
   33.9320   30.1160   24.2930 O   0  0  0  0  0  0  0  0  0  0  0  0
   33.1560   30.7240   24.1780 H   0  0  0  0  0  0  0  0  0  0  0  0
   35.2250   28.5510   23.1350 C   0  0  0  0  0  0  0  0  0  0  0  0
   36.4360   28.8400   23.3440 O   0  0  0  0  0  0  0  0  0  0  0  0
   34.8870   27.2170   23.0310 O   0  0  0  0  0  0  0  0  0  0  0  0
   34.2430   26.7910   23.6700 H   0  0  0  0  0  0  0  0  0  0  0  0
   33.8450   32.6090   23.3290 O   0  0  0  0  0  0  0  0  0  0  0  0
   33.1790   33.3300   23.3060 H   0  0  0  0  0  0  0  0  0  0  0  0
   31.8290   32.1640   20.8450 N   0  0  0  0  0  0  0  0  0  0  0  0
   31.2520   33.4170   21.1640 C   0  0  0  0  0  0  0  0  0  0  0  0
   31.8550   31.8270   19.8560 H   0  0  0  0  0  0  0  0  0  0  0  0
   30.6710   34.2670   20.0770 C   0  0  0  0  0  0  0  0  0  0  0  0
   31.1970   33.8760   22.3460 O   0  0  0  0  0  0  0  0  0  0  0  0
   31.1980   29.5080   19.5310 O   0  0  0  0  0  0  0  0  0  0  0  0
   31.8650   28.9270   19.0710 H   0  0  0  0  0  0  0  0  0  0  0  0
   31.9930   27.0920   20.1800 O   0  0  0  0  0  0  0  0  0  0  0  0
   31.6400   26.2010   19.9840 H   0  0  0  0  0  0  0  0  0  0  0  0
   26.9110   29.7030   18.2940 C   0  0  0  0  0  0  0  0  0  0  0  0
   28.1490   30.4180   17.9050 C   0  0  0  0  0  0  0  0  0  0  0  0
   28.7340   30.5620   16.6670 C   0  0  0  0  0  0  0  0  0  0  0  0
   28.9640   31.0880   18.7470 N   0  0  0  0  0  0  0  0  0  0  0  0
   29.8610   31.2940   16.7720 N   0  0  0  0  0  0  0  0  0  0  0  0
   29.9630   31.5930   18.0500 N   0  0  0  0  0  0  0  0  0  0  0  0
   30.7820   31.6850   15.7550 C   0  0  0  0  0  0  0  0  0  0  0  0
   31.5210   32.9340   16.0520 C   0  0  0  0  0  0  0  0  0  0  0  0
   31.4870   34.0270   15.0670 C   0  0  0  0  0  0  0  0  0  0  0  0
   32.5120   34.9880   15.0160 N   0  0  0  0  0  0  0  0  0  0  0  0
   33.7010   34.6380   14.2860 C   0  0  0  0  0  0  0  0  0  0  0  0
   31.9500   36.1370   14.2770 C   0  0  0  0  0  0  0  0  0  0  0  0
   31.1220   35.7670   13.1080 C   0  0  0  0  0  0  0  0  0  0  0  0
   32.9030   35.4960   16.3010 C   0  0  0  0  0  0  0  0  0  0  0  0
   32.0010   36.5270   16.8740 C   0  0  0  0  0  0  0  0  0  0  0  0
   29.8670   25.5550   16.9770 C   0  0  0  0  0  0  0  0  0  0  0  0
   28.3450   25.7220   17.0260 C   0  0  0  0  0  0  0  0  0  0  0  0
   27.6010   24.4010   16.9020 C   0  0  0  0  0  0  0  0  0  0  0  0
   26.5820   24.2200   17.9920 C   0  0  0  0  0  0  0  0  0  0  0  0
   25.5230   23.2200   17.5380 C   0  0  0  0  0  0  0  0  0  0  0  0
   24.3840   23.9230   16.9020 N   0  0  0  0  0  0  0  0  0  0  0  0
  1  2  1  0  0  0  0
  2  3  1  0  0  0  0
  2  5  2  0  0  0  0
  3  6  1  0  0  0  0
  4  3  1  0  0  0  0
  7  6  1  6  0  0  0
  8 28  1  6  0  0  0
  8  7  1  0  0  0  0
  9  8  1  1  0  0  0
  9 14  1  0  0  0  0
  9 12  1  0  0  0  0
 10 17  1  1  0  0  0
 10 15  1  0  0  0  0
 11 10  1  0  0  0  0
 12 10  1  0  0  0  0
 13 11  1  0  0  0  0
 13 21  1  1  0  0  0
 14 23  1  6  0  0  0
 14 13  1  0  0  0  0
 16 15  1  0  0  0  0
 17 18  2  0  0  0  0
 19 17  1  0  0  0  0
 19 20  1  0  0  0  0
 22 21  1  0  0  0  0
 23 24  1  0  0  0  0
 24 27  2  0  0  0  0
 25 23  1  0  0  0  0
 26 24  1  0  0  0  0
 29 28  1  0  0  0  0
 30  7  1  0  0  0  0
 31 30  1  0  0  0  0
 32  1  1  0  0  0  0
 33 32  1  0  0  0  0
 33 35  1  0  0  0  0
 34 36  1  0  0  0  0
 34 33  2  0  0  0  0
 36 37  1  0  0  0  0
 37 35  2  0  0  0  0
 38 39  1  0  0  0  0
 38 36  1  0  0  0  0
 40 39  1  0  0  0  0
 41 40  1  0  0  0  0
 41 45  1  0  0  0  0
 42 41  1  0  0  0  0
 43 41  1  0  0  0  0
 44 43  1  0  0  0  0
 45 46  1  0  0  0  0
 47 48  1  0  0  0  0
 49 48  1  0  0  0  0
 49 50  1  0  0  0  0
 51 50  1  0  0  0  0
 52 51  1  0  0  0  0
M  END
>  <REMARK>
 VINA RESULT:    -4.861      0.000      0.000
 INTER + INTRA:         -15.708
 INTER:                  -9.139
 INTRA:                  -6.569
 UNBOUND:                -5.875
 SMILES CC[N+](C)(CC)CCCn1cc(COC(=O)NC[C@@H](O)C(O)[C@@H]2O[C@@](O)(C(=O)O)C[C@H](O)[C@H]2NC(C)=O)nn1
 SMILES IDX 14 1 15 2 17 3 16 5 18 6 19 7 21 8 23 9 25 10 30 11 24 12
 SMILES IDX 31 13 33 14 26 15 27 17 28 18 29 19 32 21 34 23 35 24 36 26
 SMILES IDX 37 27 22 28 20 30 13 32 12 33 11 34 38 35 10 36 39 37 9 38
 SMILES IDX 8 39 7 40 3 41 4 42 2 43 1 44 5 45 6 46
 H PARENT 17 4 26 16 29 20 32 22 34 25 22 29 20 31
 Flexibility Score: inf
  4 active torsions:
  status: ('A' for Active; 'I' for Inactive)
    1  A    between atoms: CA   and  CB  
    2  A    between atoms: CB   and  CG  
    3  A    between atoms: CG   and  CD  
    4  A    between atoms: CD   and  CE  

>  <TORSDO>
F 20

>  <BEGIN_>
RES LYS A 131

$$$$
ligand_45_pose_0_2HRL.pdbqt
 OpenBabel07062320523D

  6  5  0  0  0  0  0  0  0  0999 V2000
   33.1930   34.6630    9.2900 C   0  0  0  0  0  0  0  0  0  0  0  0
   32.0600   35.3600   10.0340 C   0  0  0  0  0  0  0  0  0  0  0  0
   30.7910   35.4740    9.2290 C   0  0  0  0  0  0  0  0  0  0  0  0
   30.1310   34.1130    9.0720 C   0  0  0  0  0  0  0  0  0  0  0  0
   28.6680   34.2690    8.7060 C   0  0  0  0  0  0  0  0  0  0  0  0
   28.5010   35.1800    7.5390 N   0  0  0  0  0  0  0  0  0  0  0  0
  1  2  1  0  0  0  0
  3  2  1  0  0  0  0
  4  3  1  0  0  0  0
  5  4  1  0  0  0  0
  6  5  1  0  0  0  0
M  END
>  <EGIN_R>
ES LYS A 135

>  <REMARK>
  4 active torsions:
  status: ('A' for Active; 'I' for Inactive)
    5  A    between atoms: CA   and  CB  
    6  A    between atoms: CB   and  CG  
    7  A    between atoms: CG   and  CD  
    8  A    between atoms: CD   and  CE  

$$$$
