ligand_50_pose_0_2HRL.pdbqt
 OpenBabel07062320523D

 50 50  0  0  1  0  0  0  0  0999 V2000
   27.8060   28.0000   18.5830 N   0  0  0  0  0  0  0  0  0  0  0  0
   26.8300   28.1510   17.5670 C   0  0  0  0  0  0  0  0  0  0  0  0
   25.6860   27.6840   17.6960 O   0  0  0  0  0  0  0  0  0  0  0  0
   28.7560   28.4340   18.3770 H   0  0  0  0  0  0  0  0  0  0  0  0
   27.5240   27.3090   19.7950 C   0  0  0  0  0  0  0  0  0  0  0  0
   28.2820   27.8440   20.9900 C   0  0  2  0  0  0  0  0  0  0  0  0
   29.0950   29.0300   20.4870 C   0  0  1  0  0  0  0  0  0  0  0  0
   29.2740   30.0600   21.6080 C   0  0  2  0  0  0  0  0  0  0  0  0
   29.8740   32.1900   20.9010 C   0  0  2  0  0  0  0  0  0  0  0  0
   30.4500   32.5210   22.2640 C   0  0  0  0  0  0  0  0  0  0  0  0
   28.8770   31.2680   21.1070 O   0  0  0  0  0  0  0  0  0  0  0  0
   31.1300   31.2970   22.7710 C   0  0  1  0  0  0  0  0  0  0  0  0
   30.6740   30.0110   22.1320 C   0  0  1  0  0  0  0  0  0  0  0  0
   30.9280   31.7120   20.1260 O   0  0  0  0  0  0  0  0  0  0  0  0
   31.4470   31.0100   20.5820 H   0  0  0  0  0  0  0  0  0  0  0  0
   29.2840   33.3920   20.2560 C   0  0  0  0  0  0  0  0  0  0  0  0
   28.8470   34.3140   20.9900 O   0  0  0  0  0  0  0  0  0  0  0  0
   29.2250   33.4780   18.8860 O   0  0  0  0  0  0  0  0  0  0  0  0
   29.6640   32.7720   18.3030 H   0  0  0  0  0  0  0  0  0  0  0  0
   32.4990   31.4260   22.5080 O   0  0  0  0  0  0  0  0  0  0  0  0
   32.6280   31.9950   21.7280 H   0  0  0  0  0  0  0  0  0  0  0  0
   30.8010   28.9850   23.1450 N   0  0  0  0  0  0  0  0  0  0  0  0
   31.8820   28.0680   23.0730 C   0  0  0  0  0  0  0  0  0  0  0  0
   30.1260   28.8850   23.9370 H   0  0  0  0  0  0  0  0  0  0  0  0
   32.0630   26.9800   24.0970 C   0  0  0  0  0  0  0  0  0  0  0  0
   32.7480   28.1000   22.1620 O   0  0  0  0  0  0  0  0  0  0  0  0
   30.2930   28.5810   19.9850 O   0  0  0  0  0  0  0  0  0  0  0  0
   30.9380   28.3630   20.7140 H   0  0  0  0  0  0  0  0  0  0  0  0
   29.1130   26.8580   21.5220 O   0  0  0  0  0  0  0  0  0  0  0  0
   28.6780   25.9970   21.3680 H   0  0  0  0  0  0  0  0  0  0  0  0
   27.1260   28.8380   16.3780 O   0  0  0  0  0  0  0  0  0  0  0  0
   27.1290   30.2360   16.4050 C   0  0  0  0  0  0  0  0  0  0  0  0
   28.5030   30.7860   16.5290 C   0  0  0  0  0  0  0  0  0  0  0  0
   29.1920   31.4930   15.5880 C   0  0  0  0  0  0  0  0  0  0  0  0
   29.3060   30.6810   17.5910 N   0  0  0  0  0  0  0  0  0  0  0  0
   30.4030   31.7920   16.1300 N   0  0  0  0  0  0  0  0  0  0  0  0
   30.4580   31.2890   17.3550 N   0  0  0  0  0  0  0  0  0  0  0  0
   31.4550   32.5460   15.4500 C   0  0  0  0  0  0  0  0  0  0  0  0
   31.4000   33.9500   16.0170 C   0  0  1  0  0  0  0  0  0  0  0  0
   31.7440   33.9170   17.3630 O   0  0  0  0  0  0  0  0  0  0  0  0
   31.0590   33.3780   17.8410 H   0  0  0  0  0  0  0  0  0  0  0  0
   32.3710   34.8620   15.2600 C   0  0  0  0  0  0  0  0  0  0  0  0
   33.1020   34.0990   14.3480 O   0  0  0  0  0  0  0  0  0  0  0  0
   32.4980   33.8130   13.5990 H   0  0  0  0  0  0  0  0  0  0  0  0
   29.8670   25.5550   16.9770 C   0  0  0  0  0  0  0  0  0  0  0  0
   28.3450   25.7220   17.0260 C   0  0  0  0  0  0  0  0  0  0  0  0
   27.6010   24.4050   16.8720 C   0  0  0  0  0  0  0  0  0  0  0  0
   26.6310   24.1670   17.9960 C   0  0  0  0  0  0  0  0  0  0  0  0
   25.5780   23.1560   17.5540 C   0  0  0  0  0  0  0  0  0  0  0  0
   24.4380   23.8440   16.9040 N   0  0  0  0  0  0  0  0  0  0  0  0
  1  5  1  0  0  0  0
  2  3  2  0  0  0  0
  2  1  1  0  0  0  0
  4  1  1  0  0  0  0
  6  5  1  6  0  0  0
  6 29  1  0  0  0  0
  7 27  1  1  0  0  0
  7  6  1  0  0  0  0
  8  7  1  6  0  0  0
  8 13  1  0  0  0  0
  9 14  1  6  0  0  0
  9 11  1  0  0  0  0
  9 10  1  0  0  0  0
 10 12  1  0  0  0  0
 11  8  1  0  0  0  0
 12 20  1  6  0  0  0
 13 12  1  0  0  0  0
 13 22  1  1  0  0  0
 14 15  1  0  0  0  0
 16  9  1  0  0  0  0
 16 17  2  0  0  0  0
 18 16  1  0  0  0  0
 19 18  1  0  0  0  0
 21 20  1  0  0  0  0
 22 24  1  0  0  0  0
 23 22  1  0  0  0  0
 23 25  1  0  0  0  0
 26 23  2  0  0  0  0
 27 28  1  0  0  0  0
 30 29  1  0  0  0  0
 31 32  1  0  0  0  0
 31  2  1  0  0  0  0
 32 33  1  0  0  0  0
 33 35  1  0  0  0  0
 34 36  1  0  0  0  0
 34 33  2  0  0  0  0
 36 37  1  0  0  0  0
 37 35  2  0  0  0  0
 38 39  1  0  0  0  0
 38 36  1  0  0  0  0
 39 42  1  6  0  0  0
 39 40  1  0  0  0  0
 40 41  1  0  0  0  0
 43 42  1  0  0  0  0
 44 43  1  0  0  0  0
 45 46  1  0  0  0  0
 47 46  1  0  0  0  0
 47 48  1  0  0  0  0
 49 48  1  0  0  0  0
 50 49  1  0  0  0  0
M  END
>  <REMARK>
 VINA RESULT:    -4.892      0.000      0.000
 INTER + INTRA:         -14.802
 INTER:                  -7.318
 INTRA:                  -7.484
 UNBOUND:                -5.477
 SMILES CC(=O)N[C@@H]1[C@@H](O)C[C@](O)(C(=O)O)O[C@H]1C(O)[C@H](O)CNC(=O)OCc1cn(CC(O)CO)nn1
 SMILES IDX 21 1 22 2 23 3 20 5 18 6 16 7 15 8 9 9 8 10 14 11 6 12 5 13
 SMILES IDX 10 14 11 16 12 17 13 18 7 20 4 22 2 23 1 25 3 26 17 27 19 29
 SMILES IDX 24 31 25 32 26 33 27 34 35 35 28 36 34 37 29 38 30 39 31 40
 SMILES IDX 32 42 33 43
 H PARENT 21 4 10 15 13 19 7 21 4 24 17 28 19 30 31 41 33 44
 Flexibility Score: inf
  4 active torsions:
  status: ('A' for Active; 'I' for Inactive)
    1  A    between atoms: CA   and  CB  
    2  A    between atoms: CB   and  CG  
    3  A    between atoms: CG   and  CD  
    4  A    between atoms: CD   and  CE  

>  <TORSDO>
F 19

>  <BEGIN_>
RES LYS A 131

$$$$
ligand_50_pose_0_2HRL.pdbqt
 OpenBabel07062320523D

  6  5  0  0  0  0  0  0  0  0999 V2000
   33.1930   34.6630    9.2900 C   0  0  0  0  0  0  0  0  0  0  0  0
   32.0600   35.3600   10.0340 C   0  0  0  0  0  0  0  0  0  0  0  0
   30.8100   35.5280    9.2080 C   0  0  0  0  0  0  0  0  0  0  0  0
   30.1550   34.1800    8.9470 C   0  0  0  0  0  0  0  0  0  0  0  0
   28.7580   34.1440    9.5370 C   0  0  0  0  0  0  0  0  0  0  0  0
   28.2600   35.5190    9.8190 N   0  0  0  0  0  0  0  0  0  0  0  0
  1  2  1  0  0  0  0
  3  2  1  0  0  0  0
  4  3  1  0  0  0  0
  4  5  1  0  0  0  0
  5  6  1  0  0  0  0
M  END
>  <EGIN_R>
ES LYS A 135

>  <REMARK>
  4 active torsions:
  status: ('A' for Active; 'I' for Inactive)
    5  A    between atoms: CA   and  CB  
    6  A    between atoms: CB   and  CG  
    7  A    between atoms: CG   and  CD  
    8  A    between atoms: CD   and  CE  

$$$$
