ligand_40_pose_0_2HRL.pdbqt
 OpenBabel07062320523D

 50 51  0  0  1  0  0  0  0  0999 V2000
   30.1470   33.8700   14.8340 C   0  0  0  0  0  0  0  0  0  0  0  0
   30.1830   32.4030   14.9480 C   0  0  2  0  0  0  0  0  0  0  0  0
   29.1380   31.7000   15.7540 C   0  0  2  0  0  0  0  0  0  0  0  0
   29.3990   31.5560   17.2200 C   0  0  2  0  0  0  0  0  0  0  0  0
   27.3290   30.7750   17.9920 C   0  0  2  0  0  0  0  0  0  0  0  0
   27.1540   31.9310   18.9610 C   0  0  0  0  0  0  0  0  0  0  0  0
   28.6250   30.4890   17.6990 O   0  0  0  0  0  0  0  0  0  0  0  0
   27.9660   33.1170   18.4660 C   0  0  1  0  0  0  0  0  0  0  0  0
   29.3640   32.7320   18.1060 C   0  0  1  0  0  0  0  0  0  0  0  0
   26.5250   31.0380   16.9090 O   0  0  0  0  0  0  0  0  0  0  0  0
   25.9480   31.8380   17.0090 H   0  0  0  0  0  0  0  0  0  0  0  0
   26.7720   29.5820   18.7030 C   0  0  0  0  0  0  0  0  0  0  0  0
   27.4280   28.9670   19.5960 O   0  0  0  0  0  0  0  0  0  0  0  0
   25.5090   29.1210   18.3930 O   0  0  0  0  0  0  0  0  0  0  0  0
   25.4110   28.2350   17.8900 H   0  0  0  0  0  0  0  0  0  0  0  0
   27.3190   33.5110   17.2940 O   0  0  0  0  0  0  0  0  0  0  0  0
   26.9910   34.4450   17.3530 H   0  0  0  0  0  0  0  0  0  0  0  0
   30.1970   32.4160   19.2520 N   0  0  0  0  0  0  0  0  0  0  0  0
   31.2100   33.2630   19.7300 C   0  0  0  0  0  0  0  0  0  0  0  0
   29.9950   31.5040   19.7110 H   0  0  0  0  0  0  0  0  0  0  0  0
   32.0720   32.9700   20.8910 C   0  0  0  0  0  0  0  0  0  0  0  0
   31.3700   34.3310   19.1090 O   0  0  0  0  0  0  0  0  0  0  0  0
   29.2700   30.2960   15.3350 O   0  0  0  0  0  0  0  0  0  0  0  0
   29.2170   29.7530   16.1660 H   0  0  0  0  0  0  0  0  0  0  0  0
   31.4670   31.9200   15.1520 O   0  0  0  0  0  0  0  0  0  0  0  0
   31.4730   31.1420   15.7900 H   0  0  0  0  0  0  0  0  0  0  0  0
   28.8440   34.4300   14.4680 N   0  0  0  0  0  0  0  0  0  0  0  0
   28.5250   34.7660   13.1330 C   0  0  0  0  0  0  0  0  0  0  0  0
   28.0930   34.6140   15.1830 H   0  0  0  0  0  0  0  0  0  0  0  0
   29.3600   34.5900   12.2390 O   0  0  0  0  0  0  0  0  0  0  0  0
   27.2900   35.2990   12.7620 O   0  0  0  0  0  0  0  0  0  0  0  0
   26.2260   35.2850   13.6860 C   0  0  0  0  0  0  0  0  0  0  0  0
   25.6790   33.9440   13.9150 C   0  0  0  0  0  0  0  0  0  0  0  0
   24.6450   33.4030   13.1790 C   0  0  0  0  0  0  0  0  0  0  0  0
   26.0060   32.9880   14.8070 N   0  0  0  0  0  0  0  0  0  0  0  0
   24.3670   32.1600   13.6250 N   0  0  0  0  0  0  0  0  0  0  0  0
   25.2110   31.9420   14.6110 N   0  0  0  0  0  0  0  0  0  0  0  0
   23.3820   31.2370   13.1650 C   0  0  0  0  0  0  0  0  0  0  0  0
   23.6910   29.9070   12.9670 C   0  0  0  0  0  0  0  0  0  0  0  0
   22.0850   31.6230   12.8960 C   0  0  0  0  0  0  0  0  0  0  0  0
   22.7480   29.0010   12.5210 C   0  0  0  0  0  0  0  0  0  0  0  0
   21.1380   30.7240   12.4500 C   0  0  0  0  0  0  0  0  0  0  0  0
   21.4540   29.3960   12.2550 C   0  0  0  0  0  0  0  0  0  0  0  0
   20.4050   28.4600   11.7740 C   0  0  0  0  0  0  0  0  0  0  0  0
   29.8670   25.5550   16.9770 C   0  0  0  0  0  0  0  0  0  0  0  0
   28.3450   25.7220   17.0260 C   0  0  0  0  0  0  0  0  0  0  0  0
   27.6120   24.4040   17.2250 C   0  0  0  0  0  0  0  0  0  0  0  0
   26.1890   24.6080   17.6660 C   0  0  0  0  0  0  0  0  0  0  0  0
   25.3600   23.3840   17.2920 C   0  0  0  0  0  0  0  0  0  0  0  0
   23.9950   23.7870   16.8790 N   0  0  0  0  0  0  0  0  0  0  0  0
  2  1  1  1  0  0  0
  2 25  1  0  0  0  0
  2  3  1  0  0  0  0
  3 23  1  6  0  0  0
  4  3  1  6  0  0  0
  4  7  1  0  0  0  0
  4  9  1  0  0  0  0
  5 10  1  6  0  0  0
  5 12  1  0  0  0  0
  5  6  1  0  0  0  0
  7  5  1  0  0  0  0
  8 16  1  6  0  0  0
  8  6  1  0  0  0  0
  9  8  1  0  0  0  0
  9 18  1  1  0  0  0
 10 11  1  0  0  0  0
 12 13  2  0  0  0  0
 14 12  1  0  0  0  0
 15 14  1  0  0  0  0
 16 17  1  0  0  0  0
 18 20  1  0  0  0  0
 18 19  1  0  0  0  0
 19 21  1  0  0  0  0
 22 19  2  0  0  0  0
 23 24  1  0  0  0  0
 25 26  1  0  0  0  0
 27  1  1  0  0  0  0
 27 29  1  0  0  0  0
 28 27  1  0  0  0  0
 30 28  2  0  0  0  0
 31 28  1  0  0  0  0
 31 32  1  0  0  0  0
 32 33  1  0  0  0  0
 33 35  1  0  0  0  0
 34 36  1  0  0  0  0
 34 33  2  0  0  0  0
 36 37  1  0  0  0  0
 37 35  2  0  0  0  0
 38 36  1  0  0  0  0
 39 38  1  0  0  0  0
 40 38  2  0  0  0  0
 41 39  2  0  0  0  0
 42 40  1  0  0  0  0
 43 42  2  0  0  0  0
 43 41  1  0  0  0  0
 44 43  1  0  0  0  0
 45 46  1  0  0  0  0
 46 47  1  0  0  0  0
 47 48  1  0  0  0  0
 49 48  1  0  0  0  0
 50 49  1  0  0  0  0
M  END
>  <REMARK>
 VINA RESULT:    -5.581      0.000      0.000
 INTER + INTRA:         -14.672
 INTER:                  -9.096
 INTRA:                  -5.576
 UNBOUND:                -5.012
 SMILES CC(=O)N[C@@H]1[C@@H](O)C[C@](O)(C(=O)O)O[C@H]1C(O)[C@H](O)CNC(=O)OCc1cn(-c2ccc(C)cc2)nn1
 SMILES IDX 20 1 18 2 16 3 15 4 9 5 8 6 14 7 6 8 5 9 10 10 11 12 12 13
 SMILES IDX 13 14 7 16 4 18 2 19 1 21 3 22 17 23 19 25 21 27 22 28 23 30
 SMILES IDX 24 31 25 32 26 33 27 34 37 35 28 36 36 37 29 38 30 39 35 40
 SMILES IDX 31 41 34 42 32 43 33 44
 H PARENT 10 11 13 15 7 17 4 20 17 24 19 26 21 29
 Flexibility Score: inf
  4 active torsions:
  status: ('A' for Active; 'I' for Inactive)
    1  A    between atoms: CA   and  CB  
    2  A    between atoms: CB   and  CG  
    3  A    between atoms: CG   and  CD  
    4  A    between atoms: CD   and  CE  

>  <TORSDO>
F 15

>  <BEGIN_>
RES LYS A 131

$$$$
ligand_40_pose_0_2HRL.pdbqt
 OpenBabel07062320523D

  6  5  0  0  0  0  0  0  0  0999 V2000
   33.1930   34.6630    9.2900 C   0  0  0  0  0  0  0  0  0  0  0  0
   32.0600   35.3600   10.0340 C   0  0  0  0  0  0  0  0  0  0  0  0
   30.8440   35.6120    9.1800 C   0  0  0  0  0  0  0  0  0  0  0  0
   30.2150   34.2990    8.7410 C   0  0  0  0  0  0  0  0  0  0  0  0
   28.7440   34.4920    8.4250 C   0  0  0  0  0  0  0  0  0  0  0  0
   27.8860   33.7850    9.4160 N   0  0  0  0  0  0  0  0  0  0  0  0
  1  2  1  0  0  0  0
  3  2  1  0  0  0  0
  4  3  1  0  0  0  0
  5  4  1  0  0  0  0
  5  6  1  0  0  0  0
M  END
>  <EGIN_R>
ES LYS A 135

>  <REMARK>
  4 active torsions:
  status: ('A' for Active; 'I' for Inactive)
    5  A    between atoms: CA   and  CB  
    6  A    between atoms: CB   and  CG  
    7  A    between atoms: CG   and  CD  
    8  A    between atoms: CD   and  CE  

$$$$
