ligand_53_pose_0_2HRL.pdbqt
 OpenBabel07062320523D

 48 48  0  0  1  0  0  0  0  0999 V2000
   25.8120   34.2610   14.4060 N   0  0  0  0  0  0  0  0  0  0  0  0
   25.4570   34.6890   13.1130 C   0  0  0  0  0  0  0  0  0  0  0  0
   24.3000   34.6280   12.6960 O   0  0  0  0  0  0  0  0  0  0  0  0
   26.8440   34.3750   14.6480 H   0  0  0  0  0  0  0  0  0  0  0  0
   24.9350   33.6980   15.4000 C   0  0  0  0  0  0  0  0  0  0  0  0
   25.5400   32.6590   16.2880 C   0  0  2  0  0  0  0  0  0  0  0  0
   26.6260   31.8760   15.6500 C   0  0  1  0  0  0  0  0  0  0  0  0
   27.9650   31.9540   16.3310 C   0  0  2  0  0  0  0  0  0  0  0  0
   30.2400   32.2920   15.8320 C   0  0  2  0  0  0  0  0  0  0  0  0
   30.6740   31.3500   16.9070 C   0  0  0  0  0  0  0  0  0  0  0  0
   28.9690   32.2000   15.3830 O   0  0  0  0  0  0  0  0  0  0  0  0
   29.5850   31.1430   17.9120 C   0  0  1  0  0  0  0  0  0  0  0  0
   28.3530   30.7150   17.0930 C   0  0  1  0  0  0  0  0  0  0  0  0
   31.1640   32.1200   14.7600 O   0  0  0  0  0  0  0  0  0  0  0  0
   32.0620   32.1270   15.1900 H   0  0  0  0  0  0  0  0  0  0  0  0
   30.4990   33.6840   16.3060 C   0  0  0  0  0  0  0  0  0  0  0  0
   29.7330   34.6510   16.1150 O   0  0  0  0  0  0  0  0  0  0  0  0
   31.6610   33.9330   17.0050 O   0  0  0  0  0  0  0  0  0  0  0  0
   32.5820   33.9220   16.5710 H   0  0  0  0  0  0  0  0  0  0  0  0
   29.9010   30.1680   18.8530 O   0  0  0  0  0  0  0  0  0  0  0  0
   29.2630   30.2760   19.6060 H   0  0  0  0  0  0  0  0  0  0  0  0
   27.3790   30.1670   17.9800 N   0  0  0  0  0  0  0  0  0  0  0  0
   26.8930   28.8310   17.8540 C   0  0  0  0  0  0  0  0  0  0  0  0
   27.0070   30.7400   18.7590 H   0  0  0  0  0  0  0  0  0  0  0  0
   25.8830   28.2290   18.7540 C   0  0  0  0  0  0  0  0  0  0  0  0
   27.3530   28.1280   16.9240 O   0  0  0  0  0  0  0  0  0  0  0  0
   26.2250   30.5820   15.3620 O   0  0  0  0  0  0  0  0  0  0  0  0
   26.5800   29.9270   16.0160 H   0  0  0  0  0  0  0  0  0  0  0  0
   24.5110   31.8260   16.7560 O   0  0  0  0  0  0  0  0  0  0  0  0
   24.5260   30.9440   16.3200 H   0  0  0  0  0  0  0  0  0  0  0  0
   26.4130   35.2080   12.2440 O   0  0  0  0  0  0  0  0  0  0  0  0
   27.3180   36.2190   12.5600 C   0  0  0  0  0  0  0  0  0  0  0  0
   28.7270   35.7710   12.6780 C   0  0  0  0  0  0  0  0  0  0  0  0
   29.8680   36.5000   12.8090 C   0  0  0  0  0  0  0  0  0  0  0  0
   29.1370   34.4690   12.6740 N   0  0  0  0  0  0  0  0  0  0  0  0
   30.9130   35.6570   12.8800 N   0  0  0  0  0  0  0  0  0  0  0  0
   30.4580   34.4350   12.7980 N   0  0  0  0  0  0  0  0  0  0  0  0
   32.2990   36.0520   13.0240 C   0  0  0  0  0  0  0  0  0  0  0  0
   32.8690   35.4400   14.2400 C   0  0  0  0  0  0  0  0  0  0  0  0
   33.0050   36.1440   15.2800 O   0  0  0  0  0  0  0  0  0  0  0  0
   33.2500   34.1150   14.2460 O   0  0  0  0  0  0  0  0  0  0  0  0
   33.0210   33.5740   15.0860 H   0  0  0  0  0  0  0  0  0  0  0  0
   29.8670   25.5550   16.9770 C   0  0  0  0  0  0  0  0  0  0  0  0
   28.3450   25.7220   17.0260 C   0  0  0  0  0  0  0  0  0  0  0  0
   27.6010   24.4010   16.8980 C   0  0  0  0  0  0  0  0  0  0  0  0
   26.6360   24.1830   18.0300 C   0  0  0  0  0  0  0  0  0  0  0  0
   25.5700   23.1790   17.6030 C   0  0  0  0  0  0  0  0  0  0  0  0
   24.4470   23.8700   16.9260 N   0  0  0  0  0  0  0  0  0  0  0  0
  1  4  1  0  0  0  0
  1  5  1  0  0  0  0
  2  1  1  0  0  0  0
  3  2  2  0  0  0  0
  6  5  1  6  0  0  0
  6 29  1  0  0  0  0
  7 27  1  1  0  0  0
  7  6  1  0  0  0  0
  8  7  1  6  0  0  0
  8 13  1  0  0  0  0
  9 14  1  6  0  0  0
  9 16  1  0  0  0  0
  9 10  1  0  0  0  0
 10 12  1  0  0  0  0
 11  9  1  0  0  0  0
 11  8  1  0  0  0  0
 12 20  1  1  0  0  0
 13 12  1  0  0  0  0
 13 22  1  1  0  0  0
 14 15  1  0  0  0  0
 16 18  1  0  0  0  0
 17 16  2  0  0  0  0
 19 18  1  0  0  0  0
 20 21  1  0  0  0  0
 22 24  1  0  0  0  0
 23 22  1  0  0  0  0
 23 25  1  0  0  0  0
 26 23  2  0  0  0  0
 27 28  1  0  0  0  0
 30 29  1  0  0  0  0
 31 32  1  0  0  0  0
 31  2  1  0  0  0  0
 32 33  1  0  0  0  0
 33 34  2  0  0  0  0
 34 36  1  0  0  0  0
 35 33  1  0  0  0  0
 35 37  2  0  0  0  0
 36 38  1  0  0  0  0
 37 36  1  0  0  0  0
 38 39  1  0  0  0  0
 39 41  1  0  0  0  0
 39 40  2  0  0  0  0
 41 42  1  0  0  0  0
 43 44  1  0  0  0  0
 45 44  1  0  0  0  0
 45 46  1  0  0  0  0
 47 46  1  0  0  0  0
 48 47  1  0  0  0  0
M  END
>  <REMARK>
 VINA RESULT:    -4.478      0.000      0.000
 INTER + INTRA:         -14.505
 INTER:                  -8.026
 INTRA:                  -6.479
 UNBOUND:                -6.362
 SMILES CC(=O)N[C@@H]1[C@@H](O)C[C@](O)(C(=O)O)O[C@H]1C(O)[C@H](O)CNC(=O)OCc1cn(CC(=O)O)nn1
 SMILES IDX 21 1 22 2 23 3 20 5 18 6 16 7 15 8 9 9 8 10 14 11 6 12 5 13
 SMILES IDX 10 14 11 16 12 17 13 18 7 20 4 22 2 23 1 25 3 26 17 27 19 29
 SMILES IDX 24 31 25 32 26 33 27 34 34 35 28 36 33 37 29 38 30 39 31 40
 SMILES IDX 32 41
 H PARENT 21 4 10 15 13 19 7 21 4 24 17 28 19 30 32 42
 Flexibility Score: inf
  4 active torsions:
  status: ('A' for Active; 'I' for Inactive)
    1  A    between atoms: CA   and  CB  
    2  A    between atoms: CB   and  CG  
    3  A    between atoms: CG   and  CD  
    4  A    between atoms: CD   and  CE  

>  <TORSDO>
F 17

>  <BEGIN_>
RES LYS A 131

$$$$
ligand_53_pose_0_2HRL.pdbqt
 OpenBabel07062320523D

  6  5  0  0  0  0  0  0  0  0999 V2000
   33.1930   34.6630    9.2900 C   0  0  0  0  0  0  0  0  0  0  0  0
   32.0600   35.3600   10.0340 C   0  0  0  0  0  0  0  0  0  0  0  0
   30.7780   35.4370    9.2450 C   0  0  0  0  0  0  0  0  0  0  0  0
   30.1760   34.0520    9.0650 C   0  0  0  0  0  0  0  0  0  0  0  0
   28.6620   34.1170    9.1340 C   0  0  0  0  0  0  0  0  0  0  0  0
   28.1030   34.8640    7.9740 N   0  0  0  0  0  0  0  0  0  0  0  0
  1  2  1  0  0  0  0
  3  2  1  0  0  0  0
  4  5  1  0  0  0  0
  4  3  1  0  0  0  0
  6  5  1  0  0  0  0
M  END
>  <EGIN_R>
ES LYS A 135

>  <REMARK>
  4 active torsions:
  status: ('A' for Active; 'I' for Inactive)
    5  A    between atoms: CA   and  CB  
    6  A    between atoms: CB   and  CG  
    7  A    between atoms: CG   and  CD  
    8  A    between atoms: CD   and  CE  

$$$$
