ligand_54_pose_0_2HRL.pdbqt
 OpenBabel07062320523D

 52 52  0  0  1  0  0  0  0  0999 V2000
   26.0810   32.2760   18.2590 O   0  0  0  0  0  0  0  0  0  0  0  0
   26.0670   31.2210   19.1830 C   0  0  0  0  0  0  0  0  0  0  0  0
   25.9250   29.8780   18.7760 N   0  0  0  0  0  0  0  0  0  0  0  0
   25.8440   29.7290   17.7200 H   0  0  0  0  0  0  0  0  0  0  0  0
   26.1820   31.5080   20.3770 O   0  0  0  0  0  0  0  0  0  0  0  0
   25.8800   28.7160   19.6060 C   0  0  0  0  0  0  0  0  0  0  0  0
   26.8410   27.6630   19.1290 C   0  0  2  0  0  0  0  0  0  0  0  0
   27.8220   27.4390   20.2760 C   0  0  2  0  0  0  0  0  0  0  0  0
   28.3720   28.7280   20.8020 C   0  0  2  0  0  0  0  0  0  0  0  0
   29.9710   30.3130   20.2440 C   0  0  2  0  0  0  0  0  0  0  0  0
   29.9170   30.7910   21.6580 C   0  0  0  0  0  0  0  0  0  0  0  0
   28.8800   29.5560   19.8440 O   0  0  0  0  0  0  0  0  0  0  0  0
   29.5280   29.7470   22.6640 C   0  0  1  0  0  0  0  0  0  0  0  0
   29.3650   28.4390   21.9220 C   0  0  1  0  0  0  0  0  0  0  0  0
   31.1780   29.6560   19.9930 O   0  0  0  0  0  0  0  0  0  0  0  0
   31.5690   29.4250   20.8880 H   0  0  0  0  0  0  0  0  0  0  0  0
   29.9540   31.5320   19.3850 C   0  0  0  0  0  0  0  0  0  0  0  0
   29.3080   32.5480   19.7190 O   0  0  0  0  0  0  0  0  0  0  0  0
   30.6830   31.5200   18.1810 O   0  0  0  0  0  0  0  0  0  0  0  0
   31.1010   30.6240   17.9330 H   0  0  0  0  0  0  0  0  0  0  0  0
   30.4160   29.6490   23.7290 O   0  0  0  0  0  0  0  0  0  0  0  0
   31.2380   29.2280   23.3690 H   0  0  0  0  0  0  0  0  0  0  0  0
   28.7920   27.4040   22.7570 N   0  0  0  0  0  0  0  0  0  0  0  0
   29.6520   26.4740   23.4010 C   0  0  0  0  0  0  0  0  0  0  0  0
   27.7770   27.2920   22.9220 H   0  0  0  0  0  0  0  0  0  0  0  0
   29.1560   25.3880   24.2700 C   0  0  0  0  0  0  0  0  0  0  0  0
   30.8960   26.5810   23.2230 O   0  0  0  0  0  0  0  0  0  0  0  0
   28.8170   26.5780   19.8410 O   0  0  0  0  0  0  0  0  0  0  0  0
   29.7290   26.9660   19.9310 H   0  0  0  0  0  0  0  0  0  0  0  0
   27.5720   28.1150   18.0610 O   0  0  0  0  0  0  0  0  0  0  0  0
   28.5250   27.8440   18.0970 H   0  0  0  0  0  0  0  0  0  0  0  0
   26.0170   32.0060   16.8610 C   0  0  0  0  0  0  0  0  0  0  0  0
   27.3760   31.7510   16.3500 C   0  0  0  0  0  0  0  0  0  0  0  0
   28.1180   32.7340   15.6900 C   0  0  0  0  0  0  0  0  0  0  0  0
   28.1590   30.6810   16.3700 N   0  0  0  0  0  0  0  0  0  0  0  0
   29.3120   32.2100   15.3430 N   0  0  0  0  0  0  0  0  0  0  0  0
   29.3150   30.9770   15.7620 N   0  0  0  0  0  0  0  0  0  0  0  0
   30.3320   32.9370   14.6430 C   0  0  0  0  0  0  0  0  0  0  0  0
   31.6470   32.9770   15.3850 C   0  0  0  0  0  0  0  0  0  0  0  0
   31.8810   34.2740   16.0950 C   0  0  0  0  0  0  0  0  0  0  0  0
   31.1130   34.2800   17.2540 O   0  0  0  0  0  0  0  0  0  0  0  0
   31.6310   35.2010   18.1730 C   0  0  0  0  0  0  0  0  0  0  0  0
   32.2580   34.5110   19.3560 C   0  0  0  0  0  0  0  0  0  0  0  0
   31.5490   35.3650   15.3340 O   0  0  0  0  0  0  0  0  0  0  0  0
   32.6500   35.8990   14.6650 C   0  0  0  0  0  0  0  0  0  0  0  0
   32.3650   35.8870   13.1680 C   0  0  0  0  0  0  0  0  0  0  0  0
   29.8670   25.5550   16.9770 C   0  0  0  0  0  0  0  0  0  0  0  0
   28.3450   25.7220   17.0260 C   0  0  0  0  0  0  0  0  0  0  0  0
   27.5990   24.4760   16.5750 C   0  0  0  0  0  0  0  0  0  0  0  0
   27.1620   23.6260   17.7360 C   0  0  0  0  0  0  0  0  0  0  0  0
   25.6940   23.9010   18.0430 C   0  0  0  0  0  0  0  0  0  0  0  0
   25.5370   24.3810   19.4370 N   0  0  0  0  0  0  0  0  0  0  0  0
  1  2  1  0  0  0  0
  2  5  2  0  0  0  0
  3  2  1  0  0  0  0
  3  6  1  0  0  0  0
  4  3  1  0  0  0  0
  7  6  1  1  0  0  0
  7  8  1  0  0  0  0
  8 28  1  6  0  0  0
  9  8  1  6  0  0  0
  9 14  1  0  0  0  0
 10 17  1  6  0  0  0
 10 11  1  0  0  0  0
 11 13  1  0  0  0  0
 12 10  1  0  0  0  0
 12  9  1  0  0  0  0
 13 21  1  1  0  0  0
 14 13  1  0  0  0  0
 14 23  1  1  0  0  0
 15 10  1  0  0  0  0
 15 16  1  0  0  0  0
 17 18  2  0  0  0  0
 19 17  1  0  0  0  0
 20 19  1  0  0  0  0
 22 21  1  0  0  0  0
 23 25  1  0  0  0  0
 23 24  1  0  0  0  0
 24 26  1  0  0  0  0
 27 24  2  0  0  0  0
 28 29  1  0  0  0  0
 30 31  1  0  0  0  0
 30  7  1  0  0  0  0
 32  1  1  0  0  0  0
 33 35  1  0  0  0  0
 33 32  1  0  0  0  0
 34 33  2  0  0  0  0
 36 34  1  0  0  0  0
 36 37  1  0  0  0  0
 37 35  2  0  0  0  0
 38 36  1  0  0  0  0
 38 39  1  0  0  0  0
 39 40  1  0  0  0  0
 40 41  1  0  0  0  0
 41 42  1  0  0  0  0
 42 43  1  0  0  0  0
 44 40  1  0  0  0  0
 45 44  1  0  0  0  0
 46 45  1  0  0  0  0
 47 48  1  0  0  0  0
 49 48  1  0  0  0  0
 49 50  1  0  0  0  0
 50 51  1  0  0  0  0
 51 52  1  0  0  0  0
M  END
>  <REMARK>
 VINA RESULT:    -4.579      0.000      0.000
 INTER + INTRA:         -15.469
 INTER:                  -8.189
 INTRA:                  -7.280
 UNBOUND:                -5.938
 SMILES CCOC(CCn1cc(COC(=O)NC[C@@H](O)C(O)[C@@H]2O[C@@](O)(C(=O)O)C[C@H](O)[C@H]2NC(C)=O)nn1)OCC
 SMILES IDX 11 1 12 2 14 3 13 5 15 6 16 7 18 8 20 9 22 10 27 11 21 12
 SMILES IDX 28 13 30 14 23 15 24 17 25 18 26 19 29 21 31 23 32 24 33 26
 SMILES IDX 34 27 19 28 17 30 10 32 9 33 8 34 35 35 7 36 36 37 6 38 5 39
 SMILES IDX 4 40 3 41 2 42 1 43 37 44 38 45 39 46
 H PARENT 14 4 23 16 26 20 29 22 31 25 19 29 17 31
 Flexibility Score: inf
  4 active torsions:
  status: ('A' for Active; 'I' for Inactive)
    1  A    between atoms: CA   and  CB  
    2  A    between atoms: CB   and  CG  
    3  A    between atoms: CG   and  CD  
    4  A    between atoms: CD   and  CE  

>  <TORSDO>
F 21

>  <BEGIN_>
RES LYS A 131

$$$$
ligand_54_pose_0_2HRL.pdbqt
 OpenBabel07062320523D

  6  5  0  0  0  0  0  0  0  0999 V2000
   33.1930   34.6630    9.2900 C   0  0  0  0  0  0  0  0  0  0  0  0
   32.0600   35.3600   10.0340 C   0  0  0  0  0  0  0  0  0  0  0  0
   30.7030   34.7650    9.7590 C   0  0  0  0  0  0  0  0  0  0  0  0
   30.4640   34.6420    8.2620 C   0  0  0  0  0  0  0  0  0  0  0  0
   28.9940   34.8310    7.9400 C   0  0  0  0  0  0  0  0  0  0  0  0
   28.8160   35.5530    6.6490 N   0  0  0  0  0  0  0  0  0  0  0  0
  1  2  1  0  0  0  0
  3  2  1  0  0  0  0
  4  3  1  0  0  0  0
  5  4  1  0  0  0  0
  6  5  1  0  0  0  0
M  END
>  <EGIN_R>
ES LYS A 135

>  <REMARK>
  4 active torsions:
  status: ('A' for Active; 'I' for Inactive)
    5  A    between atoms: CA   and  CB  
    6  A    between atoms: CB   and  CG  
    7  A    between atoms: CG   and  CD  
    8  A    between atoms: CD   and  CE  

$$$$
