ligand_19_pose_0_2HRL.pdbqt
 OpenBabel07062320523D

 49 49  0  0  1  0  0  0  0  0999 V2000
   32.3250   33.7790   14.9420 N   0  0  0  0  0  0  0  0  0  0  0  0
   32.8390   35.0490   14.5990 C   0  0  0  0  0  0  0  0  0  0  0  0
   32.8730   35.9620   15.4360 O   0  0  0  0  0  0  0  0  0  0  0  0
   32.3280   33.0590   14.1670 H   0  0  0  0  0  0  0  0  0  0  0  0
   31.8150   33.4160   16.2470 C   0  0  0  0  0  0  0  0  0  0  0  0
   30.3550   33.6440   16.3560 C   0  0  2  0  0  0  0  0  0  0  0  0
   29.4680   32.4620   16.0370 C   0  0  2  0  0  0  0  0  0  0  0  0
   29.7210   31.2370   16.8630 C   0  0  2  0  0  0  0  0  0  0  0  0
   27.5070   30.5440   16.6870 C   0  0  2  0  0  0  0  0  0  0  0  0
   27.1540   31.3970   17.8440 C   0  0  0  0  0  0  0  0  0  0  0  0
   28.8290   30.2110   16.5540 O   0  0  0  0  0  0  0  0  0  0  0  0
   28.2550   31.7590   18.7730 C   0  0  1  0  0  0  0  0  0  0  0  0
   29.6360   31.3990   18.3470 C   0  0  1  0  0  0  0  0  0  0  0  0
   27.1250   31.1390   15.4600 O   0  0  0  0  0  0  0  0  0  0  0  0
   27.8370   31.7230   15.1060 H   0  0  0  0  0  0  0  0  0  0  0  0
   26.7480   29.2620   16.7320 C   0  0  0  0  0  0  0  0  0  0  0  0
   27.3430   28.1520   16.9480 O   0  0  0  0  0  0  0  0  0  0  0  0
   25.3770   29.1720   16.5500 O   0  0  0  0  0  0  0  0  0  0  0  0
   25.0340   29.1330   15.5840 H   0  0  0  0  0  0  0  0  0  0  0  0
   28.2130   33.1420   18.9770 O   0  0  0  0  0  0  0  0  0  0  0  0
   29.0980   33.4790   19.3180 H   0  0  0  0  0  0  0  0  0  0  0  0
   30.1360   30.1760   18.9300 N   0  0  0  0  0  0  0  0  0  0  0  0
   30.9620   30.1450   20.0580 C   0  0  0  0  0  0  0  0  0  0  0  0
   29.8560   29.2890   18.4710 H   0  0  0  0  0  0  0  0  0  0  0  0
   31.4890   28.9030   20.6790 C   0  0  0  0  0  0  0  0  0  0  0  0
   31.2710   31.2400   20.5660 O   0  0  0  0  0  0  0  0  0  0  0  0
   29.9420   32.0680   14.7270 O   0  0  0  0  0  0  0  0  0  0  0  0
   29.8440   32.9210   14.2040 H   0  0  0  0  0  0  0  0  0  0  0  0
   29.8540   34.8350   15.9240 O   0  0  0  0  0  0  0  0  0  0  0  0
   28.8860   34.8650   15.9000 H   0  0  0  0  0  0  0  0  0  0  0  0
   33.3220   35.2930   13.2930 O   0  0  0  0  0  0  0  0  0  0  0  0
   32.5320   36.0500   12.3750 C   0  0  0  0  0  0  0  0  0  0  0  0
   31.1210   35.6580   12.5630 C   0  0  0  0  0  0  0  0  0  0  0  0
   30.0430   36.5240   12.6570 C   0  0  0  0  0  0  0  0  0  0  0  0
   30.6180   34.4220   12.6840 N   0  0  0  0  0  0  0  0  0  0  0  0
   28.9400   35.7810   12.8290 N   0  0  0  0  0  0  0  0  0  0  0  0
   29.3130   34.5220   12.8420 N   0  0  0  0  0  0  0  0  0  0  0  0
   27.6030   36.3120   12.9700 C   0  0  0  0  0  0  0  0  0  0  0  0
   26.8900   35.5320   14.0490 C   0  0  0  0  0  0  0  0  0  0  0  0
   26.2230   34.4410   13.4810 O   0  0  0  0  0  0  0  0  0  0  0  0
   25.3160   33.7090   14.1880 C   0  0  0  0  0  0  0  0  0  0  0  0
   24.9600   32.5770   13.8120 O   0  0  0  0  0  0  0  0  0  0  0  0
   24.7160   34.2570   15.4540 C   0  0  0  0  0  0  0  0  0  0  0  0
   29.8670   25.5550   16.9770 C   0  0  0  0  0  0  0  0  0  0  0  0
   28.3450   25.7220   17.0260 C   0  0  0  0  0  0  0  0  0  0  0  0
   27.6010   24.4000   16.9080 C   0  0  0  0  0  0  0  0  0  0  0  0
   26.1530   24.5290   17.2910 C   0  0  0  0  0  0  0  0  0  0  0  0
   26.0460   25.1660   18.6730 C   0  0  0  0  0  0  0  0  0  0  0  0
   25.0510   26.2640   18.6630 N   0  0  0  0  0  0  0  0  0  0  0  0
  1  5  1  0  0  0  0
  2  1  1  0  0  0  0
  2  3  2  0  0  0  0
  4  1  1  0  0  0  0
  6  5  1  6  0  0  0
  7 27  1  6  0  0  0
  7  6  1  0  0  0  0
  8  7  1  6  0  0  0
  8 13  1  0  0  0  0
  9 14  1  6  0  0  0
  9 16  1  0  0  0  0
  9 10  1  0  0  0  0
 10 12  1  0  0  0  0
 11  9  1  0  0  0  0
 11  8  1  0  0  0  0
 12 20  1  6  0  0  0
 13 12  1  0  0  0  0
 13 22  1  1  0  0  0
 15 14  1  0  0  0  0
 16 17  2  0  0  0  0
 18 16  1  0  0  0  0
 19 18  1  0  0  0  0
 20 21  1  0  0  0  0
 22 23  1  0  0  0  0
 23 26  2  0  0  0  0
 23 25  1  0  0  0  0
 24 22  1  0  0  0  0
 28 27  1  0  0  0  0
 29  6  1  0  0  0  0
 30 29  1  0  0  0  0
 31  2  1  0  0  0  0
 32 33  1  0  0  0  0
 32 31  1  0  0  0  0
 33 34  2  0  0  0  0
 33 35  1  0  0  0  0
 34 36  1  0  0  0  0
 35 37  2  0  0  0  0
 36 37  1  0  0  0  0
 36 38  1  0  0  0  0
 38 39  1  0  0  0  0
 40 39  1  0  0  0  0
 40 41  1  0  0  0  0
 41 43  1  0  0  0  0
 42 41  2  0  0  0  0
 44 45  1  0  0  0  0
 46 45  1  0  0  0  0
 46 47  1  0  0  0  0
 47 48  1  0  0  0  0
 49 48  1  0  0  0  0
M  END
>  <REMARK>
 VINA RESULT:    -4.406      0.000      0.000
 INTER + INTRA:         -14.457
 INTER:                  -8.298
 INTRA:                  -6.159
 UNBOUND:                -6.059
 SMILES CC(=O)N[C@@H]1[C@@H](O)C[C@](O)(C(=O)O)O[C@H]1C(O)[C@H](O)CNC(=O)OCc1cn(CCOC(C)=O)nn1
 SMILES IDX 21 1 22 2 23 3 20 5 18 6 16 7 15 8 9 9 8 10 14 11 6 12 5 13
 SMILES IDX 10 14 11 16 12 17 13 18 7 20 4 22 2 23 1 25 3 26 17 27 19 29
 SMILES IDX 24 31 25 32 26 33 27 34 36 35 28 36 35 37 29 38 30 39 31 40
 SMILES IDX 32 41 34 42 33 43
 H PARENT 21 4 10 15 13 19 7 21 4 24 17 28 19 30
 Flexibility Score: inf
  4 active torsions:
  status: ('A' for Active; 'I' for Inactive)
    1  A    between atoms: CA   and  CB  
    2  A    between atoms: CB   and  CG  
    3  A    between atoms: CG   and  CD  
    4  A    between atoms: CD   and  CE  

>  <TORSDO>
F 18

>  <BEGIN_>
RES LYS A 131

$$$$
ligand_19_pose_0_2HRL.pdbqt
 OpenBabel07062320523D

  6  5  0  0  0  0  0  0  0  0999 V2000
   33.1930   34.6630    9.2900 C   0  0  0  0  0  0  0  0  0  0  0  0
   32.0600   35.3600   10.0340 C   0  0  0  0  0  0  0  0  0  0  0  0
   30.8030   35.5080    9.2160 C   0  0  0  0  0  0  0  0  0  0  0  0
   30.1150   34.1630    9.0420 C   0  0  0  0  0  0  0  0  0  0  0  0
   28.6480   34.3550    8.7090 C   0  0  0  0  0  0  0  0  0  0  0  0
   27.7770   33.7150    9.7330 N   0  0  0  0  0  0  0  0  0  0  0  0
  1  2  1  0  0  0  0
  3  2  1  0  0  0  0
  4  3  1  0  0  0  0
  5  4  1  0  0  0  0
  5  6  1  0  0  0  0
M  END
>  <EGIN_R>
ES LYS A 135

>  <REMARK>
  4 active torsions:
  status: ('A' for Active; 'I' for Inactive)
    5  A    between atoms: CA   and  CB  
    6  A    between atoms: CB   and  CG  
    7  A    between atoms: CG   and  CD  
    8  A    between atoms: CD   and  CE  

$$$$
