ligand_38_pose_0_2HRL.pdbqt
 OpenBabel07062320523D

 51 52  0  0  1  0  0  0  0  0999 V2000
   29.1100   30.7460   18.1740 N   0  0  0  0  0  0  0  0  0  0  0  0
   28.1840   30.0850   17.3330 C   0  0  0  0  0  0  0  0  0  0  0  0
   28.4910   29.7930   16.1310 O   0  0  0  0  0  0  0  0  0  0  0  0
   28.8170   30.9650   19.1500 H   0  0  0  0  0  0  0  0  0  0  0  0
   30.3950   31.0670   17.6150 C   0  0  0  0  0  0  0  0  0  0  0  0
   30.4510   32.5300   17.1510 C   0  0  2  0  0  0  0  0  0  0  0  0
   31.0500   32.4970   15.7890 C   0  0  2  0  0  0  0  0  0  0  0  0
   31.2850   33.8280   15.1360 C   0  0  2  0  0  0  0  0  0  0  0  0
   33.1160   35.2390   14.8000 C   0  0  2  0  0  0  0  0  0  0  0  0
   32.1430   36.4020   14.8470 C   0  0  0  0  0  0  0  0  0  0  0  0
   32.5960   34.1710   15.4880 O   0  0  0  0  0  0  0  0  0  0  0  0
   31.0440   36.1470   15.8660 C   0  0  1  0  0  0  0  0  0  0  0  0
   30.2870   34.8850   15.4110 C   0  0  1  0  0  0  0  0  0  0  0  0
   34.2330   35.6620   15.5540 O   0  0  0  0  0  0  0  0  0  0  0  0
   34.5280   36.5570   15.3020 H   0  0  0  0  0  0  0  0  0  0  0  0
   33.5840   34.9490   13.4430 C   0  0  0  0  0  0  0  0  0  0  0  0
   33.1080   35.5700   12.4650 O   0  0  0  0  0  0  0  0  0  0  0  0
   34.5540   33.9960   13.1670 O   0  0  0  0  0  0  0  0  0  0  0  0
   34.2850   33.1300   12.7430 H   0  0  0  0  0  0  0  0  0  0  0  0
   31.5480   36.0220   17.1340 O   0  0  0  0  0  0  0  0  0  0  0  0
   32.5560   36.0130   17.0810 H   0  0  0  0  0  0  0  0  0  0  0  0
   29.5970   35.3110   14.1870 N   0  0  0  0  0  0  0  0  0  0  0  0
   28.3790   34.7090   13.7740 C   0  0  0  0  0  0  0  0  0  0  0  0
   29.9670   36.0660   13.5690 H   0  0  0  0  0  0  0  0  0  0  0  0
   27.6900   35.1610   12.5120 C   0  0  0  0  0  0  0  0  0  0  0  0
   27.8430   33.8000   14.4280 O   0  0  0  0  0  0  0  0  0  0  0  0
   30.0930   31.8530   14.9620 O   0  0  0  0  0  0  0  0  0  0  0  0
   29.2720   31.7960   15.5290 H   0  0  0  0  0  0  0  0  0  0  0  0
   31.2170   33.1970   18.1030 O   0  0  0  0  0  0  0  0  0  0  0  0
   30.9610   32.8690   18.9920 H   0  0  0  0  0  0  0  0  0  0  0  0
   26.9110   29.7190   17.7450 O   0  0  0  0  0  0  0  0  0  0  0  0
   25.8030   30.6000   17.7460 C   0  0  0  0  0  0  0  0  0  0  0  0
   24.9000   30.3380   16.5940 C   0  0  0  0  0  0  0  0  0  0  0  0
   25.2240   30.4850   15.2400 C   0  0  0  0  0  0  0  0  0  0  0  0
   23.6230   29.9150   16.5970 N   0  0  0  0  0  0  0  0  0  0  0  0
   24.1540   30.1530   14.5100 N   0  0  0  0  0  0  0  0  0  0  0  0
   23.1990   29.8120   15.3530 N   0  0  0  0  0  0  0  0  0  0  0  0
   24.0100   30.1500   13.0710 C   0  0  0  0  0  0  0  0  0  0  0  0
   22.5720   30.0980   12.7010 C   0  0  0  0  0  0  0  0  0  0  0  0
   21.9580   28.9040   12.3910 C   0  0  0  0  0  0  0  0  0  0  0  0
   21.8320   31.2470   12.6640 C   0  0  0  0  0  0  0  0  0  0  0  0
   20.6060   28.8540   12.0430 C   0  0  0  0  0  0  0  0  0  0  0  0
   20.4820   31.2090   12.3180 C   0  0  0  0  0  0  0  0  0  0  0  0
   19.8690   30.0060   12.0070 C   0  0  0  0  0  0  0  0  0  0  0  0
   19.4860   32.8260   12.2770 Br  0  0  0  0  0  0  0  0  0  0  0  0
   29.8670   25.5550   16.9770 C   0  0  0  0  0  0  0  0  0  0  0  0
   28.3450   25.7220   17.0260 C   0  0  0  0  0  0  0  0  0  0  0  0
   27.6010   24.4060   16.8600 C   0  0  0  0  0  0  0  0  0  0  0  0
   26.5500   24.2120   17.9180 C   0  0  0  0  0  0  0  0  0  0  0  0
   25.1660   24.2790   17.2790 C   0  0  0  0  0  0  0  0  0  0  0  0
   24.5430   22.9350   17.2500 N   0  0  0  0  0  0  0  0  0  0  0  0
  1  4  1  0  0  0  0
  2 31  1  0  0  0  0
  2  1  1  0  0  0  0
  3  2  2  0  0  0  0
  5  1  1  0  0  0  0
  6  5  1  1  0  0  0
  6 29  1  0  0  0  0
  7 27  1  6  0  0  0
  7  6  1  0  0  0  0
  8 13  1  0  0  0  0
  8 11  1  0  0  0  0
  8  7  1  1  0  0  0
  9 16  1  6  0  0  0
  9 10  1  0  0  0  0
  9 11  1  0  0  0  0
  9 14  1  0  0  0  0
 10 12  1  0  0  0  0
 12 20  1  1  0  0  0
 13 22  1  6  0  0  0
 13 12  1  0  0  0  0
 15 14  1  0  0  0  0
 17 16  2  0  0  0  0
 18 16  1  0  0  0  0
 19 18  1  0  0  0  0
 21 20  1  0  0  0  0
 23 22  1  0  0  0  0
 23 26  2  0  0  0  0
 24 22  1  0  0  0  0
 25 23  1  0  0  0  0
 27 28  1  0  0  0  0
 29 30  1  0  0  0  0
 31 32  1  0  0  0  0
 33 35  1  0  0  0  0
 33 32  1  0  0  0  0
 34 33  2  0  0  0  0
 36 34  1  0  0  0  0
 36 37  1  0  0  0  0
 37 35  2  0  0  0  0
 38 36  1  0  0  0  0
 39 38  1  0  0  0  0
 40 39  2  0  0  0  0
 41 39  1  0  0  0  0
 42 40  1  0  0  0  0
 43 41  2  0  0  0  0
 44 42  2  0  0  0  0
 44 43  1  0  0  0  0
 45 43  1  0  0  0  0
 46 47  1  0  0  0  0
 48 47  1  0  0  0  0
 48 49  1  0  0  0  0
 50 49  1  0  0  0  0
 51 50  1  0  0  0  0
M  END
>  <REMARK>
 VINA RESULT:    -5.191      0.000      0.000
 INTER + INTRA:         -15.583
 INTER:                 -10.227
 INTRA:                  -5.355
 UNBOUND:                -6.295
 SMILES CC(=O)N[C@@H]1[C@@H](O)C[C@](O)(C(=O)O)O[C@H]1C(O)[C@H](O)CNC(=O)OCc1cn(Cc2cccc(Br)c2)nn1
 SMILES IDX 21 1 22 2 23 3 20 5 18 6 16 7 15 8 9 9 8 10 14 11 6 12 5 13
 SMILES IDX 10 14 11 16 12 17 13 18 7 20 4 22 2 23 1 25 3 26 17 27 19 29
 SMILES IDX 24 31 25 32 26 33 27 34 38 35 28 36 37 37 29 38 30 39 31 40
 SMILES IDX 36 41 32 42 34 43 33 44 35 45
 H PARENT 21 4 10 15 13 19 7 21 4 24 17 28 19 30
 Flexibility Score: inf
  4 active torsions:
  status: ('A' for Active; 'I' for Inactive)
    1  A    between atoms: CA   and  CB  
    2  A    between atoms: CB   and  CG  
    3  A    between atoms: CG   and  CD  
    4  A    between atoms: CD   and  CE  

>  <TORSDO>
F 16

>  <BEGIN_>
RES LYS A 131

$$$$
ligand_38_pose_0_2HRL.pdbqt
 OpenBabel07062320523D

  6  5  0  0  0  0  0  0  0  0999 V2000
   33.1930   34.6630    9.2900 C   0  0  0  0  0  0  0  0  0  0  0  0
   32.0600   35.3600   10.0340 C   0  0  0  0  0  0  0  0  0  0  0  0
   30.8110   35.5290    9.2080 C   0  0  0  0  0  0  0  0  0  0  0  0
   30.2570   34.1760    8.7900 C   0  0  0  0  0  0  0  0  0  0  0  0
   28.8210   34.0230    9.2530 C   0  0  0  0  0  0  0  0  0  0  0  0
   27.8740   34.6260    8.2750 N   0  0  0  0  0  0  0  0  0  0  0  0
  1  2  1  0  0  0  0
  3  2  1  0  0  0  0
  4  3  1  0  0  0  0
  4  5  1  0  0  0  0
  6  5  1  0  0  0  0
M  END
>  <EGIN_R>
ES LYS A 135

>  <REMARK>
  4 active torsions:
  status: ('A' for Active; 'I' for Inactive)
    5  A    between atoms: CA   and  CB  
    6  A    between atoms: CB   and  CG  
    7  A    between atoms: CG   and  CD  
    8  A    between atoms: CD   and  CE  

$$$$
