ligand_80_pose_0_2HRL.pdbqt
 OpenBabel07062320523D

 56 54  0  0  1  0  0  0  0  0999 V2000
   28.5750   35.4730   12.5700 O   0  0  0  0  0  0  0  0  0  0  0  0
   29.8440   35.9480   12.7950 C   0  0  0  0  0  0  0  0  0  0  0  0
   30.9510   35.0370   12.8630 N   0  0  0  0  0  0  0  0  0  0  0  0
   30.7220   34.0240   12.7300 H   0  0  0  0  0  0  0  0  0  0  0  0
   30.0860   37.1720   12.9480 O   0  0  0  0  0  0  0  0  0  0  0  0
   32.3070   35.4950   13.1010 C   0  0  0  0  0  0  0  0  0  0  0  0
   32.9790   34.5230   14.0400 C   0  0  2  0  0  0  0  0  0  0  0  0
   33.1290   35.0780   15.4400 C   0  0  2  0  0  0  0  0  0  0  0  0
   32.0390   34.5120   16.3630 C   0  0  2  0  0  0  0  0  0  0  0  0
   30.1290   33.1840   16.0610 C   0  0  2  0  0  0  0  0  0  0  0  0
   29.5330   33.9690   17.1870 C   0  0  0  0  0  0  0  0  0  0  0  0
   31.3870   33.5600   15.6780 O   0  0  0  0  0  0  0  0  0  0  0  0
   29.7550   35.4340   16.8470 C   0  0  1  0  0  0  0  0  0  0  0  0
   31.2430   35.6780   16.8480 C   0  0  1  0  0  0  0  0  0  0  0  0
   29.3120   33.3640   14.9250 O   0  0  0  0  0  0  0  0  0  0  0  0
   28.6700   32.6090   14.9480 H   0  0  0  0  0  0  0  0  0  0  0  0
   30.1570   31.7270   16.3410 C   0  0  0  0  0  0  0  0  0  0  0  0
   30.6760   31.3170   17.4010 O   0  0  0  0  0  0  0  0  0  0  0  0
   29.6220   30.7900   15.4600 O   0  0  0  0  0  0  0  0  0  0  0  0
   29.5900   31.0670   14.4680 H   0  0  0  0  0  0  0  0  0  0  0  0
   29.2710   35.6350   15.5590 O   0  0  0  0  0  0  0  0  0  0  0  0
   28.8930   36.5460   15.5210 H   0  0  0  0  0  0  0  0  0  0  0  0
   31.6260   35.9350   18.2260 N   0  0  0  0  0  0  0  0  0  0  0  0
   32.1380   37.1790   18.6780 C   0  0  0  0  0  0  0  0  0  0  0  0
   31.5180   35.1510   18.9390 H   0  0  0  0  0  0  0  0  0  0  0  0
   32.4950   37.3210   20.1100 C   0  0  0  0  0  0  0  0  0  0  0  0
   32.2700   38.1130   17.8430 O   0  0  0  0  0  0  0  0  0  0  0  0
   32.9290   36.4590   15.3390 O   0  0  0  0  0  0  0  0  0  0  0  0
   33.5850   36.9860   15.8450 H   0  0  0  0  0  0  0  0  0  0  0  0
   34.2070   34.1040   13.5410 O   0  0  0  0  0  0  0  0  0  0  0  0
   34.4840   34.6040   12.7450 H   0  0  0  0  0  0  0  0  0  0  0  0
   27.5580   36.2940   12.0200 C   0  0  0  0  0  0  0  0  0  0  0  0
   26.2180   35.6800   12.1950 C   0  0  0  0  0  0  0  0  0  0  0  0
   25.7320   35.1740   13.4060 C   0  0  0  0  0  0  0  0  0  0  0  0
   25.2280   35.4740   11.3080 N   0  0  0  0  0  0  0  0  0  0  0  0
   24.4940   34.6900   13.2090 N   0  0  0  0  0  0  0  0  0  0  0  0
   24.2250   34.8870   11.9370 N   0  0  0  0  0  0  0  0  0  0  0  0
   23.6380   34.0690   14.1950 *   0  0  0  0  0  0  0  0  0  0  0  0
   22.2450   33.9210   13.6880 C   0  0  0  0  0  0  0  0  0  0  0  0
   21.5970   32.8820   12.9780 N   0  0  0  0  0  0  0  0  0  0  0  0
   21.5340   34.9210   13.9550 O   0  0  0  0  0  0  0  0  0  0  0  0
   20.6940   33.0850   12.4990 H   0  0  0  0  0  0  0  0  0  0  0  0
   22.0410   31.5210   12.8260 C   0  0  0  0  0  0  0  0  0  0  0  0
   23.3180   31.0320   13.0310 C   0  0  0  0  0  0  0  0  0  0  0  0
   20.9970   30.7070   12.4340 C   0  0  0  0  0  0  0  0  0  0  0  0
   23.5410   29.7050   12.8350 C   0  0  0  0  0  0  0  0  0  0  0  0
   21.2250   29.3630   12.2370 C   0  0  0  0  0  0  0  0  0  0  0  0
   22.4970   28.8770   12.4410 C   0  0  0  0  0  0  0  0  0  0  0  0
   24.5130   31.8130   13.4520 C   0  0  0  0  0  0  0  0  0  0  0  0
   24.2200   32.7250   14.6310 *   0  0  0  0  0  0  0  0  0  0  0  0
   29.8670   25.5550   16.9770 C   0  0  0  0  0  0  0  0  0  0  0  0
   28.3450   25.7220   17.0260 C   0  0  0  0  0  0  0  0  0  0  0  0
   27.5990   24.4370   16.7010 C   0  0  0  0  0  0  0  0  0  0  0  0
   26.9820   23.8150   17.9230 C   0  0  0  0  0  0  0  0  0  0  0  0
   25.6580   23.1580   17.5460 C   0  0  0  0  0  0  0  0  0  0  0  0
   24.5840   23.5850   18.4750 N   0  0  0  0  0  0  0  0  0  0  0  0
  1  2  1  0  0  0  0
  2  3  1  0  0  0  0
  2  5  2  0  0  0  0
  3  6  1  0  0  0  0
  4  3  1  0  0  0  0
  7  6  1  6  0  0  0
  7  8  1  0  0  0  0
  8 28  1  6  0  0  0
  9  8  1  6  0  0  0
  9 14  1  0  0  0  0
 10 15  1  6  0  0  0
 10 17  1  0  0  0  0
 10 11  1  0  0  0  0
 12 10  1  0  0  0  0
 12  9  1  0  0  0  0
 13 21  1  6  0  0  0
 13 14  1  0  0  0  0
 13 11  1  0  0  0  0
 14 23  1  1  0  0  0
 15 16  1  0  0  0  0
 17 18  2  0  0  0  0
 19 17  1  0  0  0  0
 20 19  1  0  0  0  0
 22 21  1  0  0  0  0
 23 24  1  0  0  0  0
 23 25  1  0  0  0  0
 24 26  1  0  0  0  0
 27 24  2  0  0  0  0
 28 29  1  0  0  0  0
 30  7  1  0  0  0  0
 31 30  1  0  0  0  0
 32 33  1  0  0  0  0
 32  1  1  0  0  0  0
 33 34  2  0  0  0  0
 35 37  1  0  0  0  0
 35 33  1  0  0  0  0
 36 34  1  0  0  0  0
 37 36  2  0  0  0  0
 39 41  2  0  0  0  0
 40 39  1  0  0  0  0
 42 40  1  0  0  0  0
 43 40  1  0  0  0  0
 43 44  2  0  0  0  0
 44 49  1  0  0  0  0
 45 43  1  0  0  0  0
 46 44  1  0  0  0  0
 47 45  2  0  0  0  0
 47 48  1  0  0  0  0
 48 46  2  0  0  0  0
 51 52  1  0  0  0  0
 53 52  1  0  0  0  0
 53 54  1  0  0  0  0
 55 54  1  0  0  0  0
 55 56  1  0  0  0  0
M  END
>  <REMARK>
 VINA RESULT:    -9.402      0.000      0.000
 INTER + INTRA:         -13.917
 INTER:                  -9.141
 INTRA:                  -4.776
 UNBOUND:                 4.555
 SMILES CC(=O)N[C@@H]1[C@@H](O)C[C@](O)(C(=O)O)O[C@H]1C(O)[C@H](O)CNC(=O)OCc1cn(C2CCc3ccccc3NC2=O)nn1
 SMILES IDX 24 1 22 2 21 3 23 5 20 6 18 7 16 8 15 9 9 10 8 11 14 12 6 13
 SMILES IDX 5 14 10 15 11 17 12 18 13 19 7 21 4 23 2 24 1 26 3 27 17 28
 SMILES IDX 19 30 25 32 26 33 27 34 42 35 28 36 41 37 29 38 39 40 38 41
 SMILES IDX 40 42 37 44 32 45 36 46 33 47 35 48 34 49 31 50 30 51
 H PARENT 21 4 10 16 13 20 7 22 4 25 17 29 19 31 38 43
 Flexibility Score: 80.00
  4 active torsions:
  status: ('A' for Active; 'I' for Inactive)
    1  A    between atoms: CA   and  CB  
    2  A    between atoms: CB   and  CG  
    3  A    between atoms: CG   and  CD  
    4  A    between atoms: CD   and  CE  

>  <TORSDO>
F 15

>  <BEGIN_>
RES LYS A 131

$$$$
ligand_80_pose_0_2HRL.pdbqt
 OpenBabel07062320523D

  6  5  0  0  0  0  0  0  0  0999 V2000
   33.1930   34.6630    9.2900 C   0  0  0  0  0  0  0  0  0  0  0  0
   32.0600   35.3600   10.0340 C   0  0  0  0  0  0  0  0  0  0  0  0
   30.7430   35.3180    9.3030 C   0  0  0  0  0  0  0  0  0  0  0  0
   30.1280   36.7060    9.2230 C   0  0  0  0  0  0  0  0  0  0  0  0
   28.8140   36.6650    8.4680 C   0  0  0  0  0  0  0  0  0  0  0  0
   28.1690   35.3270    8.5870 N   0  0  0  0  0  0  0  0  0  0  0  0
  1  2  1  0  0  0  0
  3  2  1  0  0  0  0
  4  3  1  0  0  0  0
  5  6  1  0  0  0  0
  5  4  1  0  0  0  0
M  END
>  <EGIN_R>
ES LYS A 135

>  <REMARK>
  4 active torsions:
  status: ('A' for Active; 'I' for Inactive)
    5  A    between atoms: CA   and  CB  
    6  A    between atoms: CB   and  CG  
    7  A    between atoms: CG   and  CD  
    8  A    between atoms: CD   and  CE  

$$$$
