ligand_41_pose_0_2HRL.pdbqt
 OpenBabel07062320523D

 52 53  0  0  1  0  0  0  0  0999 V2000
   29.3560   31.8440   18.0850 N   0  0  0  0  0  0  0  0  0  0  0  0
   28.2450   32.7090   18.3710 C   0  0  0  0  0  0  0  0  0  0  0  0
   28.3090   33.9120   18.0190 O   0  0  0  0  0  0  0  0  0  0  0  0
   29.2620   30.8530   18.3850 H   0  0  0  0  0  0  0  0  0  0  0  0
   30.5160   32.3650   17.4230 C   0  0  0  0  0  0  0  0  0  0  0  0
   30.7650   31.8800   16.0330 C   0  0  2  0  0  0  0  0  0  0  0  0
   30.0370   32.6480   14.9700 C   0  0  2  0  0  0  0  0  0  0  0  0
   30.7430   33.8940   14.5030 C   0  0  2  0  0  0  0  0  0  0  0  0
   32.6850   35.1250   14.7150 C   0  0  2  0  0  0  0  0  0  0  0  0
   31.9560   36.4050   15.0800 C   0  0  0  0  0  0  0  0  0  0  0  0
   31.9560   34.0520   15.0790 O   0  0  0  0  0  0  0  0  0  0  0  0
   30.5550   36.1460   15.5230 C   0  0  1  0  0  0  0  0  0  0  0  0
   29.8600   35.1020   14.7300 C   0  0  1  0  0  0  0  0  0  0  0  0
   33.8780   35.1790   15.5140 O   0  0  0  0  0  0  0  0  0  0  0  0
   34.5410   34.5250   15.1320 H   0  0  0  0  0  0  0  0  0  0  0  0
   33.1540   35.2100   13.3280 C   0  0  0  0  0  0  0  0  0  0  0  0
   32.6730   35.9970   12.4820 O   0  0  0  0  0  0  0  0  0  0  0  0
   34.1920   34.3970   12.8670 O   0  0  0  0  0  0  0  0  0  0  0  0
   34.8460   34.7430   12.1740 H   0  0  0  0  0  0  0  0  0  0  0  0
   30.5910   35.7370   16.8670 O   0  0  0  0  0  0  0  0  0  0  0  0
   31.4900   35.8210   17.2650 H   0  0  0  0  0  0  0  0  0  0  0  0
   29.2820   35.6350   13.5380 N   0  0  0  0  0  0  0  0  0  0  0  0
   27.9220   36.0450   13.4530 C   0  0  0  0  0  0  0  0  0  0  0  0
   29.8680   35.7380   12.6890 H   0  0  0  0  0  0  0  0  0  0  0  0
   27.3680   36.5930   12.1880 C   0  0  0  0  0  0  0  0  0  0  0  0
   27.1480   35.9570   14.4410 O   0  0  0  0  0  0  0  0  0  0  0  0
   28.6900   32.7810   15.1880 O   0  0  0  0  0  0  0  0  0  0  0  0
   28.2720   33.0170   14.3070 H   0  0  0  0  0  0  0  0  0  0  0  0
   30.1870   30.5450   15.9890 O   0  0  0  0  0  0  0  0  0  0  0  0
   29.2560   30.6960   16.3040 H   0  0  0  0  0  0  0  0  0  0  0  0
   27.1100   32.2810   19.0160 O   0  0  0  0  0  0  0  0  0  0  0  0
   26.5490   30.9920   18.7760 C   0  0  0  0  0  0  0  0  0  0  0  0
   26.1990   30.8120   17.3450 C   0  0  0  0  0  0  0  0  0  0  0  0
   24.9560   30.8180   16.7680 C   0  0  0  0  0  0  0  0  0  0  0  0
   27.0720   30.6010   16.3220 N   0  0  0  0  0  0  0  0  0  0  0  0
   25.1140   30.6110   15.4190 N   0  0  0  0  0  0  0  0  0  0  0  0
   26.4080   30.4860   15.2010 N   0  0  0  0  0  0  0  0  0  0  0  0
   24.1100   30.4940   14.4250 C   0  0  0  0  0  0  0  0  0  0  0  0
   23.6540   31.5090   13.6570 C   0  0  0  0  0  0  0  0  0  0  0  0
   23.6000   29.1850   14.2720 C   0  0  0  0  0  0  0  0  0  0  0  0
   22.6660   31.2440   12.7040 C   0  0  0  0  0  0  0  0  0  0  0  0
   22.6300   28.9390   13.3320 C   0  0  0  0  0  0  0  0  0  0  0  0
   22.1800   29.9790   12.5620 C   0  0  0  0  0  0  0  0  0  0  0  0
   24.1170   32.8760   13.7580 C   0  0  2  0  0  0  0  0  0  0  0  0
   23.6340   33.5760   14.7370 O   0  0  0  0  0  0  0  0  0  0  0  0
   25.0660   33.5710   12.8880 C   0  0  0  0  0  0  0  0  0  0  0  0
   29.8670   25.5550   16.9770 C   0  0  0  0  0  0  0  0  0  0  0  0
   28.3450   25.7220   17.0260 C   0  0  0  0  0  0  0  0  0  0  0  0
   27.6020   24.3980   16.9310 C   0  0  0  0  0  0  0  0  0  0  0  0
   26.1500   24.5360   17.2940 C   0  0  0  0  0  0  0  0  0  0  0  0
   26.0050   24.5590   18.8130 C   0  0  0  0  0  0  0  0  0  0  0  0
   25.5220   23.2480   19.3070 N   0  0  0  0  0  0  0  0  0  0  0  0
  1  2  1  0  0  0  0
  1  4  1  0  0  0  0
  2 31  1  0  0  0  0
  3  2  2  0  0  0  0
  5  1  1  0  0  0  0
  6  5  1  1  0  0  0
  7 27  1  1  0  0  0
  7  6  1  0  0  0  0
  8 13  1  0  0  0  0
  8  7  1  1  0  0  0
  8 11  1  0  0  0  0
  9 16  1  6  0  0  0
  9 11  1  0  0  0  0
  9 10  1  0  0  0  0
  9 14  1  0  0  0  0
 10 12  1  0  0  0  0
 12 20  1  1  0  0  0
 13 22  1  6  0  0  0
 13 12  1  0  0  0  0
 15 14  1  0  0  0  0
 17 16  2  0  0  0  0
 18 16  1  0  0  0  0
 19 18  1  0  0  0  0
 20 21  1  0  0  0  0
 23 22  1  0  0  0  0
 23 26  2  0  0  0  0
 24 22  1  0  0  0  0
 25 23  1  0  0  0  0
 28 27  1  0  0  0  0
 29  6  1  0  0  0  0
 29 30  1  0  0  0  0
 32 31  1  0  0  0  0
 33 32  1  0  0  0  0
 34 33  2  0  0  0  0
 35 33  1  0  0  0  0
 36 34  1  0  0  0  0
 37 36  1  0  0  0  0
 37 35  2  0  0  0  0
 38 36  1  0  0  0  0
 39 44  1  0  0  0  0
 39 38  2  0  0  0  0
 40 38  1  0  0  0  0
 41 39  1  0  0  0  0
 42 40  2  0  0  0  0
 43 41  2  0  0  0  0
 43 42  1  0  0  0  0
 44 46  1  6  0  0  0
 44 45  1  0  0  0  0
 47 48  1  0  0  0  0
 49 48  1  0  0  0  0
 49 50  1  0  0  0  0
 50 51  1  0  0  0  0
 51 52  1  0  0  0  0
M  END
>  <REMARK>
 VINA RESULT:    -4.821      0.000      0.000
 INTER + INTRA:         -15.430
 INTER:                  -8.709
 INTRA:                  -6.721
 UNBOUND:                -6.804
 SMILES CC(=O)N[C@@H]1[C@@H](O)C[C@](O)(C(=O)O)O[C@H]1C(O)[C@H](O)CNC(=O)OCc1cn(-c2ccccc2C(C)=O)nn1
 SMILES IDX 21 1 22 2 23 3 20 5 18 6 16 7 15 8 9 9 8 10 14 11 6 12 5 13
 SMILES IDX 10 14 11 16 12 17 13 18 7 20 4 22 2 23 1 25 3 26 17 27 19 29
 SMILES IDX 24 31 25 32 26 33 27 34 39 35 28 36 38 37 29 38 34 39 30 40
 SMILES IDX 33 41 31 42 32 43 35 44 37 45 36 46
 H PARENT 21 4 10 15 13 19 7 21 4 24 17 28 19 30
 Flexibility Score: inf
  4 active torsions:
  status: ('A' for Active; 'I' for Inactive)
    1  A    between atoms: CA   and  CB  
    2  A    between atoms: CB   and  CG  
    3  A    between atoms: CG   and  CD  
    4  A    between atoms: CD   and  CE  

>  <TORSDO>
F 16

>  <BEGIN_>
RES LYS A 131

$$$$
ligand_41_pose_0_2HRL.pdbqt
 OpenBabel07062320523D

  6  5  0  0  0  0  0  0  0  0999 V2000
   33.1930   34.6630    9.2900 C   0  0  0  0  0  0  0  0  0  0  0  0
   32.0600   35.3600   10.0340 C   0  0  0  0  0  0  0  0  0  0  0  0
   30.7010   34.7790    9.7420 C   0  0  0  0  0  0  0  0  0  0  0  0
   30.5410   34.5070    8.2550 C   0  0  0  0  0  0  0  0  0  0  0  0
   29.1500   34.8920    7.7890 C   0  0  0  0  0  0  0  0  0  0  0  0
   28.3170   35.3710    8.9260 N   0  0  0  0  0  0  0  0  0  0  0  0
  1  2  1  0  0  0  0
  3  2  1  0  0  0  0
  4  3  1  0  0  0  0
  5  4  1  0  0  0  0
  5  6  1  0  0  0  0
M  END
>  <EGIN_R>
ES LYS A 135

>  <REMARK>
  4 active torsions:
  status: ('A' for Active; 'I' for Inactive)
    5  A    between atoms: CA   and  CB  
    6  A    between atoms: CB   and  CG  
    7  A    between atoms: CG   and  CD  
    8  A    between atoms: CD   and  CE  

$$$$
