ligand_90_pose_0_2HRL.pdbqt
 OpenBabel07062320523D

 61 62  0  0  1  0  0  0  0  0999 V2000
   27.6360   39.0310    4.3100 C   0  0  0  0  0  0  0  0  0  0  0  0
   28.3800   38.0290    4.9760 O   0  0  0  0  0  0  0  0  0  0  0  0
   27.9920   37.5340    6.2080 C   0  0  0  0  0  0  0  0  0  0  0  0
   26.6370   37.1240    6.4540 N   0  0  0  0  0  0  0  0  0  0  0  0
   25.9760   37.2290    5.6590 H   0  0  0  0  0  0  0  0  0  0  0  0
   28.8450   37.4520    7.1090 O   0  0  0  0  0  0  0  0  0  0  0  0
   26.1910   36.6000    7.7000 C   0  0  0  0  0  0  0  0  0  0  0  0
   25.2990   37.5080    8.4710 C   0  0  2  0  0  0  0  0  0  0  0  0
   23.8890   37.4060    7.9120 C   0  0  1  0  0  0  0  0  0  0  0  0
   22.8360   37.6620    8.9420 C   0  0  2  0  0  0  0  0  0  0  0  0
   20.8670   36.5560    8.3720 C   0  0  2  0  0  0  0  0  0  0  0  0
   19.9340   37.6860    8.7800 C   0  0  0  0  0  0  0  0  0  0  0  0
   22.0280   36.5650    9.0940 O   0  0  0  0  0  0  0  0  0  0  0  0
   20.7330   38.7830    9.4710 C   0  0  1  0  0  0  0  0  0  0  0  0
   22.0440   38.9020    8.6850 C   0  0  1  0  0  0  0  0  0  0  0  0
   21.1480   36.7570    7.0330 O   0  0  0  0  0  0  0  0  0  0  0  0
   21.7200   37.5560    6.9090 H   0  0  0  0  0  0  0  0  0  0  0  0
   20.2060   35.2320    8.5080 C   0  0  0  0  0  0  0  0  0  0  0  0
   19.6130   34.8910    9.5710 O   0  0  0  0  0  0  0  0  0  0  0  0
   20.2140   34.3180    7.4690 O   0  0  0  0  0  0  0  0  0  0  0  0
   20.7320   33.4580    7.4500 H   0  0  0  0  0  0  0  0  0  0  0  0
   19.9960   39.9510    9.3930 O   0  0  0  0  0  0  0  0  0  0  0  0
   20.2450   40.5200    8.6300 H   0  0  0  0  0  0  0  0  0  0  0  0
   22.7590   40.0970    9.1140 N   0  0  0  0  0  0  0  0  0  0  0  0
   22.6820   41.2680    8.3340 C   0  0  0  0  0  0  0  0  0  0  0  0
   23.3120   40.0740    9.9730 H   0  0  0  0  0  0  0  0  0  0  0  0
   23.4050   42.5280    8.7410 C   0  0  0  0  0  0  0  0  0  0  0  0
   22.0240   41.3470    7.2690 O   0  0  0  0  0  0  0  0  0  0  0  0
   23.7090   38.2700    6.8430 O   0  0  0  0  0  0  0  0  0  0  0  0
   22.8710   38.1290    6.3660 H   0  0  0  0  0  0  0  0  0  0  0  0
   25.6880   38.8380    8.4760 O   0  0  0  0  0  0  0  0  0  0  0  0
   24.9160   39.4620    8.5440 H   0  0  0  0  0  0  0  0  0  0  0  0
   27.1950   39.9720    5.3680 C   0  0  0  0  0  0  0  0  0  0  0  0
   28.0400   40.8160    6.0540 C   0  0  0  0  0  0  0  0  0  0  0  0
   25.9820   40.2190    5.8850 N   0  0  0  0  0  0  0  0  0  0  0  0
   27.3300   41.5510    6.9650 N   0  0  0  0  0  0  0  0  0  0  0  0
   26.0840   41.1650    6.8370 N   0  0  0  0  0  0  0  0  0  0  0  0
   27.9670   42.5160    7.8330 C   0  0  0  0  0  0  0  0  0  0  0  0
   28.4490   41.7410    9.0450 C   0  0  0  0  0  0  0  0  0  0  0  0
   29.6430   41.8250    9.4060 O   0  0  0  0  0  0  0  0  0  0  0  0
   27.5990   40.9190    9.7890 N   0  0  0  0  0  0  0  0  0  0  0  0
   26.5760   40.9240    9.4150 H   0  0  0  0  0  0  0  0  0  0  0  0
   27.8680   40.1060   10.9180 C   0  0  0  0  0  0  0  0  0  0  0  0
   28.4040   38.7570   10.7510 C   0  0  1  0  0  0  0  0  0  0  0  0
   29.2100   38.6190    9.5890 O   0  0  0  0  0  0  0  0  0  0  0  0
   30.0760   39.0710    9.7390 H   0  0  0  0  0  0  0  0  0  0  0  0
   28.8530   37.9490   11.8960 C   0  0  0  0  0  0  0  0  0  0  0  0
   28.0100   36.8000   12.1640 N   0  0  0  0  0  0  0  0  0  0  0  0
   26.6950   36.6920   11.8450 C   0  0  0  0  0  0  0  0  0  0  0  0
   28.3900   35.6690   12.7860 C   0  0  0  0  0  0  0  0  0  0  0  0
   26.2800   35.4530   12.2950 C   0  0  0  0  0  0  0  0  0  0  0  0
   27.3120   34.8310   12.8680 N   0  0  0  0  0  0  0  0  0  0  0  0
   29.6620   35.3140   13.2990 N   0  0  0  0  0  0  0  0  0  0  0  0
   30.3450   34.4730   12.6440 O   0  0  0  0  0  0  0  0  0  0  0  0
   30.2290   35.7860   14.4340 O   0  0  0  0  0  0  0  0  0  0  0  0
   29.8670   25.5550   16.9770 C   0  0  0  0  0  0  0  0  0  0  0  0
   28.3450   25.7220   17.0260 C   0  0  0  0  0  0  0  0  0  0  0  0
   27.6050   24.3930   17.0490 C   0  0  0  0  0  0  0  0  0  0  0  0
   26.5370   24.3580   18.1070 C   0  0  0  0  0  0  0  0  0  0  0  0
   25.3170   25.1360   17.6240 C   0  0  0  0  0  0  0  0  0  0  0  0
   24.4410   24.2690   16.8010 N   0  0  0  0  0  0  0  0  0  0  0  0
  1  2  1  0  0  0  0
  1 33  1  0  0  0  0
  2  3  1  0  0  0  0
  3  4  1  0  0  0  0
  3  6  2  0  0  0  0
  4  7  1  0  0  0  0
  5  4  1  0  0  0  0
  8  7  1  6  0  0  0
  8 31  1  0  0  0  0
  9 29  1  6  0  0  0
  9  8  1  0  0  0  0
 10  9  1  6  0  0  0
 10 13  1  0  0  0  0
 11 16  1  6  0  0  0
 11 18  1  0  0  0  0
 11 12  1  0  0  0  0
 11 13  1  0  0  0  0
 12 14  1  0  0  0  0
 14 22  1  6  0  0  0
 15 10  1  0  0  0  0
 15 24  1  1  0  0  0
 15 14  1  0  0  0  0
 17 16  1  0  0  0  0
 18 19  2  0  0  0  0
 20 18  1  0  0  0  0
 21 20  1  0  0  0  0
 23 22  1  0  0  0  0
 24 26  1  0  0  0  0
 25 27  1  0  0  0  0
 25 24  1  0  0  0  0
 28 25  2  0  0  0  0
 30 29  1  0  0  0  0
 31 32  1  0  0  0  0
 33 35  1  0  0  0  0
 33 34  2  0  0  0  0
 34 36  1  0  0  0  0
 35 37  2  0  0  0  0
 36 38  1  0  0  0  0
 37 36  1  0  0  0  0
 38 39  1  0  0  0  0
 39 40  2  0  0  0  0
 39 41  1  0  0  0  0
 41 43  1  0  0  0  0
 42 41  1  0  0  0  0
 44 43  1  1  0  0  0
 44 47  1  0  0  0  0
 45 46  1  0  0  0  0
 45 44  1  0  0  0  0
 47 48  1  0  0  0  0
 48 50  1  0  0  0  0
 49 48  1  0  0  0  0
 49 51  2  0  0  0  0
 50 52  2  0  0  0  0
 50 53  1  0  0  0  0
 51 52  1  0  0  0  0
 53 55  2  0  0  0  0
 54 53  2  0  0  0  0
 56 57  1  0  0  0  0
 57 58  1  0  0  0  0
 58 59  1  0  0  0  0
 60 59  1  0  0  0  0
 61 60  1  0  0  0  0
M  END
>  <REMARK>
 VINA RESULT:    -5.470      0.000      0.000
 INTER + INTRA:         -17.304
 INTER:                  -9.080
 INTRA:                  -8.225
 UNBOUND:                -5.759
 SMILES CC(=O)N[C@@H]1[C@@H](O)C[C@](O)(C(=O)O)O[C@H]1C(O)[C@H](O)CNC(=O)OCc1cn(CC(=O)NCC(O)Cn2ccnc2[N+](=O)[O-])nn1
 SMILES IDX 25 1 24 2 22 3 21 4 23 6 20 7 18 8 16 9 15 10 9 11 8 12
 SMILES IDX 14 13 6 14 5 15 10 16 11 18 12 19 13 20 7 22 4 24 2 25 1 27
 SMILES IDX 3 28 17 29 19 31 26 33 27 34 46 35 28 36 45 37 29 38 30 39
 SMILES IDX 31 40 32 41 33 43 34 44 35 45 36 47 37 48 38 49 41 50 39 51
 SMILES IDX 40 52 42 53 43 54 44 55
 H PARENT 21 5 10 17 13 21 7 23 4 26 17 30 19 32 32 42 35 46
 Flexibility Score: inf
  4 active torsions:
  status: ('A' for Active; 'I' for Inactive)
    1  A    between atoms: CA   and  CB  
    2  A    between atoms: CB   and  CG  
    3  A    between atoms: CG   and  CD  
    4  A    between atoms: CD   and  CE  

>  <TORSDO>
F 22

>  <BEGIN_>
RES LYS A 131

$$$$
ligand_90_pose_0_2HRL.pdbqt
 OpenBabel07062320523D

  6  5  0  0  0  0  0  0  0  0999 V2000
   33.1930   34.6630    9.2900 C   0  0  0  0  0  0  0  0  0  0  0  0
   32.0600   35.3600   10.0340 C   0  0  0  0  0  0  0  0  0  0  0  0
   30.7910   35.4750    9.2290 C   0  0  0  0  0  0  0  0  0  0  0  0
   30.1210   34.1170    9.0880 C   0  0  0  0  0  0  0  0  0  0  0  0
   28.6830   34.2780    8.6320 C   0  0  0  0  0  0  0  0  0  0  0  0
   27.7410   33.6370    9.5920 N   0  0  0  0  0  0  0  0  0  0  0  0
  1  2  1  0  0  0  0
  3  2  1  0  0  0  0
  4  3  1  0  0  0  0
  5  4  1  0  0  0  0
  5  6  1  0  0  0  0
M  END
>  <EGIN_R>
ES LYS A 135

>  <REMARK>
  4 active torsions:
  status: ('A' for Active; 'I' for Inactive)
    5  A    between atoms: CA   and  CB  
    6  A    between atoms: CB   and  CG  
    7  A    between atoms: CG   and  CD  
    8  A    between atoms: CD   and  CE  

$$$$
