ligand_7_pose_0_2HRL.pdbqt
 OpenBabel07062320523D

 52 53  0  0  1  0  0  0  0  0999 V2000
   26.9760   30.5160   20.5160 C   0  0  0  0  0  0  0  0  0  0  0  0
   26.7960   29.3030   21.3540 C   0  0  2  0  0  0  0  0  0  0  0  0
   27.5290   29.3040   22.6570 C   0  0  1  0  0  0  0  0  0  0  0  0
   28.7240   28.4310   22.7360 C   0  0  2  0  0  0  0  0  0  0  0  0
   30.3330   27.6150   21.2470 C   0  0  2  0  0  0  0  0  0  0  0  0
   30.7750   26.5900   22.2520 C   0  0  0  0  0  0  0  0  0  0  0  0
   29.6500   28.6750   21.7650 O   0  0  0  0  0  0  0  0  0  0  0  0
   29.7860   26.3460   23.3400 C   0  0  1  0  0  0  0  0  0  0  0  0
   28.4420   26.9700   22.9210 C   0  0  1  0  0  0  0  0  0  0  0  0
   29.5730   26.9630   20.2800 O   0  0  0  0  0  0  0  0  0  0  0  0
   28.6120   27.0500   20.5430 H   0  0  0  0  0  0  0  0  0  0  0  0
   31.5650   28.1400   20.6000 C   0  0  0  0  0  0  0  0  0  0  0  0
   32.0180   29.2590   20.9120 O   0  0  0  0  0  0  0  0  0  0  0  0
   32.2390   27.3900   19.6280 O   0  0  0  0  0  0  0  0  0  0  0  0
   32.3250   27.7840   18.6800 H   0  0  0  0  0  0  0  0  0  0  0  0
   29.6440   25.0210   23.7020 O   0  0  0  0  0  0  0  0  0  0  0  0
   29.3790   24.5150   22.8770 H   0  0  0  0  0  0  0  0  0  0  0  0
   27.5570   26.7230   24.0290 N   0  0  0  0  0  0  0  0  0  0  0  0
   26.2720   26.1820   23.7590 C   0  0  0  0  0  0  0  0  0  0  0  0
   27.8260   26.9250   25.0240 H   0  0  0  0  0  0  0  0  0  0  0  0
   25.2840   25.8930   24.8310 C   0  0  0  0  0  0  0  0  0  0  0  0
   25.9240   25.9290   22.5780 O   0  0  0  0  0  0  0  0  0  0  0  0
   27.8930   30.6180   22.9420 O   0  0  0  0  0  0  0  0  0  0  0  0
   28.7550   30.5940   23.4270 H   0  0  0  0  0  0  0  0  0  0  0  0
   27.0150   28.1380   20.6170 O   0  0  0  0  0  0  0  0  0  0  0  0
   27.9780   27.9290   20.5300 H   0  0  0  0  0  0  0  0  0  0  0  0
   28.3610   30.7750   20.1800 N   0  0  0  0  0  0  0  0  0  0  0  0
   28.8990   30.5630   18.8790 C   0  0  0  0  0  0  0  0  0  0  0  0
   29.0600   31.1420   20.8930 H   0  0  0  0  0  0  0  0  0  0  0  0
   28.1730   30.1350   17.9630 O   0  0  0  0  0  0  0  0  0  0  0  0
   30.2420   30.8280   18.6020 O   0  0  0  0  0  0  0  0  0  0  0  0
   30.6810   32.1940   18.5240 C   0  0  0  0  0  0  0  0  0  0  0  0
   30.7710   32.5710   17.0910 C   0  0  0  0  0  0  0  0  0  0  0  0
   30.8540   33.8640   16.6030 C   0  0  0  0  0  0  0  0  0  0  0  0
   30.7910   31.7810   16.0260 N   0  0  0  0  0  0  0  0  0  0  0  0
   30.9210   33.8310   15.2700 N   0  0  0  0  0  0  0  0  0  0  0  0
   30.8800   32.5250   14.9600 N   0  0  0  0  0  0  0  0  0  0  0  0
   31.0170   34.8940   14.3310 C   0  0  0  0  0  0  0  0  0  0  0  0
   32.2500   35.3860   13.9630 C   0  0  0  0  0  0  0  0  0  0  0  0
   29.8930   35.4680   13.7580 C   0  0  0  0  0  0  0  0  0  0  0  0
   33.4660   34.7900   14.5590 C   0  0  0  0  0  0  0  0  0  0  0  0
   32.3400   36.4340   13.0380 C   0  0  0  0  0  0  0  0  0  0  0  0
   29.9930   36.5010   12.8460 C   0  0  0  0  0  0  0  0  0  0  0  0
   28.5550   34.9160   14.1730 C   0  0  0  0  0  0  0  0  0  0  0  0
   31.2200   37.0030   12.4700 C   0  0  0  0  0  0  0  0  0  0  0  0
   31.3430   38.1190   11.4840 C   0  0  0  0  0  0  0  0  0  0  0  0
   29.8670   25.5550   16.9770 C   0  0  0  0  0  0  0  0  0  0  0  0
   28.3450   25.7220   17.0260 C   0  0  0  0  0  0  0  0  0  0  0  0
   27.5990   24.4320   16.7220 C   0  0  0  0  0  0  0  0  0  0  0  0
   26.9710   23.8370   17.9510 C   0  0  0  0  0  0  0  0  0  0  0  0
   25.5760   23.3210   17.6120 C   0  0  0  0  0  0  0  0  0  0  0  0
   24.7960   24.3640   16.9050 N   0  0  0  0  0  0  0  0  0  0  0  0
  2  1  1  6  0  0  0
  2  3  1  0  0  0  0
  3 23  1  6  0  0  0
  4  3  1  6  0  0  0
  4  9  1  0  0  0  0
  5 10  1  6  0  0  0
  5  7  1  0  0  0  0
  5  6  1  0  0  0  0
  6  8  1  0  0  0  0
  7  4  1  0  0  0  0
  8 16  1  6  0  0  0
  9  8  1  0  0  0  0
  9 18  1  1  0  0  0
 10 11  1  0  0  0  0
 12 13  2  0  0  0  0
 12  5  1  0  0  0  0
 14 12  1  0  0  0  0
 15 14  1  0  0  0  0
 17 16  1  0  0  0  0
 18 20  1  0  0  0  0
 19 18  1  0  0  0  0
 19 21  1  0  0  0  0
 22 19  2  0  0  0  0
 23 24  1  0  0  0  0
 25  2  1  0  0  0  0
 26 25  1  0  0  0  0
 27  1  1  0  0  0  0
 27 29  1  0  0  0  0
 28 27  1  0  0  0  0
 30 28  2  0  0  0  0
 31 28  1  0  0  0  0
 32 31  1  0  0  0  0
 33 32  1  0  0  0  0
 34 33  2  0  0  0  0
 35 33  1  0  0  0  0
 36 34  1  0  0  0  0
 37 36  1  0  0  0  0
 37 35  2  0  0  0  0
 38 36  1  0  0  0  0
 39 38  1  0  0  0  0
 39 41  1  0  0  0  0
 40 44  1  0  0  0  0
 40 38  2  0  0  0  0
 42 39  2  0  0  0  0
 43 40  1  0  0  0  0
 45 43  2  0  0  0  0
 45 42  1  0  0  0  0
 46 45  1  0  0  0  0
 47 48  1  0  0  0  0
 49 48  1  0  0  0  0
 49 50  1  0  0  0  0
 51 50  1  0  0  0  0
 52 51  1  0  0  0  0
M  END
>  <REMARK>
 VINA RESULT:    -5.145      0.000      0.000
 INTER + INTRA:         -14.822
 INTER:                  -9.343
 INTRA:                  -5.479
 UNBOUND:                -5.917
 SMILES CC(=O)N[C@@H]1[C@@H](O)C[C@](O)(C(=O)O)O[C@H]1C(O)[C@H](O)CNC(=O)OCc1cn(-c2c(C)cc(C)cc2C)nn1
 SMILES IDX 20 1 18 2 16 3 15 4 9 5 8 6 14 7 6 8 5 9 10 10 11 12 12 13
 SMILES IDX 13 14 7 16 4 18 2 19 1 21 3 22 17 23 19 25 21 27 22 28 23 30
 SMILES IDX 24 31 25 32 26 33 27 34 39 35 28 36 38 37 29 38 30 39 36 40
 SMILES IDX 31 41 32 42 35 43 37 44 33 45 34 46
 H PARENT 10 11 13 15 7 17 4 20 17 24 19 26 21 29
 Flexibility Score: inf
  4 active torsions:
  status: ('A' for Active; 'I' for Inactive)
    1  A    between atoms: CA   and  CB  
    2  A    between atoms: CB   and  CG  
    3  A    between atoms: CG   and  CD  
    4  A    between atoms: CD   and  CE  

>  <TORSDO>
F 15

>  <BEGIN_>
RES LYS A 131

$$$$
ligand_7_pose_0_2HRL.pdbqt
 OpenBabel07062320523D

  6  5  0  0  0  0  0  0  0  0999 V2000
   33.1930   34.6630    9.2900 C   0  0  0  0  0  0  0  0  0  0  0  0
   32.0600   35.3600   10.0340 C   0  0  0  0  0  0  0  0  0  0  0  0
   30.7080   34.7390    9.7920 C   0  0  0  0  0  0  0  0  0  0  0  0
   30.4010   34.6880    8.3030 C   0  0  0  0  0  0  0  0  0  0  0  0
   29.1610   35.5030    7.9870 C   0  0  0  0  0  0  0  0  0  0  0  0
   28.8910   35.5230    6.5230 N   0  0  0  0  0  0  0  0  0  0  0  0
  1  2  1  0  0  0  0
  3  2  1  0  0  0  0
  4  3  1  0  0  0  0
  5  4  1  0  0  0  0
  6  5  1  0  0  0  0
M  END
>  <EGIN_R>
ES LYS A 135

>  <REMARK>
  4 active torsions:
  status: ('A' for Active; 'I' for Inactive)
    5  A    between atoms: CA   and  CB  
    6  A    between atoms: CB   and  CG  
    7  A    between atoms: CG   and  CD  
    8  A    between atoms: CD   and  CE  

$$$$
