ligand_48_pose_0_2HRL.pdbqt
 OpenBabel07062320523D

 49 50  0  0  1  0  0  0  0  0999 V2000
   26.1410   28.4580   21.1800 C   0  0  0  0  0  0  0  0  0  0  0  0
   27.2600   27.5350   21.6390 C   0  0  2  0  0  0  0  0  0  0  0  0
   28.5020   27.9510   20.9130 C   0  0  1  0  0  0  0  0  0  0  0  0
   29.6220   28.4540   21.7990 C   0  0  2  0  0  0  0  0  0  0  0  0
   30.9570   29.9910   20.6180 C   0  0  2  0  0  0  0  0  0  0  0  0
   32.2250   29.2780   21.0570 C   0  0  0  0  0  0  0  0  0  0  0  0
   29.9770   29.7450   21.5200 O   0  0  0  0  0  0  0  0  0  0  0  0
   31.9930   27.7980   21.2040 C   0  0  1  0  0  0  0  0  0  0  0  0
   30.7420   27.4950   22.0030 C   0  0  1  0  0  0  0  0  0  0  0  0
   30.6490   29.6830   19.2940 O   0  0  0  0  0  0  0  0  0  0  0  0
   29.7320   30.0550   19.0980 H   0  0  0  0  0  0  0  0  0  0  0  0
   31.2810   31.4430   20.6870 C   0  0  0  0  0  0  0  0  0  0  0  0
   32.0860   31.8650   21.5470 O   0  0  0  0  0  0  0  0  0  0  0  0
   30.6990   32.3120   19.8100 O   0  0  0  0  0  0  0  0  0  0  0  0
   30.5240   33.2920   19.9990 H   0  0  0  0  0  0  0  0  0  0  0  0
   31.9810   27.1680   19.9670 O   0  0  0  0  0  0  0  0  0  0  0  0
   31.0650   27.1700   19.5950 H   0  0  0  0  0  0  0  0  0  0  0  0
   31.0980   27.3900   23.4200 N   0  0  0  0  0  0  0  0  0  0  0  0
   30.4890   26.3790   24.1920 C   0  0  0  0  0  0  0  0  0  0  0  0
   31.7800   28.0360   23.8620 H   0  0  0  0  0  0  0  0  0  0  0  0
   30.7870   26.1910   25.6460 C   0  0  0  0  0  0  0  0  0  0  0  0
   29.6480   25.5590   23.7050 O   0  0  0  0  0  0  0  0  0  0  0  0
   28.8810   27.0720   19.9320 O   0  0  0  0  0  0  0  0  0  0  0  0
   28.4580   26.1610   20.0290 H   0  0  0  0  0  0  0  0  0  0  0  0
   26.8540   26.2400   21.4250 O   0  0  0  0  0  0  0  0  0  0  0  0
   27.5060   25.6290   21.8020 H   0  0  0  0  0  0  0  0  0  0  0  0
   26.4500   28.9090   19.8430 N   0  0  0  0  0  0  0  0  0  0  0  0
   25.6210   28.7310   18.7080 C   0  0  0  0  0  0  0  0  0  0  0  0
   27.3630   29.4240   19.6460 H   0  0  0  0  0  0  0  0  0  0  0  0
   24.5250   28.1340   18.8340 O   0  0  0  0  0  0  0  0  0  0  0  0
   25.9960   29.2010   17.4530 O   0  0  0  0  0  0  0  0  0  0  0  0
   27.2160   28.7910   16.8910 C   0  0  0  0  0  0  0  0  0  0  0  0
   28.1410   29.9550   16.8830 C   0  0  0  0  0  0  0  0  0  0  0  0
   28.8710   30.4240   15.7840 C   0  0  0  0  0  0  0  0  0  0  0  0
   28.4840   30.7940   17.8790 N   0  0  0  0  0  0  0  0  0  0  0  0
   29.6000   31.4920   16.1530 N   0  0  0  0  0  0  0  0  0  0  0  0
   29.3440   31.6920   17.4340 N   0  0  0  0  0  0  0  0  0  0  0  0
   30.4940   32.2720   15.3080 C   0  0  0  0  0  0  0  0  0  0  0  0
   29.6890   33.3150   14.5640 C   0  0  0  0  0  0  0  0  0  0  0  0
   31.5160   32.9880   16.1610 C   0  0  0  0  0  0  0  0  0  0  0  0
   29.8790   34.6960   15.1610 C   0  0  0  0  0  0  0  0  0  0  0  0
   32.2470   33.9570   15.2490 C   0  0  0  0  0  0  0  0  0  0  0  0
   31.3130   35.1270   15.0080 C   0  0  0  0  0  0  0  0  0  0  0  0
   29.8670   25.5550   16.9770 C   0  0  0  0  0  0  0  0  0  0  0  0
   28.3450   25.7220   17.0260 C   0  0  0  0  0  0  0  0  0  0  0  0
   27.5990   24.4440   16.6760 C   0  0  0  0  0  0  0  0  0  0  0  0
   27.0120   23.7790   17.8900 C   0  0  0  0  0  0  0  0  0  0  0  0
   25.9140   24.6630   18.4730 C   0  0  0  0  0  0  0  0  0  0  0  0
   24.8680   24.9300   17.4580 N   0  0  0  0  0  0  0  0  0  0  0  0
  2  1  1  6  0  0  0
  3 23  1  1  0  0  0
  3  2  1  0  0  0  0
  4  3  1  6  0  0  0
  4  9  1  0  0  0  0
  5 10  1  6  0  0  0
  5 12  1  0  0  0  0
  5  6  1  0  0  0  0
  5  7  1  0  0  0  0
  6  8  1  0  0  0  0
  7  4  1  0  0  0  0
  8 16  1  6  0  0  0
  8  9  1  0  0  0  0
  9 18  1  1  0  0  0
 11 10  1  0  0  0  0
 12 13  2  0  0  0  0
 14 15  1  0  0  0  0
 14 12  1  0  0  0  0
 17 16  1  0  0  0  0
 18 20  1  0  0  0  0
 18 19  1  0  0  0  0
 19 21  1  0  0  0  0
 22 19  2  0  0  0  0
 23 24  1  0  0  0  0
 25  2  1  0  0  0  0
 25 26  1  0  0  0  0
 27  1  1  0  0  0  0
 28 30  2  0  0  0  0
 28 27  1  0  0  0  0
 29 27  1  0  0  0  0
 31 28  1  0  0  0  0
 32 31  1  0  0  0  0
 33 32  1  0  0  0  0
 33 35  1  0  0  0  0
 34 36  1  0  0  0  0
 34 33  2  0  0  0  0
 36 37  1  0  0  0  0
 37 35  2  0  0  0  0
 38 36  1  0  0  0  0
 38 40  1  0  0  0  0
 39 41  1  0  0  0  0
 39 38  1  0  0  0  0
 42 40  1  0  0  0  0
 43 41  1  0  0  0  0
 43 42  1  0  0  0  0
 44 45  1  0  0  0  0
 46 45  1  0  0  0  0
 46 47  1  0  0  0  0
 47 48  1  0  0  0  0
 49 48  1  0  0  0  0
M  END
>  <REMARK>
 VINA RESULT:    -5.859      0.000      0.000
 INTER + INTRA:         -15.937
 INTER:                  -9.298
 INTRA:                  -6.639
 UNBOUND:                -5.796
 SMILES CC(=O)N[C@@H]1[C@@H](O)C[C@](O)(C(=O)O)O[C@H]1C(O)[C@H](O)CNC(=O)OCc1cn(C2CCCCC2)nn1
 SMILES IDX 20 1 18 2 16 3 15 4 9 5 8 6 14 7 6 8 5 9 10 10 11 12 12 13
 SMILES IDX 13 14 7 16 4 18 2 19 1 21 3 22 17 23 19 25 21 27 22 28 23 30
 SMILES IDX 24 31 25 32 26 33 27 34 36 35 28 36 35 37 29 38 30 39 34 40
 SMILES IDX 31 41 33 42 32 43
 H PARENT 10 11 13 15 7 17 4 20 17 24 19 26 21 29
 Flexibility Score: inf
  4 active torsions:
  status: ('A' for Active; 'I' for Inactive)
    1  A    between atoms: CA   and  CB  
    2  A    between atoms: CB   and  CG  
    3  A    between atoms: CG   and  CD  
    4  A    between atoms: CD   and  CE  

>  <TORSDO>
F 15

>  <BEGIN_>
RES LYS A 131

$$$$
ligand_48_pose_0_2HRL.pdbqt
 OpenBabel07062320523D

  6  5  0  0  0  0  0  0  0  0999 V2000
   33.1930   34.6630    9.2900 C   0  0  0  0  0  0  0  0  0  0  0  0
   32.0600   35.3600   10.0340 C   0  0  0  0  0  0  0  0  0  0  0  0
   30.7320   34.6590    9.9030 C   0  0  0  0  0  0  0  0  0  0  0  0
   30.3470   34.5090    8.4400 C   0  0  0  0  0  0  0  0  0  0  0  0
   28.8390   34.5410    8.2800 C   0  0  0  0  0  0  0  0  0  0  0  0
   28.1660   33.8290    9.4020 N   0  0  0  0  0  0  0  0  0  0  0  0
  1  2  1  0  0  0  0
  3  2  1  0  0  0  0
  4  3  1  0  0  0  0
  5  4  1  0  0  0  0
  5  6  1  0  0  0  0
M  END
>  <EGIN_R>
ES LYS A 135

>  <REMARK>
  4 active torsions:
  status: ('A' for Active; 'I' for Inactive)
    5  A    between atoms: CA   and  CB  
    6  A    between atoms: CB   and  CG  
    7  A    between atoms: CG   and  CD  
    8  A    between atoms: CD   and  CE  

$$$$
