ligand_46_pose_0_2HRL.pdbqt
 OpenBabel07062320523D

 50 51  0  0  1  0  0  0  0  0999 V2000
   24.9230   41.0810    6.9440 N   0  0  0  0  0  0  0  0  0  0  0  0
   25.6840   41.4920    5.8310 C   0  0  0  0  0  0  0  0  0  0  0  0
   25.1860   41.6400    4.7040 O   0  0  0  0  0  0  0  0  0  0  0  0
   25.4550   40.9940    7.8490 H   0  0  0  0  0  0  0  0  0  0  0  0
   23.5240   40.7950    6.8740 C   0  0  0  0  0  0  0  0  0  0  0  0
   23.1910   39.6440    7.7950 C   0  0  2  0  0  0  0  0  0  0  0  0
   23.6140   38.3280    7.2070 C   0  0  2  0  0  0  0  0  0  0  0  0
   23.0360   37.1330    7.9270 C   0  0  2  0  0  0  0  0  0  0  0  0
   20.8550   36.5100    8.4900 C   0  0  2  0  0  0  0  0  0  0  0  0
   21.5240   35.4740    9.4070 C   0  0  0  0  0  0  0  0  0  0  0  0
   21.7710   36.8240    7.5310 O   0  0  0  0  0  0  0  0  0  0  0  0
   22.4820   36.3120   10.2520 C   0  0  1  0  0  0  0  0  0  0  0  0
   23.2890   37.2540    9.3890 C   0  0  1  0  0  0  0  0  0  0  0  0
   20.3730   37.5690    9.2290 O   0  0  0  0  0  0  0  0  0  0  0  0
   19.6050   37.2600    9.7550 H   0  0  0  0  0  0  0  0  0  0  0  0
   19.7240   35.7890    7.8040 C   0  0  0  0  0  0  0  0  0  0  0  0
   18.5780   36.2800    7.7410 O   0  0  0  0  0  0  0  0  0  0  0  0
   19.9400   34.5540    7.2240 O   0  0  0  0  0  0  0  0  0  0  0  0
   19.6190   33.7310    7.7080 H   0  0  0  0  0  0  0  0  0  0  0  0
   21.6790   37.0040   11.1590 O   0  0  0  0  0  0  0  0  0  0  0  0
   21.7130   37.9630   10.9520 H   0  0  0  0  0  0  0  0  0  0  0  0
   24.7260   36.9910    9.5920 N   0  0  0  0  0  0  0  0  0  0  0  0
   25.5140   37.7260   10.5110 C   0  0  0  0  0  0  0  0  0  0  0  0
   25.1950   36.2240    9.0300 H   0  0  0  0  0  0  0  0  0  0  0  0
   26.9600   37.4990   10.7490 C   0  0  0  0  0  0  0  0  0  0  0  0
   24.9530   38.6340   11.1730 O   0  0  0  0  0  0  0  0  0  0  0  0
   24.9920   38.2870    7.1250 O   0  0  0  0  0  0  0  0  0  0  0  0
   25.2470   38.2690    6.1720 H   0  0  0  0  0  0  0  0  0  0  0  0
   21.8140   39.7140    8.0050 O   0  0  0  0  0  0  0  0  0  0  0  0
   21.3260   40.0780    7.2330 H   0  0  0  0  0  0  0  0  0  0  0  0
   27.0480   41.7510    5.9640 O   0  0  0  0  0  0  0  0  0  0  0  0
   27.9800   40.9200    5.3160 C   0  0  0  0  0  0  0  0  0  0  0  0
   28.0150   39.5640    5.9150 C   0  0  0  0  0  0  0  0  0  0  0  0
   28.1970   38.3870    5.2410 C   0  0  0  0  0  0  0  0  0  0  0  0
   27.8720   39.2640    7.2100 N   0  0  0  0  0  0  0  0  0  0  0  0
   28.1590   37.3970    6.1480 N   0  0  0  0  0  0  0  0  0  0  0  0
   27.9590   37.9640    7.3430 N   0  0  0  0  0  0  0  0  0  0  0  0
   28.3000   35.9780    5.9430 C   0  0  0  0  0  0  0  0  0  0  0  0
   28.3010   35.2470    7.2390 C   0  0  0  0  0  0  0  0  0  0  0  0
   29.4890   34.8960    7.8690 C   0  0  0  0  0  0  0  0  0  0  0  0
   27.1370   34.8850    7.8700 C   0  0  0  0  0  0  0  0  0  0  0  0
   29.4830   34.2200    9.0640 C   0  0  0  0  0  0  0  0  0  0  0  0
   27.1200   34.2040    9.0750 C   0  0  0  0  0  0  0  0  0  0  0  0
   28.3050   33.8650    9.6860 C   0  0  0  0  0  0  0  0  0  0  0  0
   29.8670   25.5550   16.9770 C   0  0  0  0  0  0  0  0  0  0  0  0
   28.3450   25.7220   17.0260 C   0  0  0  0  0  0  0  0  0  0  0  0
   27.6000   24.4080   16.8460 C   0  0  0  0  0  0  0  0  0  0  0  0
   26.7300   24.0840   18.0290 C   0  0  0  0  0  0  0  0  0  0  0  0
   25.7720   25.2410   18.2880 C   0  0  0  0  0  0  0  0  0  0  0  0
   25.8880   25.7070   19.6900 N   0  0  0  0  0  0  0  0  0  0  0  0
  1  4  1  0  0  0  0
  2 31  1  0  0  0  0
  2  1  1  0  0  0  0
  3  2  2  0  0  0  0
  5  1  1  0  0  0  0
  6  5  1  6  0  0  0
  6 29  1  0  0  0  0
  7 27  1  1  0  0  0
  7  6  1  0  0  0  0
  8  7  1  6  0  0  0
  8 13  1  0  0  0  0
  9 16  1  6  0  0  0
  9 14  1  0  0  0  0
  9 10  1  0  0  0  0
 10 12  1  0  0  0  0
 11  8  1  0  0  0  0
 11  9  1  0  0  0  0
 12 20  1  1  0  0  0
 13 22  1  6  0  0  0
 13 12  1  0  0  0  0
 14 15  1  0  0  0  0
 17 16  2  0  0  0  0
 18 19  1  0  0  0  0
 18 16  1  0  0  0  0
 21 20  1  0  0  0  0
 22 23  1  0  0  0  0
 23 25  1  0  0  0  0
 23 26  2  0  0  0  0
 24 22  1  0  0  0  0
 28 27  1  0  0  0  0
 30 29  1  0  0  0  0
 32 33  1  0  0  0  0
 32 31  1  0  0  0  0
 33 35  1  0  0  0  0
 34 33  2  0  0  0  0
 34 36  1  0  0  0  0
 35 37  2  0  0  0  0
 36 37  1  0  0  0  0
 38 36  1  0  0  0  0
 38 39  1  0  0  0  0
 39 40  2  0  0  0  0
 39 41  1  0  0  0  0
 40 42  1  0  0  0  0
 41 43  2  0  0  0  0
 42 44  2  0  0  0  0
 43 44  1  0  0  0  0
 45 46  1  0  0  0  0
 47 46  1  0  0  0  0
 47 48  1  0  0  0  0
 48 49  1  0  0  0  0
 49 50  1  0  0  0  0
M  END
>  <REMARK>
 VINA RESULT:    -5.754      0.000      0.000
 INTER + INTRA:         -15.585
 INTER:                 -10.541
 INTRA:                  -5.043
 UNBOUND:                -5.290
 SMILES CC(=O)N[C@@H]1[C@@H](O)C[C@](O)(C(=O)O)O[C@H]1C(O)[C@H](O)CNC(=O)OCc1cn(Cc2ccccc2)nn1
 SMILES IDX 21 1 22 2 23 3 20 5 18 6 16 7 15 8 9 9 8 10 14 11 6 12 5 13
 SMILES IDX 10 14 11 16 12 17 13 18 7 20 4 22 2 23 1 25 3 26 17 27 19 29
 SMILES IDX 24 31 25 32 26 33 27 34 37 35 28 36 36 37 29 38 30 39 31 40
 SMILES IDX 35 41 32 42 34 43 33 44
 H PARENT 21 4 10 15 13 19 7 21 4 24 17 28 19 30
 Flexibility Score: inf
  4 active torsions:
  status: ('A' for Active; 'I' for Inactive)
    1  A    between atoms: CA   and  CB  
    2  A    between atoms: CB   and  CG  
    3  A    between atoms: CG   and  CD  
    4  A    between atoms: CD   and  CE  

>  <TORSDO>
F 16

>  <BEGIN_>
RES LYS A 131

$$$$
ligand_46_pose_0_2HRL.pdbqt
 OpenBabel07062320523D

  6  5  0  0  0  0  0  0  0  0999 V2000
   33.1930   34.6630    9.2900 C   0  0  0  0  0  0  0  0  0  0  0  0
   32.0600   35.3600   10.0340 C   0  0  0  0  0  0  0  0  0  0  0  0
   32.3790   35.6550   11.4770 C   0  0  0  0  0  0  0  0  0  0  0  0
   32.2450   37.1430   11.7630 C   0  0  0  0  0  0  0  0  0  0  0  0
   31.2690   37.7850   10.7960 C   0  0  0  0  0  0  0  0  0  0  0  0
   31.9140   38.8960   10.0410 N   0  0  0  0  0  0  0  0  0  0  0  0
  1  2  1  0  0  0  0
  2  3  1  0  0  0  0
  3  4  1  0  0  0  0
  5  4  1  0  0  0  0
  6  5  1  0  0  0  0
M  END
>  <EGIN_R>
ES LYS A 135

>  <REMARK>
  4 active torsions:
  status: ('A' for Active; 'I' for Inactive)
    5  A    between atoms: CA   and  CB  
    6  A    between atoms: CB   and  CG  
    7  A    between atoms: CG   and  CD  
    8  A    between atoms: CD   and  CE  

$$$$
