ligand_15_pose_0_2HRL.pdbqt
 OpenBabel07062320523D

 50 51  0  0  1  0  0  0  0  0999 V2000
   30.2040   27.3800   21.2550 C   0  0  0  0  0  0  0  0  0  0  0  0
   31.6550   27.6650   21.0050 C   0  0  2  0  0  0  0  0  0  0  0  0
   31.9930   29.0900   20.7450 C   0  0  2  0  0  0  0  0  0  0  0  0
   32.9090   29.7110   21.7800 C   0  0  2  0  0  0  0  0  0  0  0  0
   34.0390   28.9700   23.6980 C   0  0  2  0  0  0  0  0  0  0  0  0
   33.7870   30.3490   24.2400 C   0  0  0  0  0  0  0  0  0  0  0  0
   33.2210   28.6840   22.6610 O   0  0  0  0  0  0  0  0  0  0  0  0
   32.3370   30.6900   23.9880 C   0  0  1  0  0  0  0  0  0  0  0  0
   32.1620   30.8190   22.4680 C   0  0  1  0  0  0  0  0  0  0  0  0
   33.7550   28.0200   24.7180 O   0  0  0  0  0  0  0  0  0  0  0  0
   33.4130   28.5600   25.4770 H   0  0  0  0  0  0  0  0  0  0  0  0
   35.4580   28.7970   23.2800 C   0  0  0  0  0  0  0  0  0  0  0  0
   36.0320   27.6950   23.2450 O   0  0  0  0  0  0  0  0  0  0  0  0
   36.1850   29.9160   22.9120 O   0  0  0  0  0  0  0  0  0  0  0  0
   36.3180   30.1950   21.9390 H   0  0  0  0  0  0  0  0  0  0  0  0
   31.5750   29.5890   24.3730 O   0  0  0  0  0  0  0  0  0  0  0  0
   32.0260   28.7350   24.2340 H   0  0  0  0  0  0  0  0  0  0  0  0
   32.7590   32.0800   22.1250 N   0  0  0  0  0  0  0  0  0  0  0  0
   32.1290   33.0700   21.3350 C   0  0  0  0  0  0  0  0  0  0  0  0
   33.7270   32.3130   22.4690 H   0  0  0  0  0  0  0  0  0  0  0  0
   32.7930   34.3650   21.0020 C   0  0  0  0  0  0  0  0  0  0  0  0
   30.9790   32.8550   20.9000 O   0  0  0  0  0  0  0  0  0  0  0  0
   30.7810   29.8210   20.6800 O   0  0  0  0  0  0  0  0  0  0  0  0
   30.2130   29.5020   21.4140 H   0  0  0  0  0  0  0  0  0  0  0  0
   32.0470   26.8980   19.8860 O   0  0  0  0  0  0  0  0  0  0  0  0
   32.1920   27.4770   19.0970 H   0  0  0  0  0  0  0  0  0  0  0  0
   29.4030   27.1860   20.0910 N   0  0  0  0  0  0  0  0  0  0  0  0
   28.1820   27.9350   19.9220 C   0  0  0  0  0  0  0  0  0  0  0  0
   29.6030   26.5280   19.3110 H   0  0  0  0  0  0  0  0  0  0  0  0
   27.8670   28.7450   20.8260 O   0  0  0  0  0  0  0  0  0  0  0  0
   27.3840   27.7670   18.8010 O   0  0  0  0  0  0  0  0  0  0  0  0
   26.7150   28.9290   18.3290 C   0  0  0  0  0  0  0  0  0  0  0  0
   27.6760   29.6520   17.4470 C   0  0  0  0  0  0  0  0  0  0  0  0
   28.4710   30.7260   17.7990 C   0  0  0  0  0  0  0  0  0  0  0  0
   27.9630   29.4080   16.1540 N   0  0  0  0  0  0  0  0  0  0  0  0
   29.2000   31.0960   16.7330 N   0  0  0  0  0  0  0  0  0  0  0  0
   28.8630   30.2760   15.7640 N   0  0  0  0  0  0  0  0  0  0  0  0
   30.1560   32.1450   16.6050 C   0  0  0  0  0  0  0  0  0  0  0  0
   30.4030   33.0470   17.6210 C   0  0  0  0  0  0  0  0  0  0  0  0
   30.8830   32.3010   15.4430 C   0  0  0  0  0  0  0  0  0  0  0  0
   31.3350   34.0590   17.4830 C   0  0  0  0  0  0  0  0  0  0  0  0
   31.8210   33.3160   15.2980 C   0  0  0  0  0  0  0  0  0  0  0  0
   32.0620   34.2100   16.3150 C   0  0  0  0  0  0  0  0  0  0  0  0
   33.3330   35.6230   16.1780 Br  0  0  0  0  0  0  0  0  0  0  0  0
   29.8670   25.5550   16.9770 C   0  0  0  0  0  0  0  0  0  0  0  0
   28.3450   25.7220   17.0260 C   0  0  0  0  0  0  0  0  0  0  0  0
   27.5990   24.4250   16.7500 C   0  0  0  0  0  0  0  0  0  0  0  0
   26.9210   23.8900   17.9800 C   0  0  0  0  0  0  0  0  0  0  0  0
   25.6860   24.7310   18.2880 C   0  0  0  0  0  0  0  0  0  0  0  0
   25.5610   24.9530   19.7480 N   0  0  0  0  0  0  0  0  0  0  0  0
  2  1  1  6  0  0  0
  3 23  1  1  0  0  0
  3  2  1  0  0  0  0
  4  3  1  6  0  0  0
  4  9  1  0  0  0  0
  4  7  1  0  0  0  0
  5 12  1  6  0  0  0
  5  6  1  0  0  0  0
  5 10  1  0  0  0  0
  7  5  1  0  0  0  0
  8  6  1  0  0  0  0
  8 16  1  6  0  0  0
  9 18  1  6  0  0  0
  9  8  1  0  0  0  0
 10 11  1  0  0  0  0
 13 12  2  0  0  0  0
 14 12  1  0  0  0  0
 15 14  1  0  0  0  0
 17 16  1  0  0  0  0
 18 20  1  0  0  0  0
 19 18  1  0  0  0  0
 21 19  1  0  0  0  0
 22 19  2  0  0  0  0
 23 24  1  0  0  0  0
 25  2  1  0  0  0  0
 26 25  1  0  0  0  0
 27  1  1  0  0  0  0
 28 27  1  0  0  0  0
 28 30  2  0  0  0  0
 29 27  1  0  0  0  0
 31 28  1  0  0  0  0
 32 31  1  0  0  0  0
 33 34  2  0  0  0  0
 33 32  1  0  0  0  0
 35 33  1  0  0  0  0
 36 34  1  0  0  0  0
 37 35  2  0  0  0  0
 37 36  1  0  0  0  0
 38 36  1  0  0  0  0
 38 39  2  0  0  0  0
 40 38  1  0  0  0  0
 41 39  1  0  0  0  0
 42 40  2  0  0  0  0
 42 43  1  0  0  0  0
 43 41  2  0  0  0  0
 44 43  1  0  0  0  0
 45 46  1  0  0  0  0
 47 46  1  0  0  0  0
 47 48  1  0  0  0  0
 48 49  1  0  0  0  0
 49 50  1  0  0  0  0
M  END
>  <REMARK>
 VINA RESULT:    -5.978      0.000      0.000
 INTER + INTRA:         -15.508
 INTER:                  -9.621
 INTRA:                  -5.886
 UNBOUND:                -5.161
 SMILES CC(=O)N[C@@H]1[C@@H](O)C[C@](O)(C(=O)O)O[C@H]1C(O)[C@H](O)CNC(=O)OCc1cn(-c2ccc(Br)cc2)nn1
 SMILES IDX 20 1 18 2 16 3 15 4 9 5 8 6 14 7 6 8 5 9 10 10 11 12 12 13
 SMILES IDX 13 14 7 16 4 18 2 19 1 21 3 22 17 23 19 25 21 27 22 28 23 30
 SMILES IDX 24 31 25 32 26 33 27 34 37 35 28 36 36 37 29 38 30 39 35 40
 SMILES IDX 31 41 34 42 32 43 33 44
 H PARENT 10 11 13 15 7 17 4 20 17 24 19 26 21 29
 Flexibility Score: inf
  4 active torsions:
  status: ('A' for Active; 'I' for Inactive)
    1  A    between atoms: CA   and  CB  
    2  A    between atoms: CB   and  CG  
    3  A    between atoms: CG   and  CD  
    4  A    between atoms: CD   and  CE  

>  <TORSDO>
F 15

>  <BEGIN_>
RES LYS A 131

$$$$
ligand_15_pose_0_2HRL.pdbqt
 OpenBabel07062320523D

  6  5  0  0  0  0  0  0  0  0999 V2000
   33.1930   34.6630    9.2900 C   0  0  0  0  0  0  0  0  0  0  0  0
   32.0600   35.3600   10.0340 C   0  0  0  0  0  0  0  0  0  0  0  0
   30.8330   35.5850    9.1890 C   0  0  0  0  0  0  0  0  0  0  0  0
   30.2300   34.2580    8.7540 C   0  0  0  0  0  0  0  0  0  0  0  0
   28.7400   34.4030    8.5140 C   0  0  0  0  0  0  0  0  0  0  0  0
   27.9560   33.6800    9.5530 N   0  0  0  0  0  0  0  0  0  0  0  0
  1  2  1  0  0  0  0
  3  2  1  0  0  0  0
  4  3  1  0  0  0  0
  5  4  1  0  0  0  0
  5  6  1  0  0  0  0
M  END
>  <EGIN_R>
ES LYS A 135

>  <REMARK>
  4 active torsions:
  status: ('A' for Active; 'I' for Inactive)
    5  A    between atoms: CA   and  CB  
    6  A    between atoms: CB   and  CG  
    7  A    between atoms: CG   and  CD  
    8  A    between atoms: CD   and  CE  

$$$$
