
 OpenBabel07132314063D

 26 26  0  0  1  0  0  0  0  0999 V2000
    1.0509   -0.3847   -0.2916 C   0  0  0  0  0  0  0  0  0  0  0  0
    2.4742   -0.1012   -0.0289 C   0  0  0  0  0  0  0  0  0  0  0  0
    3.2418    0.9805   -0.3981 C   0  0  0  0  0  0  0  0  0  0  0  0
    4.4679    0.7249    0.1442 N   0  0  0  0  0  0  0  0  0  0  0  0
    5.7256    1.4564    0.0267 C   0  0  1  0  0  0  0  0  0  0  0  0
    6.2797    1.2014    0.9418 H   0  0  0  0  0  0  0  0  0  0  0  0
    6.5497    0.9871   -1.1854 C   0  0  0  0  0  0  0  0  0  0  0  0
    5.9018    1.2539   -2.5495 C   0  0  0  0  0  0  0  0  0  0  0  0
    6.8308    0.8625   -3.6768 C   0  0  0  0  0  0  0  0  0  0  0  0
    7.9743    0.4629   -3.5288 O   0  0  0  0  0  0  0  0  0  0  0  0
    6.2681    1.0238   -4.8939 O   0  0  0  0  0  0  0  0  0  0  0  0
    5.5626    2.9676    0.0754 C   0  0  0  0  0  0  0  0  0  0  0  0
    4.5023    3.5742    0.0724 O   0  0  0  0  0  0  0  0  0  0  0  0
    6.7363    3.6480    0.1176 O   0  0  0  0  0  0  0  0  0  0  0  0
    4.4743   -0.4727    0.7612 N   0  0  0  0  0  0  0  0  0  0  0  0
    3.2523   -0.9807    0.6711 N   0  0  0  0  0  0  0  0  0  0  0  0
    0.5512    0.4815   -0.7394 H   0  0  0  0  0  0  0  0  0  0  0  0
    0.5311   -0.6316    0.6391 H   0  0  0  0  0  0  0  0  0  0  0  0
    0.9503   -1.2294   -0.9786 H   0  0  0  0  0  0  0  0  0  0  0  0
    3.0098    1.8749   -0.9569 H   0  0  0  0  0  0  0  0  0  0  0  0
    6.7464   -0.0895   -1.0936 H   0  0  0  0  0  0  0  0  0  0  0  0
    7.5355    1.4682   -1.1620 H   0  0  0  0  0  0  0  0  0  0  0  0
    5.6690    2.3180   -2.6588 H   0  0  0  0  0  0  0  0  0  0  0  0
    4.9850    0.6659   -2.6533 H   0  0  0  0  0  0  0  0  0  0  0  0
    5.3498    1.3545   -4.8752 H   0  0  0  0  0  0  0  0  0  0  0  0
    7.5565    3.1188    0.1662 H   0  0  0  0  0  0  0  0  0  0  0  0
  1  2  1  0  0  0  0
  1 17  1  0  0  0  0
  1 18  1  0  0  0  0
  1 19  1  0  0  0  0
  2  3  2  0  0  0  0
  2 16  1  0  0  0  0
  3  4  1  0  0  0  0
  3 20  1  0  0  0  0
  4  5  1  0  0  0  0
  4 15  1  0  0  0  0
  5  6  1  1  0  0  0
  5  7  1  0  0  0  0
  5 12  1  0  0  0  0
  7  8  1  0  0  0  0
  7 21  1  0  0  0  0
  7 22  1  0  0  0  0
  8  9  1  0  0  0  0
  8 23  1  0  0  0  0
  8 24  1  0  0  0  0
  9 10  2  0  0  0  0
  9 11  1  0  0  0  0
 11 25  1  0  0  0  0
 12 13  2  0  0  0  0
 12 14  1  0  0  0  0
 14 26  1  0  0  0  0
 15 16  2  0  0  0  0
M  END
$$$$
