
 OpenBabel07132314063D

 23 23  0  0  0  0  0  0  0  0999 V2000
    1.3595   -0.6057   -0.9897 C   0  0  0  0  0  0  0  0  0  0  0  0
    2.6442   -0.1440   -0.4350 C   0  0  0  0  0  0  0  0  0  0  0  0
    3.5352    0.7782   -0.9288 C   0  0  0  0  0  0  0  0  0  0  0  0
    4.4967    0.8545    0.0356 N   0  0  0  0  0  0  0  0  0  0  0  0
    5.6986    1.6575    0.0420 C   0  0  0  0  0  0  0  0  0  0  0  0
    5.3956    3.1258   -0.0576 C   0  0  0  0  0  0  0  0  0  0  0  0
    4.2874    3.6366   -0.1224 O   0  0  0  0  0  0  0  0  0  0  0  0
    6.5714    3.8146   -0.1740 O   0  0  0  0  0  0  0  0  0  0  0  0
    6.4412    5.1511   -0.6808 C   0  0  0  0  0  0  0  0  0  0  0  0
    6.4977    5.0809   -2.1968 C   0  0  0  0  0  0  0  0  0  0  0  0
    4.2683   -0.0295    1.0201 N   0  0  0  0  0  0  0  0  0  0  0  0
    3.1177   -0.6344    0.7513 N   0  0  0  0  0  0  0  0  0  0  0  0
    1.1225   -0.0895   -1.9265 H   0  0  0  0  0  0  0  0  0  0  0  0
    0.5479   -0.4116   -0.2815 H   0  0  0  0  0  0  0  0  0  0  0  0
    1.3938   -1.6799   -1.1896 H   0  0  0  0  0  0  0  0  0  0  0  0
    3.5392    1.3960   -1.8157 H   0  0  0  0  0  0  0  0  0  0  0  0
    6.2833    1.3503   -0.8313 H   0  0  0  0  0  0  0  0  0  0  0  0
    6.2575    1.4531    0.9603 H   0  0  0  0  0  0  0  0  0  0  0  0
    7.2816    5.7383   -0.2975 H   0  0  0  0  0  0  0  0  0  0  0  0
    5.5207    5.6365   -0.3361 H   0  0  0  0  0  0  0  0  0  0  0  0
    7.4566    4.6590   -2.5182 H   0  0  0  0  0  0  0  0  0  0  0  0
    6.3767    6.0690   -2.6458 H   0  0  0  0  0  0  0  0  0  0  0  0
    5.7189    4.4163   -2.5871 H   0  0  0  0  0  0  0  0  0  0  0  0
  1  2  1  0  0  0  0
  1 13  1  0  0  0  0
  1 14  1  0  0  0  0
  1 15  1  0  0  0  0
  2  3  2  0  0  0  0
  2 12  1  0  0  0  0
  3  4  1  0  0  0  0
  3 16  1  0  0  0  0
  4  5  1  0  0  0  0
  4 11  1  0  0  0  0
  5  6  1  0  0  0  0
  5 17  1  0  0  0  0
  5 18  1  0  0  0  0
  6  7  2  0  0  0  0
  6  8  1  0  0  0  0
  8  9  1  0  0  0  0
  9 10  1  0  0  0  0
  9 19  1  0  0  0  0
  9 20  1  0  0  0  0
 10 21  1  0  0  0  0
 10 22  1  0  0  0  0
 10 23  1  0  0  0  0
 11 12  2  0  0  0  0
M  END
$$$$
