
 OpenBabel07132314063D

 31 31  0  0  0  0  0  0  0  0999 V2000
    1.1594   -0.6771    1.4802 C   0  0  0  0  0  0  0  0  0  0  0  0
    2.3787   -0.1815    0.8162 C   0  0  0  0  0  0  0  0  0  0  0  0
    3.5331    0.3439    1.3544 C   0  0  0  0  0  0  0  0  0  0  0  0
    4.2867    0.6552    0.2644 N   0  0  0  0  0  0  0  0  0  0  0  0
    5.5821    1.3026    0.2187 C   0  0  0  0  0  0  0  0  0  0  0  0
    5.4227    2.8166    0.0186 C   0  0  0  0  0  0  0  0  0  0  0  0
    6.6810    3.5952   -0.0895 N   0  0  0  0  0  0  0  0  0  0  0  0
    7.5644    3.1289   -1.1728 C   0  0  0  0  0  0  0  0  0  0  0  0
    7.0449    3.3014   -2.5976 C   0  0  0  0  0  0  0  0  0  0  0  0
    6.3447    5.0312   -0.1837 C   0  0  0  0  0  0  0  0  0  0  0  0
    7.5467    5.9695   -0.2186 C   0  0  0  0  0  0  0  0  0  0  0  0
    3.6595    0.3266   -0.8779 N   0  0  0  0  0  0  0  0  0  0  0  0
    2.4822   -0.1864   -0.5500 N   0  0  0  0  0  0  0  0  0  0  0  0
    1.2428   -0.6075    2.5688 H   0  0  0  0  0  0  0  0  0  0  0  0
    0.9780   -1.7234    1.2161 H   0  0  0  0  0  0  0  0  0  0  0  0
    0.2921   -0.0872    1.1672 H   0  0  0  0  0  0  0  0  0  0  0  0
    3.8553    0.5271    2.3683 H   0  0  0  0  0  0  0  0  0  0  0  0
    6.1339    0.8270   -0.5975 H   0  0  0  0  0  0  0  0  0  0  0  0
    6.1027    1.0821    1.1585 H   0  0  0  0  0  0  0  0  0  0  0  0
    4.8651    3.1954    0.8868 H   0  0  0  0  0  0  0  0  0  0  0  0
    4.7804    3.0065   -0.8503 H   0  0  0  0  0  0  0  0  0  0  0  0
    7.8118    2.0742   -1.0112 H   0  0  0  0  0  0  0  0  0  0  0  0
    8.5365    3.6302   -1.0899 H   0  0  0  0  0  0  0  0  0  0  0  0
    6.0107    2.9646   -2.7092 H   0  0  0  0  0  0  0  0  0  0  0  0
    7.6555    2.7100   -3.2883 H   0  0  0  0  0  0  0  0  0  0  0  0
    7.1008    4.3474   -2.9144 H   0  0  0  0  0  0  0  0  0  0  0  0
    5.7545    5.3069    0.7002 H   0  0  0  0  0  0  0  0  0  0  0  0
    5.7116    5.2294   -1.0574 H   0  0  0  0  0  0  0  0  0  0  0  0
    8.2130    5.7914    0.6310 H   0  0  0  0  0  0  0  0  0  0  0  0
    7.2043    7.0089   -0.1653 H   0  0  0  0  0  0  0  0  0  0  0  0
    8.1221    5.8662   -1.1433 H   0  0  0  0  0  0  0  0  0  0  0  0
  1  2  1  0  0  0  0
  1 14  1  0  0  0  0
  1 15  1  0  0  0  0
  1 16  1  0  0  0  0
  2  3  2  0  0  0  0
  2 13  1  0  0  0  0
  3  4  1  0  0  0  0
  3 17  1  0  0  0  0
  4  5  1  0  0  0  0
  4 12  1  0  0  0  0
  5  6  1  0  0  0  0
  5 18  1  0  0  0  0
  5 19  1  0  0  0  0
  6  7  1  0  0  0  0
  6 20  1  0  0  0  0
  6 21  1  0  0  0  0
  7  8  1  0  0  0  0
  7 10  1  0  0  0  0
  8  9  1  0  0  0  0
  8 22  1  0  0  0  0
  8 23  1  0  0  0  0
  9 24  1  0  0  0  0
  9 25  1  0  0  0  0
  9 26  1  0  0  0  0
 10 11  1  0  0  0  0
 10 27  1  0  0  0  0
 10 28  1  0  0  0  0
 11 29  1  0  0  0  0
 11 30  1  0  0  0  0
 11 31  1  0  0  0  0
 12 13  2  0  0  0  0
M  END
$$$$
