
 OpenBabel07132314063D

 29 30  0  0  0  0  0  0  0  0999 V2000
    1.5731   -1.2314    0.5339 C   0  0  0  0  0  0  0  0  0  0  0  0
    2.7193   -0.4547    0.0262 C   0  0  0  0  0  0  0  0  0  0  0  0
    3.7564    0.1425    0.7078 C   0  0  0  0  0  0  0  0  0  0  0  0
    4.5216    0.6880   -0.2771 N   0  0  0  0  0  0  0  0  0  0  0  0
    5.7848    1.3815   -0.1490 C   0  0  0  0  0  0  0  0  0  0  0  0
    5.5983    2.9008   -0.0667 C   0  0  0  0  0  0  0  0  0  0  0  0
    6.8724    3.6328    0.0401 N   0  0  0  0  0  0  0  0  0  0  0  0
    7.7220    3.4865   -1.1459 C   0  0  0  0  0  0  0  0  0  0  0  0
    8.7179    4.6164   -0.9775 C   0  0  0  0  0  0  0  0  0  0  0  0
    7.8865    5.7494   -0.4040 C   0  0  0  0  0  0  0  0  0  0  0  0
    6.6583    5.0783    0.2045 C   0  0  0  0  0  0  0  0  0  0  0  0
    3.9909    0.4655   -1.4916 N   0  0  0  0  0  0  0  0  0  0  0  0
    2.8831   -0.2404   -1.3167 N   0  0  0  0  0  0  0  0  0  0  0  0
    1.5887   -1.2967    1.6259 H   0  0  0  0  0  0  0  0  0  0  0  0
    1.5964   -2.2486    0.1329 H   0  0  0  0  0  0  0  0  0  0  0  0
    0.6317   -0.7638    0.2328 H   0  0  0  0  0  0  0  0  0  0  0  0
    4.0066    0.2102    1.7559 H   0  0  0  0  0  0  0  0  0  0  0  0
    6.3908    1.0944   -1.0159 H   0  0  0  0  0  0  0  0  0  0  0  0
    6.2833    1.0001    0.7486 H   0  0  0  0  0  0  0  0  0  0  0  0
    4.9935    3.1231    0.8229 H   0  0  0  0  0  0  0  0  0  0  0  0
    5.0210    3.2541   -0.9309 H   0  0  0  0  0  0  0  0  0  0  0  0
    7.1520    3.6175   -2.0743 H   0  0  0  0  0  0  0  0  0  0  0  0
    8.2322    2.5191   -1.1727 H   0  0  0  0  0  0  0  0  0  0  0  0
    9.1998    4.8909   -1.9210 H   0  0  0  0  0  0  0  0  0  0  0  0
    9.5025    4.3319   -0.2654 H   0  0  0  0  0  0  0  0  0  0  0  0
    7.5813    6.4356   -1.2026 H   0  0  0  0  0  0  0  0  0  0  0  0
    8.4562    6.3226    0.3345 H   0  0  0  0  0  0  0  0  0  0  0  0
    5.7605    5.4301   -0.3183 H   0  0  0  0  0  0  0  0  0  0  0  0
    6.5546    5.3325    1.2647 H   0  0  0  0  0  0  0  0  0  0  0  0
  1  2  1  0  0  0  0
  1 14  1  0  0  0  0
  1 15  1  0  0  0  0
  1 16  1  0  0  0  0
  2  3  2  0  0  0  0
  2 13  1  0  0  0  0
  3  4  1  0  0  0  0
  3 17  1  0  0  0  0
  4  5  1  0  0  0  0
  4 12  1  0  0  0  0
  5  6  1  0  0  0  0
  5 18  1  0  0  0  0
  5 19  1  0  0  0  0
  6  7  1  0  0  0  0
  6 20  1  0  0  0  0
  6 21  1  0  0  0  0
  7  8  1  0  0  0  0
  7 11  1  0  0  0  0
  8  9  1  0  0  0  0
  8 22  1  0  0  0  0
  8 23  1  0  0  0  0
  9 10  1  0  0  0  0
  9 24  1  0  0  0  0
  9 25  1  0  0  0  0
 10 11  1  0  0  0  0
 10 26  1  0  0  0  0
 10 27  1  0  0  0  0
 11 28  1  0  0  0  0
 11 29  1  0  0  0  0
 12 13  2  0  0  0  0
M  END
$$$$
