
 OpenBabel07132314063D

 28 29  0  0  0  0  0  0  0  0999 V2000
    2.6462   -0.3956   -3.3636 C   0  0  0  0  0  0  0  0  0  0  0  0
    3.7720    0.0880   -2.5426 C   0  0  0  0  0  0  0  0  0  0  0  0
    3.7650    0.8654   -1.4071 C   0  0  0  0  0  0  0  0  0  0  0  0
    5.0846    1.0180   -1.1009 N   0  0  0  0  0  0  0  0  0  0  0  0
    5.6750    1.6736    0.0425 C   0  0  0  0  0  0  0  0  0  0  0  0
    5.3438    3.1467    0.0917 C   0  0  0  0  0  0  0  0  0  0  0  0
    4.1903    3.5546    0.2139 O   0  0  0  0  0  0  0  0  0  0  0  0
    6.4323    3.9950    0.0484 N   0  0  0  0  0  0  0  0  0  0  0  0
    6.2714    5.4338    0.1025 C   0  0  0  0  0  0  0  0  0  0  0  0
    6.0992    5.9725   -1.2812 C   0  0  0  0  0  0  0  0  0  0  0  0
    4.9271    6.1021   -2.0025 C   0  0  0  0  0  0  0  0  0  0  0  0
    5.1346    6.7075   -3.2750 C   0  0  0  0  0  0  0  0  0  0  0  0
    6.4614    7.0090   -3.4892 C   0  0  0  0  0  0  0  0  0  0  0  0
    7.4458    6.5578   -2.1651 S   0  0  0  0  0  0  0  0  0  0  0  0
    5.8643    0.3438   -1.9657 N   0  0  0  0  0  0  0  0  0  0  0  0
    5.0679   -0.2226   -2.8628 N   0  0  0  0  0  0  0  0  0  0  0  0
    1.6872   -0.0485   -2.9660 H   0  0  0  0  0  0  0  0  0  0  0  0
    2.6301   -1.4894   -3.3844 H   0  0  0  0  0  0  0  0  0  0  0  0
    2.7400   -0.0314   -4.3911 H   0  0  0  0  0  0  0  0  0  0  0  0
    2.9714    1.3155   -0.8278 H   0  0  0  0  0  0  0  0  0  0  0  0
    6.7589    1.5112    0.0179 H   0  0  0  0  0  0  0  0  0  0  0  0
    5.2827    1.1917    0.9444 H   0  0  0  0  0  0  0  0  0  0  0  0
    7.3413    3.6426   -0.2171 H   0  0  0  0  0  0  0  0  0  0  0  0
    7.1620    5.8447    0.5903 H   0  0  0  0  0  0  0  0  0  0  0  0
    5.4046    5.6892    0.7222 H   0  0  0  0  0  0  0  0  0  0  0  0
    3.9614    5.7836   -1.6264 H   0  0  0  0  0  0  0  0  0  0  0  0
    4.3512    6.9131   -3.9940 H   0  0  0  0  0  0  0  0  0  0  0  0
    6.9007    7.4732   -4.3616 H   0  0  0  0  0  0  0  0  0  0  0  0
  1  2  1  0  0  0  0
  1 17  1  0  0  0  0
  1 18  1  0  0  0  0
  1 19  1  0  0  0  0
  2  3  2  0  0  0  0
  2 16  1  0  0  0  0
  3  4  1  0  0  0  0
  3 20  1  0  0  0  0
  4  5  1  0  0  0  0
  4 15  1  0  0  0  0
  5  6  1  0  0  0  0
  5 21  1  0  0  0  0
  5 22  1  0  0  0  0
  6  7  2  0  0  0  0
  6  8  1  0  0  0  0
  8  9  1  0  0  0  0
  8 23  1  0  0  0  0
  9 10  1  0  0  0  0
  9 24  1  0  0  0  0
  9 25  1  0  0  0  0
 10 11  2  0  0  0  0
 10 14  1  0  0  0  0
 11 12  1  0  0  0  0
 11 26  1  0  0  0  0
 12 13  2  0  0  0  0
 12 27  1  0  0  0  0
 13 14  1  0  0  0  0
 13 28  1  0  0  0  0
 15 16  2  0  0  0  0
M  END
$$$$
