
 OpenBabel07132314063D

 23 23  0  0  1  0  0  0  0  0999 V2000
    0.8640   -0.2259   -0.0785 C   0  0  0  0  0  0  0  0  0  0  0  0
    2.3277   -0.0479   -0.0506 C   0  0  0  0  0  0  0  0  0  0  0  0
    3.0749    1.1080   -0.0917 C   0  0  0  0  0  0  0  0  0  0  0  0
    4.3647    0.6718   -0.0898 N   0  0  0  0  0  0  0  0  0  0  0  0
    5.6183    1.4039   -0.1685 C   0  0  1  0  0  0  0  0  0  0  0  0
    6.1307    1.1348    0.7680 H   0  0  0  0  0  0  0  0  0  0  0  0
    6.5405    0.9550   -1.3107 C   0  0  0  0  0  0  0  0  0  0  0  0
    5.8963    1.1252   -2.6581 C   0  0  0  0  0  0  0  0  0  0  0  0
    4.8352    1.7098   -2.8345 O   0  0  0  0  0  0  0  0  0  0  0  0
    6.6359    0.6435   -3.6746 O   0  0  0  0  0  0  0  0  0  0  0  0
    5.4731    2.9091   -0.1053 C   0  0  0  0  0  0  0  0  0  0  0  0
    5.9891    3.5697    0.7892 O   0  0  0  0  0  0  0  0  0  0  0  0
    4.7878    3.5100   -1.1003 O   0  0  0  0  0  0  0  0  0  0  0  0
    4.4161   -0.6723    0.0011 N   0  0  0  0  0  0  0  0  0  0  0  0
    3.1706   -1.1232    0.0168 N   0  0  0  0  0  0  0  0  0  0  0  0
    0.3492    0.7375   -0.1479 H   0  0  0  0  0  0  0  0  0  0  0  0
    0.5219   -0.7324    0.8287 H   0  0  0  0  0  0  0  0  0  0  0  0
    0.5724   -0.8294   -0.9437 H   0  0  0  0  0  0  0  0  0  0  0  0
    2.7847    2.1476   -0.1409 H   0  0  0  0  0  0  0  0  0  0  0  0
    6.7959   -0.1047   -1.1899 H   0  0  0  0  0  0  0  0  0  0  0  0
    7.4661    1.5416   -1.3001 H   0  0  0  0  0  0  0  0  0  0  0  0
    7.4738    0.2128   -3.4136 H   0  0  0  0  0  0  0  0  0  0  0  0
    4.4663    2.9263   -1.8352 H   0  0  0  0  0  0  0  0  0  0  0  0
  1  2  1  0  0  0  0
  1 16  1  0  0  0  0
  1 17  1  0  0  0  0
  1 18  1  0  0  0  0
  2  3  2  0  0  0  0
  2 15  1  0  0  0  0
  3  4  1  0  0  0  0
  3 19  1  0  0  0  0
  4  5  1  0  0  0  0
  4 14  1  0  0  0  0
  5  6  1  1  0  0  0
  5  7  1  0  0  0  0
  5 11  1  0  0  0  0
  7  8  1  0  0  0  0
  7 20  1  0  0  0  0
  7 21  1  0  0  0  0
  8  9  2  0  0  0  0
  8 10  1  0  0  0  0
 10 22  1  0  0  0  0
 11 12  2  0  0  0  0
 11 13  1  0  0  0  0
 13 23  1  0  0  0  0
 14 15  2  0  0  0  0
M  END
$$$$
