
 OpenBabel07132314063D

 30 31  0  0  0  0  0  0  0  0999 V2000
    0.9302   -0.0434    0.0978 C   0  0  0  0  0  0  0  0  0  0  0  0
    2.3971    0.1095    0.0962 C   0  0  0  0  0  0  0  0  0  0  0  0
    3.1604    1.2528    0.1192 C   0  0  0  0  0  0  0  0  0  0  0  0
    4.4631    0.8126    0.0530 N   0  0  0  0  0  0  0  0  0  0  0  0
    5.6550    1.5779   -0.0256 C   0  0  0  0  0  0  0  0  0  0  0  0
    5.6016    2.9779   -0.0404 C   0  0  0  0  0  0  0  0  0  0  0  0
    6.7810    3.7299   -0.1507 C   0  0  0  0  0  0  0  0  0  0  0  0
    6.7734    5.2160   -0.1100 C   0  0  0  0  0  0  0  0  0  0  0  0
    7.7834    5.9000   -0.1204 O   0  0  0  0  0  0  0  0  0  0  0  0
    5.5020    5.6639    0.0398 O   0  0  0  0  0  0  0  0  0  0  0  0
    5.3727    7.0149    0.5008 C   0  0  0  0  0  0  0  0  0  0  0  0
    5.4039    6.9986    2.0175 C   0  0  0  0  0  0  0  0  0  0  0  0
    8.0154    3.0756   -0.2417 C   0  0  0  0  0  0  0  0  0  0  0  0
    8.0720    1.6816   -0.2144 C   0  0  0  0  0  0  0  0  0  0  0  0
    6.8980    0.9327   -0.1054 C   0  0  0  0  0  0  0  0  0  0  0  0
    4.4757   -0.5421    0.0388 N   0  0  0  0  0  0  0  0  0  0  0  0
    3.2224   -0.9765    0.0564 N   0  0  0  0  0  0  0  0  0  0  0  0
    0.4307    0.9300    0.1419 H   0  0  0  0  0  0  0  0  0  0  0  0
    0.6068   -0.6329    0.9605 H   0  0  0  0  0  0  0  0  0  0  0  0
    0.6009   -0.5519   -0.8136 H   0  0  0  0  0  0  0  0  0  0  0  0
    2.8838    2.2940    0.1548 H   0  0  0  0  0  0  0  0  0  0  0  0
    4.6537    3.5001    0.0407 H   0  0  0  0  0  0  0  0  0  0  0  0
    4.4066    7.3916    0.1479 H   0  0  0  0  0  0  0  0  0  0  0  0
    6.1503    7.6659    0.0837 H   0  0  0  0  0  0  0  0  0  0  0  0
    4.6018    6.3597    2.4056 H   0  0  0  0  0  0  0  0  0  0  0  0
    5.2839    8.0052    2.4214 H   0  0  0  0  0  0  0  0  0  0  0  0
    6.3460    6.5742    2.3826 H   0  0  0  0  0  0  0  0  0  0  0  0
    8.9374    3.6487   -0.3188 H   0  0  0  0  0  0  0  0  0  0  0  0
    9.0346    1.1767   -0.2751 H   0  0  0  0  0  0  0  0  0  0  0  0
    6.9718   -0.1541   -0.0872 H   0  0  0  0  0  0  0  0  0  0  0  0
  1  2  1  0  0  0  0
  1 18  1  0  0  0  0
  1 19  1  0  0  0  0
  1 20  1  0  0  0  0
  2  3  2  0  0  0  0
  2 17  1  0  0  0  0
  3  4  1  0  0  0  0
  3 21  1  0  0  0  0
  4  5  1  0  0  0  0
  4 16  1  0  0  0  0
  5  6  2  0  0  0  0
  5 15  1  0  0  0  0
  6  7  1  0  0  0  0
  6 22  1  0  0  0  0
  7  8  1  0  0  0  0
  7 13  2  0  0  0  0
  8  9  2  0  0  0  0
  8 10  1  0  0  0  0
 10 11  1  0  0  0  0
 11 12  1  0  0  0  0
 11 23  1  0  0  0  0
 11 24  1  0  0  0  0
 12 25  1  0  0  0  0
 12 26  1  0  0  0  0
 12 27  1  0  0  0  0
 13 14  1  0  0  0  0
 13 28  1  0  0  0  0
 14 15  2  0  0  0  0
 14 29  1  0  0  0  0
 15 30  1  0  0  0  0
 16 17  2  0  0  0  0
M  END
$$$$
