
 OpenBabel07132314063D

 21 22  0  0  0  0  0  0  0  0999 V2000
    2.3290   -2.1873    0.1961 C   0  0  0  0  0  0  0  0  0  0  0  0
    3.1155   -0.9407    0.1388 C   0  0  0  0  0  0  0  0  0  0  0  0
    4.4736   -0.7632    0.0078 C   0  0  0  0  0  0  0  0  0  0  0  0
    4.6585    0.6002    0.0242 N   0  0  0  0  0  0  0  0  0  0  0  0
    5.8694    1.3339   -0.0683 C   0  0  0  0  0  0  0  0  0  0  0  0
    5.8364    2.7372   -0.0292 C   0  0  0  0  0  0  0  0  0  0  0  0
    7.0216    3.4714   -0.1227 C   0  0  0  0  0  0  0  0  0  0  0  0
    8.2431    2.8125   -0.2559 C   0  0  0  0  0  0  0  0  0  0  0  0
    8.2760    1.4204   -0.2924 C   0  0  0  0  0  0  0  0  0  0  0  0
    9.7844    0.6070   -0.4556 Cl  0  0  0  0  0  0  0  0  0  0  0  0
    7.0994    0.6750   -0.1989 C   0  0  0  0  0  0  0  0  0  0  0  0
    3.4550    1.2115    0.1504 N   0  0  0  0  0  0  0  0  0  0  0  0
    2.5128    0.2808    0.2221 N   0  0  0  0  0  0  0  0  0  0  0  0
    2.9764   -3.0671    0.1216 H   0  0  0  0  0  0  0  0  0  0  0  0
    1.6085   -2.2242   -0.6264 H   0  0  0  0  0  0  0  0  0  0  0  0
    1.7806   -2.2485    1.1410 H   0  0  0  0  0  0  0  0  0  0  0  0
    5.2799   -1.4719   -0.0868 H   0  0  0  0  0  0  0  0  0  0  0  0
    4.8958    3.2773    0.0738 H   0  0  0  0  0  0  0  0  0  0  0  0
    6.9904    4.5583   -0.0920 H   0  0  0  0  0  0  0  0  0  0  0  0
    9.1622    3.3879   -0.3298 H   0  0  0  0  0  0  0  0  0  0  0  0
    7.1719   -0.4073   -0.2302 H   0  0  0  0  0  0  0  0  0  0  0  0
  1  2  1  0  0  0  0
  1 14  1  0  0  0  0
  1 15  1  0  0  0  0
  1 16  1  0  0  0  0
  2  3  2  0  0  0  0
  2 13  1  0  0  0  0
  3  4  1  0  0  0  0
  3 17  1  0  0  0  0
  4  5  1  0  0  0  0
  4 12  1  0  0  0  0
  5  6  2  0  0  0  0
  5 11  1  0  0  0  0
  6  7  1  0  0  0  0
  6 18  1  0  0  0  0
  7  8  2  0  0  0  0
  7 19  1  0  0  0  0
  8  9  1  0  0  0  0
  8 20  1  0  0  0  0
  9 10  1  0  0  0  0
  9 11  2  0  0  0  0
 11 21  1  0  0  0  0
 12 13  2  0  0  0  0
M  END
$$$$
