
 OpenBabel07132314063D

 32 35  0  0  0  0  0  0  0  0999 V2000
    1.1253   -0.5157    0.6709 C   0  0  0  0  0  0  0  0  0  0  0  0
    2.4685   -0.1236    0.2030 C   0  0  0  0  0  0  0  0  0  0  0  0
    3.4002    0.7173    0.7712 C   0  0  0  0  0  0  0  0  0  0  0  0
    4.4640    0.6650   -0.0855 N   0  0  0  0  0  0  0  0  0  0  0  0
    5.7856    1.2596    0.0302 C   0  0  0  0  0  0  0  0  0  0  0  0
    6.5009    0.8427    1.3087 C   0  0  0  0  0  0  0  0  0  0  0  0
    6.8060   -0.4355    1.7530 C   0  0  0  0  0  0  0  0  0  0  0  0
    7.4989   -0.5624    2.9576 C   0  0  0  0  0  0  0  0  0  0  0  0
    7.8799    0.5737    3.6909 C   0  0  0  0  0  0  0  0  0  0  0  0
    7.5751    1.8599    3.2340 C   0  0  0  0  0  0  0  0  0  0  0  0
    6.8855    1.9888    2.0401 C   0  0  0  0  0  0  0  0  0  0  0  0
    6.4465    3.1716    1.3280 C   0  0  0  0  0  0  0  0  0  0  0  0
    6.6206    4.5130    1.6256 C   0  0  0  0  0  0  0  0  0  0  0  0
    6.1138    5.4628    0.7342 C   0  0  0  0  0  0  0  0  0  0  0  0
    5.4407    5.0681   -0.4344 C   0  0  0  0  0  0  0  0  0  0  0  0
    5.2627    3.7156   -0.7371 C   0  0  0  0  0  0  0  0  0  0  0  0
    5.7676    2.7774    0.1513 C   0  0  0  0  0  0  0  0  0  0  0  0
    4.1943   -0.1434   -1.1332 N   0  0  0  0  0  0  0  0  0  0  0  0
    2.9753   -0.6333   -0.9616 N   0  0  0  0  0  0  0  0  0  0  0  0
    0.8137    0.0744    1.5378 H   0  0  0  0  0  0  0  0  0  0  0  0
    1.1168   -1.5730    0.9563 H   0  0  0  0  0  0  0  0  0  0  0  0
    0.3861   -0.3713   -0.1238 H   0  0  0  0  0  0  0  0  0  0  0  0
    3.4079    1.3019    1.6795 H   0  0  0  0  0  0  0  0  0  0  0  0
    6.3901    0.9703   -0.8379 H   0  0  0  0  0  0  0  0  0  0  0  0
    6.5159   -1.3149    1.1849 H   0  0  0  0  0  0  0  0  0  0  0  0
    7.7507   -1.5523    3.3326 H   0  0  0  0  0  0  0  0  0  0  0  0
    8.4229    0.4500    4.6255 H   0  0  0  0  0  0  0  0  0  0  0  0
    7.8802    2.7290    3.8068 H   0  0  0  0  0  0  0  0  0  0  0  0
    7.1502    4.8303    2.5181 H   0  0  0  0  0  0  0  0  0  0  0  0
    6.2516    6.5221    0.9414 H   0  0  0  0  0  0  0  0  0  0  0  0
    5.0646    5.8276   -1.1169 H   0  0  0  0  0  0  0  0  0  0  0  0
    4.7558    3.4161   -1.6500 H   0  0  0  0  0  0  0  0  0  0  0  0
  1  2  1  0  0  0  0
  1 20  1  0  0  0  0
  1 21  1  0  0  0  0
  1 22  1  0  0  0  0
  2  3  2  0  0  0  0
  2 19  1  0  0  0  0
  3  4  1  0  0  0  0
  3 23  1  0  0  0  0
  4  5  1  0  0  0  0
  4 18  1  0  0  0  0
  5  6  1  0  0  0  0
  5 17  1  0  0  0  0
  5 24  1  0  0  0  0
  6  7  2  0  0  0  0
  6 11  1  0  0  0  0
  7  8  1  0  0  0  0
  7 25  1  0  0  0  0
  8  9  2  0  0  0  0
  8 26  1  0  0  0  0
  9 10  1  0  0  0  0
  9 27  1  0  0  0  0
 10 11  2  0  0  0  0
 10 28  1  0  0  0  0
 11 12  1  0  0  0  0
 12 13  2  0  0  0  0
 12 17  1  0  0  0  0
 13 14  1  0  0  0  0
 13 29  1  0  0  0  0
 14 15  2  0  0  0  0
 14 30  1  0  0  0  0
 15 16  1  0  0  0  0
 15 31  1  0  0  0  0
 16 17  2  0  0  0  0
 16 32  1  0  0  0  0
 18 19  2  0  0  0  0
M  END
$$$$
