
 OpenBabel07132314063D

 26 27  0  0  0  0  0  0  0  0999 V2000
    2.3875   -2.2604    0.2170 C   0  0  0  0  0  0  0  0  0  0  0  0
    3.1407   -0.9947    0.1453 C   0  0  0  0  0  0  0  0  0  0  0  0
    4.4957   -0.7789    0.0365 C   0  0  0  0  0  0  0  0  0  0  0  0
    4.6377    0.5895    0.0234 N   0  0  0  0  0  0  0  0  0  0  0  0
    5.8239    1.3622   -0.0718 C   0  0  0  0  0  0  0  0  0  0  0  0
    5.7357    2.7616   -0.0902 C   0  0  0  0  0  0  0  0  0  0  0  0
    6.9008    3.5256   -0.2193 C   0  0  0  0  0  0  0  0  0  0  0  0
    6.7659    5.2863   -0.2993 S   0  0  0  0  0  0  0  0  0  0  0  0
    5.9801    5.7433    0.8215 O   0  0  0  0  0  0  0  0  0  0  0  0
    8.0545    5.8483   -0.6305 O   0  0  0  0  0  0  0  0  0  0  0  0
    5.8205    5.5018   -1.6697 N   0  0  0  0  0  0  0  0  0  0  0  0
    8.1536    2.9154   -0.3039 C   0  0  0  0  0  0  0  0  0  0  0  0
    8.2407    1.5244   -0.2702 C   0  0  0  0  0  0  0  0  0  0  0  0
    7.0826    0.7474   -0.1590 C   0  0  0  0  0  0  0  0  0  0  0  0
    3.4138    1.1661    0.1069 N   0  0  0  0  0  0  0  0  0  0  0  0
    2.4995    0.2095    0.1847 N   0  0  0  0  0  0  0  0  0  0  0  0
    3.0579   -3.1242    0.1662 H   0  0  0  0  0  0  0  0  0  0  0  0
    1.6771   -2.3307   -0.6123 H   0  0  0  0  0  0  0  0  0  0  0  0
    1.8294   -2.3173    1.1565 H   0  0  0  0  0  0  0  0  0  0  0  0
    5.3258   -1.4627   -0.0280 H   0  0  0  0  0  0  0  0  0  0  0  0
    4.7733    3.2665   -0.0163 H   0  0  0  0  0  0  0  0  0  0  0  0
    4.9379    5.9484   -1.4189 H   0  0  0  0  0  0  0  0  0  0  0  0
    6.3504    6.0000   -2.3847 H   0  0  0  0  0  0  0  0  0  0  0  0
    9.0595    3.5104   -0.3998 H   0  0  0  0  0  0  0  0  0  0  0  0
    9.2138    1.0421   -0.3379 H   0  0  0  0  0  0  0  0  0  0  0  0
    7.1994   -0.3323   -0.1457 H   0  0  0  0  0  0  0  0  0  0  0  0
  1  2  1  0  0  0  0
  1 17  1  0  0  0  0
  1 18  1  0  0  0  0
  1 19  1  0  0  0  0
  2  3  2  0  0  0  0
  2 16  1  0  0  0  0
  3  4  1  0  0  0  0
  3 20  1  0  0  0  0
  4  5  1  0  0  0  0
  4 15  1  0  0  0  0
  5  6  2  0  0  0  0
  5 14  1  0  0  0  0
  6  7  1  0  0  0  0
  6 21  1  0  0  0  0
  7  8  1  0  0  0  0
  7 12  2  0  0  0  0
  8  9  2  0  0  0  0
  8 10  2  0  0  0  0
  8 11  1  0  0  0  0
 11 22  1  0  0  0  0
 11 23  1  0  0  0  0
 12 13  1  0  0  0  0
 12 24  1  0  0  0  0
 13 14  2  0  0  0  0
 13 25  1  0  0  0  0
 14 26  1  0  0  0  0
 15 16  2  0  0  0  0
M  END
$$$$
