
 OpenBabel07132314063D

 23 23  0  0  0  0  0  0  0  0999 V2000
    1.6290   -1.0114   -1.0605 C   0  0  0  0  0  0  0  0  0  0  0  0
    2.7567   -0.3158   -0.4133 C   0  0  0  0  0  0  0  0  0  0  0  0
    3.8390    0.3228   -0.9754 C   0  0  0  0  0  0  0  0  0  0  0  0
    4.5393    0.7843    0.0980 N   0  0  0  0  0  0  0  0  0  0  0  0
    5.7764    1.5337    0.0960 C   0  0  0  0  0  0  0  0  0  0  0  0
    5.5273    3.0383    0.1158 C   0  0  0  0  0  0  0  0  0  0  0  0
    4.8604    3.4963   -1.0777 O   0  0  0  0  0  0  0  0  0  0  0  0
    5.6325    3.5915   -2.1917 C   0  0  0  0  0  0  0  0  0  0  0  0
    6.8226    3.3147   -2.2440 O   0  0  0  0  0  0  0  0  0  0  0  0
    4.8231    4.0514   -3.3660 C   0  0  0  0  0  0  0  0  0  0  0  0
    3.9448    0.4495    1.2543 N   0  0  0  0  0  0  0  0  0  0  0  0
    2.8447   -0.2276    0.9519 N   0  0  0  0  0  0  0  0  0  0  0  0
    1.7075   -0.9645   -2.1514 H   0  0  0  0  0  0  0  0  0  0  0  0
    0.6795   -0.5527   -0.7681 H   0  0  0  0  0  0  0  0  0  0  0  0
    1.6101   -2.0647   -0.7652 H   0  0  0  0  0  0  0  0  0  0  0  0
    4.1487    0.4860   -1.9964 H   0  0  0  0  0  0  0  0  0  0  0  0
    6.3357    1.2223   -0.7918 H   0  0  0  0  0  0  0  0  0  0  0  0
    6.3477    1.2285    0.9800 H   0  0  0  0  0  0  0  0  0  0  0  0
    6.4705    3.5837    0.2409 H   0  0  0  0  0  0  0  0  0  0  0  0
    4.8871    3.3132    0.9615 H   0  0  0  0  0  0  0  0  0  0  0  0
    3.7735    4.1862   -3.0880 H   0  0  0  0  0  0  0  0  0  0  0  0
    4.8730    3.2940   -4.1530 H   0  0  0  0  0  0  0  0  0  0  0  0
    5.2144    5.0055   -3.7252 H   0  0  0  0  0  0  0  0  0  0  0  0
  1  2  1  0  0  0  0
  1 13  1  0  0  0  0
  1 14  1  0  0  0  0
  1 15  1  0  0  0  0
  2  3  2  0  0  0  0
  2 12  1  0  0  0  0
  3  4  1  0  0  0  0
  3 16  1  0  0  0  0
  4  5  1  0  0  0  0
  4 11  1  0  0  0  0
  5  6  1  0  0  0  0
  5 17  1  0  0  0  0
  5 18  1  0  0  0  0
  6  7  1  0  0  0  0
  6 19  1  0  0  0  0
  6 20  1  0  0  0  0
  7  8  1  0  0  0  0
  8  9  2  0  0  0  0
  8 10  1  0  0  0  0
 10 21  1  0  0  0  0
 10 22  1  0  0  0  0
 10 23  1  0  0  0  0
 11 12  2  0  0  0  0
M  END
$$$$
