
 OpenBabel07132314063D

 18 18  0  0  0  0  0  0  0  0999 V2000
    0.9582   -0.1440    0.0816 C   0  0  0  0  0  0  0  0  0  0  0  0
    2.4260    0.0004    0.0941 C   0  0  0  0  0  0  0  0  0  0  0  0
    3.2023    1.1374    0.0804 C   0  0  0  0  0  0  0  0  0  0  0  0
    4.4789    0.6631    0.1096 N   0  0  0  0  0  0  0  0  0  0  0  0
    5.7106    1.4205    0.1019 C   0  0  0  0  0  0  0  0  0  0  0  0
    6.5897    1.0997   -1.1002 C   0  0  0  0  0  0  0  0  0  0  0  0
    5.9600    1.4905   -2.3192 O   0  0  0  0  0  0  0  0  0  0  0  0
    4.5019   -0.6796    0.1399 N   0  0  0  0  0  0  0  0  0  0  0  0
    3.2438   -1.0989    0.1244 N   0  0  0  0  0  0  0  0  0  0  0  0
    0.4630    0.8321    0.0774 H   0  0  0  0  0  0  0  0  0  0  0  0
    0.6221   -0.6922    0.9670 H   0  0  0  0  0  0  0  0  0  0  0  0
    0.6363   -0.6937   -0.8081 H   0  0  0  0  0  0  0  0  0  0  0  0
    2.9637    2.1902    0.0532 H   0  0  0  0  0  0  0  0  0  0  0  0
    6.2327    1.1922    1.0372 H   0  0  0  0  0  0  0  0  0  0  0  0
    5.4406    2.4821    0.1021 H   0  0  0  0  0  0  0  0  0  0  0  0
    6.8477    0.0371   -1.1598 H   0  0  0  0  0  0  0  0  0  0  0  0
    7.5237    1.6648   -1.0249 H   0  0  0  0  0  0  0  0  0  0  0  0
    5.3149    0.7914   -2.5414 H   0  0  0  0  0  0  0  0  0  0  0  0
  1  2  1  0  0  0  0
  1 10  1  0  0  0  0
  1 11  1  0  0  0  0
  1 12  1  0  0  0  0
  2  3  2  0  0  0  0
  2  9  1  0  0  0  0
  3  4  1  0  0  0  0
  3 13  1  0  0  0  0
  4  5  1  0  0  0  0
  4  8  1  0  0  0  0
  5  6  1  0  0  0  0
  5 14  1  0  0  0  0
  5 15  1  0  0  0  0
  6  7  1  0  0  0  0
  6 16  1  0  0  0  0
  6 17  1  0  0  0  0
  7 18  1  0  0  0  0
  8  9  2  0  0  0  0
M  END
$$$$
