
 OpenBabel07132314063D

 27 29  0  0  0  0  0  0  0  0999 V2000
    3.8085    0.2475    4.4875 C   0  0  0  0  0  0  0  0  0  0  0  0
    4.5126    0.3113    3.1932 C   0  0  0  0  0  0  0  0  0  0  0  0
    4.7985    1.4003    2.4015 C   0  0  0  0  0  0  0  0  0  0  0  0
    5.3389    0.8585    1.2707 N   0  0  0  0  0  0  0  0  0  0  0  0
    5.6672    1.4746   -0.0080 C   0  0  0  0  0  0  0  0  0  0  0  0
    5.3484    2.9504   -0.0696 C   0  0  0  0  0  0  0  0  0  0  0  0
    6.3518    3.9060    0.2142 C   0  0  0  0  0  0  0  0  0  0  0  0
    6.0537    5.2713    0.2532 C   0  0  0  0  0  0  0  0  0  0  0  0
    4.7482    5.6505    0.0213 C   0  0  0  0  0  0  0  0  0  0  0  0
    3.7710    4.7309   -0.2680 C   0  0  0  0  0  0  0  0  0  0  0  0
    4.0363    3.3794   -0.3364 C   0  0  0  0  0  0  0  0  0  0  0  0
    2.5510    5.3080   -0.4422 O   0  0  0  0  0  0  0  0  0  0  0  0
    2.8601    6.6833   -0.1320 C   0  0  0  0  0  0  0  0  0  0  0  0
    4.2695    6.9220    0.0699 O   0  0  0  0  0  0  0  0  0  0  0  0
    5.4836   -0.4751    1.4034 N   0  0  0  0  0  0  0  0  0  0  0  0
    4.9675   -0.8217    2.5750 N   0  0  0  0  0  0  0  0  0  0  0  0
    3.1681    1.1248    4.6275 H   0  0  0  0  0  0  0  0  0  0  0  0
    4.5207    0.2032    5.3158 H   0  0  0  0  0  0  0  0  0  0  0  0
    3.1695   -0.6404    4.5305 H   0  0  0  0  0  0  0  0  0  0  0  0
    4.6131    2.4567    2.5275 H   0  0  0  0  0  0  0  0  0  0  0  0
    5.0986    0.9373   -0.7762 H   0  0  0  0  0  0  0  0  0  0  0  0
    6.7327    1.2944   -0.1913 H   0  0  0  0  0  0  0  0  0  0  0  0
    7.3710    3.5863    0.4246 H   0  0  0  0  0  0  0  0  0  0  0  0
    6.8146    6.0091    0.4799 H   0  0  0  0  0  0  0  0  0  0  0  0
    3.2382    2.6768   -0.5563 H   0  0  0  0  0  0  0  0  0  0  0  0
    2.3243    6.9595    0.7849 H   0  0  0  0  0  0  0  0  0  0  0  0
    2.5067    7.3195   -0.9505 H   0  0  0  0  0  0  0  0  0  0  0  0
  1  2  1  0  0  0  0
  1 17  1  0  0  0  0
  1 18  1  0  0  0  0
  1 19  1  0  0  0  0
  2  3  2  0  0  0  0
  2 16  1  0  0  0  0
  3  4  1  0  0  0  0
  3 20  1  0  0  0  0
  4  5  1  0  0  0  0
  4 15  1  0  0  0  0
  5  6  1  0  0  0  0
  5 21  1  0  0  0  0
  5 22  1  0  0  0  0
  6  7  2  0  0  0  0
  6 11  1  0  0  0  0
  7  8  1  0  0  0  0
  7 23  1  0  0  0  0
  8  9  2  0  0  0  0
  8 24  1  0  0  0  0
  9 10  1  0  0  0  0
  9 14  1  0  0  0  0
 10 11  2  0  0  0  0
 10 12  1  0  0  0  0
 11 25  1  0  0  0  0
 12 13  1  0  0  0  0
 13 14  1  0  0  0  0
 13 26  1  0  0  0  0
 13 27  1  0  0  0  0
 15 16  2  0  0  0  0
M  END
$$$$
