
 OpenBabel07132314063D

 30 31  0  0  0  0  0  0  0  0999 V2000
    3.1524   -1.9539    2.7404 C   0  0  0  0  0  0  0  0  0  0  0  0
    3.5404   -0.7669    1.9561 C   0  0  0  0  0  0  0  0  0  0  0  0
    4.5752   -0.5908    1.0648 C   0  0  0  0  0  0  0  0  0  0  0  0
    4.5191    0.7408    0.7494 N   0  0  0  0  0  0  0  0  0  0  0  0
    5.5061    1.4785   -0.0325 C   0  0  0  0  0  0  0  0  0  0  0  0
    5.3091    2.9738   -0.0927 C   0  0  0  0  0  0  0  0  0  0  0  0
    4.2299    3.5545   -0.7830 C   0  0  0  0  0  0  0  0  0  0  0  0
    3.3810    2.6751   -1.4972 O   0  0  0  0  0  0  0  0  0  0  0  0
    2.0121    2.9047   -1.6421 C   0  0  0  0  0  0  0  0  0  0  0  0
    1.3785    3.8763   -1.2507 O   0  0  0  0  0  0  0  0  0  0  0  0
    1.4130    1.7867   -2.4438 C   0  0  0  0  0  0  0  0  0  0  0  0
    4.0627    4.9393   -0.8234 C   0  0  0  0  0  0  0  0  0  0  0  0
    4.9690    5.7642   -0.1568 C   0  0  0  0  0  0  0  0  0  0  0  0
    6.0520    5.2094    0.5210 C   0  0  0  0  0  0  0  0  0  0  0  0
    6.2208    3.8243    0.5556 C   0  0  0  0  0  0  0  0  0  0  0  0
    3.4580    1.3229    1.3362 N   0  0  0  0  0  0  0  0  0  0  0  0
    2.8526    0.4088    2.0799 N   0  0  0  0  0  0  0  0  0  0  0  0
    3.9795   -2.6677    2.8093 H   0  0  0  0  0  0  0  0  0  0  0  0
    2.2951   -2.4564    2.2839 H   0  0  0  0  0  0  0  0  0  0  0  0
    2.8784   -1.6611    3.7599 H   0  0  0  0  0  0  0  0  0  0  0  0
    5.3425   -1.2504    0.6884 H   0  0  0  0  0  0  0  0  0  0  0  0
    5.5133    1.0512   -1.0412 H   0  0  0  0  0  0  0  0  0  0  0  0
    6.4750    1.2459    0.4275 H   0  0  0  0  0  0  0  0  0  0  0  0
    2.0500    0.8979   -2.4090 H   0  0  0  0  0  0  0  0  0  0  0  0
    1.2965    2.1071   -3.4816 H   0  0  0  0  0  0  0  0  0  0  0  0
    0.4423    1.5177   -2.0195 H   0  0  0  0  0  0  0  0  0  0  0  0
    3.2352    5.3951   -1.3581 H   0  0  0  0  0  0  0  0  0  0  0  0
    4.8294    6.8422   -0.1719 H   0  0  0  0  0  0  0  0  0  0  0  0
    6.7592    5.8570    1.0327 H   0  0  0  0  0  0  0  0  0  0  0  0
    7.0720    3.4165    1.0960 H   0  0  0  0  0  0  0  0  0  0  0  0
  1  2  1  0  0  0  0
  1 18  1  0  0  0  0
  1 19  1  0  0  0  0
  1 20  1  0  0  0  0
  2  3  2  0  0  0  0
  2 17  1  0  0  0  0
  3  4  1  0  0  0  0
  3 21  1  0  0  0  0
  4  5  1  0  0  0  0
  4 16  1  0  0  0  0
  5  6  1  0  0  0  0
  5 22  1  0  0  0  0
  5 23  1  0  0  0  0
  6  7  2  0  0  0  0
  6 15  1  0  0  0  0
  7  8  1  0  0  0  0
  7 12  1  0  0  0  0
  8  9  1  0  0  0  0
  9 10  2  0  0  0  0
  9 11  1  0  0  0  0
 11 24  1  0  0  0  0
 11 25  1  0  0  0  0
 11 26  1  0  0  0  0
 12 13  2  0  0  0  0
 12 27  1  0  0  0  0
 13 14  1  0  0  0  0
 13 28  1  0  0  0  0
 14 15  2  0  0  0  0
 14 29  1  0  0  0  0
 15 30  1  0  0  0  0
 16 17  2  0  0  0  0
M  END
$$$$
