
 OpenBabel07132314063D

 23 23  0  0  0  0  0  0  0  0999 V2000
    0.9874   -0.2169    0.5696 C   0  0  0  0  0  0  0  0  0  0  0  0
    2.4049    0.0363    0.2486 C   0  0  0  0  0  0  0  0  0  0  0  0
    3.2129    1.1070    0.5624 C   0  0  0  0  0  0  0  0  0  0  0  0
    4.4209    0.7913    0.0049 N   0  0  0  0  0  0  0  0  0  0  0  0
    5.6776    1.5422    0.0246 C   0  0  0  0  0  0  0  0  0  0  0  0
    6.4608    1.1598    1.2947 C   0  0  0  0  0  0  0  0  0  0  0  0
    6.5597    1.2331   -1.2040 C   0  0  0  0  0  0  0  0  0  0  0  0
    5.3985    3.0474    0.0264 C   0  0  0  0  0  0  0  0  0  0  0  0
    5.7605    3.8139    0.9109 O   0  0  0  0  0  0  0  0  0  0  0  0
    4.7045    3.5093   -1.0420 O   0  0  0  0  0  0  0  0  0  0  0  0
    4.3588   -0.4051   -0.6105 N   0  0  0  0  0  0  0  0  0  0  0  0
    3.1290   -0.8734   -0.4697 N   0  0  0  0  0  0  0  0  0  0  0  0
    0.5481    0.6159    1.1272 H   0  0  0  0  0  0  0  0  0  0  0  0
    0.8904   -1.1235    1.1752 H   0  0  0  0  0  0  0  0  0  0  0  0
    0.4093   -0.3552   -0.3495 H   0  0  0  0  0  0  0  0  0  0  0  0
    3.0299    2.0195    1.1134 H   0  0  0  0  0  0  0  0  0  0  0  0
    6.6894    0.0879    1.3159 H   0  0  0  0  0  0  0  0  0  0  0  0
    5.8908    1.3919    2.2023 H   0  0  0  0  0  0  0  0  0  0  0  0
    7.4096    1.7058    1.3563 H   0  0  0  0  0  0  0  0  0  0  0  0
    6.8833    0.1856   -1.2162 H   0  0  0  0  0  0  0  0  0  0  0  0
    7.4598    1.8580   -1.2134 H   0  0  0  0  0  0  0  0  0  0  0  0
    6.0251    1.4165   -2.1435 H   0  0  0  0  0  0  0  0  0  0  0  0
    4.4213    2.8422   -1.6985 H   0  0  0  0  0  0  0  0  0  0  0  0
  1  2  1  0  0  0  0
  1 13  1  0  0  0  0
  1 14  1  0  0  0  0
  1 15  1  0  0  0  0
  2  3  2  0  0  0  0
  2 12  1  0  0  0  0
  3  4  1  0  0  0  0
  3 16  1  0  0  0  0
  4  5  1  0  0  0  0
  4 11  1  0  0  0  0
  5  6  1  0  0  0  0
  5  7  1  0  0  0  0
  5  8  1  0  0  0  0
  6 17  1  0  0  0  0
  6 18  1  0  0  0  0
  6 19  1  0  0  0  0
  7 20  1  0  0  0  0
  7 21  1  0  0  0  0
  7 22  1  0  0  0  0
  8  9  2  0  0  0  0
  8 10  1  0  0  0  0
 10 23  1  0  0  0  0
 11 12  2  0  0  0  0
M  END
$$$$
