
 OpenBabel07132314063D

 25 26  0  0  0  0  0  0  0  0999 V2000
    1.2929   -0.5648    1.5146 C   0  0  0  0  0  0  0  0  0  0  0  0
    2.5005   -0.1022    0.8061 C   0  0  0  0  0  0  0  0  0  0  0  0
    3.6508    0.4687    1.3036 C   0  0  0  0  0  0  0  0  0  0  0  0
    4.3589    0.7980    0.1856 N   0  0  0  0  0  0  0  0  0  0  0  0
    5.6006    1.5409    0.1022 C   0  0  0  0  0  0  0  0  0  0  0  0
    5.3450    3.0209   -0.0689 C   0  0  0  0  0  0  0  0  0  0  0  0
    5.2777    3.8733    1.0432 C   0  0  0  0  0  0  0  0  0  0  0  0
    5.0453    5.2424    0.8753 C   0  0  0  0  0  0  0  0  0  0  0  0
    4.8715    5.7760   -0.4055 C   0  0  0  0  0  0  0  0  0  0  0  0
    4.6547    7.1841   -0.5769 C   0  0  0  0  0  0  0  0  0  0  0  0
    4.4892    8.3244   -0.7111 N   0  0  0  0  0  0  0  0  0  0  0  0
    4.9131    4.9297   -1.5166 C   0  0  0  0  0  0  0  0  0  0  0  0
    5.1437    3.5610   -1.3486 C   0  0  0  0  0  0  0  0  0  0  0  0
    3.7479    0.3556   -0.9281 N   0  0  0  0  0  0  0  0  0  0  0  0
    2.5936   -0.1829   -0.5588 N   0  0  0  0  0  0  0  0  0  0  0  0
    1.2311   -0.1222    2.5140 H   0  0  0  0  0  0  0  0  0  0  0  0
    1.2972   -1.6534    1.6173 H   0  0  0  0  0  0  0  0  0  0  0  0
    0.3936   -0.2717    0.9634 H   0  0  0  0  0  0  0  0  0  0  0  0
    3.9829    0.7025    2.3036 H   0  0  0  0  0  0  0  0  0  0  0  0
    6.1844    1.1418   -0.7354 H   0  0  0  0  0  0  0  0  0  0  0  0
    6.1726    1.3459    1.0171 H   0  0  0  0  0  0  0  0  0  0  0  0
    5.4049    3.4810    2.0505 H   0  0  0  0  0  0  0  0  0  0  0  0
    5.0023    5.8888    1.7505 H   0  0  0  0  0  0  0  0  0  0  0  0
    4.7650    5.3262   -2.5198 H   0  0  0  0  0  0  0  0  0  0  0  0
    5.1569    2.9146   -2.2262 H   0  0  0  0  0  0  0  0  0  0  0  0
  1  2  1  0  0  0  0
  1 16  1  0  0  0  0
  1 17  1  0  0  0  0
  1 18  1  0  0  0  0
  2  3  2  0  0  0  0
  2 15  1  0  0  0  0
  3  4  1  0  0  0  0
  3 19  1  0  0  0  0
  4  5  1  0  0  0  0
  4 14  1  0  0  0  0
  5  6  1  0  0  0  0
  5 20  1  0  0  0  0
  5 21  1  0  0  0  0
  6  7  2  0  0  0  0
  6 13  1  0  0  0  0
  7  8  1  0  0  0  0
  7 22  1  0  0  0  0
  8  9  2  0  0  0  0
  8 23  1  0  0  0  0
  9 10  1  0  0  0  0
  9 12  1  0  0  0  0
 10 11  3  0  0  0  0
 12 13  2  0  0  0  0
 12 24  1  0  0  0  0
 13 25  1  0  0  0  0
 14 15  2  0  0  0  0
M  END
$$$$
