
 OpenBabel07132314063D

 33 34  0  0  1  0  0  0  0  0999 V2000
    5.0461    0.3138    4.7462 C   0  0  0  0  0  0  0  0  0  0  0  0
    5.4837    0.4639    3.3461 C   0  0  0  0  0  0  0  0  0  0  0  0
    5.0320    1.3239    2.3705 C   0  0  0  0  0  0  0  0  0  0  0  0
    5.8097    1.0364    1.2879 N   0  0  0  0  0  0  0  0  0  0  0  0
    5.7715    1.6001   -0.0471 C   0  0  1  0  0  0  0  0  0  0  0  0
    6.7776    1.4962   -0.4768 H   0  0  0  0  0  0  0  0  0  0  0  0
    4.7915    0.8444   -0.9444 C   0  0  0  0  0  0  0  0  0  0  0  0
    5.4202    3.0705   -0.0105 C   0  0  0  0  0  0  0  0  0  0  0  0
    4.2730    3.5027   -0.0367 O   0  0  0  0  0  0  0  0  0  0  0  0
    6.5392    3.8412    0.0511 O   0  0  0  0  0  0  0  0  0  0  0  0
    6.3290    5.2621    0.0480 C   0  0  0  0  0  0  0  0  0  0  0  0
    6.8249    5.8579    1.3399 C   0  0  0  0  0  0  0  0  0  0  0  0
    8.1905    5.8323    1.6564 C   0  0  0  0  0  0  0  0  0  0  0  0
    8.6546    6.4092    2.8399 C   0  0  0  0  0  0  0  0  0  0  0  0
    7.7594    7.0146    3.7197 C   0  0  0  0  0  0  0  0  0  0  0  0
    6.3991    7.0410    3.4189 C   0  0  0  0  0  0  0  0  0  0  0  0
    5.9325    6.4633    2.2362 C   0  0  0  0  0  0  0  0  0  0  0  0
    6.6662    0.0339    1.5615 N   0  0  0  0  0  0  0  0  0  0  0  0
    6.4790   -0.3194    2.8259 N   0  0  0  0  0  0  0  0  0  0  0  0
    4.2995    1.0697    5.0101 H   0  0  0  0  0  0  0  0  0  0  0  0
    5.8965    0.4253    5.4257 H   0  0  0  0  0  0  0  0  0  0  0  0
    4.6028   -0.6738    4.9045 H   0  0  0  0  0  0  0  0  0  0  0  0
    4.2620    2.0815    2.3673 H   0  0  0  0  0  0  0  0  0  0  0  0
    5.0554   -0.2161   -1.0163 H   0  0  0  0  0  0  0  0  0  0  0  0
    4.7884    1.2649   -1.9561 H   0  0  0  0  0  0  0  0  0  0  0  0
    3.7669    0.9042   -0.5588 H   0  0  0  0  0  0  0  0  0  0  0  0
    5.2851    5.5426   -0.1330 H   0  0  0  0  0  0  0  0  0  0  0  0
    6.9069    5.6792   -0.7843 H   0  0  0  0  0  0  0  0  0  0  0  0
    8.9011    5.3643    0.9785 H   0  0  0  0  0  0  0  0  0  0  0  0
    9.7157    6.3873    3.0750 H   0  0  0  0  0  0  0  0  0  0  0  0
    8.1221    7.4647    4.6402 H   0  0  0  0  0  0  0  0  0  0  0  0
    5.7011    7.5143    4.1050 H   0  0  0  0  0  0  0  0  0  0  0  0
    4.8670    6.4959    2.0173 H   0  0  0  0  0  0  0  0  0  0  0  0
  1  2  1  0  0  0  0
  1 20  1  0  0  0  0
  1 21  1  0  0  0  0
  1 22  1  0  0  0  0
  2  3  2  0  0  0  0
  2 19  1  0  0  0  0
  3  4  1  0  0  0  0
  3 23  1  0  0  0  0
  4  5  1  0  0  0  0
  4 18  1  0  0  0  0
  5  6  1  6  0  0  0
  5  7  1  0  0  0  0
  5  8  1  0  0  0  0
  7 24  1  0  0  0  0
  7 25  1  0  0  0  0
  7 26  1  0  0  0  0
  8  9  2  0  0  0  0
  8 10  1  0  0  0  0
 10 11  1  0  0  0  0
 11 12  1  0  0  0  0
 11 27  1  0  0  0  0
 11 28  1  0  0  0  0
 12 13  2  0  0  0  0
 12 17  1  0  0  0  0
 13 14  1  0  0  0  0
 13 29  1  0  0  0  0
 14 15  2  0  0  0  0
 14 30  1  0  0  0  0
 15 16  1  0  0  0  0
 15 31  1  0  0  0  0
 16 17  2  0  0  0  0
 16 32  1  0  0  0  0
 17 33  1  0  0  0  0
 18 19  2  0  0  0  0
M  END
$$$$
