
 OpenBabel07132314063D

 21 22  0  0  0  0  0  0  0  0999 V2000
    0.9936   -0.1697    0.0372 C   0  0  0  0  0  0  0  0  0  0  0  0
    2.4612   -0.0197    0.0243 C   0  0  0  0  0  0  0  0  0  0  0  0
    3.2301    1.1209    0.0671 C   0  0  0  0  0  0  0  0  0  0  0  0
    4.5300    0.6772   -0.0124 N   0  0  0  0  0  0  0  0  0  0  0  0
    5.7269    1.4381   -0.0691 C   0  0  0  0  0  0  0  0  0  0  0  0
    5.6918    2.8396   -0.0302 C   0  0  0  0  0  0  0  0  0  0  0  0
    6.8803    3.5722   -0.1259 C   0  0  0  0  0  0  0  0  0  0  0  0
    8.0994    2.9109   -0.2579 C   0  0  0  0  0  0  0  0  0  0  0  0
    9.5525    3.8204   -0.3973 Cl  0  0  0  0  0  0  0  0  0  0  0  0
    8.1462    1.5191   -0.2833 C   0  0  0  0  0  0  0  0  0  0  0  0
    6.9627    0.7806   -0.1870 C   0  0  0  0  0  0  0  0  0  0  0  0
    4.5363   -0.6774   -0.0638 N   0  0  0  0  0  0  0  0  0  0  0  0
    3.2819   -1.1075   -0.0491 N   0  0  0  0  0  0  0  0  0  0  0  0
    0.4964    0.8038    0.0950 H   0  0  0  0  0  0  0  0  0  0  0  0
    0.6768   -0.7665    0.8977 H   0  0  0  0  0  0  0  0  0  0  0  0
    0.6547   -0.6698   -0.8753 H   0  0  0  0  0  0  0  0  0  0  0  0
    2.9599    2.1623    0.1247 H   0  0  0  0  0  0  0  0  0  0  0  0
    4.7632    3.3940    0.0674 H   0  0  0  0  0  0  0  0  0  0  0  0
    6.8458    4.6591   -0.1045 H   0  0  0  0  0  0  0  0  0  0  0  0
    9.0967    1.0014   -0.3839 H   0  0  0  0  0  0  0  0  0  0  0  0
    7.0231   -0.3064   -0.2156 H   0  0  0  0  0  0  0  0  0  0  0  0
  1  2  1  0  0  0  0
  1 14  1  0  0  0  0
  1 15  1  0  0  0  0
  1 16  1  0  0  0  0
  2  3  2  0  0  0  0
  2 13  1  0  0  0  0
  3  4  1  0  0  0  0
  3 17  1  0  0  0  0
  4  5  1  0  0  0  0
  4 12  1  0  0  0  0
  5  6  2  0  0  0  0
  5 11  1  0  0  0  0
  6  7  1  0  0  0  0
  6 18  1  0  0  0  0
  7  8  2  0  0  0  0
  7 19  1  0  0  0  0
  8  9  1  0  0  0  0
  8 10  1  0  0  0  0
 10 11  2  0  0  0  0
 10 20  1  0  0  0  0
 11 21  1  0  0  0  0
 12 13  2  0  0  0  0
M  END
$$$$
