
 OpenBabel07132314063D

 20 20  0  0  1  0  0  0  0  0999 V2000
    0.9509   -0.2162   -0.0423 C   0  0  0  0  0  0  0  0  0  0  0  0
    2.4119   -0.0114   -0.0132 C   0  0  0  0  0  0  0  0  0  0  0  0
    3.1480    1.1473   -0.1240 C   0  0  0  0  0  0  0  0  0  0  0  0
    4.4424    0.7255   -0.0380 N   0  0  0  0  0  0  0  0  0  0  0  0
    5.6720    1.4936   -0.0864 C   0  0  1  0  0  0  0  0  0  0  0  0
    6.4423    0.9153    0.4415 H   0  0  0  0  0  0  0  0  0  0  0  0
    6.1341    1.6942   -1.5262 C   0  0  0  0  0  0  0  0  0  0  0  0
    5.5356    2.8053    0.6584 C   0  0  0  0  0  0  0  0  0  0  0  0
    5.6912    3.9082    0.1506 O   0  0  0  0  0  0  0  0  0  0  0  0
    5.2472    2.6735    1.9771 O   0  0  0  0  0  0  0  0  0  0  0  0
    4.5067   -0.6041    0.1471 N   0  0  0  0  0  0  0  0  0  0  0  0
    3.2663   -1.0694    0.1480 N   0  0  0  0  0  0  0  0  0  0  0  0
    0.4148    0.7379   -0.0511 H   0  0  0  0  0  0  0  0  0  0  0  0
    0.6274   -0.7799    0.8381 H   0  0  0  0  0  0  0  0  0  0  0  0
    0.6640   -0.7786   -0.9360 H   0  0  0  0  0  0  0  0  0  0  0  0
    2.8647    2.1830   -0.2508 H   0  0  0  0  0  0  0  0  0  0  0  0
    6.2845    0.7309   -2.0261 H   0  0  0  0  0  0  0  0  0  0  0  0
    7.0815    2.2434   -1.5595 H   0  0  0  0  0  0  0  0  0  0  0  0
    5.3998    2.2622   -2.1082 H   0  0  0  0  0  0  0  0  0  0  0  0
    5.1345    1.7557    2.2983 H   0  0  0  0  0  0  0  0  0  0  0  0
  1  2  1  0  0  0  0
  1 13  1  0  0  0  0
  1 14  1  0  0  0  0
  1 15  1  0  0  0  0
  2  3  2  0  0  0  0
  2 12  1  0  0  0  0
  3  4  1  0  0  0  0
  3 16  1  0  0  0  0
  4  5  1  0  0  0  0
  4 11  1  0  0  0  0
  5  6  1  1  0  0  0
  5  7  1  0  0  0  0
  5  8  1  0  0  0  0
  7 17  1  0  0  0  0
  7 18  1  0  0  0  0
  7 19  1  0  0  0  0
  8  9  2  0  0  0  0
  8 10  1  0  0  0  0
 10 20  1  0  0  0  0
 11 12  2  0  0  0  0
M  END
$$$$
