
 OpenBabel07132314063D

 45 49  0  0  0  0  0  0  0  0999 V2000
    1.6031   -0.5462    2.0494 C   0  0  0  0  0  0  0  0  0  0  0  0
    2.5729    0.1294    1.1652 C   0  0  0  0  0  0  0  0  0  0  0  0
    3.8937    0.4186    1.4015 C   0  0  0  0  0  0  0  0  0  0  0  0
    4.3357    1.0788    0.2757 N   0  0  0  0  0  0  0  0  0  0  0  0
    5.6093    1.6644    0.0480 C   0  0  0  0  0  0  0  0  0  0  0  0
    6.5660    1.6575    1.0691 C   0  0  0  0  0  0  0  0  0  0  0  0
    7.8060    2.3325    0.9575 C   0  0  0  0  0  0  0  0  0  0  0  0
    8.6691    2.3718    2.2043 C   0  0  0  0  0  0  0  0  0  0  0  0
    9.4307    3.3686    2.3760 O   0  0  0  0  0  0  0  0  0  0  0  0
    8.4982    1.4196    3.0324 O   0  5  0  0  0  0  0  0  0  0  0  0
    8.1180    2.9716   -0.2586 C   0  0  0  0  0  0  0  0  0  0  0  0
    9.3630    3.7700   -0.5086 C   0  0  0  0  0  0  0  0  0  0  0  0
    9.3651    5.2541   -0.3700 C   0  0  0  0  0  0  0  0  0  0  0  0
    8.3147    5.9516    0.2448 C   0  0  0  0  0  0  0  0  0  0  0  0
    8.2542    7.3476    0.2010 C   0  0  0  0  0  0  0  0  0  0  0  0
    9.2582    8.0541   -0.4529 C   0  0  0  0  0  0  0  0  0  0  0  0
    9.1862    9.4067   -0.6061 O   0  0  0  0  0  0  0  0  0  0  0  0
   10.3567    7.3913   -0.9765 C   0  0  0  0  0  0  0  0  0  0  0  0
   10.4094    5.9977   -0.9137 C   0  0  0  0  0  0  0  0  0  0  0  0
   11.5494    5.4116   -1.3960 O   0  0  0  0  0  0  0  0  0  0  0  0
   11.6900    4.0376   -1.2737 C   0  0  0  0  0  0  0  0  0  0  0  0
   12.8916    3.4980   -1.5141 C   0  0  0  0  0  0  0  0  0  0  0  0
   13.0675    2.0326   -1.5422 C   0  0  0  0  0  0  0  0  0  0  0  0
   14.1741    1.5278   -1.7142 O   0  0  0  0  0  0  0  0  0  0  0  0
   11.8481    1.1957   -1.4315 C   0  0  0  0  0  0  0  0  0  0  0  0
   10.6571    1.7547   -1.1735 C   0  0  0  0  0  0  0  0  0  0  0  0
   10.5170    3.2002   -0.9568 C   0  0  0  0  0  0  0  0  0  0  0  0
    7.1642    2.9318   -1.3056 C   0  0  0  0  0  0  0  0  0  0  0  0
    5.9170    2.3018   -1.1537 C   0  0  0  0  0  0  0  0  0  0  0  0
    3.3165    1.1419   -0.6230 N   0  0  0  0  0  0  0  0  0  0  0  0
    2.2383    0.5789   -0.0812 N   0  0  0  0  0  0  0  0  0  0  0  0
    2.0781   -0.8582    2.9865 H   0  0  0  0  0  0  0  0  0  0  0  0
    1.1960   -1.4391    1.5665 H   0  0  0  0  0  0  0  0  0  0  0  0
    0.7755    0.1239    2.3016 H   0  0  0  0  0  0  0  0  0  0  0  0
    4.5224    0.2256    2.2564 H   0  0  0  0  0  0  0  0  0  0  0  0
    6.3700    1.1688    2.0215 H   0  0  0  0  0  0  0  0  0  0  0  0
    7.5380    5.4065    0.7775 H   0  0  0  0  0  0  0  0  0  0  0  0
    7.4221    7.8520    0.6773 H   0  0  0  0  0  0  0  0  0  0  0  0
    8.2895    9.6831   -0.3565 H   0  0  0  0  0  0  0  0  0  0  0  0
   11.1653    7.9528   -1.4412 H   0  0  0  0  0  0  0  0  0  0  0  0
   13.7642    4.1005   -1.7266 H   0  0  0  0  0  0  0  0  0  0  0  0
   11.9773    0.1338   -1.5763 H   0  0  0  0  0  0  0  0  0  0  0  0
    9.7803    1.1204   -1.1101 H   0  0  0  0  0  0  0  0  0  0  0  0
    7.3843    3.4357   -2.2451 H   0  0  0  0  0  0  0  0  0  0  0  0
    5.2036    2.3379   -1.9737 H   0  0  0  0  0  0  0  0  0  0  0  0
  1  2  1  0  0  0  0
  1 32  1  0  0  0  0
  1 33  1  0  0  0  0
  1 34  1  0  0  0  0
  2  3  2  0  0  0  0
  2 31  1  0  0  0  0
  3  4  1  0  0  0  0
  3 35  1  0  0  0  0
  4  5  1  0  0  0  0
  4 30  1  0  0  0  0
  5  6  2  0  0  0  0
  5 29  1  0  0  0  0
  6  7  1  0  0  0  0
  6 36  1  0  0  0  0
  7  8  1  0  0  0  0
  7 11  2  0  0  0  0
  8  9  2  0  0  0  0
  8 10  1  0  0  0  0
 11 12  1  0  0  0  0
 11 28  1  0  0  0  0
 12 13  1  0  0  0  0
 12 27  2  0  0  0  0
 13 14  2  0  0  0  0
 13 19  1  0  0  0  0
 14 15  1  0  0  0  0
 14 37  1  0  0  0  0
 15 16  2  0  0  0  0
 15 38  1  0  0  0  0
 16 17  1  0  0  0  0
 16 18  1  0  0  0  0
 17 39  1  0  0  0  0
 18 19  2  0  0  0  0
 18 40  1  0  0  0  0
 19 20  1  0  0  0  0
 20 21  1  0  0  0  0
 21 22  2  0  0  0  0
 21 27  1  0  0  0  0
 22 23  1  0  0  0  0
 22 41  1  0  0  0  0
 23 24  2  0  0  0  0
 23 25  1  0  0  0  0
 25 26  2  0  0  0  0
 25 42  1  0  0  0  0
 26 27  1  0  0  0  0
 26 43  1  0  0  0  0
 28 29  2  0  0  0  0
 28 44  1  0  0  0  0
 29 45  1  0  0  0  0
 30 31  2  0  0  0  0
M  CHG  1  10  -1
M  END
$$$$
