
 OpenBabel07132314063D

 29 29  0  0  0  0  0  0  0  0999 V2000
    1.9453   -1.5560    0.9457 C   0  0  0  0  0  0  0  0  0  0  0  0
    2.9135   -0.5945    0.3852 C   0  0  0  0  0  0  0  0  0  0  0  0
    4.1199   -0.1548    0.8852 C   0  0  0  0  0  0  0  0  0  0  0  0
    4.5631    0.7226   -0.0577 N   0  0  0  0  0  0  0  0  0  0  0  0
    5.7855    1.4997   -0.0558 C   0  0  0  0  0  0  0  0  0  0  0  0
    5.5106    3.0017   -0.0381 C   0  0  0  0  0  0  0  0  0  0  0  0
    6.7941    3.8355   -0.0265 C   0  0  0  0  0  0  0  0  0  0  0  0
    6.4473    5.3263   -0.0313 C   0  0  0  0  0  0  0  0  0  0  0  0
    7.6829    6.2225   -0.0224 C   0  0  0  0  0  0  0  0  0  0  0  0
    7.2994    7.6858   -0.0186 C   0  0  0  0  0  0  0  0  0  0  0  0
    6.1575    8.1170   -0.0090 O   0  0  0  0  0  0  0  0  0  0  0  0
    8.3783    8.5020   -0.0215 O   0  0  0  0  0  0  0  0  0  0  0  0
    3.7051    0.8085   -1.0881 N   0  0  0  0  0  0  0  0  0  0  0  0
    2.6793    0.0133   -0.8198 N   0  0  0  0  0  0  0  0  0  0  0  0
    2.2983   -1.9688    1.8958 H   0  0  0  0  0  0  0  0  0  0  0  0
    1.7885   -2.3869    0.2505 H   0  0  0  0  0  0  0  0  0  0  0  0
    0.9813   -1.0685    1.1222 H   0  0  0  0  0  0  0  0  0  0  0  0
    4.6672   -0.3832    1.7865 H   0  0  0  0  0  0  0  0  0  0  0  0
    6.3507    1.2090   -0.9485 H   0  0  0  0  0  0  0  0  0  0  0  0
    6.3667    1.2045    0.8250 H   0  0  0  0  0  0  0  0  0  0  0  0
    4.9035    3.2509    0.8415 H   0  0  0  0  0  0  0  0  0  0  0  0
    4.9137    3.2772   -0.9168 H   0  0  0  0  0  0  0  0  0  0  0  0
    7.4042    3.5923   -0.9049 H   0  0  0  0  0  0  0  0  0  0  0  0
    7.3889    3.5925    0.8619 H   0  0  0  0  0  0  0  0  0  0  0  0
    5.8249    5.5565    0.8428 H   0  0  0  0  0  0  0  0  0  0  0  0
    5.8404    5.5551   -0.9165 H   0  0  0  0  0  0  0  0  0  0  0  0
    8.2902    6.0265   -0.9139 H   0  0  0  0  0  0  0  0  0  0  0  0
    8.2826    6.0211    0.8723 H   0  0  0  0  0  0  0  0  0  0  0  0
    9.2302    8.0288   -0.0300 H   0  0  0  0  0  0  0  0  0  0  0  0
  1  2  1  0  0  0  0
  1 15  1  0  0  0  0
  1 16  1  0  0  0  0
  1 17  1  0  0  0  0
  2  3  2  0  0  0  0
  2 14  1  0  0  0  0
  3  4  1  0  0  0  0
  3 18  1  0  0  0  0
  4  5  1  0  0  0  0
  4 13  1  0  0  0  0
  5  6  1  0  0  0  0
  5 19  1  0  0  0  0
  5 20  1  0  0  0  0
  6  7  1  0  0  0  0
  6 21  1  0  0  0  0
  6 22  1  0  0  0  0
  7  8  1  0  0  0  0
  7 23  1  0  0  0  0
  7 24  1  0  0  0  0
  8  9  1  0  0  0  0
  8 25  1  0  0  0  0
  8 26  1  0  0  0  0
  9 10  1  0  0  0  0
  9 27  1  0  0  0  0
  9 28  1  0  0  0  0
 10 11  2  0  0  0  0
 10 12  1  0  0  0  0
 12 29  1  0  0  0  0
 13 14  2  0  0  0  0
M  END
$$$$
