
 OpenBabel07132314063D

 20 20  0  0  0  0  0  0  0  0999 V2000
    1.0446   -0.0029    0.0463 C   0  0  0  0  0  0  0  0  0  0  0  0
    2.5123    0.1418    0.0447 C   0  0  0  0  0  0  0  0  0  0  0  0
    3.2917    1.2779    0.0523 C   0  0  0  0  0  0  0  0  0  0  0  0
    4.5656    0.7987    0.0631 N   0  0  0  0  0  0  0  0  0  0  0  0
    5.8036    1.5459    0.0781 C   0  0  0  0  0  0  0  0  0  0  0  0
    6.6614    1.2520   -1.1454 C   0  0  0  0  0  0  0  0  0  0  0  0
    7.9226    2.0656   -1.1007 C   0  0  0  0  0  0  0  0  0  0  0  0
    8.2004    2.8742   -0.2297 O   0  0  0  0  0  0  0  0  0  0  0  0
    8.7367    1.8227   -2.1519 O   0  0  0  0  0  0  0  0  0  0  0  0
    4.5861   -0.5440    0.0529 N   0  0  0  0  0  0  0  0  0  0  0  0
    3.3272   -0.9598    0.0384 N   0  0  0  0  0  0  0  0  0  0  0  0
    0.5483    0.9725    0.0469 H   0  0  0  0  0  0  0  0  0  0  0  0
    0.7176   -0.5524    0.9344 H   0  0  0  0  0  0  0  0  0  0  0  0
    0.7151   -0.5531   -0.8403 H   0  0  0  0  0  0  0  0  0  0  0  0
    3.0538    2.3311    0.0604 H   0  0  0  0  0  0  0  0  0  0  0  0
    6.3250    1.2841    1.0064 H   0  0  0  0  0  0  0  0  0  0  0  0
    5.5491    2.6112    0.1298 H   0  0  0  0  0  0  0  0  0  0  0  0
    6.1140    1.5033   -2.0607 H   0  0  0  0  0  0  0  0  0  0  0  0
    6.9359    0.1917   -1.1761 H   0  0  0  0  0  0  0  0  0  0  0  0
    8.4017    1.1472   -2.7731 H   0  0  0  0  0  0  0  0  0  0  0  0
  1  2  1  0  0  0  0
  1 12  1  0  0  0  0
  1 13  1  0  0  0  0
  1 14  1  0  0  0  0
  2  3  2  0  0  0  0
  2 11  1  0  0  0  0
  3  4  1  0  0  0  0
  3 15  1  0  0  0  0
  4  5  1  0  0  0  0
  4 10  1  0  0  0  0
  5  6  1  0  0  0  0
  5 16  1  0  0  0  0
  5 17  1  0  0  0  0
  6  7  1  0  0  0  0
  6 18  1  0  0  0  0
  6 19  1  0  0  0  0
  7  8  2  0  0  0  0
  7  9  1  0  0  0  0
  9 20  1  0  0  0  0
 10 11  2  0  0  0  0
M  END
$$$$
