
 OpenBabel07132314063D

 44 44  0  0  0  0  0  0  0  0999 V2000
    1.6608   -1.0511   -1.2243 C   0  0  0  0  0  0  0  0  0  0  0  0
    2.7953   -0.3816   -0.5621 C   0  0  0  0  0  0  0  0  0  0  0  0
    3.8882    0.2541   -1.1077 C   0  0  0  0  0  0  0  0  0  0  0  0
    4.5916    0.6798   -0.0223 N   0  0  0  0  0  0  0  0  0  0  0  0
    5.8175    1.4481   -0.0032 C   0  0  0  0  0  0  0  0  0  0  0  0
    5.5306    2.9453   -0.0052 C   0  0  0  0  0  0  0  0  0  0  0  0
    6.8138    3.7733    0.0057 C   0  0  0  0  0  0  0  0  0  0  0  0
    6.4793    5.2647    0.0016 C   0  0  0  0  0  0  0  0  0  0  0  0
    7.7372    6.1283    0.0125 C   0  0  0  0  0  0  0  0  0  0  0  0
    7.3752    7.6142    0.0109 C   0  0  0  0  0  0  0  0  0  0  0  0
    8.6309    8.4814    0.0216 C   0  0  0  0  0  0  0  0  0  0  0  0
    8.2877    9.9711    0.0203 C   0  0  0  0  0  0  0  0  0  0  0  0
    9.5628   10.8128    0.0313 C   0  0  0  0  0  0  0  0  0  0  0  0
    9.2581   12.3084    0.0307 C   0  0  0  0  0  0  0  0  0  0  0  0
   10.5265   13.1310    0.0389 C   0  0  0  0  0  0  0  0  0  0  0  0
   11.6623   12.6825    0.0444 O   0  0  0  0  0  0  0  0  0  0  0  0
   10.2780   14.4605    0.0397 O   0  0  0  0  0  0  0  0  0  0  0  0
    3.9833    0.3377    1.1245 N   0  0  0  0  0  0  0  0  0  0  0  0
    2.8760   -0.3186    0.8046 N   0  0  0  0  0  0  0  0  0  0  0  0
    1.7500   -0.9992   -2.3139 H   0  0  0  0  0  0  0  0  0  0  0  0
    0.7173   -0.5773   -0.9366 H   0  0  0  0  0  0  0  0  0  0  0  0
    1.6205   -2.1056   -0.9350 H   0  0  0  0  0  0  0  0  0  0  0  0
    4.2020    0.4374   -2.1241 H   0  0  0  0  0  0  0  0  0  0  0  0
    6.4007    1.1584   -0.8846 H   0  0  0  0  0  0  0  0  0  0  0  0
    6.3839    1.1522    0.8872 H   0  0  0  0  0  0  0  0  0  0  0  0
    4.9189    3.2051    0.8681 H   0  0  0  0  0  0  0  0  0  0  0  0
    4.9360    3.2050   -0.8905 H   0  0  0  0  0  0  0  0  0  0  0  0
    7.4235    3.5266   -0.8720 H   0  0  0  0  0  0  0  0  0  0  0  0
    7.4079    3.5274    0.8942 H   0  0  0  0  0  0  0  0  0  0  0  0
    5.8646    5.5036    0.8782 H   0  0  0  0  0  0  0  0  0  0  0  0
    5.8807    5.5027   -0.8862 H   0  0  0  0  0  0  0  0  0  0  0  0
    8.3524    5.8968   -0.8655 H   0  0  0  0  0  0  0  0  0  0  0  0
    8.3380    5.8954    0.9001 H   0  0  0  0  0  0  0  0  0  0  0  0
    6.7595    7.8448    0.8889 H   0  0  0  0  0  0  0  0  0  0  0  0
    6.7733    7.8463   -0.8763 H   0  0  0  0  0  0  0  0  0  0  0  0
    9.2451    8.2462   -0.8563 H   0  0  0  0  0  0  0  0  0  0  0  0
    9.2312    8.2446    0.9085 H   0  0  0  0  0  0  0  0  0  0  0  0
    7.6762   10.2114    0.8985 H   0  0  0  0  0  0  0  0  0  0  0  0
    7.6904   10.2131   -0.8672 H   0  0  0  0  0  0  0  0  0  0  0  0
   10.1749   10.5618   -0.8443 H   0  0  0  0  0  0  0  0  0  0  0  0
   10.1612   10.5599    0.9157 H   0  0  0  0  0  0  0  0  0  0  0  0
    8.6734   12.5679    0.9200 H   0  0  0  0  0  0  0  0  0  0  0  0
    8.6850   12.5694   -0.8658 H   0  0  0  0  0  0  0  0  0  0  0  0
    9.3278   14.6817    0.0356 H   0  0  0  0  0  0  0  0  0  0  0  0
  1  2  1  0  0  0  0
  1 20  1  0  0  0  0
  1 21  1  0  0  0  0
  1 22  1  0  0  0  0
  2  3  2  0  0  0  0
  2 19  1  0  0  0  0
  3  4  1  0  0  0  0
  3 23  1  0  0  0  0
  4  5  1  0  0  0  0
  4 18  1  0  0  0  0
  5  6  1  0  0  0  0
  5 24  1  0  0  0  0
  5 25  1  0  0  0  0
  6  7  1  0  0  0  0
  6 26  1  0  0  0  0
  6 27  1  0  0  0  0
  7  8  1  0  0  0  0
  7 28  1  0  0  0  0
  7 29  1  0  0  0  0
  8  9  1  0  0  0  0
  8 30  1  0  0  0  0
  8 31  1  0  0  0  0
  9 10  1  0  0  0  0
  9 32  1  0  0  0  0
  9 33  1  0  0  0  0
 10 11  1  0  0  0  0
 10 34  1  0  0  0  0
 10 35  1  0  0  0  0
 11 12  1  0  0  0  0
 11 36  1  0  0  0  0
 11 37  1  0  0  0  0
 12 13  1  0  0  0  0
 12 38  1  0  0  0  0
 12 39  1  0  0  0  0
 13 14  1  0  0  0  0
 13 40  1  0  0  0  0
 13 41  1  0  0  0  0
 14 15  1  0  0  0  0
 14 42  1  0  0  0  0
 14 43  1  0  0  0  0
 15 16  2  0  0  0  0
 15 17  1  0  0  0  0
 17 44  1  0  0  0  0
 18 19  2  0  0  0  0
M  END
$$$$
