
 OpenBabel07132314063D

 27 27  0  0  0  0  0  0  0  0999 V2000
    1.6691   -1.1375   -1.1165 C   0  0  0  0  0  0  0  0  0  0  0  0
    2.8037   -0.4619   -0.4597 C   0  0  0  0  0  0  0  0  0  0  0  0
    3.8921    0.1769   -1.0100 C   0  0  0  0  0  0  0  0  0  0  0  0
    4.5948    0.6145    0.0719 N   0  0  0  0  0  0  0  0  0  0  0  0
    5.8186    1.3871    0.0873 C   0  0  0  0  0  0  0  0  0  0  0  0
    5.5334    2.8860    0.0898 C   0  0  0  0  0  0  0  0  0  0  0  0
    6.8184    3.7155    0.0968 C   0  0  0  0  0  0  0  0  0  0  0  0
    6.4911    5.2111    0.0930 C   0  0  0  0  0  0  0  0  0  0  0  0
    7.7301    6.0575    0.0845 C   0  0  0  0  0  0  0  0  0  0  0  0
    8.0203    6.9453   -0.8754 C   0  0  0  0  0  0  0  0  0  0  0  0
    3.9924    0.2699    1.2213 N   0  0  0  0  0  0  0  0  0  0  0  0
    2.8881   -0.3947    0.9066 N   0  0  0  0  0  0  0  0  0  0  0  0
    1.7527   -1.0862   -2.2066 H   0  0  0  0  0  0  0  0  0  0  0  0
    0.7245   -0.6677   -0.8252 H   0  0  0  0  0  0  0  0  0  0  0  0
    1.6341   -2.1919   -0.8262 H   0  0  0  0  0  0  0  0  0  0  0  0
    4.2033    0.3574   -2.0279 H   0  0  0  0  0  0  0  0  0  0  0  0
    6.3988    1.0988   -0.7966 H   0  0  0  0  0  0  0  0  0  0  0  0
    6.3890    1.0893    0.9749 H   0  0  0  0  0  0  0  0  0  0  0  0
    4.9254    3.1444    0.9659 H   0  0  0  0  0  0  0  0  0  0  0  0
    4.9351    3.1466   -0.7925 H   0  0  0  0  0  0  0  0  0  0  0  0
    7.4256    3.4630   -0.7816 H   0  0  0  0  0  0  0  0  0  0  0  0
    7.4143    3.4649    0.9835 H   0  0  0  0  0  0  0  0  0  0  0  0
    5.9077    5.4625    0.9867 H   0  0  0  0  0  0  0  0  0  0  0  0
    5.8606    5.4452   -0.7738 H   0  0  0  0  0  0  0  0  0  0  0  0
    8.4094    5.9525    0.9283 H   0  0  0  0  0  0  0  0  0  0  0  0
    7.3673    7.0992   -1.7291 H   0  0  0  0  0  0  0  0  0  0  0  0
    8.9211    7.5491   -0.8210 H   0  0  0  0  0  0  0  0  0  0  0  0
  1  2  1  0  0  0  0
  1 13  1  0  0  0  0
  1 14  1  0  0  0  0
  1 15  1  0  0  0  0
  2  3  2  0  0  0  0
  2 12  1  0  0  0  0
  3  4  1  0  0  0  0
  3 16  1  0  0  0  0
  4  5  1  0  0  0  0
  4 11  1  0  0  0  0
  5  6  1  0  0  0  0
  5 17  1  0  0  0  0
  5 18  1  0  0  0  0
  6  7  1  0  0  0  0
  6 19  1  0  0  0  0
  6 20  1  0  0  0  0
  7  8  1  0  0  0  0
  7 21  1  0  0  0  0
  7 22  1  0  0  0  0
  8  9  1  0  0  0  0
  8 23  1  0  0  0  0
  8 24  1  0  0  0  0
  9 10  2  0  0  0  0
  9 25  1  0  0  0  0
 10 26  1  0  0  0  0
 10 27  1  0  0  0  0
 11 12  2  0  0  0  0
M  END
$$$$
