
 OpenBabel07132314063D

 38 38  0  0  0  0  0  0  0  0999 V2000
    0.2017    0.0853    0.0356 C   0  0  0  0  0  0  0  0  0  0  0  0
    1.5899    0.5040    0.3037 C   0  0  0  0  0  0  0  0  0  0  0  0
    2.0999    1.7650    0.5187 C   0  0  0  0  0  0  0  0  0  0  0  0
    3.4282    1.5395    0.7103 N   0  0  0  0  0  0  0  0  0  0  0  0
    4.4516    2.5237    0.9984 C   0  0  0  0  0  0  0  0  0  0  0  0
    5.4737    2.6612   -0.1228 C   0  0  0  0  0  0  0  0  0  0  0  0
    6.6022    3.6787    0.0905 C   0  0  0  0  0  0  0  0  0  0  0  0
    6.2273    5.1978    0.1054 N   0  3  0  0  0  0  0  0  0  0  0  0
    5.4105    5.5174   -1.1575 C   0  0  0  0  0  0  0  0  0  0  0  0
    5.4329    5.6557    1.3431 C   0  0  0  0  0  0  0  0  0  0  0  0
    6.1409    5.4081    2.6655 C   0  0  0  0  0  0  0  0  0  0  0  0
    7.5820    5.9779    0.0299 C   0  0  0  0  0  0  0  0  0  0  0  0
    7.4255    7.4949    0.0451 C   0  0  0  0  0  0  0  0  0  0  0  0
    3.7353    0.2427    0.6327 N   0  0  0  0  0  0  0  0  0  0  0  0
    2.6082   -0.4083    0.3758 N   0  0  0  0  0  0  0  0  0  0  0  0
   -0.4767    0.9475    0.0339 H   0  0  0  0  0  0  0  0  0  0  0  0
   -0.1432   -0.6152    0.7999 H   0  0  0  0  0  0  0  0  0  0  0  0
    0.1340   -0.3985   -0.9421 H   0  0  0  0  0  0  0  0  0  0  0  0
    1.6453    2.7421    0.5484 H   0  0  0  0  0  0  0  0  0  0  0  0
    4.9219    2.2572    1.9512 H   0  0  0  0  0  0  0  0  0  0  0  0
    3.8930    3.4429    1.1392 H   0  0  0  0  0  0  0  0  0  0  0  0
    4.9695    2.8324   -1.0801 H   0  0  0  0  0  0  0  0  0  0  0  0
    5.9632    1.6833   -0.2452 H   0  0  0  0  0  0  0  0  0  0  0  0
    7.3030    3.5645   -0.7480 H   0  0  0  0  0  0  0  0  0  0  0  0
    7.1681    3.4589    0.9988 H   0  0  0  0  0  0  0  0  0  0  0  0
    4.4898    4.9298   -1.1380 H   0  0  0  0  0  0  0  0  0  0  0  0
    6.0160    5.2669   -2.0336 H   0  0  0  0  0  0  0  0  0  0  0  0
    5.1460    6.5765   -1.1541 H   0  0  0  0  0  0  0  0  0  0  0  0
    4.4630    5.1716    1.3179 H   0  0  0  0  0  0  0  0  0  0  0  0
    5.2061    6.7197    1.2256 H   0  0  0  0  0  0  0  0  0  0  0  0
    6.6886    4.4656    2.7108 H   0  0  0  0  0  0  0  0  0  0  0  0
    5.4055    5.3874    3.4766 H   0  0  0  0  0  0  0  0  0  0  0  0
    6.8418    6.2186    2.8880 H   0  0  0  0  0  0  0  0  0  0  0  0
    8.0802    5.6661   -0.8937 H   0  0  0  0  0  0  0  0  0  0  0  0
    8.1900    5.6484    0.8789 H   0  0  0  0  0  0  0  0  0  0  0  0
    6.8382    7.8595   -0.8025 H   0  0  0  0  0  0  0  0  0  0  0  0
    8.4116    7.9640   -0.0230 H   0  0  0  0  0  0  0  0  0  0  0  0
    6.9694    7.8615    0.9680 H   0  0  0  0  0  0  0  0  0  0  0  0
  1  2  1  0  0  0  0
  1 16  1  0  0  0  0
  1 17  1  0  0  0  0
  1 18  1  0  0  0  0
  2  3  2  0  0  0  0
  2 15  1  0  0  0  0
  3  4  1  0  0  0  0
  3 19  1  0  0  0  0
  4  5  1  0  0  0  0
  4 14  1  0  0  0  0
  5  6  1  0  0  0  0
  5 20  1  0  0  0  0
  5 21  1  0  0  0  0
  6  7  1  0  0  0  0
  6 22  1  0  0  0  0
  6 23  1  0  0  0  0
  7  8  1  0  0  0  0
  7 24  1  0  0  0  0
  7 25  1  0  0  0  0
  8  9  1  0  0  0  0
  8 10  1  0  0  0  0
  8 12  1  0  0  0  0
  9 26  1  0  0  0  0
  9 27  1  0  0  0  0
  9 28  1  0  0  0  0
 10 11  1  0  0  0  0
 10 29  1  0  0  0  0
 10 30  1  0  0  0  0
 11 31  1  0  0  0  0
 11 32  1  0  0  0  0
 11 33  1  0  0  0  0
 12 13  1  0  0  0  0
 12 34  1  0  0  0  0
 12 35  1  0  0  0  0
 13 36  1  0  0  0  0
 13 37  1  0  0  0  0
 13 38  1  0  0  0  0
 14 15  2  0  0  0  0
M  CHG  1   8   1
M  END
$$$$
