
 OpenBabel07132314063D

 24 25  0  0  0  0  0  0  0  0999 V2000
    1.0147   -0.3805    0.9338 C   0  0  0  0  0  0  0  0  0  0  0  0
    2.3853   -0.1049    0.4627 C   0  0  0  0  0  0  0  0  0  0  0  0
    3.3497    0.7187    0.9955 C   0  0  0  0  0  0  0  0  0  0  0  0
    4.3701    0.6543    0.0929 N   0  0  0  0  0  0  0  0  0  0  0  0
    5.6204    1.3891    0.0980 C   0  0  0  0  0  0  0  0  0  0  0  0
    5.3917    2.8693   -0.0983 C   0  0  0  0  0  0  0  0  0  0  0  0
    5.3349    3.7371    1.0036 C   0  0  0  0  0  0  0  0  0  0  0  0
    5.1076    5.1027    0.8199 C   0  0  0  0  0  0  0  0  0  0  0  0
    4.9363    5.6085   -0.4669 C   0  0  0  0  0  0  0  0  0  0  0  0
    4.6469    7.4600   -0.7149 Br  0  0  0  0  0  0  0  0  0  0  0  0
    4.9780    4.7609   -1.5710 C   0  0  0  0  0  0  0  0  0  0  0  0
    5.1998    3.3932   -1.3866 C   0  0  0  0  0  0  0  0  0  0  0  0
    4.0977   -0.2238   -0.8887 N   0  0  0  0  0  0  0  0  0  0  0  0
    2.8735   -0.6885   -0.6771 N   0  0  0  0  0  0  0  0  0  0  0  0
    0.6608    0.4158    1.5963 H   0  0  0  0  0  0  0  0  0  0  0  0
    0.9790   -1.3264    1.4805 H   0  0  0  0  0  0  0  0  0  0  0  0
    0.3248   -0.4428    0.0869 H   0  0  0  0  0  0  0  0  0  0  0  0
    3.3743    1.3517    1.8695 H   0  0  0  0  0  0  0  0  0  0  0  0
    6.2642    0.9930   -0.6960 H   0  0  0  0  0  0  0  0  0  0  0  0
    6.1175    1.1848    1.0537 H   0  0  0  0  0  0  0  0  0  0  0  0
    5.4632    3.3569    2.0153 H   0  0  0  0  0  0  0  0  0  0  0  0
    5.0662    5.7615    1.6834 H   0  0  0  0  0  0  0  0  0  0  0  0
    4.8356    5.1496   -2.5757 H   0  0  0  0  0  0  0  0  0  0  0  0
    5.2170    2.7373   -2.2564 H   0  0  0  0  0  0  0  0  0  0  0  0
  1  2  1  0  0  0  0
  1 15  1  0  0  0  0
  1 16  1  0  0  0  0
  1 17  1  0  0  0  0
  2  3  2  0  0  0  0
  2 14  1  0  0  0  0
  3  4  1  0  0  0  0
  3 18  1  0  0  0  0
  4  5  1  0  0  0  0
  4 13  1  0  0  0  0
  5  6  1  0  0  0  0
  5 19  1  0  0  0  0
  5 20  1  0  0  0  0
  6  7  2  0  0  0  0
  6 12  1  0  0  0  0
  7  8  1  0  0  0  0
  7 21  1  0  0  0  0
  8  9  2  0  0  0  0
  8 22  1  0  0  0  0
  9 10  1  0  0  0  0
  9 11  1  0  0  0  0
 11 12  2  0  0  0  0
 11 23  1  0  0  0  0
 12 24  1  0  0  0  0
 13 14  2  0  0  0  0
M  END
$$$$
