
 OpenBabel07132314063D

 27 28  0  0  0  0  0  0  0  0999 V2000
    0.9570   -0.0588   -0.2346 C   0  0  0  0  0  0  0  0  0  0  0  0
    2.3842    0.1017    0.0976 C   0  0  0  0  0  0  0  0  0  0  0  0
    3.3023    1.0233   -0.3575 C   0  0  0  0  0  0  0  0  0  0  0  0
    4.4829    0.6184    0.1916 N   0  0  0  0  0  0  0  0  0  0  0  0
    5.8475    1.0736   -0.0460 C   0  0  0  0  0  0  0  0  0  0  0  0
    6.7266   -0.0703   -0.5861 C   0  0  0  0  0  0  0  0  0  0  0  0
    6.3721   -0.4142   -2.0306 C   0  0  0  0  0  0  0  0  0  0  0  0
    6.5599    0.7949   -2.9381 C   0  0  0  0  0  0  0  0  0  0  0  0
    5.7890    2.0187   -2.4491 C   0  0  0  0  0  0  0  0  0  0  0  0
    5.9945    2.3083   -0.9577 C   0  0  0  0  0  0  0  0  0  0  0  0
    4.2792   -0.4088    1.0439 N   0  0  0  0  0  0  0  0  0  0  0  0
    3.0036   -0.7564    0.9621 N   0  0  0  0  0  0  0  0  0  0  0  0
    0.5304    0.8766   -0.6105 H   0  0  0  0  0  0  0  0  0  0  0  0
    0.3864   -0.3638    0.6471 H   0  0  0  0  0  0  0  0  0  0  0  0
    0.8344   -0.8257   -1.0060 H   0  0  0  0  0  0  0  0  0  0  0  0
    3.2064    1.8600   -1.0299 H   0  0  0  0  0  0  0  0  0  0  0  0
    6.2170    1.3553    0.9499 H   0  0  0  0  0  0  0  0  0  0  0  0
    6.6371   -0.9677    0.0364 H   0  0  0  0  0  0  0  0  0  0  0  0
    7.7803    0.2339   -0.5384 H   0  0  0  0  0  0  0  0  0  0  0  0
    5.3354   -0.7677   -2.0916 H   0  0  0  0  0  0  0  0  0  0  0  0
    7.0060   -1.2372   -2.3786 H   0  0  0  0  0  0  0  0  0  0  0  0
    6.2373    0.5443   -3.9552 H   0  0  0  0  0  0  0  0  0  0  0  0
    7.6272    1.0395   -2.9955 H   0  0  0  0  0  0  0  0  0  0  0  0
    4.7252    1.8728   -2.6603 H   0  0  0  0  0  0  0  0  0  0  0  0
    6.0960    2.8945   -3.0311 H   0  0  0  0  0  0  0  0  0  0  0  0
    5.3194    3.1121   -0.6401 H   0  0  0  0  0  0  0  0  0  0  0  0
    7.0134    2.7015   -0.8324 H   0  0  0  0  0  0  0  0  0  0  0  0
  1  2  1  0  0  0  0
  1 13  1  0  0  0  0
  1 14  1  0  0  0  0
  1 15  1  0  0  0  0
  2  3  2  0  0  0  0
  2 12  1  0  0  0  0
  3  4  1  0  0  0  0
  3 16  1  0  0  0  0
  4  5  1  0  0  0  0
  4 11  1  0  0  0  0
  5  6  1  0  0  0  0
  5 10  1  0  0  0  0
  5 17  1  0  0  0  0
  6  7  1  0  0  0  0
  6 18  1  0  0  0  0
  6 19  1  0  0  0  0
  7  8  1  0  0  0  0
  7 20  1  0  0  0  0
  7 21  1  0  0  0  0
  8  9  1  0  0  0  0
  8 22  1  0  0  0  0
  8 23  1  0  0  0  0
  9 10  1  0  0  0  0
  9 24  1  0  0  0  0
  9 25  1  0  0  0  0
 10 26  1  0  0  0  0
 10 27  1  0  0  0  0
 11 12  2  0  0  0  0
M  END
$$$$
