
 OpenBabel07132314063D

 21 22  0  0  0  0  0  0  0  0999 V2000
    0.9587   -0.0592    0.1373 C   0  0  0  0  0  0  0  0  0  0  0  0
    2.4264    0.0907    0.1191 C   0  0  0  0  0  0  0  0  0  0  0  0
    3.1949    1.2309    0.1606 C   0  0  0  0  0  0  0  0  0  0  0  0
    4.4958    0.7880    0.0798 N   0  0  0  0  0  0  0  0  0  0  0  0
    5.6925    1.5483    0.0324 C   0  0  0  0  0  0  0  0  0  0  0  0
    5.6572    2.9497    0.0762 C   0  0  0  0  0  0  0  0  0  0  0  0
    6.8451    3.6817   -0.0018 C   0  0  0  0  0  0  0  0  0  0  0  0
    8.0681    3.0245   -0.1209 C   0  0  0  0  0  0  0  0  0  0  0  0
    8.1106    1.6320   -0.1554 C   0  0  0  0  0  0  0  0  0  0  0  0
    6.9280    0.8923   -0.0779 C   0  0  0  0  0  0  0  0  0  0  0  0
    4.5007   -0.5678    0.0257 N   0  0  0  0  0  0  0  0  0  0  0  0
    3.2459   -0.9973    0.0434 N   0  0  0  0  0  0  0  0  0  0  0  0
    0.4620    0.9143    0.1947 H   0  0  0  0  0  0  0  0  0  0  0  0
    0.6450   -0.6542    1.0000 H   0  0  0  0  0  0  0  0  0  0  0  0
    0.6167   -0.5615   -0.7730 H   0  0  0  0  0  0  0  0  0  0  0  0
    2.9267    2.2727    0.2213 H   0  0  0  0  0  0  0  0  0  0  0  0
    4.7277    3.5027    0.1661 H   0  0  0  0  0  0  0  0  0  0  0  0
    6.8154    4.7685    0.0263 H   0  0  0  0  0  0  0  0  0  0  0  0
    8.9893    3.5979   -0.1878 H   0  0  0  0  0  0  0  0  0  0  0  0
    9.0649    1.1191   -0.2474 H   0  0  0  0  0  0  0  0  0  0  0  0
    6.9896   -0.1942   -0.1113 H   0  0  0  0  0  0  0  0  0  0  0  0
  1  2  1  0  0  0  0
  1 13  1  0  0  0  0
  1 14  1  0  0  0  0
  1 15  1  0  0  0  0
  2  3  2  0  0  0  0
  2 12  1  0  0  0  0
  3  4  1  0  0  0  0
  3 16  1  0  0  0  0
  4  5  1  0  0  0  0
  4 11  1  0  0  0  0
  5  6  2  0  0  0  0
  5 10  1  0  0  0  0
  6  7  1  0  0  0  0
  6 17  1  0  0  0  0
  7  8  2  0  0  0  0
  7 18  1  0  0  0  0
  8  9  1  0  0  0  0
  8 19  1  0  0  0  0
  9 10  2  0  0  0  0
  9 20  1  0  0  0  0
 10 21  1  0  0  0  0
 11 12  2  0  0  0  0
M  END
$$$$
