
 OpenBabel07132314063D

 24 26  0  0  0  0  0  0  0  0999 V2000
    1.0303   -0.0620    0.0514 C   0  0  0  0  0  0  0  0  0  0  0  0
    2.4965    0.0995    0.0566 C   0  0  0  0  0  0  0  0  0  0  0  0
    3.2443    1.2516    0.0600 C   0  0  0  0  0  0  0  0  0  0  0  0
    4.5527    0.8313    0.0654 N   0  0  0  0  0  0  0  0  0  0  0  0
    5.7296    1.6229    0.0730 C   0  0  0  0  0  0  0  0  0  0  0  0
    7.0004    0.9999    0.0795 C   0  0  0  0  0  0  0  0  0  0  0  0
    8.1711    1.7702    0.0881 C   0  0  0  0  0  0  0  0  0  0  0  0
    8.0396    3.1420    0.0903 C   0  0  0  0  0  0  0  0  0  0  0  0
    6.8062    3.7470    0.0823 C   0  0  0  0  0  0  0  0  0  0  0  0
    5.6340    3.0230    0.0741 C   0  0  0  0  0  0  0  0  0  0  0  0
    6.8880    5.1041    0.0876 O   0  0  0  0  0  0  0  0  0  0  0  0
    8.3183    5.2868    0.1041 C   0  0  0  0  0  0  0  0  0  0  0  0
    9.0553    4.0453    0.0998 O   0  0  0  0  0  0  0  0  0  0  0  0
    4.5861   -0.5241    0.0655 N   0  0  0  0  0  0  0  0  0  0  0  0
    3.3376   -0.9756    0.0605 N   0  0  0  0  0  0  0  0  0  0  0  0
    0.5294    0.9119    0.0479 H   0  0  0  0  0  0  0  0  0  0  0  0
    0.7001   -0.6085    0.9397 H   0  0  0  0  0  0  0  0  0  0  0  0
    0.7073   -0.6111   -0.8379 H   0  0  0  0  0  0  0  0  0  0  0  0
    2.9505    2.2883    0.0595 H   0  0  0  0  0  0  0  0  0  0  0  0
    7.0921   -0.0860    0.0785 H   0  0  0  0  0  0  0  0  0  0  0  0
    9.1503    1.3037    0.0936 H   0  0  0  0  0  0  0  0  0  0  0  0
    4.6932    3.5590    0.0693 H   0  0  0  0  0  0  0  0  0  0  0  0
    8.5863    5.8524    1.0039 H   0  0  0  0  0  0  0  0  0  0  0  0
    8.6050    5.8704   -0.7781 H   0  0  0  0  0  0  0  0  0  0  0  0
  1  2  1  0  0  0  0
  1 16  1  0  0  0  0
  1 17  1  0  0  0  0
  1 18  1  0  0  0  0
  2  3  2  0  0  0  0
  2 15  1  0  0  0  0
  3  4  1  0  0  0  0
  3 19  1  0  0  0  0
  4  5  1  0  0  0  0
  4 14  1  0  0  0  0
  5  6  2  0  0  0  0
  5 10  1  0  0  0  0
  6  7  1  0  0  0  0
  6 20  1  0  0  0  0
  7  8  2  0  0  0  0
  7 21  1  0  0  0  0
  8  9  1  0  0  0  0
  8 13  1  0  0  0  0
  9 10  2  0  0  0  0
  9 11  1  0  0  0  0
 10 22  1  0  0  0  0
 11 12  1  0  0  0  0
 12 13  1  0  0  0  0
 12 23  1  0  0  0  0
 12 24  1  0  0  0  0
 14 15  2  0  0  0  0
M  END
$$$$
