
 OpenBabel07132314063D

 20 21  0  0  0  0  0  0  0  0999 V2000
    0.9907   -0.0347   -0.0414 C   0  0  0  0  0  0  0  0  0  0  0  0
    2.4590    0.1047   -0.0193 C   0  0  0  0  0  0  0  0  0  0  0  0
    3.2371    1.2396   -0.0207 C   0  0  0  0  0  0  0  0  0  0  0  0
    4.5349    0.7813   -0.0217 N   0  0  0  0  0  0  0  0  0  0  0  0
    5.7332    1.5249   -0.0582 C   0  0  0  0  0  0  0  0  0  0  0  0
    5.7360    2.9225   -0.0927 C   0  0  0  0  0  0  0  0  0  0  0  0
    6.9530    3.5993   -0.1497 C   0  0  0  0  0  0  0  0  0  0  0  0
    8.1222    2.8568   -0.1675 C   0  0  0  0  0  0  0  0  0  0  0  0
    8.1522    1.5081   -0.1276 N   0  0  0  0  0  0  0  0  0  0  0  0
    6.9583    0.8674   -0.0735 C   0  0  0  0  0  0  0  0  0  0  0  0
    4.5296   -0.5734    0.0027 N   0  0  0  0  0  0  0  0  0  0  0  0
    3.2716   -0.9917    0.0000 N   0  0  0  0  0  0  0  0  0  0  0  0
    0.4996    0.9436   -0.0487 H   0  0  0  0  0  0  0  0  0  0  0  0
    0.6452   -0.5836    0.8397 H   0  0  0  0  0  0  0  0  0  0  0  0
    0.6742   -0.5805   -0.9356 H   0  0  0  0  0  0  0  0  0  0  0  0
    2.9779    2.2857   -0.0329 H   0  0  0  0  0  0  0  0  0  0  0  0
    4.8219    3.5068   -0.0800 H   0  0  0  0  0  0  0  0  0  0  0  0
    6.9890    4.6828   -0.1828 H   0  0  0  0  0  0  0  0  0  0  0  0
    9.0935    3.3409   -0.2172 H   0  0  0  0  0  0  0  0  0  0  0  0
    7.0380   -0.2174   -0.0466 H   0  0  0  0  0  0  0  0  0  0  0  0
  1  2  1  0  0  0  0
  1 13  1  0  0  0  0
  1 14  1  0  0  0  0
  1 15  1  0  0  0  0
  2  3  2  0  0  0  0
  2 12  1  0  0  0  0
  3  4  1  0  0  0  0
  3 16  1  0  0  0  0
  4  5  1  0  0  0  0
  4 11  1  0  0  0  0
  5  6  2  0  0  0  0
  5 10  1  0  0  0  0
  6  7  1  0  0  0  0
  6 17  1  0  0  0  0
  7  8  2  0  0  0  0
  7 18  1  0  0  0  0
  8  9  1  0  0  0  0
  8 19  1  0  0  0  0
  9 10  2  0  0  0  0
 10 20  1  0  0  0  0
 11 12  2  0  0  0  0
M  END
$$$$
