
 OpenBabel07132314063D

 24 25  0  0  0  0  0  0  0  0999 V2000
    1.7280   -1.1662   -1.2518 C   0  0  0  0  0  0  0  0  0  0  0  0
    2.7993   -0.4409   -0.5432 C   0  0  0  0  0  0  0  0  0  0  0  0
    4.0011    0.0439   -1.0090 C   0  0  0  0  0  0  0  0  0  0  0  0
    4.5655    0.6311    0.0855 N   0  0  0  0  0  0  0  0  0  0  0  0
    5.8265    1.3279    0.1613 C   0  0  0  0  0  0  0  0  0  0  0  0
    5.7004    2.7952    0.5719 C   0  0  0  0  0  0  0  0  0  0  0  0
    7.1139    3.1510    0.9992 C   0  0  0  0  0  0  0  0  0  0  0  0
    7.6015    1.9145    1.7430 C   0  0  0  0  0  0  0  0  0  0  0  0
    6.8242    0.7306    1.1630 C   0  0  0  0  0  0  0  0  0  0  0  0
    3.7702    0.5138    1.1630 N   0  0  0  0  0  0  0  0  0  0  0  0
    2.6821   -0.1436    0.7882 N   0  0  0  0  0  0  0  0  0  0  0  0
    1.9913   -1.3418   -2.2994 H   0  0  0  0  0  0  0  0  0  0  0  0
    0.7981   -0.5898   -1.2256 H   0  0  0  0  0  0  0  0  0  0  0  0
    1.5461   -2.1358   -0.7782 H   0  0  0  0  0  0  0  0  0  0  0  0
    4.4733    0.0268   -1.9794 H   0  0  0  0  0  0  0  0  0  0  0  0
    6.2771    1.2846   -0.8401 H   0  0  0  0  0  0  0  0  0  0  0  0
    5.0095    2.9239    1.4141 H   0  0  0  0  0  0  0  0  0  0  0  0
    5.3465    3.4254   -0.2504 H   0  0  0  0  0  0  0  0  0  0  0  0
    7.1462    4.0489    1.6232 H   0  0  0  0  0  0  0  0  0  0  0  0
    7.7406    3.3286    0.1168 H   0  0  0  0  0  0  0  0  0  0  0  0
    7.3832    2.0087    2.8133 H   0  0  0  0  0  0  0  0  0  0  0  0
    8.6832    1.7833    1.6395 H   0  0  0  0  0  0  0  0  0  0  0  0
    6.3334    0.1782    1.9723 H   0  0  0  0  0  0  0  0  0  0  0  0
    7.4967    0.0255    0.6614 H   0  0  0  0  0  0  0  0  0  0  0  0
  1  2  1  0  0  0  0
  1 12  1  0  0  0  0
  1 13  1  0  0  0  0
  1 14  1  0  0  0  0
  2  3  2  0  0  0  0
  2 11  1  0  0  0  0
  3  4  1  0  0  0  0
  3 15  1  0  0  0  0
  4  5  1  0  0  0  0
  4 10  1  0  0  0  0
  5  6  1  0  0  0  0
  5  9  1  0  0  0  0
  5 16  1  0  0  0  0
  6  7  1  0  0  0  0
  6 17  1  0  0  0  0
  6 18  1  0  0  0  0
  7  8  1  0  0  0  0
  7 19  1  0  0  0  0
  7 20  1  0  0  0  0
  8  9  1  0  0  0  0
  8 21  1  0  0  0  0
  8 22  1  0  0  0  0
  9 23  1  0  0  0  0
  9 24  1  0  0  0  0
 10 11  2  0  0  0  0
M  END
$$$$
