
 OpenBabel07132314063D

 29 30  0  0  0  0  0  0  0  0999 V2000
    0.8142   -0.0355   -0.2153 C   0  0  0  0  0  0  0  0  0  0  0  0
    2.2335    0.1226    0.1508 C   0  0  0  0  0  0  0  0  0  0  0  0
    3.1741    1.0205   -0.3060 C   0  0  0  0  0  0  0  0  0  0  0  0
    4.3324    0.6232    0.2928 N   0  0  0  0  0  0  0  0  0  0  0  0
    5.7121    1.0491    0.0866 C   0  0  0  0  0  0  0  0  0  0  0  0
    6.5762   -0.1231   -0.4014 C   0  0  0  0  0  0  0  0  0  0  0  0
    6.2729   -0.4388   -1.8648 C   0  0  0  0  0  0  0  0  0  0  0  0
    6.5073    0.7017   -2.7564 N   0  0  0  0  0  0  0  0  0  0  0  0
    7.9289    0.9470   -2.9815 C   0  0  0  0  0  0  0  0  0  0  0  0
    5.7829    1.9013   -2.3360 C   0  0  0  0  0  0  0  0  0  0  0  0
    5.9193    2.2534   -0.8471 C   0  0  0  0  0  0  0  0  0  0  0  0
    4.0928   -0.3753    1.1680 N   0  0  0  0  0  0  0  0  0  0  0  0
    2.8179   -0.7146    1.0588 N   0  0  0  0  0  0  0  0  0  0  0  0
    0.4082    0.8856   -0.6427 H   0  0  0  0  0  0  0  0  0  0  0  0
    0.2158   -0.2999    0.6613 H   0  0  0  0  0  0  0  0  0  0  0  0
    0.7053   -0.8351   -0.9568 H   0  0  0  0  0  0  0  0  0  0  0  0
    3.1071    1.8342   -1.0103 H   0  0  0  0  0  0  0  0  0  0  0  0
    6.0543    1.3449    1.0881 H   0  0  0  0  0  0  0  0  0  0  0  0
    6.4127   -1.0227    0.2042 H   0  0  0  0  0  0  0  0  0  0  0  0
    7.6365    0.1304   -0.2801 H   0  0  0  0  0  0  0  0  0  0  0  0
    5.2269   -0.7538   -1.9684 H   0  0  0  0  0  0  0  0  0  0  0  0
    6.8653   -1.3027   -2.1883 H   0  0  0  0  0  0  0  0  0  0  0  0
    8.4248    0.0331   -3.3281 H   0  0  0  0  0  0  0  0  0  0  0  0
    8.4508    1.3010   -2.0872 H   0  0  0  0  0  0  0  0  0  0  0  0
    8.0659    1.6903   -3.7744 H   0  0  0  0  0  0  0  0  0  0  0  0
    4.7244    1.7523   -2.5781 H   0  0  0  0  0  0  0  0  0  0  0  0
    6.0867    2.7654   -2.9407 H   0  0  0  0  0  0  0  0  0  0  0  0
    5.2298    3.0680   -0.5940 H   0  0  0  0  0  0  0  0  0  0  0  0
    6.9304    2.6480   -0.6791 H   0  0  0  0  0  0  0  0  0  0  0  0
  1  2  1  0  0  0  0
  1 14  1  0  0  0  0
  1 15  1  0  0  0  0
  1 16  1  0  0  0  0
  2  3  2  0  0  0  0
  2 13  1  0  0  0  0
  3  4  1  0  0  0  0
  3 17  1  0  0  0  0
  4  5  1  0  0  0  0
  4 12  1  0  0  0  0
  5  6  1  0  0  0  0
  5 11  1  0  0  0  0
  5 18  1  0  0  0  0
  6  7  1  0  0  0  0
  6 19  1  0  0  0  0
  6 20  1  0  0  0  0
  7  8  1  0  0  0  0
  7 21  1  0  0  0  0
  7 22  1  0  0  0  0
  8  9  1  0  0  0  0
  8 10  1  0  0  0  0
  9 23  1  0  0  0  0
  9 24  1  0  0  0  0
  9 25  1  0  0  0  0
 10 11  1  0  0  0  0
 10 26  1  0  0  0  0
 10 27  1  0  0  0  0
 11 28  1  0  0  0  0
 11 29  1  0  0  0  0
 12 13  2  0  0  0  0
M  END
$$$$
