
 OpenBabel07132314063D

 34 36  0  0  0  0  0  0  0  0999 V2000
    1.6964   -1.5656   -0.7622 C   0  0  0  0  0  0  0  0  0  0  0  0
    2.8279   -0.7733   -0.2451 C   0  0  0  0  0  0  0  0  0  0  0  0
    3.4424    0.3267   -0.7953 C   0  0  0  0  0  0  0  0  0  0  0  0
    4.5405    0.5305   -0.0041 N   0  0  0  0  0  0  0  0  0  0  0  0
    5.6848    1.4377   -0.2077 C   0  0  0  0  0  0  0  0  0  0  0  0
    6.4979    0.9895   -1.4309 C   0  0  0  0  0  0  0  0  0  0  0  0
    5.9660    1.0437   -2.7345 C   0  0  0  0  0  0  0  0  0  0  0  0
    6.7268    0.6711   -3.8420 C   0  0  0  0  0  0  0  0  0  0  0  0
    8.0433    0.2593   -3.6704 C   0  0  0  0  0  0  0  0  0  0  0  0
    8.5973    0.2179   -2.3924 C   0  0  0  0  0  0  0  0  0  0  0  0
    7.8315    0.5730   -1.2790 C   0  0  0  0  0  0  0  0  0  0  0  0
    5.2765    2.9179   -0.2101 C   0  0  0  0  0  0  0  0  0  0  0  0
    4.2643    3.3948    0.6426 C   0  0  0  0  0  0  0  0  0  0  0  0
    3.8948    4.7434    0.6345 C   0  0  0  0  0  0  0  0  0  0  0  0
    4.5443    5.6417   -0.2060 C   0  0  0  0  0  0  0  0  0  0  0  0
    5.5832    5.2039   -1.0158 C   0  0  0  0  0  0  0  0  0  0  0  0
    5.9580    3.8609   -1.0039 C   0  0  0  0  0  0  0  0  0  0  0  0
    4.4991   -0.2844    1.0736 N   0  0  0  0  0  0  0  0  0  0  0  0
    3.4630   -1.1010    0.9218 N   0  0  0  0  0  0  0  0  0  0  0  0
    1.5343   -1.3621   -1.8265 H   0  0  0  0  0  0  0  0  0  0  0  0
    0.7747   -1.3330   -0.2228 H   0  0  0  0  0  0  0  0  0  0  0  0
    1.9034   -2.6355   -0.6589 H   0  0  0  0  0  0  0  0  0  0  0  0
    3.2354    0.9025   -1.6822 H   0  0  0  0  0  0  0  0  0  0  0  0
    6.3140    1.3076    0.6860 H   0  0  0  0  0  0  0  0  0  0  0  0
    4.9574    1.4062   -2.9112 H   0  0  0  0  0  0  0  0  0  0  0  0
    6.2907    0.7145   -4.8359 H   0  0  0  0  0  0  0  0  0  0  0  0
    8.6390   -0.0214   -4.5347 H   0  0  0  0  0  0  0  0  0  0  0  0
    9.6332   -0.0875   -2.2646 H   0  0  0  0  0  0  0  0  0  0  0  0
    8.2939    0.5407   -0.2939 H   0  0  0  0  0  0  0  0  0  0  0  0
    3.7461    2.7237    1.3276 H   0  0  0  0  0  0  0  0  0  0  0  0
    3.0977    5.0889    1.2879 H   0  0  0  0  0  0  0  0  0  0  0  0
    4.2477    6.6892   -0.2192 H   0  0  0  0  0  0  0  0  0  0  0  0
    6.1088    5.9049   -1.6595 H   0  0  0  0  0  0  0  0  0  0  0  0
    6.7946    3.5662   -1.6361 H   0  0  0  0  0  0  0  0  0  0  0  0
  1  2  1  0  0  0  0
  1 20  1  0  0  0  0
  1 21  1  0  0  0  0
  1 22  1  0  0  0  0
  2  3  2  0  0  0  0
  2 19  1  0  0  0  0
  3  4  1  0  0  0  0
  3 23  1  0  0  0  0
  4  5  1  0  0  0  0
  4 18  1  0  0  0  0
  5  6  1  0  0  0  0
  5 12  1  0  0  0  0
  5 24  1  0  0  0  0
  6  7  2  0  0  0  0
  6 11  1  0  0  0  0
  7  8  1  0  0  0  0
  7 25  1  0  0  0  0
  8  9  2  0  0  0  0
  8 26  1  0  0  0  0
  9 10  1  0  0  0  0
  9 27  1  0  0  0  0
 10 11  2  0  0  0  0
 10 28  1  0  0  0  0
 11 29  1  0  0  0  0
 12 13  2  0  0  0  0
 12 17  1  0  0  0  0
 13 14  1  0  0  0  0
 13 30  1  0  0  0  0
 14 15  2  0  0  0  0
 14 31  1  0  0  0  0
 15 16  1  0  0  0  0
 15 32  1  0  0  0  0
 16 17  2  0  0  0  0
 16 33  1  0  0  0  0
 17 34  1  0  0  0  0
 18 19  2  0  0  0  0
M  END
$$$$
