
 OpenBabel07132314063D

 30 31  0  0  0  0  0  0  0  0999 V2000
    2.1958   -1.9718   -1.2728 C   0  0  0  0  0  0  0  0  0  0  0  0
    2.9962   -0.8968   -0.6570 C   0  0  0  0  0  0  0  0  0  0  0  0
    4.3515   -0.6636   -0.7141 C   0  0  0  0  0  0  0  0  0  0  0  0
    4.5253    0.5659   -0.1087 N   0  0  0  0  0  0  0  0  0  0  0  0
    5.7217    1.3428   -0.0481 C   0  0  0  0  0  0  0  0  0  0  0  0
    5.7276    2.7566    0.0982 C   0  0  0  0  0  0  0  0  0  0  0  0
    4.4682    3.6154    0.2298 C   0  0  0  0  0  0  0  0  0  0  0  0
    4.1346    3.8303    1.7091 C   0  0  0  0  0  0  0  0  0  0  0  0
    4.5253    4.9703   -0.4931 C   0  0  0  0  0  0  0  0  0  0  0  0
    6.9836    3.4052    0.1124 C   0  0  0  0  0  0  0  0  0  0  0  0
    8.1822    2.7032   -0.0248 C   0  0  0  0  0  0  0  0  0  0  0  0
    8.1645    1.3242   -0.1589 C   0  0  0  0  0  0  0  0  0  0  0  0
    6.9456    0.6480   -0.1727 C   0  0  0  0  0  0  0  0  0  0  0  0
    3.3451    0.9573    0.4184 N   0  0  0  0  0  0  0  0  0  0  0  0
    2.4040    0.0895    0.0679 N   0  0  0  0  0  0  0  0  0  0  0  0
    2.7438   -2.4502   -2.0913 H   0  0  0  0  0  0  0  0  0  0  0  0
    1.2676   -1.5640   -1.6869 H   0  0  0  0  0  0  0  0  0  0  0  0
    1.9396   -2.7349   -0.5328 H   0  0  0  0  0  0  0  0  0  0  0  0
    5.1478   -1.1920   -1.2090 H   0  0  0  0  0  0  0  0  0  0  0  0
    3.6345    3.1105   -0.2625 H   0  0  0  0  0  0  0  0  0  0  0  0
    4.8701    4.4840    2.1917 H   0  0  0  0  0  0  0  0  0  0  0  0
    4.1220    2.8874    2.2663 H   0  0  0  0  0  0  0  0  0  0  0  0
    3.1495    4.2960    1.8180 H   0  0  0  0  0  0  0  0  0  0  0  0
    5.2303    5.6662   -0.0280 H   0  0  0  0  0  0  0  0  0  0  0  0
    3.5398    5.4498   -0.4690 H   0  0  0  0  0  0  0  0  0  0  0  0
    4.8079    4.8429   -1.5437 H   0  0  0  0  0  0  0  0  0  0  0  0
    7.0496    4.4847    0.2272 H   0  0  0  0  0  0  0  0  0  0  0  0
    9.1279    3.2393   -0.0198 H   0  0  0  0  0  0  0  0  0  0  0  0
    9.0977    0.7728   -0.2439 H   0  0  0  0  0  0  0  0  0  0  0  0
    6.9827   -0.4366   -0.2420 H   0  0  0  0  0  0  0  0  0  0  0  0
  1  2  1  0  0  0  0
  1 16  1  0  0  0  0
  1 17  1  0  0  0  0
  1 18  1  0  0  0  0
  2  3  2  0  0  0  0
  2 15  1  0  0  0  0
  3  4  1  0  0  0  0
  3 19  1  0  0  0  0
  4  5  1  0  0  0  0
  4 14  1  0  0  0  0
  5  6  2  0  0  0  0
  5 13  1  0  0  0  0
  6  7  1  0  0  0  0
  6 10  1  0  0  0  0
  7  8  1  0  0  0  0
  7  9  1  0  0  0  0
  7 20  1  0  0  0  0
  8 21  1  0  0  0  0
  8 22  1  0  0  0  0
  8 23  1  0  0  0  0
  9 24  1  0  0  0  0
  9 25  1  0  0  0  0
  9 26  1  0  0  0  0
 10 11  2  0  0  0  0
 10 27  1  0  0  0  0
 11 12  1  0  0  0  0
 11 28  1  0  0  0  0
 12 13  2  0  0  0  0
 12 29  1  0  0  0  0
 13 30  1  0  0  0  0
 14 15  2  0  0  0  0
M  END
$$$$
