
 OpenBabel07132314063D

 35 38  0  0  1  0  0  0  0  0999 V2000
    1.0812   -0.0631   -0.1461 C   0  0  0  0  0  0  0  0  0  0  0  0
    2.5474    0.0516   -0.0397 C   0  0  0  0  0  0  0  0  0  0  0  0
    3.3543    1.1620   -0.1323 C   0  0  0  0  0  0  0  0  0  0  0  0
    4.6204    0.6768    0.0515 N   0  0  0  0  0  0  0  0  0  0  0  0
    5.8760    1.4313    0.0647 C   0  0  3  0  0  0  0  0  0  0  0  0
    5.8397    2.5013    1.1898 C   0  0  0  0  0  0  0  0  0  0  0  0
    7.1313    3.3365    1.1947 C   0  0  3  0  0  0  0  0  0  0  0  0
    8.3335    2.4114    1.4362 C   0  0  0  0  0  0  0  0  0  0  0  0
    8.4149    1.3562    0.3226 C   0  0  3  0  0  0  0  0  0  0  0  0
    8.5739    2.0600   -1.0338 C   0  0  0  0  0  0  0  0  0  0  0  0
    7.3729    2.9828   -1.2895 C   0  0  3  0  0  0  0  0  0  0  0  0
    7.2890    4.0314   -0.1679 C   0  0  0  0  0  0  0  0  0  0  0  0
    6.0818    2.1469   -1.2983 C   0  0  0  0  0  0  0  0  0  0  0  0
    7.1195    0.5258    0.3146 C   0  0  0  0  0  0  0  0  0  0  0  0
    4.5929   -0.6556    0.2398 N   0  0  0  0  0  0  0  0  0  0  0  0
    3.3278   -1.0487    0.1860 N   0  0  0  0  0  0  0  0  0  0  0  0
    0.6171    0.9148   -0.3071 H   0  0  0  0  0  0  0  0  0  0  0  0
    0.6649   -0.4904    0.7712 H   0  0  0  0  0  0  0  0  0  0  0  0
    0.8089   -0.7117   -0.9845 H   0  0  0  0  0  0  0  0  0  0  0  0
    3.1422    2.2065   -0.3019 H   0  0  0  0  0  0  0  0  0  0  0  0
    5.7061    2.0172    2.1667 H   0  0  0  0  0  0  0  0  0  0  0  0
    4.9816    3.1730    1.0599 H   0  0  0  0  0  0  0  0  0  0  0  0
    7.0797    4.0895    1.9892 H   0  0  0  0  0  0  0  0  0  0  0  0
    8.2390    1.9203    2.4125 H   0  0  0  0  0  0  0  0  0  0  0  0
    9.2590    2.9996    1.4641 H   0  0  0  0  0  0  0  0  0  0  0  0
    9.2735    0.6989    0.4998 H   0  0  0  0  0  0  0  0  0  0  0  0
    8.6531    1.3160   -1.8359 H   0  0  0  0  0  0  0  0  0  0  0  0
    9.5033    2.6425   -1.0472 H   0  0  0  0  0  0  0  0  0  0  0  0
    7.4928    3.4851   -2.2559 H   0  0  0  0  0  0  0  0  0  0  0  0
    6.4406    4.7037   -0.3462 H   0  0  0  0  0  0  0  0  0  0  0  0
    8.1929    4.6528   -0.1684 H   0  0  0  0  0  0  0  0  0  0  0  0
    6.1223    1.4081   -2.1099 H   0  0  0  0  0  0  0  0  0  0  0  0
    5.2324    2.8045   -1.5237 H   0  0  0  0  0  0  0  0  0  0  0  0
    7.0221   -0.0009    1.2734 H   0  0  0  0  0  0  0  0  0  0  0  0
    7.1909   -0.2478   -0.4618 H   0  0  0  0  0  0  0  0  0  0  0  0
  1  2  1  0  0  0  0
  1 17  1  0  0  0  0
  1 18  1  0  0  0  0
  1 19  1  0  0  0  0
  2  3  2  0  0  0  0
  2 16  1  0  0  0  0
  3  4  1  0  0  0  0
  3 20  1  0  0  0  0
  4  5  1  0  0  0  0
  4 15  1  0  0  0  0
  5  6  1  0  0  0  0
  5 13  1  0  0  0  0
  5 14  1  0  0  0  0
  6  7  1  0  0  0  0
  6 21  1  0  0  0  0
  6 22  1  0  0  0  0
  7  8  1  0  0  0  0
  7 12  1  0  0  0  0
  7 23  1  0  0  0  0
  8  9  1  0  0  0  0
  8 24  1  0  0  0  0
  8 25  1  0  0  0  0
  9 10  1  0  0  0  0
  9 14  1  0  0  0  0
  9 26  1  0  0  0  0
 10 11  1  0  0  0  0
 10 27  1  0  0  0  0
 10 28  1  0  0  0  0
 11 12  1  0  0  0  0
 11 13  1  0  0  0  0
 11 29  1  0  0  0  0
 12 30  1  0  0  0  0
 12 31  1  0  0  0  0
 13 32  1  0  0  0  0
 13 33  1  0  0  0  0
 14 34  1  0  0  0  0
 14 35  1  0  0  0  0
 15 16  2  0  0  0  0
M  END
$$$$
