
 OpenBabel07132314063D

 34 34  0  0  0  0  0  0  0  0999 V2000
    1.7327   -1.6517   -0.5456 C   0  0  0  0  0  0  0  0  0  0  0  0
    2.7591   -0.6688   -0.1477 C   0  0  0  0  0  0  0  0  0  0  0  0
    3.8135   -0.1499   -0.8682 C   0  0  0  0  0  0  0  0  0  0  0  0
    4.4523    0.6587    0.0222 N   0  0  0  0  0  0  0  0  0  0  0  0
    5.6859    1.3981   -0.1586 C   0  0  0  0  0  0  0  0  0  0  0  0
    5.4645    2.8990   -0.0498 C   0  0  0  0  0  0  0  0  0  0  0  0
    6.7637    3.7114   -0.0764 C   0  0  0  0  0  0  0  0  0  0  0  0
    7.4561    3.3826   -1.2876 O   0  0  0  0  0  0  0  0  0  0  0  0
    8.7404    4.0038   -1.3695 C   0  0  0  0  0  0  0  0  0  0  0  0
    9.3754    3.6557   -2.7003 C   0  0  0  0  0  0  0  0  0  0  0  0
    6.4716    5.1109   -0.0495 O   0  0  0  0  0  0  0  0  0  0  0  0
    5.9116    5.5665    1.1804 C   0  0  0  0  0  0  0  0  0  0  0  0
    5.6697    7.0592    1.0840 C   0  0  0  0  0  0  0  0  0  0  0  0
    3.8232    0.6683    1.2110 N   0  0  0  0  0  0  0  0  0  0  0  0
    2.7749   -0.1383    1.1143 N   0  0  0  0  0  0  0  0  0  0  0  0
    1.8650   -1.9676   -1.5849 H   0  0  0  0  0  0  0  0  0  0  0  0
    0.7284   -1.2293   -0.4411 H   0  0  0  0  0  0  0  0  0  0  0  0
    1.7991   -2.5408    0.0894 H   0  0  0  0  0  0  0  0  0  0  0  0
    4.1581   -0.3012   -1.8804 H   0  0  0  0  0  0  0  0  0  0  0  0
    6.0999    1.1246   -1.1345 H   0  0  0  0  0  0  0  0  0  0  0  0
    6.3768    1.0438    0.6169 H   0  0  0  0  0  0  0  0  0  0  0  0
    4.9199    3.1064    0.8778 H   0  0  0  0  0  0  0  0  0  0  0  0
    4.8080    3.2333   -0.8635 H   0  0  0  0  0  0  0  0  0  0  0  0
    7.4008    3.4437    0.7763 H   0  0  0  0  0  0  0  0  0  0  0  0
    9.3719    3.6376   -0.5516 H   0  0  0  0  0  0  0  0  0  0  0  0
    8.6437    5.0920   -1.2858 H   0  0  0  0  0  0  0  0  0  0  0  0
    9.4333    2.5705   -2.8290 H   0  0  0  0  0  0  0  0  0  0  0  0
   10.3850    4.0751   -2.7724 H   0  0  0  0  0  0  0  0  0  0  0  0
    8.7765    4.0469   -3.5293 H   0  0  0  0  0  0  0  0  0  0  0  0
    6.5906    5.3419    2.0097 H   0  0  0  0  0  0  0  0  0  0  0  0
    4.9475    5.0862    1.3639 H   0  0  0  0  0  0  0  0  0  0  0  0
    6.6108    7.5983    0.9398 H   0  0  0  0  0  0  0  0  0  0  0  0
    5.1820    7.4291    1.9909 H   0  0  0  0  0  0  0  0  0  0  0  0
    5.0304    7.2887    0.2245 H   0  0  0  0  0  0  0  0  0  0  0  0
  1  2  1  0  0  0  0
  1 16  1  0  0  0  0
  1 17  1  0  0  0  0
  1 18  1  0  0  0  0
  2  3  2  0  0  0  0
  2 15  1  0  0  0  0
  3  4  1  0  0  0  0
  3 19  1  0  0  0  0
  4  5  1  0  0  0  0
  4 14  1  0  0  0  0
  5  6  1  0  0  0  0
  5 20  1  0  0  0  0
  5 21  1  0  0  0  0
  6  7  1  0  0  0  0
  6 22  1  0  0  0  0
  6 23  1  0  0  0  0
  7  8  1  0  0  0  0
  7 11  1  0  0  0  0
  7 24  1  0  0  0  0
  8  9  1  0  0  0  0
  9 10  1  0  0  0  0
  9 25  1  0  0  0  0
  9 26  1  0  0  0  0
 10 27  1  0  0  0  0
 10 28  1  0  0  0  0
 10 29  1  0  0  0  0
 11 12  1  0  0  0  0
 12 13  1  0  0  0  0
 12 30  1  0  0  0  0
 12 31  1  0  0  0  0
 13 32  1  0  0  0  0
 13 33  1  0  0  0  0
 13 34  1  0  0  0  0
 14 15  2  0  0  0  0
M  END
$$$$
