
 OpenBabel07132314063D

 17 17  0  0  0  0  0  0  0  0999 V2000
    0.9908   -0.2677    0.0588 C   0  0  0  0  0  0  0  0  0  0  0  0
    2.4486   -0.0469    0.0762 C   0  0  0  0  0  0  0  0  0  0  0  0
    3.1625    1.1297    0.0411 C   0  0  0  0  0  0  0  0  0  0  0  0
    4.4621    0.7346    0.1479 N   0  0  0  0  0  0  0  0  0  0  0  0
    5.6844    1.5098    0.0914 C   0  0  0  0  0  0  0  0  0  0  0  0
    5.6305    2.8480    0.7782 C   0  0  0  0  0  0  0  0  0  0  0  0
    4.6625    3.3469    1.3317 O   0  0  0  0  0  0  0  0  0  0  0  0
    6.8163    3.5112    0.7187 O   0  0  0  0  0  0  0  0  0  0  0  0
    4.5552   -0.6100    0.1567 N   0  0  0  0  0  0  0  0  0  0  0  0
    3.3231   -1.0984    0.1350 N   0  0  0  0  0  0  0  0  0  0  0  0
    0.4457    0.6815    0.0559 H   0  0  0  0  0  0  0  0  0  0  0  0
    0.6820   -0.8334    0.9434 H   0  0  0  0  0  0  0  0  0  0  0  0
    0.6994   -0.8323   -0.8319 H   0  0  0  0  0  0  0  0  0  0  0  0
    2.8564    2.1643   -0.0124 H   0  0  0  0  0  0  0  0  0  0  0  0
    5.9201    1.6501   -0.9681 H   0  0  0  0  0  0  0  0  0  0  0  0
    6.4678    0.9148    0.5746 H   0  0  0  0  0  0  0  0  0  0  0  0
    7.5461    3.0399    0.2723 H   0  0  0  0  0  0  0  0  0  0  0  0
  1  2  1  0  0  0  0
  1 11  1  0  0  0  0
  1 12  1  0  0  0  0
  1 13  1  0  0  0  0
  2  3  2  0  0  0  0
  2 10  1  0  0  0  0
  3  4  1  0  0  0  0
  3 14  1  0  0  0  0
  4  5  1  0  0  0  0
  4  9  1  0  0  0  0
  5  6  1  0  0  0  0
  5 15  1  0  0  0  0
  5 16  1  0  0  0  0
  6  7  2  0  0  0  0
  6  8  1  0  0  0  0
  8 17  1  0  0  0  0
  9 10  2  0  0  0  0
M  END
$$$$
