
 OpenBabel07132314063D

 23 24  0  0  0  0  0  0  0  0999 V2000
    1.1702   -0.0744    0.0603 C   0  0  0  0  0  0  0  0  0  0  0  0
    2.6399    0.0500    0.0512 C   0  0  0  0  0  0  0  0  0  0  0  0
    3.4279    1.1757    0.0708 C   0  0  0  0  0  0  0  0  0  0  0  0
    4.7229    0.7026    0.0597 N   0  0  0  0  0  0  0  0  0  0  0  0
    5.9219    1.4753    0.0898 C   0  0  0  0  0  0  0  0  0  0  0  0
    5.7844    2.8078    0.1456 N   0  0  0  0  0  0  0  0  0  0  0  0
    6.9162    3.4861    0.2103 C   0  0  0  0  0  0  0  0  0  0  0  0
    6.8287    4.8595    0.2879 N   0  0  0  0  0  0  0  0  0  0  0  0
    8.1271    2.9530    0.1811 N   0  0  0  0  0  0  0  0  0  0  0  0
    8.1693    1.6219    0.1161 C   0  0  0  0  0  0  0  0  0  0  0  0
    9.5134    0.9634    0.1105 C   0  0  0  0  0  0  0  0  0  0  0  0
    7.0969    0.8349    0.0691 N   0  0  0  0  0  0  0  0  0  0  0  0
    4.7086   -0.6538    0.0210 N   0  0  0  0  0  0  0  0  0  0  0  0
    3.4433   -1.0566    0.0200 N   0  0  0  0  0  0  0  0  0  0  0  0
    0.6890    0.9088    0.0696 H   0  0  0  0  0  0  0  0  0  0  0  0
    0.8396   -0.6233    0.9476 H   0  0  0  0  0  0  0  0  0  0  0  0
    0.8269   -0.6131   -0.8281 H   0  0  0  0  0  0  0  0  0  0  0  0
    3.2056    2.2320    0.0969 H   0  0  0  0  0  0  0  0  0  0  0  0
    5.9559    5.1945   -0.0938 H   0  0  0  0  0  0  0  0  0  0  0  0
    7.6799    5.2916   -0.0439 H   0  0  0  0  0  0  0  0  0  0  0  0
   10.3159    1.7075    0.1118 H   0  0  0  0  0  0  0  0  0  0  0  0
    9.6222    0.3393   -0.7816 H   0  0  0  0  0  0  0  0  0  0  0  0
    9.6227    0.3350    0.9995 H   0  0  0  0  0  0  0  0  0  0  0  0
  1  2  1  0  0  0  0
  1 15  1  0  0  0  0
  1 16  1  0  0  0  0
  1 17  1  0  0  0  0
  2  3  2  0  0  0  0
  2 14  1  0  0  0  0
  3  4  1  0  0  0  0
  3 18  1  0  0  0  0
  4  5  1  0  0  0  0
  4 13  1  0  0  0  0
  5  6  2  0  0  0  0
  5 12  1  0  0  0  0
  6  7  1  0  0  0  0
  7  8  1  0  0  0  0
  7  9  2  0  0  0  0
  8 19  1  0  0  0  0
  8 20  1  0  0  0  0
  9 10  1  0  0  0  0
 10 11  1  0  0  0  0
 10 12  2  0  0  0  0
 11 21  1  0  0  0  0
 11 22  1  0  0  0  0
 11 23  1  0  0  0  0
 13 14  2  0  0  0  0
M  END
$$$$
