
 OpenBabel07132314063D

 25 26  0  0  0  0  0  0  0  0999 V2000
    1.9363   -1.7773   -0.6391 C   0  0  0  0  0  0  0  0  0  0  0  0
    2.8607   -0.7483   -0.1251 C   0  0  0  0  0  0  0  0  0  0  0  0
    3.7111    0.0944   -0.8062 C   0  0  0  0  0  0  0  0  0  0  0  0
    4.3886    0.7497    0.1823 N   0  0  0  0  0  0  0  0  0  0  0  0
    5.6084    1.5238    0.0501 C   0  0  0  0  0  0  0  0  0  0  0  0
    5.3636    3.0037   -0.1009 C   0  0  0  0  0  0  0  0  0  0  0  0
    5.3666    3.8407    1.0251 C   0  0  0  0  0  0  0  0  0  0  0  0
    5.2240    5.2226    0.8857 C   0  0  0  0  0  0  0  0  0  0  0  0
    5.0559    5.7845   -0.3795 C   0  0  0  0  0  0  0  0  0  0  0  0
    5.0145    4.9617   -1.5086 C   0  0  0  0  0  0  0  0  0  0  0  0
    4.8249    5.5343   -2.8089 C   0  0  0  0  0  0  0  0  0  0  0  0
    4.6743    5.9909   -3.8661 N   0  0  0  0  0  0  0  0  0  0  0  0
    5.1698    3.5759   -1.3686 C   0  0  0  0  0  0  0  0  0  0  0  0
    3.9483    0.3792    1.3989 N   0  0  0  0  0  0  0  0  0  0  0  0
    3.0071   -0.5386    1.2209 N   0  0  0  0  0  0  0  0  0  0  0  0
    2.1552   -2.0171   -1.6847 H   0  0  0  0  0  0  0  0  0  0  0  0
    0.9004   -1.4332   -0.5729 H   0  0  0  0  0  0  0  0  0  0  0  0
    2.0319   -2.7005   -0.0582 H   0  0  0  0  0  0  0  0  0  0  0  0
    3.9184    0.2345   -1.8561 H   0  0  0  0  0  0  0  0  0  0  0  0
    6.1534    1.1375   -0.8195 H   0  0  0  0  0  0  0  0  0  0  0  0
    6.2345    1.3202    0.9272 H   0  0  0  0  0  0  0  0  0  0  0  0
    5.4926    3.4209    2.0227 H   0  0  0  0  0  0  0  0  0  0  0  0
    5.2489    5.8620    1.7657 H   0  0  0  0  0  0  0  0  0  0  0  0
    4.9574    6.8644   -0.4764 H   0  0  0  0  0  0  0  0  0  0  0  0
    5.1517    2.9438   -2.2556 H   0  0  0  0  0  0  0  0  0  0  0  0
  1  2  1  0  0  0  0
  1 16  1  0  0  0  0
  1 17  1  0  0  0  0
  1 18  1  0  0  0  0
  2  3  2  0  0  0  0
  2 15  1  0  0  0  0
  3  4  1  0  0  0  0
  3 19  1  0  0  0  0
  4  5  1  0  0  0  0
  4 14  1  0  0  0  0
  5  6  1  0  0  0  0
  5 20  1  0  0  0  0
  5 21  1  0  0  0  0
  6  7  2  0  0  0  0
  6 13  1  0  0  0  0
  7  8  1  0  0  0  0
  7 22  1  0  0  0  0
  8  9  2  0  0  0  0
  8 23  1  0  0  0  0
  9 10  1  0  0  0  0
  9 24  1  0  0  0  0
 10 11  1  0  0  0  0
 10 13  2  0  0  0  0
 11 12  3  0  0  0  0
 13 25  1  0  0  0  0
 14 15  2  0  0  0  0
M  END
$$$$
