
 OpenBabel07132314063D

 24 25  0  0  0  0  0  0  0  0999 V2000
    2.4208   -2.2383    0.2093 C   0  0  0  0  0  0  0  0  0  0  0  0
    3.1550   -0.9590    0.1702 C   0  0  0  0  0  0  0  0  0  0  0  0
    4.5026   -0.7142    0.0519 C   0  0  0  0  0  0  0  0  0  0  0  0
    4.6152    0.6580    0.0692 N   0  0  0  0  0  0  0  0  0  0  0  0
    5.8039    1.4284   -0.0406 C   0  0  0  0  0  0  0  0  0  0  0  0
    5.7153    2.8185   -0.0124 C   0  0  0  0  0  0  0  0  0  0  0  0
    6.8810    3.5678   -0.1633 C   0  0  0  0  0  0  0  0  0  0  0  0
    8.1087    2.9234   -0.3306 C   0  0  0  0  0  0  0  0  0  0  0  0
    9.3602    3.7098   -0.5868 C   0  0  0  0  0  0  0  0  0  0  0  0
   10.4999    3.0615   -0.0414 O   0  0  0  0  0  0  0  0  0  0  0  0
    8.0995    1.5320   -0.3442 C   0  0  0  0  0  0  0  0  0  0  0  0
    6.9870    0.7732   -0.1947 N   0  0  0  0  0  0  0  0  0  0  0  0
    3.3820    1.2115    0.1964 N   0  0  0  0  0  0  0  0  0  0  0  0
    2.4890    0.2326    0.2552 N   0  0  0  0  0  0  0  0  0  0  0  0
    3.1022   -3.0917    0.1380 H   0  0  0  0  0  0  0  0  0  0  0  0
    1.7116   -2.2968   -0.6222 H   0  0  0  0  0  0  0  0  0  0  0  0
    1.8607   -2.3259    1.1455 H   0  0  0  0  0  0  0  0  0  0  0  0
    5.3676   -1.3543   -0.0421 H   0  0  0  0  0  0  0  0  0  0  0  0
    4.7617    3.3268    0.1070 H   0  0  0  0  0  0  0  0  0  0  0  0
    6.8176    4.6536   -0.1636 H   0  0  0  0  0  0  0  0  0  0  0  0
    9.2979    4.7106   -0.1463 H   0  0  0  0  0  0  0  0  0  0  0  0
    9.5071    3.8181   -1.6662 H   0  0  0  0  0  0  0  0  0  0  0  0
   10.4439    3.1563    0.9253 H   0  0  0  0  0  0  0  0  0  0  0  0
    9.0185    0.9676   -0.4887 H   0  0  0  0  0  0  0  0  0  0  0  0
  1  2  1  0  0  0  0
  1 15  1  0  0  0  0
  1 16  1  0  0  0  0
  1 17  1  0  0  0  0
  2  3  2  0  0  0  0
  2 14  1  0  0  0  0
  3  4  1  0  0  0  0
  3 18  1  0  0  0  0
  4  5  1  0  0  0  0
  4 13  1  0  0  0  0
  5  6  2  0  0  0  0
  5 12  1  0  0  0  0
  6  7  1  0  0  0  0
  6 19  1  0  0  0  0
  7  8  2  0  0  0  0
  7 20  1  0  0  0  0
  8  9  1  0  0  0  0
  8 11  1  0  0  0  0
  9 10  1  0  0  0  0
  9 21  1  0  0  0  0
  9 22  1  0  0  0  0
 10 23  1  0  0  0  0
 11 12  2  0  0  0  0
 11 24  1  0  0  0  0
 13 14  2  0  0  0  0
M  END
$$$$
