
 OpenBabel07132314063D

 28 29  0  0  1  0  0  0  0  0999 V2000
    1.6816   -1.2565    1.1816 C   0  0  0  0  0  0  0  0  0  0  0  0
    2.7869   -0.5088    0.5568 C   0  0  0  0  0  0  0  0  0  0  0  0
    3.8332    0.1658    1.1412 C   0  0  0  0  0  0  0  0  0  0  0  0
    4.5380    0.6611    0.0839 N   0  0  0  0  0  0  0  0  0  0  0  0
    5.7920    1.3841    0.1150 C   0  0  0  0  0  0  0  0  0  0  0  0
    5.5828    2.9028    0.1720 C   0  0  3  0  0  0  0  0  0  0  0  0
    4.9637    3.2425    1.4181 O   0  0  0  0  0  0  0  0  0  0  0  0
    6.8626    3.7175    0.0477 C   0  0  0  0  0  0  0  0  0  0  0  0
    6.7989    4.9971   -0.5327 C   0  0  0  0  0  0  0  0  0  0  0  0
    7.9438    5.7896   -0.6426 C   0  0  0  0  0  0  0  0  0  0  0  0
    9.1657    5.3198   -0.1719 C   0  0  0  0  0  0  0  0  0  0  0  0
    9.2436    4.0648    0.4215 C   0  0  0  0  0  0  0  0  0  0  0  0
    8.0991    3.2696    0.5347 C   0  0  0  0  0  0  0  0  0  0  0  0
    3.9801    0.3049   -1.0856 N   0  0  0  0  0  0  0  0  0  0  0  0
    2.8967   -0.4086   -0.8071 N   0  0  0  0  0  0  0  0  0  0  0  0
    1.7687   -1.2545    2.2731 H   0  0  0  0  0  0  0  0  0  0  0  0
    1.6869   -2.2972    0.8425 H   0  0  0  0  0  0  0  0  0  0  0  0
    0.7178   -0.8104    0.9151 H   0  0  0  0  0  0  0  0  0  0  0  0
    4.1163    0.3390    2.1672 H   0  0  0  0  0  0  0  0  0  0  0  0
    6.3651    1.0899   -0.7723 H   0  0  0  0  0  0  0  0  0  0  0  0
    6.3248    1.0240    1.0021 H   0  0  0  0  0  0  0  0  0  0  0  0
    4.8918    3.1937   -0.6302 H   0  0  0  0  0  0  0  0  0  0  0  0
    5.6609    3.5012    2.0435 H   0  0  0  0  0  0  0  0  0  0  0  0
    5.8507    5.3877   -0.8964 H   0  0  0  0  0  0  0  0  0  0  0  0
    7.8780    6.7762   -1.0968 H   0  0  0  0  0  0  0  0  0  0  0  0
   10.0562    5.9409   -0.2566 H   0  0  0  0  0  0  0  0  0  0  0  0
   10.1968    3.7047    0.8010 H   0  0  0  0  0  0  0  0  0  0  0  0
    8.2032    2.3022    1.0167 H   0  0  0  0  0  0  0  0  0  0  0  0
  1  2  1  0  0  0  0
  1 16  1  0  0  0  0
  1 17  1  0  0  0  0
  1 18  1  0  0  0  0
  2  3  2  0  0  0  0
  2 15  1  0  0  0  0
  3  4  1  0  0  0  0
  3 19  1  0  0  0  0
  4  5  1  0  0  0  0
  4 14  1  0  0  0  0
  5  6  1  0  0  0  0
  5 20  1  0  0  0  0
  5 21  1  0  0  0  0
  6  7  1  0  0  0  0
  6  8  1  0  0  0  0
  6 22  1  0  0  0  0
  7 23  1  0  0  0  0
  8  9  2  0  0  0  0
  8 13  1  0  0  0  0
  9 10  1  0  0  0  0
  9 24  1  0  0  0  0
 10 11  2  0  0  0  0
 10 25  1  0  0  0  0
 11 12  1  0  0  0  0
 11 26  1  0  0  0  0
 12 13  2  0  0  0  0
 12 27  1  0  0  0  0
 13 28  1  0  0  0  0
 14 15  2  0  0  0  0
M  END
$$$$
