
 OpenBabel07132314063D

 26 27  0  0  0  0  0  0  0  0999 V2000
    0.9177   -0.0852    0.0596 C   0  0  0  0  0  0  0  0  0  0  0  0
    2.3852    0.0627    0.0625 C   0  0  0  0  0  0  0  0  0  0  0  0
    3.1515    1.2039    0.1146 C   0  0  0  0  0  0  0  0  0  0  0  0
    4.4528    0.7625    0.0370 N   0  0  0  0  0  0  0  0  0  0  0  0
    5.6451    1.5292   -0.0336 C   0  0  0  0  0  0  0  0  0  0  0  0
    5.5954    2.9315   -0.0115 C   0  0  0  0  0  0  0  0  0  0  0  0
    6.7682    3.6766   -0.1520 C   0  0  0  0  0  0  0  0  0  0  0  0
    7.9931    3.0214   -0.3005 C   0  0  0  0  0  0  0  0  0  0  0  0
    9.4599    3.9755   -0.5567 S   0  0  0  0  0  0  0  0  0  0  0  0
   10.4705    3.1434   -1.1650 O   0  0  0  0  0  0  0  0  0  0  0  0
    9.0948    5.2685   -1.0884 O   0  0  0  0  0  0  0  0  0  0  0  0
    9.9686    4.2483    1.0182 N   0  0  0  0  0  0  0  0  0  0  0  0
    8.0572    1.6246   -0.3085 C   0  0  0  0  0  0  0  0  0  0  0  0
    6.8837    0.8794   -0.1673 C   0  0  0  0  0  0  0  0  0  0  0  0
    4.4622   -0.5923   -0.0102 N   0  0  0  0  0  0  0  0  0  0  0  0
    3.2079   -1.0239   -0.0053 N   0  0  0  0  0  0  0  0  0  0  0  0
    0.4224    0.8903    0.1144 H   0  0  0  0  0  0  0  0  0  0  0  0
    0.5917   -0.6825    0.9151 H   0  0  0  0  0  0  0  0  0  0  0  0
    0.5874   -0.5812   -0.8579 H   0  0  0  0  0  0  0  0  0  0  0  0
    2.8791    2.2444    0.1707 H   0  0  0  0  0  0  0  0  0  0  0  0
    4.6627    3.4764    0.0977 H   0  0  0  0  0  0  0  0  0  0  0  0
    6.7184    4.7635   -0.1558 H   0  0  0  0  0  0  0  0  0  0  0  0
   10.8780    3.8097    1.1674 H   0  0  0  0  0  0  0  0  0  0  0  0
    9.9551    5.2486    1.2177 H   0  0  0  0  0  0  0  0  0  0  0  0
    9.0091    1.1126   -0.4349 H   0  0  0  0  0  0  0  0  0  0  0  0
    6.9514   -0.2080   -0.1836 H   0  0  0  0  0  0  0  0  0  0  0  0
  1  2  1  0  0  0  0
  1 17  1  0  0  0  0
  1 18  1  0  0  0  0
  1 19  1  0  0  0  0
  2  3  2  0  0  0  0
  2 16  1  0  0  0  0
  3  4  1  0  0  0  0
  3 20  1  0  0  0  0
  4  5  1  0  0  0  0
  4 15  1  0  0  0  0
  5  6  2  0  0  0  0
  5 14  1  0  0  0  0
  6  7  1  0  0  0  0
  6 21  1  0  0  0  0
  7  8  2  0  0  0  0
  7 22  1  0  0  0  0
  8  9  1  0  0  0  0
  8 13  1  0  0  0  0
  9 10  2  0  0  0  0
  9 11  2  0  0  0  0
  9 12  1  0  0  0  0
 12 23  1  0  0  0  0
 12 24  1  0  0  0  0
 13 14  2  0  0  0  0
 13 25  1  0  0  0  0
 14 26  1  0  0  0  0
 15 16  2  0  0  0  0
M  END
$$$$
