
 OpenBabel07132314063D

 21 22  0  0  0  0  0  0  0  0999 V2000
    1.3232   -0.8146   -1.2212 C   0  0  0  0  0  0  0  0  0  0  0  0
    2.4970   -0.2187   -0.5566 C   0  0  0  0  0  0  0  0  0  0  0  0
    3.6055    0.3949   -1.0983 C   0  0  0  0  0  0  0  0  0  0  0  0
    4.3217    0.7955   -0.0087 N   0  0  0  0  0  0  0  0  0  0  0  0
    5.5749    1.5278    0.0235 C   0  0  0  0  0  0  0  0  0  0  0  0
    5.3513    3.0133    0.0926 C   0  0  0  0  0  0  0  0  0  0  0  0
    5.9025    3.9638   -0.8332 C   0  0  0  0  0  0  0  0  0  0  0  0
    5.5749    5.2652   -0.5206 C   0  0  0  0  0  0  0  0  0  0  0  0
    4.5955    5.3617    0.8745 S   0  0  0  0  0  0  0  0  0  0  0  0
    4.6177    3.6641    1.0713 C   0  0  0  0  0  0  0  0  0  0  0  0
    3.7400    0.3874    1.1343 N   0  0  0  0  0  0  0  0  0  0  0  0
    2.6067   -0.2204    0.8097 N   0  0  0  0  0  0  0  0  0  0  0  0
    1.2394   -0.4713   -2.2561 H   0  0  0  0  0  0  0  0  0  0  0  0
    0.4037   -0.5345   -0.6980 H   0  0  0  0  0  0  0  0  0  0  0  0
    1.3993   -1.9065   -1.2254 H   0  0  0  0  0  0  0  0  0  0  0  0
    3.9148    0.5912   -2.1134 H   0  0  0  0  0  0  0  0  0  0  0  0
    6.1345    1.2551   -0.8783 H   0  0  0  0  0  0  0  0  0  0  0  0
    6.1460    1.1834    0.8925 H   0  0  0  0  0  0  0  0  0  0  0  0
    6.5206    3.7080   -1.6857 H   0  0  0  0  0  0  0  0  0  0  0  0
    5.8648    6.1670   -1.0423 H   0  0  0  0  0  0  0  0  0  0  0  0
    4.0827    3.2189    1.9017 H   0  0  0  0  0  0  0  0  0  0  0  0
  1  2  1  0  0  0  0
  1 13  1  0  0  0  0
  1 14  1  0  0  0  0
  1 15  1  0  0  0  0
  2  3  2  0  0  0  0
  2 12  1  0  0  0  0
  3  4  1  0  0  0  0
  3 16  1  0  0  0  0
  4  5  1  0  0  0  0
  4 11  1  0  0  0  0
  5  6  1  0  0  0  0
  5 17  1  0  0  0  0
  5 18  1  0  0  0  0
  6  7  1  0  0  0  0
  6 10  2  0  0  0  0
  7  8  2  0  0  0  0
  7 19  1  0  0  0  0
  8  9  1  0  0  0  0
  8 20  1  0  0  0  0
  9 10  1  0  0  0  0
 10 21  1  0  0  0  0
 11 12  2  0  0  0  0
M  END
$$$$
