
 OpenBabel07132314063D

 25 26  0  0  0  0  0  0  0  0999 V2000
    0.9552   -0.1492    0.0477 C   0  0  0  0  0  0  0  0  0  0  0  0
    2.4232   -0.0037    0.0446 C   0  0  0  0  0  0  0  0  0  0  0  0
    3.1944    1.1344    0.0866 C   0  0  0  0  0  0  0  0  0  0  0  0
    4.4950    0.6868    0.0228 N   0  0  0  0  0  0  0  0  0  0  0  0
    5.6934    1.4449   -0.0289 C   0  0  0  0  0  0  0  0  0  0  0  0
    5.6576    2.8442   -0.0201 C   0  0  0  0  0  0  0  0  0  0  0  0
    6.8452    3.5722   -0.1339 C   0  0  0  0  0  0  0  0  0  0  0  0
    8.0768    2.9225   -0.2347 C   0  0  0  0  0  0  0  0  0  0  0  0
    9.1508    3.7516   -0.4018 O   0  0  0  0  0  0  0  0  0  0  0  0
   10.4035    3.2618    0.0591 C   0  0  0  0  0  0  0  0  0  0  0  0
    8.1175    1.5296   -0.2254 C   0  0  0  0  0  0  0  0  0  0  0  0
    6.9308    0.7902   -0.1231 C   0  0  0  0  0  0  0  0  0  0  0  0
    4.4973   -0.6688   -0.0180 N   0  0  0  0  0  0  0  0  0  0  0  0
    3.2412   -1.0947   -0.0135 N   0  0  0  0  0  0  0  0  0  0  0  0
    0.4603    0.8258    0.0997 H   0  0  0  0  0  0  0  0  0  0  0  0
    0.6308   -0.7424    0.9076 H   0  0  0  0  0  0  0  0  0  0  0  0
    0.6211   -0.6513   -0.8655 H   0  0  0  0  0  0  0  0  0  0  0  0
    2.9285    2.1776    0.1359 H   0  0  0  0  0  0  0  0  0  0  0  0
    4.7300    3.4028    0.0582 H   0  0  0  0  0  0  0  0  0  0  0  0
    6.8116    4.6591   -0.1475 H   0  0  0  0  0  0  0  0  0  0  0  0
   11.1542    4.0295   -0.1535 H   0  0  0  0  0  0  0  0  0  0  0  0
   10.7143    2.3541   -0.4653 H   0  0  0  0  0  0  0  0  0  0  0  0
   10.3787    3.1047    1.1423 H   0  0  0  0  0  0  0  0  0  0  0  0
    9.0494    0.9842   -0.3324 H   0  0  0  0  0  0  0  0  0  0  0  0
    6.9913   -0.2976   -0.1401 H   0  0  0  0  0  0  0  0  0  0  0  0
  1  2  1  0  0  0  0
  1 15  1  0  0  0  0
  1 16  1  0  0  0  0
  1 17  1  0  0  0  0
  2  3  2  0  0  0  0
  2 14  1  0  0  0  0
  3  4  1  0  0  0  0
  3 18  1  0  0  0  0
  4  5  1  0  0  0  0
  4 13  1  0  0  0  0
  5  6  2  0  0  0  0
  5 12  1  0  0  0  0
  6  7  1  0  0  0  0
  6 19  1  0  0  0  0
  7  8  2  0  0  0  0
  7 20  1  0  0  0  0
  8  9  1  0  0  0  0
  8 11  1  0  0  0  0
  9 10  1  0  0  0  0
 10 21  1  0  0  0  0
 10 22  1  0  0  0  0
 10 23  1  0  0  0  0
 11 12  2  0  0  0  0
 11 24  1  0  0  0  0
 12 25  1  0  0  0  0
 13 14  2  0  0  0  0
M  END
$$$$
