
 OpenBabel07132314063D

 26 28  0  0  0  0  0  0  0  0999 V2000
    0.9753   -0.0818    0.1556 C   0  0  0  0  0  0  0  0  0  0  0  0
    2.4443    0.0502    0.1520 C   0  0  0  0  0  0  0  0  0  0  0  0
    3.2200    1.1833    0.2200 C   0  0  0  0  0  0  0  0  0  0  0  0
    4.5180    0.7313    0.1636 N   0  0  0  0  0  0  0  0  0  0  0  0
    5.7085    1.4869    0.1556 C   0  0  0  0  0  0  0  0  0  0  0  0
    6.9407    0.8572    0.0766 C   0  0  0  0  0  0  0  0  0  0  0  0
    8.1222    1.5238    0.0188 N   0  0  0  0  0  0  0  0  0  0  0  0
    8.0969    2.8694    0.0309 C   0  0  0  0  0  0  0  0  0  0  0  0
    9.2822    3.5863   -0.0649 C   0  0  0  0  0  0  0  0  0  0  0  0
    9.2978    4.9844   -0.0736 C   0  0  0  0  0  0  0  0  0  0  0  0
    8.1068    5.6935    0.0295 C   0  0  0  0  0  0  0  0  0  0  0  0
    6.9044    5.0012    0.1350 C   0  0  0  0  0  0  0  0  0  0  0  0
    6.8913    3.5953    0.1263 C   0  0  0  0  0  0  0  0  0  0  0  0
    5.6891    2.8814    0.1977 C   0  0  0  0  0  0  0  0  0  0  0  0
    4.5177   -0.6201    0.0853 N   0  0  0  0  0  0  0  0  0  0  0  0
    3.2593   -1.0418    0.0708 N   0  0  0  0  0  0  0  0  0  0  0  0
    0.4918    0.8989    0.2108 H   0  0  0  0  0  0  0  0  0  0  0  0
    0.6467   -0.6716    1.0164 H   0  0  0  0  0  0  0  0  0  0  0  0
    0.6331   -0.5772   -0.7580 H   0  0  0  0  0  0  0  0  0  0  0  0
    2.9553    2.2256    0.2912 H   0  0  0  0  0  0  0  0  0  0  0  0
    7.0417   -0.2261    0.0483 H   0  0  0  0  0  0  0  0  0  0  0  0
   10.2196    3.0403   -0.1463 H   0  0  0  0  0  0  0  0  0  0  0  0
   10.2425    5.5155   -0.1647 H   0  0  0  0  0  0  0  0  0  0  0  0
    8.1128    6.7804    0.0225 H   0  0  0  0  0  0  0  0  0  0  0  0
    5.9767    5.5632    0.2133 H   0  0  0  0  0  0  0  0  0  0  0  0
    4.7584    3.4353    0.2673 H   0  0  0  0  0  0  0  0  0  0  0  0
  1  2  1  0  0  0  0
  1 17  1  0  0  0  0
  1 18  1  0  0  0  0
  1 19  1  0  0  0  0
  2  3  2  0  0  0  0
  2 16  1  0  0  0  0
  3  4  1  0  0  0  0
  3 20  1  0  0  0  0
  4  5  1  0  0  0  0
  4 15  1  0  0  0  0
  5  6  2  0  0  0  0
  5 14  1  0  0  0  0
  6  7  1  0  0  0  0
  6 21  1  0  0  0  0
  7  8  2  0  0  0  0
  8  9  1  0  0  0  0
  8 13  1  0  0  0  0
  9 10  2  0  0  0  0
  9 22  1  0  0  0  0
 10 11  1  0  0  0  0
 10 23  1  0  0  0  0
 11 12  2  0  0  0  0
 11 24  1  0  0  0  0
 12 13  1  0  0  0  0
 12 25  1  0  0  0  0
 13 14  2  0  0  0  0
 14 26  1  0  0  0  0
 15 16  2  0  0  0  0
M  END
$$$$
