
 OpenBabel07132314063D

 27 28  0  0  0  0  0  0  0  0999 V2000
    1.1580   -0.6906    0.6338 C   0  0  0  0  0  0  0  0  0  0  0  0
    2.4920   -0.2176    0.2191 C   0  0  0  0  0  0  0  0  0  0  0  0
    3.3234    0.7063    0.8114 C   0  0  0  0  0  0  0  0  0  0  0  0
    4.3849    0.7864   -0.0387 N   0  0  0  0  0  0  0  0  0  0  0  0
    5.5723    1.5976    0.0746 C   0  0  0  0  0  0  0  0  0  0  0  0
    5.2436    3.3404    0.0832 S   0  0  0  0  0  0  0  0  0  0  0  0
    4.5888    3.7264   -1.1511 O   0  0  0  0  0  0  0  0  0  0  0  0
    4.6643    3.6802    1.3721 O   0  0  0  0  0  0  0  0  0  0  0  0
    6.8590    4.0872    0.0280 C   0  0  0  0  0  0  0  0  0  0  0  0
    7.6751    3.8678   -1.0863 C   0  0  0  0  0  0  0  0  0  0  0  0
    8.9310    4.4718   -1.1447 C   0  0  0  0  0  0  0  0  0  0  0  0
    9.3569    5.3012   -0.1059 C   0  0  0  0  0  0  0  0  0  0  0  0
    8.5297    5.5321    0.9943 C   0  0  0  0  0  0  0  0  0  0  0  0
    7.2760    4.9246    1.0663 C   0  0  0  0  0  0  0  0  0  0  0  0
    4.2656   -0.0920   -1.0497 N   0  0  0  0  0  0  0  0  0  0  0  0
    3.0943   -0.6984   -0.9136 N   0  0  0  0  0  0  0  0  0  0  0  0
    0.8437   -0.2181    1.5699 H   0  0  0  0  0  0  0  0  0  0  0  0
    1.1654   -1.7743    0.7842 H   0  0  0  0  0  0  0  0  0  0  0  0
    0.4143   -0.4525   -0.1330 H   0  0  0  0  0  0  0  0  0  0  0  0
    3.2300    1.3063    1.7058 H   0  0  0  0  0  0  0  0  0  0  0  0
    6.2231    1.3696   -0.7743 H   0  0  0  0  0  0  0  0  0  0  0  0
    6.0765    1.3272    1.0068 H   0  0  0  0  0  0  0  0  0  0  0  0
    7.3391    3.2572   -1.9216 H   0  0  0  0  0  0  0  0  0  0  0  0
    9.5728    4.3133   -2.0085 H   0  0  0  0  0  0  0  0  0  0  0  0
   10.3306    5.7834   -0.1619 H   0  0  0  0  0  0  0  0  0  0  0  0
    8.8577    6.1985    1.7892 H   0  0  0  0  0  0  0  0  0  0  0  0
    6.6315    5.1299    1.9188 H   0  0  0  0  0  0  0  0  0  0  0  0
  1  2  1  0  0  0  0
  1 17  1  0  0  0  0
  1 18  1  0  0  0  0
  1 19  1  0  0  0  0
  2  3  2  0  0  0  0
  2 16  1  0  0  0  0
  3  4  1  0  0  0  0
  3 20  1  0  0  0  0
  4  5  1  0  0  0  0
  4 15  1  0  0  0  0
  5  6  1  0  0  0  0
  5 21  1  0  0  0  0
  5 22  1  0  0  0  0
  6  7  2  0  0  0  0
  6  8  2  0  0  0  0
  6  9  1  0  0  0  0
  9 10  2  0  0  0  0
  9 14  1  0  0  0  0
 10 11  1  0  0  0  0
 10 23  1  0  0  0  0
 11 12  2  0  0  0  0
 11 24  1  0  0  0  0
 12 13  1  0  0  0  0
 12 25  1  0  0  0  0
 13 14  2  0  0  0  0
 13 26  1  0  0  0  0
 14 27  1  0  0  0  0
 15 16  2  0  0  0  0
M  END
$$$$
