
 OpenBabel07132314063D

 24 24  0  0  0  0  0  0  0  0999 V2000
    2.0591   -2.0855   -0.0376 C   0  0  0  0  0  0  0  0  0  0  0  0
    2.8827   -0.8623   -0.0203 C   0  0  0  0  0  0  0  0  0  0  0  0
    4.2522   -0.7155    0.0117 C   0  0  0  0  0  0  0  0  0  0  0  0
    4.4463    0.6384    0.0149 N   0  0  0  0  0  0  0  0  0  0  0  0
    5.7176    1.3751    0.0509 C   0  0  0  0  0  0  0  0  0  0  0  0
    6.5026    0.9923    1.3208 C   0  0  0  0  0  0  0  0  0  0  0  0
    6.5489    1.0113   -1.1946 C   0  0  0  0  0  0  0  0  0  0  0  0
    5.4910    2.9120    0.0358 C   0  0  0  0  0  0  0  0  0  0  0  0
    4.7874    3.3753    1.1876 O   0  0  0  0  0  0  0  0  0  0  0  0
    3.2636    1.2855   -0.0146 N   0  0  0  0  0  0  0  0  0  0  0  0
    2.3015    0.3758   -0.0364 N   0  0  0  0  0  0  0  0  0  0  0  0
    2.6817   -2.9855   -0.0434 H   0  0  0  0  0  0  0  0  0  0  0  0
    1.4250   -2.1039   -0.9294 H   0  0  0  0  0  0  0  0  0  0  0  0
    1.4138   -2.1220    0.8452 H   0  0  0  0  0  0  0  0  0  0  0  0
    5.0626   -1.4282    0.0353 H   0  0  0  0  0  0  0  0  0  0  0  0
    6.7495   -0.0755    1.3375 H   0  0  0  0  0  0  0  0  0  0  0  0
    5.9285    1.2067    2.2293 H   0  0  0  0  0  0  0  0  0  0  0  0
    7.4470    1.5455    1.3804 H   0  0  0  0  0  0  0  0  0  0  0  0
    6.7985   -0.0555   -1.2192 H   0  0  0  0  0  0  0  0  0  0  0  0
    7.4921    1.5688   -1.2180 H   0  0  0  0  0  0  0  0  0  0  0  0
    6.0003    1.2406   -2.1158 H   0  0  0  0  0  0  0  0  0  0  0  0
    4.9408    3.2341   -0.8565 H   0  0  0  0  0  0  0  0  0  0  0  0
    6.4542    3.4352    0.0245 H   0  0  0  0  0  0  0  0  0  0  0  0
    3.8811    3.0066    1.1158 H   0  0  0  0  0  0  0  0  0  0  0  0
  1  2  1  0  0  0  0
  1 12  1  0  0  0  0
  1 13  1  0  0  0  0
  1 14  1  0  0  0  0
  2  3  2  0  0  0  0
  2 11  1  0  0  0  0
  3  4  1  0  0  0  0
  3 15  1  0  0  0  0
  4  5  1  0  0  0  0
  4 10  1  0  0  0  0
  5  6  1  0  0  0  0
  5  7  1  0  0  0  0
  5  8  1  0  0  0  0
  6 16  1  0  0  0  0
  6 17  1  0  0  0  0
  6 18  1  0  0  0  0
  7 19  1  0  0  0  0
  7 20  1  0  0  0  0
  7 21  1  0  0  0  0
  8  9  1  0  0  0  0
  8 22  1  0  0  0  0
  8 23  1  0  0  0  0
  9 24  1  0  0  0  0
 10 11  2  0  0  0  0
M  END
$$$$
