
 OpenBabel07132314063D

 28 29  0  0  0  0  0  0  0  0999 V2000
    2.4850   -2.2241    0.1195 C   0  0  0  0  0  0  0  0  0  0  0  0
    3.2139   -0.9419    0.1104 C   0  0  0  0  0  0  0  0  0  0  0  0
    4.5655   -0.6980    0.0259 C   0  0  0  0  0  0  0  0  0  0  0  0
    4.6829    0.6723    0.0563 N   0  0  0  0  0  0  0  0  0  0  0  0
    5.8538    1.4686   -0.0282 C   0  0  0  0  0  0  0  0  0  0  0  0
    5.7362    2.8691   -0.0180 C   0  0  0  0  0  0  0  0  0  0  0  0
    6.8663    3.6859   -0.1666 C   0  0  0  0  0  0  0  0  0  0  0  0
    6.7803    5.1536   -0.2078 C   0  0  0  0  0  0  0  0  0  0  0  0
    5.7336    5.8256   -0.7136 C   0  0  0  0  0  0  0  0  0  0  0  0
    5.7638    7.3005   -0.7578 C   0  0  0  0  0  0  0  0  0  0  0  0
    6.6986    7.9869   -0.3845 O   0  0  0  0  0  0  0  0  0  0  0  0
    4.6303    7.8126   -1.2778 O   0  0  0  0  0  0  0  0  0  0  0  0
    8.1253    3.0811   -0.2606 C   0  0  0  0  0  0  0  0  0  0  0  0
    8.2508    1.6904   -0.2485 C   0  0  0  0  0  0  0  0  0  0  0  0
    7.1191    0.8818   -0.1417 C   0  0  0  0  0  0  0  0  0  0  0  0
    3.4469    1.2235    0.1542 N   0  0  0  0  0  0  0  0  0  0  0  0
    2.5498    0.2478    0.1891 N   0  0  0  0  0  0  0  0  0  0  0  0
    3.1740   -3.0712    0.0447 H   0  0  0  0  0  0  0  0  0  0  0  0
    1.7902   -2.2746   -0.7242 H   0  0  0  0  0  0  0  0  0  0  0  0
    1.9133   -2.3303    1.0464 H   0  0  0  0  0  0  0  0  0  0  0  0
    5.4087   -1.3634   -0.0572 H   0  0  0  0  0  0  0  0  0  0  0  0
    4.7560    3.3259    0.1038 H   0  0  0  0  0  0  0  0  0  0  0  0
    7.6495    5.6964    0.1632 H   0  0  0  0  0  0  0  0  0  0  0  0
    4.8707    5.3156   -1.1177 H   0  0  0  0  0  0  0  0  0  0  0  0
    3.9510    7.1623   -1.5319 H   0  0  0  0  0  0  0  0  0  0  0  0
    9.0235    3.6885   -0.3600 H   0  0  0  0  0  0  0  0  0  0  0  0
    9.2368    1.2372   -0.3314 H   0  0  0  0  0  0  0  0  0  0  0  0
    7.2616   -0.1948   -0.1490 H   0  0  0  0  0  0  0  0  0  0  0  0
  1  2  1  0  0  0  0
  1 18  1  0  0  0  0
  1 19  1  0  0  0  0
  1 20  1  0  0  0  0
  2  3  2  0  0  0  0
  2 17  1  0  0  0  0
  3  4  1  0  0  0  0
  3 21  1  0  0  0  0
  4  5  1  0  0  0  0
  4 16  1  0  0  0  0
  5  6  2  0  0  0  0
  5 15  1  0  0  0  0
  6  7  1  0  0  0  0
  6 22  1  0  0  0  0
  7  8  1  0  0  0  0
  7 13  2  0  0  0  0
  8  9  2  3  0  0  0
  8 23  1  0  0  0  0
  9 10  1  0  0  0  0
  9 24  1  0  0  0  0
 10 11  2  0  0  0  0
 10 12  1  0  0  0  0
 12 25  1  0  0  0  0
 13 14  1  0  0  0  0
 13 26  1  0  0  0  0
 14 15  2  0  0  0  0
 14 27  1  0  0  0  0
 15 28  1  0  0  0  0
 16 17  2  0  0  0  0
M  END
$$$$
