
 OpenBabel07132314063D

 30 31  0  0  1  0  0  0  0  0999 V2000
    2.2161   -2.0982   -0.0901 C   0  0  0  0  0  0  0  0  0  0  0  0
    2.9933   -0.8462   -0.0430 C   0  0  0  0  0  0  0  0  0  0  0  0
    4.3432   -0.6437    0.1429 C   0  0  0  0  0  0  0  0  0  0  0  0
    4.4853    0.7106    0.0674 N   0  0  0  0  0  0  0  0  0  0  0  0
    5.7190    1.4911    0.1349 C   0  0  3  0  0  0  0  0  0  0  0  0
    5.6955    2.4799    1.3069 C   0  0  0  0  0  0  0  0  0  0  0  0
    5.0106    3.8227    1.0455 C   0  0  3  0  0  0  0  0  0  0  0  0
    4.9321    4.5038    2.3043 O   0  0  0  0  0  0  0  0  0  0  0  0
    5.7221    4.7693    0.1216 C   0  0  0  0  0  0  0  0  0  0  0  0
    6.6531    4.4955   -0.8064 C   0  0  0  0  0  0  0  0  0  0  0  0
    7.1218    3.1490   -1.2665 C   0  0  1  0  0  0  0  0  0  0  0  0
    7.4643    3.2564   -2.3035 H   0  0  0  0  0  0  0  0  0  0  0  0
    8.2411    2.7504   -0.4906 O   0  0  0  0  0  0  0  0  0  0  0  0
    6.0486    2.0659   -1.2500 C   0  0  0  0  0  0  0  0  0  0  0  0
    3.3017    1.3112   -0.1443 N   0  0  0  0  0  0  0  0  0  0  0  0
    2.3770    0.3649   -0.2082 N   0  0  0  0  0  0  0  0  0  0  0  0
    2.8718   -2.9743   -0.0909 H   0  0  0  0  0  0  0  0  0  0  0  0
    1.6043   -2.1312   -0.9971 H   0  0  0  0  0  0  0  0  0  0  0  0
    1.5512   -2.1667    0.7762 H   0  0  0  0  0  0  0  0  0  0  0  0
    5.1723   -1.3167    0.3012 H   0  0  0  0  0  0  0  0  0  0  0  0
    6.4988    0.7535    0.3763 H   0  0  0  0  0  0  0  0  0  0  0  0
    6.7270    2.6711    1.6349 H   0  0  0  0  0  0  0  0  0  0  0  0
    5.2250    2.0043    2.1803 H   0  0  0  0  0  0  0  0  0  0  0  0
    3.9818    3.6903    0.7024 H   0  0  0  0  0  0  0  0  0  0  0  0
    5.8415    4.6321    2.6217 H   0  0  0  0  0  0  0  0  0  0  0  0
    5.4367    5.8137    0.2485 H   0  0  0  0  0  0  0  0  0  0  0  0
    7.0712    5.3385   -1.3563 H   0  0  0  0  0  0  0  0  0  0  0  0
    8.8141    3.5297   -0.3856 H   0  0  0  0  0  0  0  0  0  0  0  0
    6.3954    1.2286   -1.8728 H   0  0  0  0  0  0  0  0  0  0  0  0
    5.1468    2.4440   -1.7501 H   0  0  0  0  0  0  0  0  0  0  0  0
  1  2  1  0  0  0  0
  1 17  1  0  0  0  0
  1 18  1  0  0  0  0
  1 19  1  0  0  0  0
  2  3  2  0  0  0  0
  2 16  1  0  0  0  0
  3  4  1  0  0  0  0
  3 20  1  0  0  0  0
  4  5  1  0  0  0  0
  4 15  1  0  0  0  0
  5  6  1  0  0  0  0
  5 14  1  0  0  0  0
  5 21  1  0  0  0  0
  6  7  1  0  0  0  0
  6 22  1  0  0  0  0
  6 23  1  0  0  0  0
  7  8  1  0  0  0  0
  7  9  1  0  0  0  0
  7 24  1  0  0  0  0
  8 25  1  0  0  0  0
  9 10  2  0  0  0  0
  9 26  1  0  0  0  0
 10 11  1  0  0  0  0
 10 27  1  0  0  0  0
 11 12  1  6  0  0  0
 11 13  1  0  0  0  0
 11 14  1  0  0  0  0
 13 28  1  0  0  0  0
 14 29  1  0  0  0  0
 14 30  1  0  0  0  0
 15 16  2  0  0  0  0
M  END
$$$$
