
 OpenBabel07132314063D

 32 34  0  0  1  0  0  0  0  0999 V2000
    1.1464   -0.3015   -0.5851 C   0  0  0  0  0  0  0  0  0  0  0  0
    2.5105    0.0210   -0.1185 C   0  0  0  0  0  0  0  0  0  0  0  0
    3.4747    0.8359   -0.6683 C   0  0  0  0  0  0  0  0  0  0  0  0
    4.5034    0.7751    0.2332 N   0  0  0  0  0  0  0  0  0  0  0  0
    5.8539    1.3449    0.1543 C   0  0  3  0  0  0  0  0  0  0  0  0
    6.7096    0.4375   -0.7184 C   0  0  0  0  0  0  0  0  0  0  0  0
    8.1756    0.7996   -0.6083 C   0  0  0  0  0  0  0  0  0  0  0  0
    8.4983    1.9082   -1.5620 C   0  0  0  0  0  0  0  0  0  0  0  0
    9.4050    1.6501   -2.6079 C   0  0  0  0  0  0  0  0  0  0  0  0
    9.7723    2.6498   -3.5066 C   0  0  0  0  0  0  0  0  0  0  0  0
    9.2801    3.9364   -3.3409 C   0  0  0  0  0  0  0  0  0  0  0  0
    8.3905    4.2056   -2.3023 C   0  0  0  0  0  0  0  0  0  0  0  0
    7.9464    3.1850   -1.4443 C   0  0  0  0  0  0  0  0  0  0  0  0
    6.9003    3.5496   -0.5800 N   0  0  0  0  0  0  0  0  0  0  0  0
    5.8115    2.8323   -0.1740 C   0  0  0  0  0  0  0  0  0  0  0  0
    4.7930    3.5075    0.0204 O   0  0  0  0  0  0  0  0  0  0  0  0
    4.2181   -0.0836    1.2360 N   0  0  0  0  0  0  0  0  0  0  0  0
    2.9889   -0.5387    1.0336 N   0  0  0  0  0  0  0  0  0  0  0  0
    0.8706    0.2990   -1.4580 H   0  0  0  0  0  0  0  0  0  0  0  0
    0.4176   -0.1050    0.2076 H   0  0  0  0  0  0  0  0  0  0  0  0
    1.0762   -1.3585   -0.8590 H   0  0  0  0  0  0  0  0  0  0  0  0
    3.5083    1.4378   -1.5604 H   0  0  0  0  0  0  0  0  0  0  0  0
    6.2381    1.3056    1.1849 H   0  0  0  0  0  0  0  0  0  0  0  0
    6.3702    0.4534   -1.7624 H   0  0  0  0  0  0  0  0  0  0  0  0
    6.5950   -0.5990   -0.3728 H   0  0  0  0  0  0  0  0  0  0  0  0
    8.7809   -0.0856   -0.8401 H   0  0  0  0  0  0  0  0  0  0  0  0
    8.4553    1.0918    0.4113 H   0  0  0  0  0  0  0  0  0  0  0  0
    9.8233    0.6535   -2.7397 H   0  0  0  0  0  0  0  0  0  0  0  0
   10.4453    2.4241   -4.3296 H   0  0  0  0  0  0  0  0  0  0  0  0
    9.5652    4.7257   -4.0314 H   0  0  0  0  0  0  0  0  0  0  0  0
    7.9979    5.2166   -2.2138 H   0  0  0  0  0  0  0  0  0  0  0  0
    6.6471    4.5319   -0.6115 H   0  0  0  0  0  0  0  0  0  0  0  0
  1  2  1  0  0  0  0
  1 19  1  0  0  0  0
  1 20  1  0  0  0  0
  1 21  1  0  0  0  0
  2  3  2  0  0  0  0
  2 18  1  0  0  0  0
  3  4  1  0  0  0  0
  3 22  1  0  0  0  0
  4  5  1  0  0  0  0
  4 17  1  0  0  0  0
  5  6  1  0  0  0  0
  5 15  1  0  0  0  0
  5 23  1  0  0  0  0
  6  7  1  0  0  0  0
  6 24  1  0  0  0  0
  6 25  1  0  0  0  0
  7  8  1  0  0  0  0
  7 26  1  0  0  0  0
  7 27  1  0  0  0  0
  8  9  2  0  0  0  0
  8 13  1  0  0  0  0
  9 10  1  0  0  0  0
  9 28  1  0  0  0  0
 10 11  2  0  0  0  0
 10 29  1  0  0  0  0
 11 12  1  0  0  0  0
 11 30  1  0  0  0  0
 12 13  2  0  0  0  0
 12 31  1  0  0  0  0
 13 14  1  0  0  0  0
 14 15  1  0  0  0  0
 14 32  1  0  0  0  0
 15 16  2  0  0  0  0
 17 18  2  0  0  0  0
M  END
$$$$
