
 OpenBabel07132314063D

 47 49  0  0  1  0  0  0  0  0999 V2000
   11.6809    2.2964   -5.2027 C   0  0  0  0  0  0  0  0  0  0  0  0
   10.5858    2.7908   -4.3468 C   0  0  0  0  0  0  0  0  0  0  0  0
   10.3230    2.5399   -3.0184 C   0  0  0  0  0  0  0  0  0  0  0  0
    9.2559    3.3402   -2.7379 N   0  0  0  0  0  0  0  0  0  0  0  0
    8.6814    3.6286   -1.4384 C   0  0  0  0  0  0  0  0  0  0  0  0
    7.1965    3.2496   -1.3040 C   0  0  1  0  0  0  0  0  0  0  0  0
    6.6306    3.7127   -2.1215 H   0  0  0  0  0  0  0  0  0  0  0  0
    6.9972    1.7309   -1.4174 C   0  0  0  0  0  0  0  0  0  0  0  0
    6.6150    3.7287    0.0478 C   0  0  0  0  0  0  0  0  0  0  0  0
    6.8272    5.1481    0.3641 N   0  0  0  0  0  0  0  0  0  0  0  0
    6.2991    5.4521    1.7208 C   0  0  0  0  0  0  0  0  0  0  0  0
    6.5779    6.9130    2.1287 C   0  0  0  0  0  0  0  0  0  0  0  0
    5.9751    7.8230    1.1473 N   0  0  0  0  0  0  0  0  0  0  0  0
    5.1413    8.8556    1.5071 C   0  0  0  0  0  0  0  0  0  0  0  0
    5.1233   10.0763    0.8153 C   0  0  0  0  0  0  0  0  0  0  0  0
    4.2565   11.1184    1.1742 C   0  0  0  0  0  0  0  0  0  0  0  0
    3.3813   10.9505    2.2411 C   0  0  0  0  0  0  0  0  0  0  0  0
    2.3051   12.2196    2.6792 Cl  0  0  0  0  0  0  0  0  0  0  0  0
    3.3668    9.7581    2.9462 C   0  0  0  0  0  0  0  0  0  0  0  0
    4.2412    8.7288    2.5813 C   0  0  0  0  0  0  0  0  0  0  0  0
    6.3865    7.5736   -0.2420 C   0  0  0  0  0  0  0  0  0  0  0  0
    6.1797    6.0734   -0.6007 C   0  0  0  0  0  0  0  0  0  0  0  0
    8.8377    3.9975   -3.8336 N   0  0  0  0  0  0  0  0  0  0  0  0
    9.6478    3.6649   -4.8306 N   0  0  0  0  0  0  0  0  0  0  0  0
   12.4746    1.8406   -4.6020 H   0  0  0  0  0  0  0  0  0  0  0  0
   12.1233    3.1225   -5.7689 H   0  0  0  0  0  0  0  0  0  0  0  0
   11.3124    1.5494   -5.9113 H   0  0  0  0  0  0  0  0  0  0  0  0
   10.8111    1.9264   -2.2766 H   0  0  0  0  0  0  0  0  0  0  0  0
    8.8334    4.7036   -1.2908 H   0  0  0  0  0  0  0  0  0  0  0  0
    9.2825    3.1062   -0.6857 H   0  0  0  0  0  0  0  0  0  0  0  0
    7.5036    1.3153   -2.2935 H   0  0  0  0  0  0  0  0  0  0  0  0
    5.9317    1.4933   -1.5107 H   0  0  0  0  0  0  0  0  0  0  0  0
    7.3787    1.2117   -0.5315 H   0  0  0  0  0  0  0  0  0  0  0  0
    7.1013    3.1404    0.8388 H   0  0  0  0  0  0  0  0  0  0  0  0
    5.5460    3.4821    0.0893 H   0  0  0  0  0  0  0  0  0  0  0  0
    6.7705    4.7946    2.4601 H   0  0  0  0  0  0  0  0  0  0  0  0
    5.2161    5.2677    1.7563 H   0  0  0  0  0  0  0  0  0  0  0  0
    7.6621    7.0849    2.1506 H   0  0  0  0  0  0  0  0  0  0  0  0
    6.2256    7.0827    3.1514 H   0  0  0  0  0  0  0  0  0  0  0  0
    5.8136   10.2488   -0.0058 H   0  0  0  0  0  0  0  0  0  0  0  0
    4.2774   12.0514    0.6175 H   0  0  0  0  0  0  0  0  0  0  0  0
    2.6790    9.6102    3.7737 H   0  0  0  0  0  0  0  0  0  0  0  0
    4.1753    7.7949    3.1316 H   0  0  0  0  0  0  0  0  0  0  0  0
    7.4439    7.8417   -0.3596 H   0  0  0  0  0  0  0  0  0  0  0  0
    5.8106    8.1702   -0.9586 H   0  0  0  0  0  0  0  0  0  0  0  0
    6.5894    5.9215   -1.6047 H   0  0  0  0  0  0  0  0  0  0  0  0
    5.1024    5.8667   -0.6494 H   0  0  0  0  0  0  0  0  0  0  0  0
  1  2  1  0  0  0  0
  1 25  1  0  0  0  0
  1 26  1  0  0  0  0
  1 27  1  0  0  0  0
  2  3  2  0  0  0  0
  2 24  1  0  0  0  0
  3  4  1  0  0  0  0
  3 28  1  0  0  0  0
  4  5  1  0  0  0  0
  4 23  1  0  0  0  0
  5  6  1  0  0  0  0
  5 29  1  0  0  0  0
  5 30  1  0  0  0  0
  6  7  1  6  0  0  0
  6  8  1  0  0  0  0
  6  9  1  0  0  0  0
  8 31  1  0  0  0  0
  8 32  1  0  0  0  0
  8 33  1  0  0  0  0
  9 10  1  0  0  0  0
  9 34  1  0  0  0  0
  9 35  1  0  0  0  0
 10 11  1  0  0  0  0
 10 22  1  0  0  0  0
 11 12  1  0  0  0  0
 11 36  1  0  0  0  0
 11 37  1  0  0  0  0
 12 13  1  0  0  0  0
 12 38  1  0  0  0  0
 12 39  1  0  0  0  0
 13 14  1  0  0  0  0
 13 21  1  0  0  0  0
 14 15  2  0  0  0  0
 14 20  1  0  0  0  0
 15 16  1  0  0  0  0
 15 40  1  0  0  0  0
 16 17  2  0  0  0  0
 16 41  1  0  0  0  0
 17 18  1  0  0  0  0
 17 19  1  0  0  0  0
 19 20  2  0  0  0  0
 19 42  1  0  0  0  0
 20 43  1  0  0  0  0
 21 22  1  0  0  0  0
 21 44  1  0  0  0  0
 21 45  1  0  0  0  0
 22 46  1  0  0  0  0
 22 47  1  0  0  0  0
 23 24  2  0  0  0  0
M  END
$$$$
