
 OpenBabel07132314063D

 33 35  0  0  1  0  0  0  0  0999 V2000
    8.0637   -0.1136    4.3953 C   0  0  0  0  0  0  0  0  0  0  0  0
    7.2131    0.5733    3.4067 C   0  0  0  0  0  0  0  0  0  0  0  0
    6.8855    0.2153    2.1184 C   0  0  0  0  0  0  0  0  0  0  0  0
    6.1902    1.2903    1.6345 N   0  0  0  0  0  0  0  0  0  0  0  0
    5.7022    1.5983    0.2771 C   0  0  1  0  0  0  0  0  0  0  0  0
    4.6297    1.3681    0.3699 H   0  0  0  0  0  0  0  0  0  0  0  0
    5.8274    3.1205   -0.0316 C   0  0  0  0  0  0  0  0  0  0  0  0
    6.7760    3.5150   -1.1650 C   0  0  1  0  0  0  0  0  0  0  0  0
    7.1987    4.5100   -0.9770 H   0  0  0  0  0  0  0  0  0  0  0  0
    7.8066    2.5273   -1.4707 N   0  0  0  0  0  0  0  0  0  0  0  0
    8.8203    2.2822   -0.4685 C   0  0  0  0  0  0  0  0  0  0  0  0
    7.0484    1.3821   -1.9576 C   0  0  1  0  0  0  0  0  0  0  0  0
    7.6841    0.6569   -2.4795 H   0  0  0  0  0  0  0  0  0  0  0  0
    6.2618    0.6756   -0.8415 C   0  0  0  0  0  0  0  0  0  0  0  0
    6.1198    2.0656   -2.9721 C   0  0  0  0  0  0  0  0  0  0  0  0
    6.0393    3.5181   -2.5050 C   0  0  0  0  0  0  0  0  0  0  0  0
    5.9410    2.1579    2.6378 N   0  0  0  0  0  0  0  0  0  0  0  0
    6.6193    1.7676    3.7036 N   0  0  0  0  0  0  0  0  0  0  0  0
    8.1159   -1.1879    4.2006 H   0  0  0  0  0  0  0  0  0  0  0  0
    7.6728    0.0318    5.4094 H   0  0  0  0  0  0  0  0  0  0  0  0
    9.0811    0.2934    4.3645 H   0  0  0  0  0  0  0  0  0  0  0  0
    7.1293   -0.6578    1.5366 H   0  0  0  0  0  0  0  0  0  0  0  0
    6.1401    3.6842    0.8534 H   0  0  0  0  0  0  0  0  0  0  0  0
    4.8185    3.4917   -0.2548 H   0  0  0  0  0  0  0  0  0  0  0  0
    9.3353    3.2160   -0.2150 H   0  0  0  0  0  0  0  0  0  0  0  0
    9.5808    1.6016   -0.8664 H   0  0  0  0  0  0  0  0  0  0  0  0
    8.4478    1.8520    0.4588 H   0  0  0  0  0  0  0  0  0  0  0  0
    6.9138   -0.1018   -0.4386 H   0  0  0  0  0  0  0  0  0  0  0  0
    5.4204    0.1309   -1.2934 H   0  0  0  0  0  0  0  0  0  0  0  0
    5.1300    1.6055   -3.0307 H   0  0  0  0  0  0  0  0  0  0  0  0
    6.5600    2.0394   -3.9780 H   0  0  0  0  0  0  0  0  0  0  0  0
    5.0058    3.8721   -2.4390 H   0  0  0  0  0  0  0  0  0  0  0  0
    6.5604    4.1650   -3.2227 H   0  0  0  0  0  0  0  0  0  0  0  0
  1  2  1  0  0  0  0
  1 19  1  0  0  0  0
  1 20  1  0  0  0  0
  1 21  1  0  0  0  0
  2  3  2  0  0  0  0
  2 18  1  0  0  0  0
  3  4  1  0  0  0  0
  3 22  1  0  0  0  0
  4 17  1  0  0  0  0
  5  7  1  0  0  0  0
  5 14  1  0  0  0  0
  5  6  1  1  0  0  0
  5  4  1  0  0  0  0
  7  8  1  0  0  0  0
  7 23  1  0  0  0  0
  7 24  1  0  0  0  0
  8  9  1  1  0  0  0
  8 10  1  0  0  0  0
  8 16  1  0  0  0  0
 10 11  1  0  0  0  0
 10 12  1  0  0  0  0
 11 25  1  0  0  0  0
 11 26  1  0  0  0  0
 11 27  1  0  0  0  0
 12 13  1  6  0  0  0
 12 14  1  0  0  0  0
 12 15  1  0  0  0  0
 14 28  1  0  0  0  0
 14 29  1  0  0  0  0
 15 16  1  0  0  0  0
 15 30  1  0  0  0  0
 15 31  1  0  0  0  0
 16 32  1  0  0  0  0
 16 33  1  0  0  0  0
 17 18  2  0  0  0  0
M  END
$$$$
