
 OpenBabel07132314063D

 33 35  0  0  1  0  0  0  0  0999 V2000
    1.5786   -1.0382    1.7377 C   0  0  0  0  0  0  0  0  0  0  0  0
    2.6205   -0.2667    1.0335 C   0  0  0  0  0  0  0  0  0  0  0  0
    3.9806   -0.2359    1.2339 C   0  0  0  0  0  0  0  0  0  0  0  0
    4.4268    0.6848    0.3355 N   0  0  0  0  0  0  0  0  0  0  0  0
    5.7932    1.1551    0.1586 C   0  0  2  0  0  0  0  0  0  0  0  0
    6.3199    0.7183    1.0209 H   0  0  0  0  0  0  0  0  0  0  0  0
    5.9301    2.6842    0.3434 C   0  0  0  0  0  0  0  0  0  0  0  0
    6.7856    3.3945   -0.7139 C   0  0  1  0  0  0  0  0  0  0  0  0
    7.1364    4.3585   -0.3255 H   0  0  0  0  0  0  0  0  0  0  0  0
    7.8869    2.5691   -1.2105 N   0  0  0  0  0  0  0  0  0  0  0  0
    8.8622    2.1361   -0.2283 C   0  0  0  0  0  0  0  0  0  0  0  0
    7.2101    1.5212   -1.9747 C   0  0  1  0  0  0  0  0  0  0  0  0
    7.9037    0.9814   -2.6296 H   0  0  0  0  0  0  0  0  0  0  0  0
    6.4598    0.5283   -1.0826 C   0  0  0  0  0  0  0  0  0  0  0  0
    6.2369    2.3478   -2.8221 C   0  0  0  0  0  0  0  0  0  0  0  0
    5.9989    3.6165   -2.0078 C   0  0  0  0  0  0  0  0  0  0  0  0
    3.4210    1.1598   -0.4178 N   0  0  0  0  0  0  0  0  0  0  0  0
    2.3020    0.5936    0.0151 N   0  0  0  0  0  0  0  0  0  0  0  0
    2.0210   -1.8033    2.3841 H   0  0  0  0  0  0  0  0  0  0  0  0
    0.9186   -1.5365    1.0224 H   0  0  0  0  0  0  0  0  0  0  0  0
    0.9740   -0.3736    2.3625 H   0  0  0  0  0  0  0  0  0  0  0  0
    4.6331   -0.7596    1.9190 H   0  0  0  0  0  0  0  0  0  0  0  0
    6.3927    2.8563    1.3254 H   0  0  0  0  0  0  0  0  0  0  0  0
    4.9495    3.1730    0.4074 H   0  0  0  0  0  0  0  0  0  0  0  0
    9.3816    3.0048    0.1908 H   0  0  0  0  0  0  0  0  0  0  0  0
    9.6256    1.5096   -0.7024 H   0  0  0  0  0  0  0  0  0  0  0  0
    8.4418    1.5699    0.6067 H   0  0  0  0  0  0  0  0  0  0  0  0
    7.1789   -0.2242   -0.7294 H   0  0  0  0  0  0  0  0  0  0  0  0
    5.7349   -0.0330   -1.6864 H   0  0  0  0  0  0  0  0  0  0  0  0
    5.2994    1.8234   -3.0334 H   0  0  0  0  0  0  0  0  0  0  0  0
    6.6916    2.6143   -3.7839 H   0  0  0  0  0  0  0  0  0  0  0  0
    4.9334    3.8041   -1.8424 H   0  0  0  0  0  0  0  0  0  0  0  0
    6.4040    4.4775   -2.5548 H   0  0  0  0  0  0  0  0  0  0  0  0
  1  2  1  0  0  0  0
  1 19  1  0  0  0  0
  1 20  1  0  0  0  0
  1 21  1  0  0  0  0
  2  3  2  0  0  0  0
  2 18  1  0  0  0  0
  3  4  1  0  0  0  0
  3 22  1  0  0  0  0
  4  5  1  0  0  0  0
  4 17  1  0  0  0  0
  5  6  1  1  0  0  0
  5  7  1  0  0  0  0
  5 14  1  0  0  0  0
  7  8  1  0  0  0  0
  7 23  1  0  0  0  0
  7 24  1  0  0  0  0
  8  9  1  1  0  0  0
  8 10  1  0  0  0  0
  8 16  1  0  0  0  0
 10 11  1  0  0  0  0
 10 12  1  0  0  0  0
 11 25  1  0  0  0  0
 11 26  1  0  0  0  0
 11 27  1  0  0  0  0
 12 13  1  6  0  0  0
 12 14  1  0  0  0  0
 12 15  1  0  0  0  0
 14 28  1  0  0  0  0
 14 29  1  0  0  0  0
 15 16  1  0  0  0  0
 15 30  1  0  0  0  0
 15 31  1  0  0  0  0
 16 32  1  0  0  0  0
 16 33  1  0  0  0  0
 17 18  2  0  0  0  0
M  END
$$$$
