
 OpenBabel07132314063D

 31 32  0  0  0  0  0  0  0  0999 V2000
    1.8814   -0.8131    2.6824 C   0  0  0  0  0  0  0  0  0  0  0  0
    2.6991    0.0458    1.8091 C   0  0  0  0  0  0  0  0  0  0  0  0
    4.0563    0.0303    1.5779 C   0  0  0  0  0  0  0  0  0  0  0  0
    4.2769    1.0906    0.7327 N   0  0  0  0  0  0  0  0  0  0  0  0
    5.4915    1.5966    0.2233 C   0  0  0  0  0  0  0  0  0  0  0  0
    5.5378    2.9983    0.0380 C   0  0  0  0  0  0  0  0  0  0  0  0
    6.7456    3.6413   -0.2182 C   0  0  0  0  0  0  0  0  0  0  0  0
    6.8020    5.3578   -0.2983 Cl  0  0  0  0  0  0  0  0  0  0  0  0
    7.9105    2.9011   -0.3485 C   0  0  0  0  0  0  0  0  0  0  0  0
    7.8541    1.5068   -0.2530 C   0  0  0  0  0  0  0  0  0  0  0  0
    6.6460    0.8236    0.0215 C   0  0  0  0  0  0  0  0  0  0  0  0
    6.8066   -0.6563    0.1332 C   0  0  0  0  0  0  0  0  0  0  0  0
    7.7638   -1.0267    0.8189 O   0  0  0  0  0  0  0  0  0  0  0  0
    5.9936   -1.5815   -0.5299 N   0  0  0  0  0  0  0  0  0  0  0  0
    4.7614   -1.3247   -1.2629 C   0  0  0  0  0  0  0  0  0  0  0  0
    6.3040   -2.9910   -0.3119 C   0  0  0  0  0  0  0  0  0  0  0  0
    3.1054    1.7253    0.4889 N   0  0  0  0  0  0  0  0  0  0  0  0
    2.1344    1.0795    1.1180 N   0  0  0  0  0  0  0  0  0  0  0  0
    2.1803   -1.8613    2.5910 H   0  0  0  0  0  0  0  0  0  0  0  0
    0.8219   -0.7383    2.4221 H   0  0  0  0  0  0  0  0  0  0  0  0
    1.9967   -0.5099    3.7283 H   0  0  0  0  0  0  0  0  0  0  0  0
    4.8469   -0.5927    1.9726 H   0  0  0  0  0  0  0  0  0  0  0  0
    4.6487    3.6119    0.1857 H   0  0  0  0  0  0  0  0  0  0  0  0
    8.8650    3.3962   -0.5085 H   0  0  0  0  0  0  0  0  0  0  0  0
    8.7830    0.9446   -0.3615 H   0  0  0  0  0  0  0  0  0  0  0  0
    4.6765   -0.2862   -1.5765 H   0  0  0  0  0  0  0  0  0  0  0  0
    3.9165   -1.6014   -0.6239 H   0  0  0  0  0  0  0  0  0  0  0  0
    4.7294   -1.9597   -2.1534 H   0  0  0  0  0  0  0  0  0  0  0  0
    7.3828   -3.1444   -0.2069 H   0  0  0  0  0  0  0  0  0  0  0  0
    5.9584   -3.5916   -1.1588 H   0  0  0  0  0  0  0  0  0  0  0  0
    5.8058   -3.3237    0.6033 H   0  0  0  0  0  0  0  0  0  0  0  0
  1  2  1  0  0  0  0
  1 19  1  0  0  0  0
  1 20  1  0  0  0  0
  1 21  1  0  0  0  0
  2  3  2  0  0  0  0
  2 18  1  0  0  0  0
  3  4  1  0  0  0  0
  3 22  1  0  0  0  0
  4  5  1  0  0  0  0
  4 17  1  0  0  0  0
  5  6  2  0  0  0  0
  5 11  1  0  0  0  0
  6  7  1  0  0  0  0
  6 23  1  0  0  0  0
  7  8  1  0  0  0  0
  7  9  2  0  0  0  0
  9 10  1  0  0  0  0
  9 24  1  0  0  0  0
 10 11  2  0  0  0  0
 10 25  1  0  0  0  0
 11 12  1  0  0  0  0
 12 13  2  0  0  0  0
 12 14  1  0  0  0  0
 14 15  1  0  0  0  0
 14 16  1  0  0  0  0
 15 26  1  0  0  0  0
 15 27  1  0  0  0  0
 15 28  1  0  0  0  0
 16 29  1  0  0  0  0
 16 30  1  0  0  0  0
 16 31  1  0  0  0  0
 17 18  2  0  0  0  0
M  END
$$$$
