
 OpenBabel07132314063D

 30 31  0  0  1  0  0  0  0  0999 V2000
    1.7810   -1.3138    1.2405 C   0  0  0  0  0  0  0  0  0  0  0  0
    2.8386   -0.5391    0.5652 C   0  0  0  0  0  0  0  0  0  0  0  0
    3.8889    0.1672    1.1048 C   0  0  0  0  0  0  0  0  0  0  0  0
    4.5247    0.6882    0.0199 N   0  0  0  0  0  0  0  0  0  0  0  0
    5.7165    1.5087    0.0019 C   0  0  0  0  0  0  0  0  0  0  0  0
    5.3855    3.0005    0.1002 C   0  0  3  0  0  0  0  0  0  0  0  0
    4.7439    3.2744    1.3509 O   0  0  0  0  0  0  0  0  0  0  0  0
    6.6607    3.8460   -0.0405 C   0  0  0  0  0  0  0  0  0  0  0  0
    6.4015    5.2718    0.0802 N   0  0  0  0  0  0  0  0  0  0  0  0
    6.1688    6.0943   -0.9983 C   0  0  0  0  0  0  0  0  0  0  0  0
    5.9401    7.3425   -0.4684 C   0  0  0  0  0  0  0  0  0  0  0  0
    6.0531    7.3196    0.8947 N   0  0  0  0  0  0  0  0  0  0  0  0
    6.3246    6.0643    1.2011 C   0  0  0  0  0  0  0  0  0  0  0  0
    6.5077    5.6201    2.5638 N   0  3  0  0  0  0  0  0  0  0  0  0
    6.7580    4.4181    2.7500 O   0  0  0  0  0  0  0  0  0  0  0  0
    6.4149    6.4693    3.4582 O   0  5  0  0  0  0  0  0  0  0  0  0
    3.9310    0.3182   -1.1254 N   0  0  0  0  0  0  0  0  0  0  0  0
    2.8861   -0.4342   -0.8018 N   0  0  0  0  0  0  0  0  0  0  0  0
    1.9136   -1.3006    2.3272 H   0  0  0  0  0  0  0  0  0  0  0  0
    1.8016   -2.3564    0.9092 H   0  0  0  0  0  0  0  0  0  0  0  0
    0.7954   -0.8963    1.0136 H   0  0  0  0  0  0  0  0  0  0  0  0
    4.2062    0.3495    2.1207 H   0  0  0  0  0  0  0  0  0  0  0  0
    6.2620    1.2804   -0.9213 H   0  0  0  0  0  0  0  0  0  0  0  0
    6.3318    1.1887    0.8509 H   0  0  0  0  0  0  0  0  0  0  0  0
    4.6747    3.2792   -0.6878 H   0  0  0  0  0  0  0  0  0  0  0  0
    5.3719    3.1223    2.0854 H   0  0  0  0  0  0  0  0  0  0  0  0
    7.1162    3.6818   -1.0254 H   0  0  0  0  0  0  0  0  0  0  0  0
    7.4247    3.5733    0.6932 H   0  0  0  0  0  0  0  0  0  0  0  0
    6.1676    5.7345   -2.0185 H   0  0  0  0  0  0  0  0  0  0  0  0
    5.7007    8.2565   -0.9982 H   0  0  0  0  0  0  0  0  0  0  0  0
  1  2  1  0  0  0  0
  1 19  1  0  0  0  0
  1 20  1  0  0  0  0
  1 21  1  0  0  0  0
  2  3  2  0  0  0  0
  2 18  1  0  0  0  0
  3  4  1  0  0  0  0
  3 22  1  0  0  0  0
  4  5  1  0  0  0  0
  4 17  1  0  0  0  0
  5  6  1  0  0  0  0
  5 23  1  0  0  0  0
  5 24  1  0  0  0  0
  6  7  1  0  0  0  0
  6  8  1  0  0  0  0
  6 25  1  0  0  0  0
  7 26  1  0  0  0  0
  8  9  1  0  0  0  0
  8 27  1  0  0  0  0
  8 28  1  0  0  0  0
  9 10  1  0  0  0  0
  9 13  1  0  0  0  0
 10 11  2  0  0  0  0
 10 29  1  0  0  0  0
 11 12  1  0  0  0  0
 11 30  1  0  0  0  0
 12 13  2  0  0  0  0
 13 14  1  0  0  0  0
 14 15  2  0  0  0  0
 14 16  1  0  0  0  0
 17 18  2  0  0  0  0
M  CHG  2  14   1  16  -1
M  END
$$$$
