
 OpenBabel07132314063D

 35 37  0  0  1  0  0  0  0  0999 V2000
    3.3651    0.2046   -4.1296 C   0  0  0  0  0  0  0  0  0  0  0  0
    3.8438    0.3552   -2.7522 C   0  0  0  0  0  0  0  0  0  0  0  0
    5.0527    0.8203   -2.2680 C   0  0  0  0  0  0  0  0  0  0  0  0
    4.8751    0.8655   -0.9136 N   0  0  0  0  0  0  0  0  0  0  0  0
    5.7220    1.5054    0.0966 C   0  0  0  0  0  0  0  0  0  0  0  0
    5.4383    2.9807    0.2406 C   0  0  0  0  0  0  0  0  0  0  0  0
    6.3048    3.9899    0.0268 C   0  0  0  0  0  0  0  0  0  0  0  0
    5.8042    5.4233   -0.0573 C   0  0  0  0  0  0  0  0  0  0  0  0
    4.2558    5.4628    0.1429 C   0  0  1  0  0  0  0  0  0  0  0  0
    3.8482    6.4715    0.0323 H   0  0  0  0  0  0  0  0  0  0  0  0
    3.5839    4.3666   -0.7253 C   0  0  0  0  0  0  0  0  0  0  0  0
    4.0182    3.4001    0.4484 C   0  0  2  0  0  0  0  0  0  0  0  0
    3.3510    2.5482    0.6047 H   0  0  0  0  0  0  0  0  0  0  0  0
    3.7254    4.6409    1.4083 C   0  0  0  0  0  0  0  0  0  0  0  0
    4.4450    5.1313    2.6707 C   0  0  0  0  0  0  0  0  0  0  0  0
    2.2403    4.4569    1.8089 C   0  0  0  0  0  0  0  0  0  0  0  0
    3.7028    0.3017   -0.5665 N   0  0  0  0  0  0  0  0  0  0  0  0
    3.0457    0.0219   -1.6830 N   0  0  0  0  0  0  0  0  0  0  0  0
    3.8910    0.8878   -4.8071 H   0  0  0  0  0  0  0  0  0  0  0  0
    2.2979    0.4376   -4.1900 H   0  0  0  0  0  0  0  0  0  0  0  0
    3.5129   -0.8182   -4.4849 H   0  0  0  0  0  0  0  0  0  0  0  0
    5.9574    1.1673   -2.7508 H   0  0  0  0  0  0  0  0  0  0  0  0
    6.7548    1.3142   -0.2012 H   0  0  0  0  0  0  0  0  0  0  0  0
    5.5494    0.9831    1.0447 H   0  0  0  0  0  0  0  0  0  0  0  0
    7.3542    3.8039   -0.1890 H   0  0  0  0  0  0  0  0  0  0  0  0
    6.0569    5.8302   -1.0425 H   0  0  0  0  0  0  0  0  0  0  0  0
    6.3213    6.0407    0.6832 H   0  0  0  0  0  0  0  0  0  0  0  0
    4.0249    4.1885   -1.7127 H   0  0  0  0  0  0  0  0  0  0  0  0
    2.5078    4.4949   -0.8742 H   0  0  0  0  0  0  0  0  0  0  0  0
    5.3960    5.6334    2.4857 H   0  0  0  0  0  0  0  0  0  0  0  0
    4.6190    4.3225    3.3830 H   0  0  0  0  0  0  0  0  0  0  0  0
    3.8265    5.8898    3.1746 H   0  0  0  0  0  0  0  0  0  0  0  0
    1.6170    4.0263    1.0184 H   0  0  0  0  0  0  0  0  0  0  0  0
    1.7814    5.3978    2.1209 H   0  0  0  0  0  0  0  0  0  0  0  0
    2.1822    3.7518    2.6513 H   0  0  0  0  0  0  0  0  0  0  0  0
  1  2  1  0  0  0  0
  1 19  1  0  0  0  0
  1 20  1  0  0  0  0
  1 21  1  0  0  0  0
  2  3  2  0  0  0  0
  2 18  1  0  0  0  0
  3  4  1  0  0  0  0
  3 22  1  0  0  0  0
  4  5  1  0  0  0  0
  4 17  1  0  0  0  0
  5  6  1  0  0  0  0
  5 23  1  0  0  0  0
  5 24  1  0  0  0  0
  6  7  2  0  0  0  0
  6 12  1  0  0  0  0
  7  8  1  0  0  0  0
  7 25  1  0  0  0  0
  8  9  1  0  0  0  0
  8 26  1  0  0  0  0
  8 27  1  0  0  0  0
  9 11  1  0  0  0  0
  9 14  1  0  0  0  0
  9 10  1  6  0  0  0
 11 12  1  0  0  0  0
 11 28  1  0  0  0  0
 11 29  1  0  0  0  0
 12 14  1  0  0  0  0
 12 13  1  1  0  0  0
 14 15  1  0  0  0  0
 14 16  1  0  0  0  0
 15 30  1  0  0  0  0
 15 31  1  0  0  0  0
 15 32  1  0  0  0  0
 16 33  1  0  0  0  0
 16 34  1  0  0  0  0
 16 35  1  0  0  0  0
 17 18  2  0  0  0  0
M  END
$$$$
