
 OpenBabel07132314063D

 30 31  0  0  0  0  0  0  0  0999 V2000
    1.0367   -0.4413   -0.6206 C   0  0  0  0  0  0  0  0  0  0  0  0
    2.4562   -0.1826   -0.3162 C   0  0  0  0  0  0  0  0  0  0  0  0
    3.2679    0.8789   -0.6660 C   0  0  0  0  0  0  0  0  0  0  0  0
    4.4883    0.6153   -0.0793 N   0  0  0  0  0  0  0  0  0  0  0  0
    5.6844    1.4044   -0.0640 C   0  0  0  0  0  0  0  0  0  0  0  0
    5.6463    2.8228   -0.0801 C   0  0  0  0  0  0  0  0  0  0  0  0
    4.4222    3.7003   -0.0073 C   0  0  0  0  0  0  0  0  0  0  0  0
    6.8627    3.5437   -0.0914 C   0  0  0  0  0  0  0  0  0  0  0  0
    8.1020    2.9103   -0.0446 C   0  0  0  0  0  0  0  0  0  0  0  0
    9.3786    3.6972   -0.0314 C   0  0  0  0  0  0  0  0  0  0  0  0
    8.1363    1.5191   -0.0055 C   0  0  0  0  0  0  0  0  0  0  0  0
    6.9524    0.7500   -0.0190 C   0  0  0  0  0  0  0  0  0  0  0  0
    7.1458   -0.7502   -0.0352 C   0  0  0  0  0  0  0  0  0  0  0  0
    4.4145   -0.5964    0.5272 N   0  0  0  0  0  0  0  0  0  0  0  0
    3.1845   -1.0700    0.4129 N   0  0  0  0  0  0  0  0  0  0  0  0
    0.5673    0.4179   -1.1064 H   0  0  0  0  0  0  0  0  0  0  0  0
    0.4836   -0.6524    0.3018 H   0  0  0  0  0  0  0  0  0  0  0  0
    0.9420   -1.3074   -1.2823 H   0  0  0  0  0  0  0  0  0  0  0  0
    3.0855    1.7480   -1.2767 H   0  0  0  0  0  0  0  0  0  0  0  0
    3.5072    3.1815    0.2723 H   0  0  0  0  0  0  0  0  0  0  0  0
    4.2738    4.2111   -0.9649 H   0  0  0  0  0  0  0  0  0  0  0  0
    4.5641    4.4612    0.7709 H   0  0  0  0  0  0  0  0  0  0  0  0
    6.8335    4.6341   -0.1064 H   0  0  0  0  0  0  0  0  0  0  0  0
    9.1867    4.7753   -0.0358 H   0  0  0  0  0  0  0  0  0  0  0  0
    9.9794    3.4586   -0.9149 H   0  0  0  0  0  0  0  0  0  0  0  0
    9.9547    3.4650    0.8700 H   0  0  0  0  0  0  0  0  0  0  0  0
    9.1042    1.0209    0.0292 H   0  0  0  0  0  0  0  0  0  0  0  0
    8.2044   -1.0170   -0.1318 H   0  0  0  0  0  0  0  0  0  0  0  0
    6.6351   -1.1924   -0.8962 H   0  0  0  0  0  0  0  0  0  0  0  0
    6.7994   -1.1998    0.8993 H   0  0  0  0  0  0  0  0  0  0  0  0
  1  2  1  0  0  0  0
  1 16  1  0  0  0  0
  1 17  1  0  0  0  0
  1 18  1  0  0  0  0
  2  3  2  0  0  0  0
  2 15  1  0  0  0  0
  3  4  1  0  0  0  0
  3 19  1  0  0  0  0
  4  5  1  0  0  0  0
  4 14  1  0  0  0  0
  5  6  2  0  0  0  0
  5 12  1  0  0  0  0
  6  7  1  0  0  0  0
  6  8  1  0  0  0  0
  7 20  1  0  0  0  0
  7 21  1  0  0  0  0
  7 22  1  0  0  0  0
  8  9  2  0  0  0  0
  8 23  1  0  0  0  0
  9 10  1  0  0  0  0
  9 11  1  0  0  0  0
 10 24  1  0  0  0  0
 10 25  1  0  0  0  0
 10 26  1  0  0  0  0
 11 12  2  0  0  0  0
 11 27  1  0  0  0  0
 12 13  1  0  0  0  0
 13 28  1  0  0  0  0
 13 29  1  0  0  0  0
 13 30  1  0  0  0  0
 14 15  2  0  0  0  0
M  END
$$$$
