
 OpenBabel07132314063D

 25 26  0  0  0  0  0  0  0  0999 V2000
    1.4799   -0.8075   -1.5062 C   0  0  0  0  0  0  0  0  0  0  0  0
    2.6565   -0.3044   -0.7731 C   0  0  0  0  0  0  0  0  0  0  0  0
    3.8018    0.2981   -1.2449 C   0  0  0  0  0  0  0  0  0  0  0  0
    4.4848    0.6322   -0.1118 N   0  0  0  0  0  0  0  0  0  0  0  0
    5.6912    1.4363    0.0042 C   0  0  0  0  0  0  0  0  0  0  0  0
    5.4183    2.9277   -0.0051 C   0  0  0  0  0  0  0  0  0  0  0  0
    4.2191    3.4798    0.4857 C   0  0  0  0  0  0  0  0  0  0  0  0
    4.0019    4.8596    0.4603 C   0  0  0  0  0  0  0  0  0  0  0  0
    2.3584    5.5588    1.0826 Br  0  0  0  0  0  0  0  0  0  0  0  0
    4.9782    5.7259   -0.0208 C   0  0  0  0  0  0  0  0  0  0  0  0
    6.1879    5.1989   -0.4653 C   0  0  0  0  0  0  0  0  0  0  0  0
    7.5295    6.3865   -1.0856 Br  0  0  0  0  0  0  0  0  0  0  0  0
    6.4072    3.8148   -0.4531 C   0  0  0  0  0  0  0  0  0  0  0  0
    7.5996    3.2873   -0.8741 O   0  0  0  0  0  0  0  0  0  0  0  0
    3.8568    0.1765    0.9882 N   0  0  0  0  0  0  0  0  0  0  0  0
    2.7204   -0.3810    0.5937 N   0  0  0  0  0  0  0  0  0  0  0  0
    1.4239   -0.3717   -2.5087 H   0  0  0  0  0  0  0  0  0  0  0  0
    0.5590   -0.5457   -0.9749 H   0  0  0  0  0  0  0  0  0  0  0  0
    1.5250   -1.8958   -1.6033 H   0  0  0  0  0  0  0  0  0  0  0  0
    4.1490    0.5477   -2.2364 H   0  0  0  0  0  0  0  0  0  0  0  0
    6.3190    1.1472   -0.8469 H   0  0  0  0  0  0  0  0  0  0  0  0
    6.2038    1.1496    0.9289 H   0  0  0  0  0  0  0  0  0  0  0  0
    3.4383    2.8362    0.8907 H   0  0  0  0  0  0  0  0  0  0  0  0
    4.8004    6.7974   -0.0383 H   0  0  0  0  0  0  0  0  0  0  0  0
    8.1838    4.0328   -1.1113 H   0  0  0  0  0  0  0  0  0  0  0  0
  1  2  1  0  0  0  0
  1 17  1  0  0  0  0
  1 18  1  0  0  0  0
  1 19  1  0  0  0  0
  2  3  2  0  0  0  0
  2 16  1  0  0  0  0
  3  4  1  0  0  0  0
  3 20  1  0  0  0  0
  4  5  1  0  0  0  0
  4 15  1  0  0  0  0
  5  6  1  0  0  0  0
  5 21  1  0  0  0  0
  5 22  1  0  0  0  0
  6  7  2  0  0  0  0
  6 13  1  0  0  0  0
  7  8  1  0  0  0  0
  7 23  1  0  0  0  0
  8  9  1  0  0  0  0
  8 10  2  0  0  0  0
 10 11  1  0  0  0  0
 10 24  1  0  0  0  0
 11 12  1  0  0  0  0
 11 13  2  0  0  0  0
 13 14  1  0  0  0  0
 14 25  1  0  0  0  0
 15 16  2  0  0  0  0
M  END
$$$$
