
 OpenBabel07132314063D

 39 42  0  0  0  0  0  0  0  0999 V2000
    2.8939   -2.5063    0.4394 C   0  0  0  0  0  0  0  0  0  0  0  0
    3.4048   -1.1431    0.2137 C   0  0  0  0  0  0  0  0  0  0  0  0
    4.6946   -0.6905    0.0706 C   0  0  0  0  0  0  0  0  0  0  0  0
    4.5847    0.6797   -0.0657 N   0  0  0  0  0  0  0  0  0  0  0  0
    5.6716    1.5996   -0.1389 C   0  0  0  0  0  0  0  0  0  0  0  0
    6.9662    1.1261   -0.0345 N   0  0  0  0  0  0  0  0  0  0  0  0
    7.7168    2.2071   -0.0252 C   0  0  0  0  0  0  0  0  0  0  0  0
    6.9653    3.3526   -0.0984 N   0  0  0  0  0  0  0  0  0  0  0  0
    7.3553    4.7002   -0.0456 C   0  0  0  0  0  0  0  0  0  0  0  0
    8.7113    5.0560   -0.0056 C   0  0  0  0  0  0  0  0  0  0  0  0
    9.0645    6.4009    0.0385 C   0  0  0  0  0  0  0  0  0  0  0  0
    8.0719    7.3754    0.0586 C   0  0  0  0  0  0  0  0  0  0  0  0
    6.7179    7.0136    0.0330 C   0  0  0  0  0  0  0  0  0  0  0  0
    6.3264    5.6682   -0.0249 C   0  0  0  0  0  0  0  0  0  0  0  0
    4.9412    5.2604   -0.1052 N   0  0  0  0  0  0  0  0  0  0  0  0
    3.8426    6.2518   -0.0426 C   0  0  0  0  0  0  0  0  0  0  0  0
    3.4331    6.7345   -1.4340 C   0  0  0  0  0  0  0  0  0  0  0  0
    2.6095    5.7624    0.7421 C   0  0  0  0  0  0  0  0  0  0  0  0
    4.6136    3.9320   -0.4450 C   0  0  0  0  0  0  0  0  0  0  0  0
    3.5221    3.6243   -0.9054 O   0  0  0  0  0  0  0  0  0  0  0  0
    5.6582    2.9756   -0.2450 C   0  0  0  0  0  0  0  0  0  0  0  0
    3.2747    1.0160   -0.0225 N   0  0  0  0  0  0  0  0  0  0  0  0
    2.5515   -0.0830    0.1393 N   0  0  0  0  0  0  0  0  0  0  0  0
    3.7085   -3.2058    0.6486 H   0  0  0  0  0  0  0  0  0  0  0  0
    2.3502   -2.8609   -0.4410 H   0  0  0  0  0  0  0  0  0  0  0  0
    2.2098   -2.5169    1.2940 H   0  0  0  0  0  0  0  0  0  0  0  0
    5.6561   -1.1783    0.0784 H   0  0  0  0  0  0  0  0  0  0  0  0
    8.7952    2.2043    0.0577 H   0  0  0  0  0  0  0  0  0  0  0  0
    9.5087    4.3189   -0.0257 H   0  0  0  0  0  0  0  0  0  0  0  0
   10.1129    6.6914    0.0493 H   0  0  0  0  0  0  0  0  0  0  0  0
    8.3496    8.4274    0.0826 H   0  0  0  0  0  0  0  0  0  0  0  0
    6.0005    7.8272    0.0258 H   0  0  0  0  0  0  0  0  0  0  0  0
    4.1869    7.1119    0.5392 H   0  0  0  0  0  0  0  0  0  0  0  0
    3.1394    5.9039   -2.0835 H   0  0  0  0  0  0  0  0  0  0  0  0
    4.2617    7.2568   -1.9227 H   0  0  0  0  0  0  0  0  0  0  0  0
    2.5878    7.4278   -1.3726 H   0  0  0  0  0  0  0  0  0  0  0  0
    2.0365    4.9991    0.2078 H   0  0  0  0  0  0  0  0  0  0  0  0
    1.9190    6.5945    0.9195 H   0  0  0  0  0  0  0  0  0  0  0  0
    2.8997    5.3504    1.7143 H   0  0  0  0  0  0  0  0  0  0  0  0
  1  2  1  0  0  0  0
  1 24  1  0  0  0  0
  1 25  1  0  0  0  0
  1 26  1  0  0  0  0
  2  3  2  0  0  0  0
  2 23  1  0  0  0  0
  3  4  1  0  0  0  0
  3 27  1  0  0  0  0
  4  5  1  0  0  0  0
  4 22  1  0  0  0  0
  5  6  1  0  0  0  0
  5 21  2  0  0  0  0
  6  7  2  0  0  0  0
  7  8  1  0  0  0  0
  7 28  1  0  0  0  0
  8  9  1  0  0  0  0
  8 21  1  0  0  0  0
  9 10  2  0  0  0  0
  9 14  1  0  0  0  0
 10 11  1  0  0  0  0
 10 29  1  0  0  0  0
 11 12  2  0  0  0  0
 11 30  1  0  0  0  0
 12 13  1  0  0  0  0
 12 31  1  0  0  0  0
 13 14  2  0  0  0  0
 13 32  1  0  0  0  0
 14 15  1  0  0  0  0
 15 16  1  0  0  0  0
 15 19  1  0  0  0  0
 16 17  1  0  0  0  0
 16 18  1  0  0  0  0
 16 33  1  0  0  0  0
 17 34  1  0  0  0  0
 17 35  1  0  0  0  0
 17 36  1  0  0  0  0
 18 37  1  0  0  0  0
 18 38  1  0  0  0  0
 18 39  1  0  0  0  0
 19 20  2  0  0  0  0
 19 21  1  0  0  0  0
 22 23  2  0  0  0  0
M  END
$$$$
