
 OpenBabel07132314063D

 32 34  0  0  0  0  0  0  0  0999 V2000
    1.1118   -0.1120    0.1666 C   0  0  0  0  0  0  0  0  0  0  0  0
    2.5795    0.0332    0.1626 C   0  0  0  0  0  0  0  0  0  0  0  0
    3.3431    1.1754    0.2125 C   0  0  0  0  0  0  0  0  0  0  0  0
    4.6456    0.7378    0.1390 N   0  0  0  0  0  0  0  0  0  0  0  0
    5.8332    1.5108    0.0850 C   0  0  0  0  0  0  0  0  0  0  0  0
    5.7692    2.9123    0.1216 C   0  0  0  0  0  0  0  0  0  0  0  0
    6.9340    3.6704    0.0087 C   0  0  0  0  0  0  0  0  0  0  0  0
    8.1680    3.0323   -0.1295 C   0  0  0  0  0  0  0  0  0  0  0  0
    9.6062    4.0271   -0.4229 S   0  0  0  0  0  0  0  0  0  0  0  0
   10.5958    3.1855   -1.0664 O   0  0  0  0  0  0  0  0  0  0  0  0
    9.1925    5.2637   -1.0438 O   0  0  0  0  0  0  0  0  0  0  0  0
   10.2127    4.3099    1.1266 N   0  0  0  0  0  0  0  0  0  0  0  0
    9.7590    5.5333    1.6608 C   0  0  0  0  0  0  0  0  0  0  0  0
    8.6440    5.5837    2.3466 N   0  0  0  0  0  0  0  0  0  0  0  0
    8.4968    6.8539    2.8737 C   0  0  0  0  0  0  0  0  0  0  0  0
    9.4790    7.7590    2.5294 C   0  0  0  0  0  0  0  0  0  0  0  0
   10.6894    6.9652    1.6077 S   0  0  0  0  0  0  0  0  0  0  0  0
    8.2488    1.6379   -0.1577 C   0  0  0  0  0  0  0  0  0  0  0  0
    7.0808    0.8762   -0.0403 C   0  0  0  0  0  0  0  0  0  0  0  0
    4.6590   -0.6163    0.0836 N   0  0  0  0  0  0  0  0  0  0  0  0
    3.4051   -1.0512    0.0910 N   0  0  0  0  0  0  0  0  0  0  0  0
    0.6199    0.8647    0.2239 H   0  0  0  0  0  0  0  0  0  0  0  0
    0.7882   -0.7068    1.0256 H   0  0  0  0  0  0  0  0  0  0  0  0
    0.7754   -0.6073   -0.7486 H   0  0  0  0  0  0  0  0  0  0  0  0
    3.0674    2.2152    0.2697 H   0  0  0  0  0  0  0  0  0  0  0  0
    4.8315    3.4498    0.2191 H   0  0  0  0  0  0  0  0  0  0  0  0
    6.8711    4.7574    0.0149 H   0  0  0  0  0  0  0  0  0  0  0  0
   11.2254    4.2518    1.0503 H   0  0  0  0  0  0  0  0  0  0  0  0
    7.6453    7.0711    3.5080 H   0  0  0  0  0  0  0  0  0  0  0  0
    9.5590    8.8037    2.7936 H   0  0  0  0  0  0  0  0  0  0  0  0
    9.2069    1.1375   -0.2881 H   0  0  0  0  0  0  0  0  0  0  0  0
    7.1588   -0.2105   -0.0734 H   0  0  0  0  0  0  0  0  0  0  0  0
  1  2  1  0  0  0  0
  1 22  1  0  0  0  0
  1 23  1  0  0  0  0
  1 24  1  0  0  0  0
  2  3  2  0  0  0  0
  2 21  1  0  0  0  0
  3  4  1  0  0  0  0
  3 25  1  0  0  0  0
  4  5  1  0  0  0  0
  4 20  1  0  0  0  0
  5  6  2  0  0  0  0
  5 19  1  0  0  0  0
  6  7  1  0  0  0  0
  6 26  1  0  0  0  0
  7  8  2  0  0  0  0
  7 27  1  0  0  0  0
  8  9  1  0  0  0  0
  8 18  1  0  0  0  0
  9 10  2  0  0  0  0
  9 11  2  0  0  0  0
  9 12  1  0  0  0  0
 12 13  1  0  0  0  0
 12 28  1  0  0  0  0
 13 14  2  0  0  0  0
 13 17  1  0  0  0  0
 14 15  1  0  0  0  0
 15 16  2  0  0  0  0
 15 29  1  0  0  0  0
 16 17  1  0  0  0  0
 16 30  1  0  0  0  0
 18 19  2  0  0  0  0
 18 31  1  0  0  0  0
 19 32  1  0  0  0  0
 20 21  2  0  0  0  0
M  END
$$$$
