
 OpenBabel07132314063D

 37 38  0  0  1  0  0  0  0  0999 V2000
    2.8686   -1.1512   -3.0958 C   0  0  0  0  0  0  0  0  0  0  0  0
    3.9052   -0.3600   -2.4056 C   0  0  0  0  0  0  0  0  0  0  0  0
    3.8995    0.1901   -1.1434 C   0  0  0  0  0  0  0  0  0  0  0  0
    5.1042    0.8210   -1.0537 N   0  0  0  0  0  0  0  0  0  0  0  0
    5.6716    1.5054    0.0833 C   0  0  0  0  0  0  0  0  0  0  0  0
    5.2796    2.9654    0.0994 C   0  0  0  0  0  0  0  0  0  0  0  0
    4.1087    3.3365    0.1524 O   0  0  0  0  0  0  0  0  0  0  0  0
    6.3349    3.8583    0.1066 N   0  0  0  0  0  0  0  0  0  0  0  0
    6.0895    5.2923    0.0363 C   0  0  0  0  0  0  0  0  0  0  0  0
    7.4073    6.0797   -0.0037 C   0  0  3  0  0  0  0  0  0  0  0  0
    8.1414    5.6853   -1.1694 O   0  0  0  0  0  0  0  0  0  0  0  0
    7.1639    7.5942    0.0148 C   0  0  0  0  0  0  0  0  0  0  0  0
    8.4020    8.3560    0.0954 N   0  0  0  0  0  0  0  0  0  0  0  0
    9.0223    8.6562    1.2884 C   0  0  0  0  0  0  0  0  0  0  0  0
   10.1209    9.4133    0.9587 C   0  0  0  0  0  0  0  0  0  0  0  0
   10.1938    9.5916   -0.3986 N   0  0  0  0  0  0  0  0  0  0  0  0
    9.1568    8.9362   -0.8943 C   0  0  0  0  0  0  0  0  0  0  0  0
    8.8870    8.8765   -2.3107 N   0  3  0  0  0  0  0  0  0  0  0  0
    7.9570    8.1511   -2.6894 O   0  0  0  0  0  0  0  0  0  0  0  0
    9.5986    9.5647   -3.0533 O   0  5  0  0  0  0  0  0  0  0  0  0
    5.8307    0.6489   -2.1720 N   0  0  0  0  0  0  0  0  0  0  0  0
    5.0982   -0.0679   -3.0148 N   0  0  0  0  0  0  0  0  0  0  0  0
    1.9969   -1.3088   -2.4525 H   0  0  0  0  0  0  0  0  0  0  0  0
    3.2614   -2.1321   -3.3810 H   0  0  0  0  0  0  0  0  0  0  0  0
    2.5343   -0.6360   -4.0013 H   0  0  0  0  0  0  0  0  0  0  0  0
    3.1703    0.1970   -0.3471 H   0  0  0  0  0  0  0  0  0  0  0  0
    6.7585    1.3760    0.0580 H   0  0  0  0  0  0  0  0  0  0  0  0
    5.2959    1.0294    0.9950 H   0  0  0  0  0  0  0  0  0  0  0  0
    7.2465    3.5378   -0.2101 H   0  0  0  0  0  0  0  0  0  0  0  0
    5.4830    5.5754    0.9040 H   0  0  0  0  0  0  0  0  0  0  0  0
    5.5008    5.4753   -0.8703 H   0  0  0  0  0  0  0  0  0  0  0  0
    8.0221    5.7950    0.8587 H   0  0  0  0  0  0  0  0  0  0  0  0
    7.6319    5.9374   -1.9659 H   0  0  0  0  0  0  0  0  0  0  0  0
    6.5735    7.8670    0.8995 H   0  0  0  0  0  0  0  0  0  0  0  0
    6.5905    7.9354   -0.8495 H   0  0  0  0  0  0  0  0  0  0  0  0
    8.6487    8.3142    2.2433 H   0  0  0  0  0  0  0  0  0  0  0  0
   10.8629    9.8412    1.6212 H   0  0  0  0  0  0  0  0  0  0  0  0
  1  2  1  0  0  0  0
  1 23  1  0  0  0  0
  1 24  1  0  0  0  0
  1 25  1  0  0  0  0
  2  3  2  0  0  0  0
  2 22  1  0  0  0  0
  3  4  1  0  0  0  0
  3 26  1  0  0  0  0
  4  5  1  0  0  0  0
  4 21  1  0  0  0  0
  5  6  1  0  0  0  0
  5 27  1  0  0  0  0
  5 28  1  0  0  0  0
  6  7  2  0  0  0  0
  6  8  1  0  0  0  0
  8  9  1  0  0  0  0
  8 29  1  0  0  0  0
  9 10  1  0  0  0  0
  9 30  1  0  0  0  0
  9 31  1  0  0  0  0
 10 11  1  0  0  0  0
 10 12  1  0  0  0  0
 10 32  1  0  0  0  0
 11 33  1  0  0  0  0
 12 13  1  0  0  0  0
 12 34  1  0  0  0  0
 12 35  1  0  0  0  0
 13 14  1  0  0  0  0
 13 17  1  0  0  0  0
 14 15  2  0  0  0  0
 14 36  1  0  0  0  0
 15 16  1  0  0  0  0
 15 37  1  0  0  0  0
 16 17  2  0  0  0  0
 17 18  1  0  0  0  0
 18 19  2  0  0  0  0
 18 20  1  0  0  0  0
 21 22  2  0  0  0  0
M  CHG  2  18   1  20  -1
M  END
$$$$
