
 OpenBabel07132314063D

 21 22  0  0  0  0  0  0  0  0999 V2000
    1.0261    0.0372    0.2116 C   0  0  0  0  0  0  0  0  0  0  0  0
    2.4975    0.1213    0.1685 C   0  0  0  0  0  0  0  0  0  0  0  0
    3.3225    1.2218    0.1919 C   0  0  0  0  0  0  0  0  0  0  0  0
    4.6101    0.7224    0.0964 N   0  0  0  0  0  0  0  0  0  0  0  0
    5.8370    1.4525    0.0379 C   0  0  0  0  0  0  0  0  0  0  0  0
    5.7737    2.8634    0.0957 C   0  0  0  0  0  0  0  0  0  0  0  0
    6.9261    3.6513    0.0217 C   0  0  0  0  0  0  0  0  0  0  0  0
    8.1685    3.0511   -0.1103 C   0  0  0  0  0  0  0  0  0  0  0  0
    8.2572    1.6626   -0.1614 C   0  0  0  0  0  0  0  0  0  0  0  0
    7.1072    0.8537   -0.0867 C   0  0  0  0  0  0  0  0  0  0  0  0
    7.4832   -1.0123   -0.1713 Br  0  0  0  0  0  0  0  0  0  0  0  0
    4.5327   -0.6264    0.0465 N   0  0  0  0  0  0  0  0  0  0  0  0
    3.2627   -0.9994    0.0841 N   0  0  0  0  0  0  0  0  0  0  0  0
    0.5739    1.0287    0.3156 H   0  0  0  0  0  0  0  0  0  0  0  0
    0.7026   -0.5759    1.0583 H   0  0  0  0  0  0  0  0  0  0  0  0
    0.6448   -0.4157   -0.7087 H   0  0  0  0  0  0  0  0  0  0  0  0
    3.0917    2.2720    0.2522 H   0  0  0  0  0  0  0  0  0  0  0  0
    4.8340    3.3982    0.1976 H   0  0  0  0  0  0  0  0  0  0  0  0
    6.8482    4.7354    0.0654 H   0  0  0  0  0  0  0  0  0  0  0  0
    9.0682    3.6582   -0.1728 H   0  0  0  0  0  0  0  0  0  0  0  0
    9.2426    1.2104   -0.2627 H   0  0  0  0  0  0  0  0  0  0  0  0
  1  2  1  0  0  0  0
  1 14  1  0  0  0  0
  1 15  1  0  0  0  0
  1 16  1  0  0  0  0
  2  3  2  0  0  0  0
  2 13  1  0  0  0  0
  3  4  1  0  0  0  0
  3 17  1  0  0  0  0
  4  5  1  0  0  0  0
  4 12  1  0  0  0  0
  5  6  2  0  0  0  0
  5 10  1  0  0  0  0
  6  7  1  0  0  0  0
  6 18  1  0  0  0  0
  7  8  2  0  0  0  0
  7 19  1  0  0  0  0
  8  9  1  0  0  0  0
  8 20  1  0  0  0  0
  9 10  2  0  0  0  0
  9 21  1  0  0  0  0
 10 11  1  0  0  0  0
 12 13  2  0  0  0  0
M  END
$$$$
