
 OpenBabel07132314063D

 21 22  0  0  0  0  0  0  0  0999 V2000
    1.0078   -0.0956    0.2084 C   0  0  0  0  0  0  0  0  0  0  0  0
    2.4794   -0.0177    0.1545 C   0  0  0  0  0  0  0  0  0  0  0  0
    3.3097    1.0788    0.1737 C   0  0  0  0  0  0  0  0  0  0  0  0
    4.5958    0.5737    0.0734 N   0  0  0  0  0  0  0  0  0  0  0  0
    5.8278    1.2987    0.0154 C   0  0  0  0  0  0  0  0  0  0  0  0
    5.7602    2.7105    0.0814 C   0  0  0  0  0  0  0  0  0  0  0  0
    6.9069    3.5073    0.0134 C   0  0  0  0  0  0  0  0  0  0  0  0
    8.1522    2.9166   -0.1211 C   0  0  0  0  0  0  0  0  0  0  0  0
    8.2494    1.5290   -0.1817 C   0  0  0  0  0  0  0  0  0  0  0  0
    7.1033    0.7086   -0.1134 C   0  0  0  0  0  0  0  0  0  0  0  0
    7.5778   -1.3500   -0.2266 I   0  0  0  0  0  0  0  0  0  0  0  0
    4.5097   -0.7736    0.0220 N   0  0  0  0  0  0  0  0  0  0  0  0
    3.2385   -1.1414    0.0652 N   0  0  0  0  0  0  0  0  0  0  0  0
    0.5605    0.8976    0.3144 H   0  0  0  0  0  0  0  0  0  0  0  0
    0.6877   -0.7065    1.0579 H   0  0  0  0  0  0  0  0  0  0  0  0
    0.6179   -0.5479   -0.7083 H   0  0  0  0  0  0  0  0  0  0  0  0
    3.0830    2.1294    0.2364 H   0  0  0  0  0  0  0  0  0  0  0  0
    4.8190    3.2421    0.1866 H   0  0  0  0  0  0  0  0  0  0  0  0
    6.8214    4.5905    0.0639 H   0  0  0  0  0  0  0  0  0  0  0  0
    9.0482    3.5295   -0.1785 H   0  0  0  0  0  0  0  0  0  0  0  0
    9.2419    1.0928   -0.2855 H   0  0  0  0  0  0  0  0  0  0  0  0
  1  2  1  0  0  0  0
  1 14  1  0  0  0  0
  1 15  1  0  0  0  0
  1 16  1  0  0  0  0
  2  3  2  0  0  0  0
  2 13  1  0  0  0  0
  3  4  1  0  0  0  0
  3 17  1  0  0  0  0
  4  5  1  0  0  0  0
  4 12  1  0  0  0  0
  5  6  2  0  0  0  0
  5 10  1  0  0  0  0
  6  7  1  0  0  0  0
  6 18  1  0  0  0  0
  7  8  2  0  0  0  0
  7 19  1  0  0  0  0
  8  9  1  0  0  0  0
  8 20  1  0  0  0  0
  9 10  2  0  0  0  0
  9 21  1  0  0  0  0
 10 11  1  0  0  0  0
 12 13  2  0  0  0  0
M  END
$$$$
