
 OpenBabel07132314063D

 32 35  0  0  0  0  0  0  0  0999 V2000
    0.9721   -0.3986   -0.6585 C   0  0  0  0  0  0  0  0  0  0  0  0
    2.3875   -0.1517   -0.3207 C   0  0  0  0  0  0  0  0  0  0  0  0
    3.2196    0.8832   -0.6813 C   0  0  0  0  0  0  0  0  0  0  0  0
    4.4263    0.6205   -0.0636 N   0  0  0  0  0  0  0  0  0  0  0  0
    5.6305    1.3905   -0.0526 C   0  0  0  0  0  0  0  0  0  0  0  0
    5.5705    2.8305   -0.0607 C   0  0  0  0  0  0  0  0  0  0  0  0
    4.4186    3.6771    0.0041 C   0  0  0  0  0  0  0  0  0  0  0  0
    4.5069    5.0732   -0.0248 C   0  0  0  0  0  0  0  0  0  0  0  0
    5.7475    5.6768   -0.0740 C   0  0  0  0  0  0  0  0  0  0  0  0
    6.8845    4.8757   -0.0842 C   0  0  0  0  0  0  0  0  0  0  0  0
    6.8146    3.4906   -0.0739 C   0  0  0  0  0  0  0  0  0  0  0  0
    7.9883    2.8627   -0.0559 N   0  0  0  0  0  0  0  0  0  0  0  0
    8.0395    1.5324   -0.0196 C   0  0  0  0  0  0  0  0  0  0  0  0
    9.3166    0.9814   -0.0055 C   0  0  0  0  0  0  0  0  0  0  0  0
    9.5331   -0.3934   -0.0048 C   0  0  0  0  0  0  0  0  0  0  0  0
    8.4438   -1.2419   -0.0325 C   0  0  0  0  0  0  0  0  0  0  0  0
    7.1531   -0.7030   -0.0530 C   0  0  0  0  0  0  0  0  0  0  0  0
    6.9029    0.7070   -0.0266 C   0  0  0  0  0  0  0  0  0  0  0  0
    4.3157   -0.5594    0.5975 N   0  0  0  0  0  0  0  0  0  0  0  0
    3.0864   -1.0302    0.4492 N   0  0  0  0  0  0  0  0  0  0  0  0
    0.5362    0.4518   -1.1916 H   0  0  0  0  0  0  0  0  0  0  0  0
    0.3870   -0.5624    0.2522 H   0  0  0  0  0  0  0  0  0  0  0  0
    0.8773   -1.2860   -1.2915 H   0  0  0  0  0  0  0  0  0  0  0  0
    3.0641    1.7311   -1.3291 H   0  0  0  0  0  0  0  0  0  0  0  0
    3.4185    3.2707    0.1135 H   0  0  0  0  0  0  0  0  0  0  0  0
    3.6064    5.6812    0.0082 H   0  0  0  0  0  0  0  0  0  0  0  0
    5.8422    6.7592   -0.0801 H   0  0  0  0  0  0  0  0  0  0  0  0
    7.8651    5.3493   -0.0882 H   0  0  0  0  0  0  0  0  0  0  0  0
   10.1750    1.6508    0.0020 H   0  0  0  0  0  0  0  0  0  0  0  0
   10.5458   -0.7876    0.0084 H   0  0  0  0  0  0  0  0  0  0  0  0
    8.5865   -2.3193   -0.0420 H   0  0  0  0  0  0  0  0  0  0  0  0
    6.3402   -1.4238   -0.0982 H   0  0  0  0  0  0  0  0  0  0  0  0
  1  2  1  0  0  0  0
  1 21  1  0  0  0  0
  1 22  1  0  0  0  0
  1 23  1  0  0  0  0
  2  3  2  0  0  0  0
  2 20  1  0  0  0  0
  3  4  1  0  0  0  0
  3 24  1  0  0  0  0
  4  5  1  0  0  0  0
  4 19  1  0  0  0  0
  5  6  2  0  0  0  0
  5 18  1  0  0  0  0
  6  7  1  0  0  0  0
  6 11  1  0  0  0  0
  7  8  2  0  0  0  0
  7 25  1  0  0  0  0
  8  9  1  0  0  0  0
  8 26  1  0  0  0  0
  9 10  2  0  0  0  0
  9 27  1  0  0  0  0
 10 11  1  0  0  0  0
 10 28  1  0  0  0  0
 11 12  2  0  0  0  0
 12 13  1  0  0  0  0
 13 14  2  0  0  0  0
 13 18  1  0  0  0  0
 14 15  1  0  0  0  0
 14 29  1  0  0  0  0
 15 16  2  0  0  0  0
 15 30  1  0  0  0  0
 16 17  1  0  0  0  0
 16 31  1  0  0  0  0
 17 18  2  0  0  0  0
 17 32  1  0  0  0  0
 19 20  2  0  0  0  0
M  END
$$$$
