REMARK VINA RESULT:    -4.431      2.345      4.271
REMARK INTER + INTRA:         -10.183
REMARK INTER:                  -6.209
REMARK INTRA:                  -3.974
REMARK UNBOUND:                -4.068
REMARK SMILES CCOCCc1c(-c2ccccc2)nc(N)nc1-n1cc(C)nn1
REMARK SMILES IDX 5 1 6 2 18 3 17 4 15 5 7 6 14 7 19 8 22 9 21 10 20 11 23 12
REMARK SMILES IDX 24 13 16 14 8 17 9 18 13 19 10 20 12 21 11 22 4 23 3 24 2 25
REMARK SMILES IDX 1 26
REMARK H PARENT 16 15 16 16
REMARK Flexibility Score: inf
ROOT
ATOM      1  C   UNL     1      31.290  32.692  16.335  1.00  0.00     0.070 C 
ENDROOT
BRANCH   1   2
ATOM      2  C   UNL     1      30.670  33.443  15.253  1.00  0.00     0.026 A 
ATOM      3  C   UNL     1      29.386  33.095  14.840  1.00  0.00     0.164 A 
ATOM      4  N   UNL     1      28.827  33.851  13.854  1.00  0.00    -0.193 NA
ATOM      5  C   UNL     1      29.415  34.884  13.268  1.00  0.00     0.222 A 
ATOM      6  C   UNL     1      31.288  34.505  14.655  1.00  0.00     0.081 A 
ATOM      7  N   UNL     1      30.654  35.221  13.665  1.00  0.00    -0.213 NA
BRANCH   3   8
ATOM      8  N   UNL     1      28.680  32.003  15.406  1.00  0.00    -0.202 N 
ATOM      9  C   UNL     1      26.026  30.246  17.234  1.00  0.00     0.070 C 
ATOM     10  C   UNL     1      27.212  30.697  16.462  1.00  0.00     0.080 A 
ATOM     11  C   UNL     1      27.533  32.012  16.093  1.00  0.00     0.142 A 
ATOM     12  N   UNL     1      28.217  29.955  15.959  1.00  0.00    -0.135 NA
ATOM     13  N   UNL     1      29.076  30.750  15.337  1.00  0.00    -0.061 NA
ENDBRANCH   3   8
BRANCH   5  14
ATOM     14  N   UNL     1      28.751  35.636  12.230  1.00  0.00    -0.368 N 
ATOM     15  H   UNL     1      28.076  35.150  11.624  1.00  0.00     0.159 HD
ATOM     16  H   UNL     1      28.928  36.645  12.076  1.00  0.00     0.159 HD
ENDBRANCH   5  14
BRANCH   6  17
ATOM     17  C   UNL     1      32.617  34.997  14.986  1.00  0.00     0.001 A 
ATOM     18  C   UNL     1      32.948  35.758  16.058  1.00  0.00     0.010 A 
ATOM     19  C   UNL     1      33.624  34.669  14.077  1.00  0.00     0.010 A 
ATOM     20  C   UNL     1      34.256  36.213  16.265  1.00  0.00     0.001 A 
ATOM     21  C   UNL     1      34.909  35.115  14.279  1.00  0.00     0.001 A 
ATOM     22  C   UNL     1      35.248  35.889  15.368  1.00  0.00     0.000 A 
ENDBRANCH   6  17
ENDBRANCH   1   2
BRANCH   1  23
ATOM     23  C   UNL     1      31.034  33.304  17.704  1.00  0.00     0.165 C 
BRANCH  23  24
ATOM     24  O   UNL     1      30.031  32.638  18.382  1.00  0.00    -0.381 OA
BRANCH  24  25
ATOM     25  C   UNL     1      30.416  31.324  18.641  1.00  0.00     0.156 C 
ATOM     26  C   UNL     1      29.346  30.594  19.441  1.00  0.00     0.035 C 
ENDBRANCH  24  25
ENDBRANCH  23  24
ENDBRANCH   1  23
TORSDOF 7
BEGIN_RES LYS A 135
REMARK  4 active torsions:
REMARK  status: ('A' for Active; 'I' for Inactive)
REMARK    1  A    between atoms: CA   and  CB  
REMARK    2  A    between atoms: CB   and  CG  
REMARK    3  A    between atoms: CG   and  CD  
REMARK    4  A    between atoms: CD   and  CE  
ROOT
ATOM      1  CA  LYS A 135      33.193  34.663   9.290  1.00 25.02     0.186 C 
ENDROOT
BRANCH   1   2
ATOM      2  CB  LYS A 135      32.060  35.360  10.034  1.00 26.63     0.034 C 
BRANCH   2   3
ATOM      3  CG  LYS A 135      30.803  35.509   9.216  1.00 29.45     0.005 C 
BRANCH   3   4
ATOM      4  CD  LYS A 135      30.120  34.162   9.032  1.00 32.00     0.041 C 
BRANCH   4   5
ATOM      5  CE  LYS A 135      28.670  34.352   8.628  1.00 34.25     0.338 C 
ATOM      6  NZ  LYS A 135      27.755  33.649   9.570  1.00 35.99     0.618 N 
ENDBRANCH   4   5
ENDBRANCH   3   4
ENDBRANCH   2   3
ENDBRANCH   1   2
END_RES LYS A 135
BEGIN_RES TYR A 136
REMARK  2 active torsions:
REMARK  status: ('A' for Active; 'I' for Inactive)
REMARK    5  A    between atoms: CA   and  CB  
REMARK    6  A    between atoms: CB   and  CG  
ROOT
ATOM      7  CA  TYR A 136      36.583  36.399   8.994  1.00 26.14     0.191 C 
ENDROOT
BRANCH   7   8
ATOM      8  CB  TYR A 136      37.367  36.835  10.240  1.00 28.16     0.060 C 
BRANCH   8   9
ATOM      9  CG  TYR A 136      36.675  37.936  11.005  1.00 31.88    -0.020 A 
ATOM     10  CD2 TYR A 136      36.189  39.073  10.355  1.00 32.67    -0.002 A 
ATOM     11  CE2 TYR A 136      35.549  40.091  11.075  1.00 33.89     0.027 A 
ATOM     12  CZ  TYR A 136      35.395  39.971  12.458  1.00 34.34     0.131 A 
ATOM     13  OH  TYR A 136      34.759  40.964  13.190  1.00 35.14    -0.190 OA
ATOM     14  CE1 TYR A 136      35.874  38.850  13.120  1.00 35.01     0.027 A 
ATOM     15  CD1 TYR A 136      36.514  37.845  12.393  1.00 33.57    -0.002 A 
ENDBRANCH   8   9
ENDBRANCH   7   8
END_RES TYR A 136
BEGIN_RES ASN A 133
REMARK  2 active torsions:
REMARK  status: ('A' for Active; 'I' for Inactive)
REMARK    7  A    between atoms: CA   and  CB  
REMARK    8  A    between atoms: CB   and  CG  
ROOT
ATOM     16  CA  ASN A 133      31.225  30.257  11.749  1.00 18.15     0.196 C 
ENDROOT
BRANCH  16  17
ATOM     17  CB  ASN A 133      30.092  31.240  11.460  1.00 18.27     0.126 C 
BRANCH  17  18
ATOM     18  CG  ASN A 133      28.753  30.581  11.338  1.00 18.94     0.276 C 
ATOM     19  OD1 ASN A 133      28.585  29.609  10.599  1.00 18.09    -0.269 OA
ATOM     20  ND2 ASN A 133      27.774  31.110  12.071  1.00 18.93    -0.107 N 
ENDBRANCH  17  18
ENDBRANCH  16  17
END_RES ASN A 133
