REMARK VINA RESULT:    -3.985      2.950      4.966
REMARK INTER + INTRA:          -7.816
REMARK INTER:                  -4.522
REMARK INTRA:                  -3.294
REMARK UNBOUND:                -3.249
REMARK SMILES Cc1cn(-c2ccc(S(N)(=O)=O)cc2)nn1
REMARK SMILES IDX 5 1 6 2 7 3 8 4 13 5 14 6 4 7 1 8 2 9 3 10 16 11 15 12 9 13
REMARK SMILES IDX 11 14 12 15 10 16
REMARK H PARENT 10 17 10 18
REMARK Flexibility Score: inf
ROOT
ATOM      1  C   UNL     1      35.792  38.807   3.633  1.00  0.00     0.066 A 
ATOM      2  C   UNL     1      35.812  38.549   4.988  1.00  0.00     0.030 A 
ATOM      3  C   UNL     1      34.766  38.952   5.826  1.00  0.00     0.024 A 
ATOM      4  C   UNL     1      33.680  39.626   5.312  1.00  0.00     0.082 A 
ATOM      5  C   UNL     1      33.653  39.886   3.970  1.00  0.00     0.024 A 
ATOM      6  C   UNL     1      34.676  39.490   3.151  1.00  0.00     0.030 A 
ENDROOT
BRANCH   1   7
ATOM      7  N   UNL     1      36.823  38.421   2.741  1.00  0.00    -0.220 N 
ATOM      8  C   UNL     1      38.683  38.833  -0.351  1.00  0.00     0.070 C 
ATOM      9  C   UNL     1      38.150  38.408   0.948  1.00  0.00     0.080 A 
ATOM     10  C   UNL     1      37.074  39.036   1.577  1.00  0.00     0.140 A 
ATOM     11  N   UNL     1      38.504  37.424   1.783  1.00  0.00    -0.135 NA
ATOM     12  N   UNL     1      37.701  37.445   2.852  1.00  0.00    -0.062 NA
ENDBRANCH   1   7
BRANCH   4  13
ATOM     13  S   UNL     1      32.373  40.130   6.360  1.00  0.00     0.238 S 
ATOM     14  O   UNL     1      32.752  41.412   7.049  1.00  0.00    -0.207 OA
ATOM     15  O   UNL     1      31.119  40.346   5.592  1.00  0.00    -0.207 OA
BRANCH  13  16
ATOM     16  N   UNL     1      32.162  38.939   7.596  1.00  0.00    -0.225 NA
ATOM     17  H   UNL     1      33.035  38.887   8.173  1.00  0.00     0.137 HD
ATOM     18  H   UNL     1      31.380  39.299   8.211  1.00  0.00     0.137 HD
ENDBRANCH  13  16
ENDBRANCH   4  13
TORSDOF 3
BEGIN_RES LYS A 135
REMARK  4 active torsions:
REMARK  status: ('A' for Active; 'I' for Inactive)
REMARK    1  A    between atoms: CA   and  CB  
REMARK    2  A    between atoms: CB   and  CG  
REMARK    3  A    between atoms: CG   and  CD  
REMARK    4  A    between atoms: CD   and  CE  
ROOT
ATOM      1  CA  LYS A 135      33.193  34.663   9.290  1.00 25.02     0.186 C 
ENDROOT
BRANCH   1   2
ATOM      2  CB  LYS A 135      32.060  35.360  10.034  1.00 26.63     0.034 C 
BRANCH   2   3
ATOM      3  CG  LYS A 135      30.802  35.506   9.217  1.00 29.45     0.005 C 
BRANCH   3   4
ATOM      4  CD  LYS A 135      30.147  34.151   8.994  1.00 32.00     0.041 C 
BRANCH   4   5
ATOM      5  CE  LYS A 135      28.689  34.322   8.612  1.00 34.25     0.338 C 
ATOM      6  NZ  LYS A 135      27.792  33.702   9.627  1.00 35.99     0.618 N 
ENDBRANCH   4   5
ENDBRANCH   3   4
ENDBRANCH   2   3
ENDBRANCH   1   2
END_RES LYS A 135
BEGIN_RES TYR A 136
REMARK  2 active torsions:
REMARK  status: ('A' for Active; 'I' for Inactive)
REMARK    5  A    between atoms: CA   and  CB  
REMARK    6  A    between atoms: CB   and  CG  
ROOT
ATOM      7  CA  TYR A 136      36.583  36.399   8.994  1.00 26.14     0.191 C 
ENDROOT
BRANCH   7   8
ATOM      8  CB  TYR A 136      37.367  36.835  10.240  1.00 28.16     0.060 C 
BRANCH   8   9
ATOM      9  CG  TYR A 136      37.311  38.325  10.469  1.00 31.88    -0.020 A 
ATOM     10  CD2 TYR A 136      37.935  38.912  11.572  1.00 32.67    -0.002 A 
ATOM     11  CE2 TYR A 136      37.875  40.297  11.776  1.00 33.89     0.027 A 
ATOM     12  CZ  TYR A 136      37.184  41.103  10.869  1.00 34.34     0.131 A 
ATOM     13  OH  TYR A 136      37.118  42.478  11.047  1.00 35.14    -0.190 OA
ATOM     14  CE1 TYR A 136      36.557  40.537   9.768  1.00 35.01     0.027 A 
ATOM     15  CD1 TYR A 136      36.618  39.156   9.578  1.00 33.57    -0.002 A 
ENDBRANCH   8   9
ENDBRANCH   7   8
END_RES TYR A 136
BEGIN_RES ASN A 133
REMARK  2 active torsions:
REMARK  status: ('A' for Active; 'I' for Inactive)
REMARK    7  A    between atoms: CA   and  CB  
REMARK    8  A    between atoms: CB   and  CG  
ROOT
ATOM     16  CA  ASN A 133      31.225  30.257  11.749  1.00 18.15     0.196 C 
ENDROOT
BRANCH  16  17
ATOM     17  CB  ASN A 133      30.092  31.240  11.460  1.00 18.27     0.126 C 
BRANCH  17  18
ATOM     18  CG  ASN A 133      28.750  30.583  11.358  1.00 18.94     0.276 C 
ATOM     19  OD1 ASN A 133      28.572  29.606  10.628  1.00 18.09    -0.269 OA
ATOM     20  ND2 ASN A 133      27.780  31.120  12.096  1.00 18.93    -0.107 N 
ENDBRANCH  17  18
ENDBRANCH  16  17
END_RES ASN A 133
