REMARK VINA RESULT:    -4.278      6.509      6.897
REMARK INTER + INTRA:          -6.907
REMARK INTER:                  -4.766
REMARK INTRA:                  -2.141
REMARK UNBOUND:                -2.379
REMARK SMILES Cc1cn(-c2ccccc2)nn1
REMARK SMILES IDX 5 1 6 2 7 3 8 4 9 5 10 6 4 7 1 8 2 9 3 10 12 11 11 12
REMARK H PARENT
REMARK Flexibility Score: inf
ROOT
ATOM      1  C   UNL     1      26.943  36.856   7.272  1.00  0.00     0.066 A 
ATOM      2  C   UNL     1      26.173  37.059   8.401  1.00  0.00     0.028 A 
ATOM      3  C   UNL     1      25.969  36.071   9.333  1.00  0.00     0.002 A 
ATOM      4  C   UNL     1      26.532  34.820   9.180  1.00  0.00     0.000 A 
ATOM      5  C   UNL     1      27.303  34.616   8.053  1.00  0.00     0.002 A 
ATOM      6  C   UNL     1      27.507  35.609   7.115  1.00  0.00     0.028 A 
ENDROOT
BRANCH   1   7
ATOM      7  N   UNL     1      27.162  37.876   6.296  1.00  0.00    -0.220 N 
ATOM      8  C   UNL     1      26.894  41.284   4.959  1.00  0.00     0.070 C 
ATOM      9  C   UNL     1      27.156  39.845   5.236  1.00  0.00     0.080 A 
ATOM     10  C   UNL     1      26.758  39.156   6.378  1.00  0.00     0.140 A 
ATOM     11  N   UNL     1      27.797  38.930   4.497  1.00  0.00    -0.135 NA
ATOM     12  N   UNL     1      27.792  37.772   5.137  1.00  0.00    -0.062 NA
ENDBRANCH   1   7
TORSDOF 1
BEGIN_RES LYS A 135
REMARK  4 active torsions:
REMARK  status: ('A' for Active; 'I' for Inactive)
REMARK    1  A    between atoms: CA   and  CB  
REMARK    2  A    between atoms: CB   and  CG  
REMARK    3  A    between atoms: CG   and  CD  
REMARK    4  A    between atoms: CD   and  CE  
ROOT
ATOM      1  CA  LYS A 135      33.193  34.663   9.290  1.00 25.02     0.186 C 
ENDROOT
BRANCH   1   2
ATOM      2  CB  LYS A 135      32.060  35.360  10.034  1.00 26.63     0.034 C 
BRANCH   2   3
ATOM      3  CG  LYS A 135      30.770  35.411   9.256  1.00 29.45     0.005 C 
BRANCH   3   4
ATOM      4  CD  LYS A 135      30.002  36.685   9.575  1.00 32.00     0.041 C 
BRANCH   4   5
ATOM      5  CE  LYS A 135      30.356  37.781   8.588  1.00 34.25     0.338 C 
ATOM      6  NZ  LYS A 135      29.501  38.983   8.792  1.00 35.99     0.618 N 
ENDBRANCH   4   5
ENDBRANCH   3   4
ENDBRANCH   2   3
ENDBRANCH   1   2
END_RES LYS A 135
BEGIN_RES TYR A 136
REMARK  2 active torsions:
REMARK  status: ('A' for Active; 'I' for Inactive)
REMARK    5  A    between atoms: CA   and  CB  
REMARK    6  A    between atoms: CB   and  CG  
ROOT
ATOM      7  CA  TYR A 136      36.583  36.399   8.994  1.00 26.14     0.191 C 
ENDROOT
BRANCH   7   8
ATOM      8  CB  TYR A 136      37.367  36.835  10.240  1.00 28.16     0.060 C 
BRANCH   8   9
ATOM      9  CG  TYR A 136      37.196  38.302  10.549  1.00 31.88    -0.020 A 
ATOM     10  CD2 TYR A 136      37.743  38.866  11.704  1.00 32.67    -0.002 A 
ATOM     11  CE2 TYR A 136      37.578  40.230  11.982  1.00 33.89     0.027 A 
ATOM     12  CZ  TYR A 136      36.858  41.036  11.097  1.00 34.34     0.131 A 
ATOM     13  OH  TYR A 136      36.687  42.390  11.349  1.00 35.14    -0.190 OA
ATOM     14  CE1 TYR A 136      36.307  40.492   9.946  1.00 35.01     0.027 A 
ATOM     15  CD1 TYR A 136      36.473  39.132   9.683  1.00 33.57    -0.002 A 
ENDBRANCH   8   9
ENDBRANCH   7   8
END_RES TYR A 136
BEGIN_RES ASN A 133
REMARK  2 active torsions:
REMARK  status: ('A' for Active; 'I' for Inactive)
REMARK    7  A    between atoms: CA   and  CB  
REMARK    8  A    between atoms: CB   and  CG  
ROOT
ATOM     16  CA  ASN A 133      31.225  30.257  11.749  1.00 18.15     0.196 C 
ENDROOT
BRANCH  16  17
ATOM     17  CB  ASN A 133      30.092  31.240  11.460  1.00 18.27     0.126 C 
BRANCH  17  18
ATOM     18  CG  ASN A 133      28.751  30.582  11.352  1.00 18.94     0.276 C 
ATOM     19  OD1 ASN A 133      28.576  29.605  10.622  1.00 18.09    -0.269 OA
ATOM     20  ND2 ASN A 133      27.778  31.120  12.087  1.00 18.93    -0.107 N 
ENDBRANCH  17  18
ENDBRANCH  16  17
END_RES ASN A 133
