REMARK VINA RESULT:    -3.617      7.033      7.851
REMARK INTER + INTRA:          -6.951
REMARK INTER:                  -4.034
REMARK INTRA:                  -2.917
REMARK UNBOUND:                -3.123
REMARK SMILES Cc1cn(C2CCCCC2)nn1
REMARK SMILES IDX 5 1 6 2 7 3 8 4 9 5 10 6 4 7 1 8 2 9 3 10 12 11 11 12
REMARK H PARENT
REMARK Flexibility Score: inf
ROOT
ATOM      1  C   UNL     1      27.819  38.673   6.123  1.00  0.00     0.109 C 
ATOM      2  C   UNL     1      28.190  37.488   5.293  1.00  0.00     0.027 C 
ATOM      3  C   UNL     1      28.575  36.280   6.118  1.00  0.00     0.002 C 
ATOM      4  C   UNL     1      27.393  35.816   6.934  1.00  0.00     0.000 C 
ATOM      5  C   UNL     1      26.397  36.908   7.157  1.00  0.00     0.002 C 
ATOM      6  C   UNL     1      27.038  38.269   7.347  1.00  0.00     0.027 C 
ENDROOT
BRANCH   1   7
ATOM      7  N   UNL     1      27.084  39.627   5.309  1.00  0.00    -0.249 N 
ATOM      8  C   UNL     1      26.165  41.580   2.376  1.00  0.00     0.070 C 
ATOM      9  C   UNL     1      26.300  40.932   3.714  1.00  0.00     0.080 A 
ATOM     10  C   UNL     1      27.246  39.992   4.047  1.00  0.00     0.134 A 
ATOM     11  N   UNL     1      25.567  41.114   4.824  1.00  0.00    -0.136 NA
ATOM     12  N   UNL     1      26.043  40.330   5.772  1.00  0.00    -0.067 NA
ENDBRANCH   1   7
TORSDOF 1
BEGIN_RES LYS A 135
REMARK  4 active torsions:
REMARK  status: ('A' for Active; 'I' for Inactive)
REMARK    1  A    between atoms: CA   and  CB  
REMARK    2  A    between atoms: CB   and  CG  
REMARK    3  A    between atoms: CG   and  CD  
REMARK    4  A    between atoms: CD   and  CE  
ROOT
ATOM      1  CA  LYS A 135      33.193  34.663   9.290  1.00 25.02     0.186 C 
ENDROOT
BRANCH   1   2
ATOM      2  CB  LYS A 135      32.060  35.360  10.034  1.00 26.63     0.034 C 
BRANCH   2   3
ATOM      3  CG  LYS A 135      30.827  35.571   9.193  1.00 29.45     0.005 C 
BRANCH   3   4
ATOM      4  CD  LYS A 135      30.278  34.241   8.703  1.00 32.00     0.041 C 
BRANCH   4   5
ATOM      5  CE  LYS A 135      29.006  33.882   9.449  1.00 34.25     0.338 C 
ATOM      6  NZ  LYS A 135      28.523  35.029  10.267  1.00 35.99     0.618 N 
ENDBRANCH   4   5
ENDBRANCH   3   4
ENDBRANCH   2   3
ENDBRANCH   1   2
END_RES LYS A 135
BEGIN_RES TYR A 136
REMARK  2 active torsions:
REMARK  status: ('A' for Active; 'I' for Inactive)
REMARK    5  A    between atoms: CA   and  CB  
REMARK    6  A    between atoms: CB   and  CG  
ROOT
ATOM      7  CA  TYR A 136      36.583  36.399   8.994  1.00 26.14     0.191 C 
ENDROOT
BRANCH   7   8
ATOM      8  CB  TYR A 136      37.367  36.835  10.240  1.00 28.16     0.060 C 
BRANCH   8   9
ATOM      9  CG  TYR A 136      37.218  38.308  10.533  1.00 31.88    -0.020 A 
ATOM     10  CD2 TYR A 136      37.817  38.886  11.655  1.00 32.67    -0.002 A 
ATOM     11  CE2 TYR A 136      37.671  40.254  11.919  1.00 33.89     0.027 A 
ATOM     12  CZ  TYR A 136      36.919  41.052  11.053  1.00 34.34     0.131 A 
ATOM     13  OH  TYR A 136      36.767  42.411  11.292  1.00 35.14    -0.190 OA
ATOM     14  CE1 TYR A 136      36.316  40.494   9.935  1.00 35.01     0.027 A 
ATOM     15  CD1 TYR A 136      36.463  39.129   9.686  1.00 33.57    -0.002 A 
ENDBRANCH   8   9
ENDBRANCH   7   8
END_RES TYR A 136
BEGIN_RES ASN A 133
REMARK  2 active torsions:
REMARK  status: ('A' for Active; 'I' for Inactive)
REMARK    7  A    between atoms: CA   and  CB  
REMARK    8  A    between atoms: CB   and  CG  
ROOT
ATOM     16  CA  ASN A 133      31.225  30.257  11.749  1.00 18.15     0.196 C 
ENDROOT
BRANCH  16  17
ATOM     17  CB  ASN A 133      30.092  31.240  11.460  1.00 18.27     0.126 C 
BRANCH  17  18
ATOM     18  CG  ASN A 133      28.753  30.581  11.342  1.00 18.94     0.276 C 
ATOM     19  OD1 ASN A 133      28.588  29.595  10.622  1.00 18.09    -0.269 OA
ATOM     20  ND2 ASN A 133      27.769  31.128  12.056  1.00 18.93    -0.107 N 
ENDBRANCH  17  18
ENDBRANCH  16  17
END_RES ASN A 133
