REMARK VINA RESULT:    -3.311      8.531     14.184
REMARK INTER + INTRA:          -7.134
REMARK INTER:                  -3.859
REMARK INTRA:                  -3.276
REMARK UNBOUND:                -3.243
REMARK SMILES Cc1cn(CCC2OCCO2)nn1
REMARK SMILES IDX 5 1 4 2 1 3 2 4 3 5 13 6 12 7 6 8 7 9 8 10 11 11 9 12 10 13
REMARK H PARENT
REMARK Flexibility Score: inf
ROOT
ATOM      1  C   UNL     1      37.306  33.876  13.786  1.00  0.00     0.151 C 
ENDROOT
BRANCH   1   2
ATOM      2  N   UNL     1      38.466  34.572  13.297  1.00  0.00    -0.252 N 
ATOM      3  C   UNL     1      40.348  36.433  10.819  1.00  0.00     0.070 C 
ATOM      4  C   UNL     1      39.796  35.694  11.988  1.00  0.00     0.080 A 
ATOM      5  C   UNL     1      38.543  35.132  12.083  1.00  0.00     0.134 A 
ATOM      6  N   UNL     1      40.433  35.455  13.148  1.00  0.00    -0.136 NA
ATOM      7  N   UNL     1      39.610  34.774  13.927  1.00  0.00    -0.067 NA
ENDBRANCH   1   2
BRANCH   1   8
ATOM      8  C   UNL     1      36.134  34.233  12.935  1.00  0.00     0.086 C 
BRANCH   8   9
ATOM      9  C   UNL     1      35.101  35.058  13.676  1.00  0.00     0.251 C 
ATOM     10  O   UNL     1      33.835  34.900  13.170  1.00  0.00    -0.350 OA
ATOM     11  O   UNL     1      35.404  36.397  13.691  1.00  0.00    -0.350 OA
ATOM     12  C   UNL     1      33.335  36.139  12.845  1.00  0.00     0.192 C 
ATOM     13  C   UNL     1      34.597  36.963  12.691  1.00  0.00     0.192 C 
ENDBRANCH   8   9
ENDBRANCH   1   8
TORSDOF 3
BEGIN_RES LYS A 135
REMARK  4 active torsions:
REMARK  status: ('A' for Active; 'I' for Inactive)
REMARK    1  A    between atoms: CA   and  CB  
REMARK    2  A    between atoms: CB   and  CG  
REMARK    3  A    between atoms: CG   and  CD  
REMARK    4  A    between atoms: CD   and  CE  
ROOT
ATOM      1  CA  LYS A 135      33.193  34.663   9.290  1.00 25.02     0.186 C 
ENDROOT
BRANCH   1   2
ATOM      2  CB  LYS A 135      32.060  35.360  10.034  1.00 26.63     0.034 C 
BRANCH   2   3
ATOM      3  CG  LYS A 135      30.830  35.579   9.191  1.00 29.45     0.005 C 
BRANCH   3   4
ATOM      4  CD  LYS A 135      30.287  34.253   8.680  1.00 32.00     0.041 C 
BRANCH   4   5
ATOM      5  CE  LYS A 135      28.883  34.017   9.202  1.00 34.25     0.338 C 
ATOM      6  NZ  LYS A 135      27.867  34.656   8.320  1.00 35.99     0.618 N 
ENDBRANCH   4   5
ENDBRANCH   3   4
ENDBRANCH   2   3
ENDBRANCH   1   2
END_RES LYS A 135
BEGIN_RES TYR A 136
REMARK  2 active torsions:
REMARK  status: ('A' for Active; 'I' for Inactive)
REMARK    5  A    between atoms: CA   and  CB  
REMARK    6  A    between atoms: CB   and  CG  
ROOT
ATOM      7  CA  TYR A 136      36.583  36.399   8.994  1.00 26.14     0.191 C 
ENDROOT
BRANCH   7   8
ATOM      8  CB  TYR A 136      37.367  36.835  10.240  1.00 28.16     0.060 C 
BRANCH   8   9
ATOM      9  CG  TYR A 136      37.255  38.316  10.507  1.00 31.88    -0.020 A 
ATOM     10  CD2 TYR A 136      36.723  39.185   9.552  1.00 32.67    -0.002 A 
ATOM     11  CE2 TYR A 136      36.625  40.559   9.810  1.00 33.89     0.027 A 
ATOM     12  CZ  TYR A 136      37.064  41.069  11.034  1.00 34.34     0.131 A 
ATOM     13  OH  TYR A 136      36.970  42.425  11.313  1.00 35.14    -0.190 OA
ATOM     14  CE1 TYR A 136      37.596  40.220  11.994  1.00 35.01     0.027 A 
ATOM     15  CD1 TYR A 136      37.695  38.854  11.723  1.00 33.57    -0.002 A 
ENDBRANCH   8   9
ENDBRANCH   7   8
END_RES TYR A 136
BEGIN_RES ASN A 133
REMARK  2 active torsions:
REMARK  status: ('A' for Active; 'I' for Inactive)
REMARK    7  A    between atoms: CA   and  CB  
REMARK    8  A    between atoms: CB   and  CG  
ROOT
ATOM     16  CA  ASN A 133      31.225  30.257  11.749  1.00 18.15     0.196 C 
ENDROOT
BRANCH  16  17
ATOM     17  CB  ASN A 133      30.092  31.240  11.460  1.00 18.27     0.126 C 
BRANCH  17  18
ATOM     18  CG  ASN A 133      28.753  30.581  11.342  1.00 18.94     0.276 C 
ATOM     19  OD1 ASN A 133      28.586  29.600  10.615  1.00 18.09    -0.269 OA
ATOM     20  ND2 ASN A 133      27.772  31.121  12.064  1.00 18.93    -0.107 N 
ENDBRANCH  17  18
ENDBRANCH  16  17
END_RES ASN A 133
