REMARK VINA RESULT:    -3.660      2.223      3.888
REMARK INTER + INTRA:          -7.802
REMARK INTER:                  -4.792
REMARK INTRA:                  -3.010
REMARK UNBOUND:                -3.500
REMARK SMILES Cc1cn(CS(=O)(=O)c2ccccc2)nn1
REMARK SMILES IDX 5 1 4 2 1 3 2 4 3 5 16 6 15 7 6 8 7 9 8 10 9 11 10 12 14 13
REMARK SMILES IDX 11 14 13 15 12 16
REMARK H PARENT
REMARK Flexibility Score: inf
ROOT
ATOM      1  C   UNL     1      39.337  34.622  14.406  1.00  0.00     0.287 C 
ENDROOT
BRANCH   1   2
ATOM      2  N   UNL     1      38.037  34.422  13.797  1.00  0.00    -0.237 N 
ATOM      3  C   UNL     1      34.441  34.943  13.282  1.00  0.00     0.070 C 
ATOM      4  C   UNL     1      35.869  34.530  13.261  1.00  0.00     0.080 A 
ATOM      5  C   UNL     1      36.868  35.019  14.097  1.00  0.00     0.135 A 
ATOM      6  N   UNL     1      36.493  33.637  12.473  1.00  0.00    -0.136 NA
ATOM      7  N   UNL     1      37.776  33.579  12.796  1.00  0.00    -0.066 NA
ENDBRANCH   1   2
BRANCH   1   8
ATOM      8  S   UNL     1      40.388  35.631  13.403  1.00  0.00     0.198 S 
ATOM      9  O   UNL     1      40.390  35.196  11.970  1.00  0.00    -0.222 OA
ATOM     10  O   UNL     1      41.807  35.538  13.891  1.00  0.00    -0.222 OA
BRANCH   8  11
ATOM     11  C   UNL     1      39.925  37.305  13.459  1.00  0.00     0.069 A 
ATOM     12  C   UNL     1      39.206  37.835  14.521  1.00  0.00     0.020 A 
ATOM     13  C   UNL     1      40.271  38.135  12.433  1.00  0.00     0.020 A 
ATOM     14  C   UNL     1      38.848  39.161  14.550  1.00  0.00     0.001 A 
ATOM     15  C   UNL     1      39.932  39.485  12.414  1.00  0.00     0.001 A 
ATOM     16  C   UNL     1      39.219  39.985  13.482  1.00  0.00     0.000 A 
ENDBRANCH   8  11
ENDBRANCH   1   8
TORSDOF 3
BEGIN_RES LYS A 135
REMARK  4 active torsions:
REMARK  status: ('A' for Active; 'I' for Inactive)
REMARK    1  A    between atoms: CA   and  CB  
REMARK    2  A    between atoms: CB   and  CG  
REMARK    3  A    between atoms: CG   and  CD  
REMARK    4  A    between atoms: CD   and  CE  
ROOT
ATOM      1  CA  LYS A 135      33.193  34.663   9.290  1.00 25.02     0.186 C 
ENDROOT
BRANCH   1   2
ATOM      2  CB  LYS A 135      32.060  35.360  10.034  1.00 26.63     0.034 C 
BRANCH   2   3
ATOM      3  CG  LYS A 135      30.916  35.769   9.143  1.00 29.45     0.005 C 
BRANCH   3   4
ATOM      4  CD  LYS A 135      30.311  34.555   8.455  1.00 32.00     0.041 C 
BRANCH   4   5
ATOM      5  CE  LYS A 135      29.135  34.965   7.588  1.00 34.25     0.338 C 
ATOM      6  NZ  LYS A 135      27.842  34.659   8.259  1.00 35.99     0.618 N 
ENDBRANCH   4   5
ENDBRANCH   3   4
ENDBRANCH   2   3
ENDBRANCH   1   2
END_RES LYS A 135
BEGIN_RES TYR A 136
REMARK  2 active torsions:
REMARK  status: ('A' for Active; 'I' for Inactive)
REMARK    5  A    between atoms: CA   and  CB  
REMARK    6  A    between atoms: CB   and  CG  
ROOT
ATOM      7  CA  TYR A 136      36.583  36.399   8.994  1.00 26.14     0.191 C 
ENDROOT
BRANCH   7   8
ATOM      8  CB  TYR A 136      37.367  36.835  10.240  1.00 28.16     0.060 C 
BRANCH   8   9
ATOM      9  CG  TYR A 136      36.837  38.113  10.841  1.00 31.88    -0.020 A 
ATOM     10  CD2 TYR A 136      36.158  38.112  12.062  1.00 32.67    -0.002 A 
ATOM     11  CE2 TYR A 136      35.668  39.304  12.611  1.00 33.89     0.027 A 
ATOM     12  CZ  TYR A 136      35.859  40.510  11.932  1.00 34.34     0.131 A 
ATOM     13  OH  TYR A 136      35.388  41.705  12.460  1.00 35.14    -0.190 OA
ATOM     14  CE1 TYR A 136      36.530  40.531  10.718  1.00 35.01     0.027 A 
ATOM     15  CD1 TYR A 136      37.008  39.335  10.178  1.00 33.57    -0.002 A 
ENDBRANCH   8   9
ENDBRANCH   7   8
END_RES TYR A 136
BEGIN_RES ASN A 133
REMARK  2 active torsions:
REMARK  status: ('A' for Active; 'I' for Inactive)
REMARK    7  A    between atoms: CA   and  CB  
REMARK    8  A    between atoms: CB   and  CG  
ROOT
ATOM     16  CA  ASN A 133      31.225  30.257  11.749  1.00 18.15     0.196 C 
ENDROOT
BRANCH  16  17
ATOM     17  CB  ASN A 133      30.092  31.240  11.460  1.00 18.27     0.126 C 
BRANCH  17  18
ATOM     18  CG  ASN A 133      28.755  30.579  11.328  1.00 18.94     0.276 C 
ATOM     19  OD1 ASN A 133      28.588  29.624  10.568  1.00 18.09    -0.269 OA
ATOM     20  ND2 ASN A 133      27.776  31.090  12.074  1.00 18.93    -0.107 N 
ENDBRANCH  17  18
ENDBRANCH  16  17
END_RES ASN A 133
