REMARK VINA RESULT:    -3.121      1.962      2.817
REMARK INTER + INTRA:          -6.911
REMARK INTER:                  -3.641
REMARK INTRA:                  -3.270
REMARK UNBOUND:                -3.243
REMARK SMILES Cc1cn(CCC2OCCO2)nn1
REMARK SMILES IDX 5 1 4 2 1 3 2 4 3 5 13 6 12 7 6 8 7 9 8 10 11 11 9 12 10 13
REMARK H PARENT
REMARK Flexibility Score: inf
ROOT
ATOM      1  C   UNL     1      23.510  36.677  -1.406  1.00  0.00     0.151 C 
ENDROOT
BRANCH   1   2
ATOM      2  N   UNL     1      23.068  35.326  -1.186  1.00  0.00    -0.252 N 
ATOM      3  C   UNL     1      22.480  32.377   0.839  1.00  0.00     0.070 C 
ATOM      4  C   UNL     1      22.618  33.441  -0.193  1.00  0.00     0.080 A 
ATOM      5  C   UNL     1      23.130  34.705  -0.002  1.00  0.00     0.134 A 
ATOM      6  N   UNL     1      22.265  33.343  -1.487  1.00  0.00    -0.136 NA
ATOM      7  N   UNL     1      22.545  34.496  -2.071  1.00  0.00    -0.067 NA
ENDBRANCH   1   2
BRANCH   1   8
ATOM      8  C   UNL     1      24.426  36.700  -2.583  1.00  0.00     0.086 C 
BRANCH   8   9
ATOM      9  C   UNL     1      25.320  37.923  -2.607  1.00  0.00     0.251 C 
ATOM     10  O   UNL     1      26.000  38.060  -3.790  1.00  0.00    -0.350 OA
ATOM     11  O   UNL     1      26.227  37.936  -1.576  1.00  0.00    -0.350 OA
ATOM     12  C   UNL     1      27.345  38.142  -3.517  1.00  0.00     0.192 C 
ATOM     13  C   UNL     1      27.433  37.501  -2.147  1.00  0.00     0.192 C 
ENDBRANCH   8   9
ENDBRANCH   1   8
TORSDOF 3
BEGIN_RES LYS A 135
REMARK  4 active torsions:
REMARK  status: ('A' for Active; 'I' for Inactive)
REMARK    1  A    between atoms: CA   and  CB  
REMARK    2  A    between atoms: CB   and  CG  
REMARK    3  A    between atoms: CG   and  CD  
REMARK    4  A    between atoms: CD   and  CE  
ROOT
ATOM      1  CA  LYS A 135      33.193  34.663   9.290  1.00 25.02     0.186 C 
ENDROOT
BRANCH   1   2
ATOM      2  CB  LYS A 135      32.060  35.360  10.034  1.00 26.63     0.034 C 
BRANCH   2   3
ATOM      3  CG  LYS A 135      30.857  35.643   9.171  1.00 29.45     0.005 C 
BRANCH   3   4
ATOM      4  CD  LYS A 135      30.345  34.364   8.528  1.00 32.00     0.041 C 
BRANCH   4   5
ATOM      5  CE  LYS A 135      28.832  34.389   8.426  1.00 34.25     0.338 C 
ATOM      6  NZ  LYS A 135      28.201  33.817   9.648  1.00 35.99     0.618 N 
ENDBRANCH   4   5
ENDBRANCH   3   4
ENDBRANCH   2   3
ENDBRANCH   1   2
END_RES LYS A 135
BEGIN_RES TYR A 136
REMARK  2 active torsions:
REMARK  status: ('A' for Active; 'I' for Inactive)
REMARK    5  A    between atoms: CA   and  CB  
REMARK    6  A    between atoms: CB   and  CG  
ROOT
ATOM      7  CA  TYR A 136      36.583  36.399   8.994  1.00 26.14     0.191 C 
ENDROOT
BRANCH   7   8
ATOM      8  CB  TYR A 136      37.367  36.835  10.240  1.00 28.16     0.060 C 
BRANCH   8   9
ATOM      9  CG  TYR A 136      37.208  38.305  10.540  1.00 31.88    -0.020 A 
ATOM     10  CD2 TYR A 136      36.394  39.121   9.751  1.00 32.67    -0.002 A 
ATOM     11  CE2 TYR A 136      36.255  40.486  10.038  1.00 33.89     0.027 A 
ATOM     12  CZ  TYR A 136      36.937  41.040  11.124  1.00 34.34     0.131 A 
ATOM     13  OH  TYR A 136      36.808  42.387  11.430  1.00 35.14    -0.190 OA
ATOM     14  CE1 TYR A 136      37.751  40.244  11.918  1.00 35.01     0.027 A 
ATOM     15  CD1 TYR A 136      37.886  38.888  11.619  1.00 33.57    -0.002 A 
ENDBRANCH   8   9
ENDBRANCH   7   8
END_RES TYR A 136
BEGIN_RES ASN A 133
REMARK  2 active torsions:
REMARK  status: ('A' for Active; 'I' for Inactive)
REMARK    7  A    between atoms: CA   and  CB  
REMARK    8  A    between atoms: CB   and  CG  
ROOT
ATOM     16  CA  ASN A 133      31.225  30.257  11.749  1.00 18.15     0.196 C 
ENDROOT
BRANCH  16  17
ATOM     17  CB  ASN A 133      30.092  31.240  11.460  1.00 18.27     0.126 C 
BRANCH  17  18
ATOM     18  CG  ASN A 133      28.749  30.584  11.366  1.00 18.94     0.276 C 
ATOM     19  OD1 ASN A 133      28.565  29.608  10.637  1.00 18.09    -0.269 OA
ATOM     20  ND2 ASN A 133      27.784  31.122  12.111  1.00 18.93    -0.107 N 
ENDBRANCH  17  18
ENDBRANCH  16  17
END_RES ASN A 133
