REMARK VINA RESULT:    -3.504      8.731     14.112
REMARK INTER + INTRA:          -7.149
REMARK INTER:                  -3.996
REMARK INTRA:                  -3.154
REMARK UNBOUND:                -3.235
REMARK SMILES Cc1cn(-c2ccc([N+](=O)[O-])cc2)nn1
REMARK SMILES IDX 5 1 6 2 7 3 8 4 12 5 13 6 4 7 1 8 2 9 3 10 15 11 14 12 9 13
REMARK SMILES IDX 10 14 11 15
REMARK H PARENT
REMARK Flexibility Score: inf
ROOT
ATOM      1  C   UNL     1      27.540  29.590  17.483  1.00  0.00     0.067 A 
ATOM      2  C   UNL     1      26.377  29.088  16.951  1.00  0.00     0.035 A 
ATOM      3  C   UNL     1      25.562  28.225  17.698  1.00  0.00     0.088 A 
ATOM      4  C   UNL     1      25.924  27.871  18.978  1.00  0.00     0.269 A 
ATOM      5  C   UNL     1      27.072  28.363  19.509  1.00  0.00     0.088 A 
ATOM      6  C   UNL     1      27.881  29.223  18.762  1.00  0.00     0.035 A 
ENDROOT
BRANCH   1   7
ATOM      7  N   UNL     1      28.338  30.457  16.706  1.00  0.00    -0.220 N 
ATOM      8  C   UNL     1      31.266  32.498  15.867  1.00  0.00     0.070 C 
ATOM      9  C   UNL     1      30.011  31.738  16.025  1.00  0.00     0.080 A 
ATOM     10  C   UNL     1      29.566  30.928  17.036  1.00  0.00     0.140 A 
ATOM     11  N   UNL     1      29.032  31.743  15.088  1.00  0.00    -0.135 NA
ATOM     12  N   UNL     1      28.048  30.977  15.510  1.00  0.00    -0.062 NA
ENDBRANCH   1   7
BRANCH   4  13
ATOM     13  N   UNL     1      25.068  26.984  19.715  1.00  0.00     0.062 N 
ATOM     14  O   UNL     1      25.559  26.206  20.540  1.00  0.00    -0.258 OA
ATOM     15  O   UNL     1      23.727  26.990  19.522  1.00  0.00    -0.258 OA
ENDBRANCH   4  13
TORSDOF 2
BEGIN_RES LYS A 135
REMARK  4 active torsions:
REMARK  status: ('A' for Active; 'I' for Inactive)
REMARK    1  A    between atoms: CA   and  CB  
REMARK    2  A    between atoms: CB   and  CG  
REMARK    3  A    between atoms: CG   and  CD  
REMARK    4  A    between atoms: CD   and  CE  
ROOT
ATOM      1  CA  LYS A 135      33.193  34.663   9.290  1.00 25.02     0.186 C 
ENDROOT
BRANCH   1   2
ATOM      2  CB  LYS A 135      32.060  35.360  10.034  1.00 26.63     0.034 C 
BRANCH   2   3
ATOM      3  CG  LYS A 135      30.839  35.599   9.184  1.00 29.45     0.005 C 
BRANCH   3   4
ATOM      4  CD  LYS A 135      30.285  34.284   8.658  1.00 32.00     0.041 C 
BRANCH   4   5
ATOM      5  CE  LYS A 135      28.770  34.278   8.730  1.00 34.25     0.338 C 
ATOM      6  NZ  LYS A 135      28.299  34.157  10.138  1.00 35.99     0.618 N 
ENDBRANCH   4   5
ENDBRANCH   3   4
ENDBRANCH   2   3
ENDBRANCH   1   2
END_RES LYS A 135
BEGIN_RES TYR A 136
REMARK  2 active torsions:
REMARK  status: ('A' for Active; 'I' for Inactive)
REMARK    5  A    between atoms: CA   and  CB  
REMARK    6  A    between atoms: CB   and  CG  
ROOT
ATOM      7  CA  TYR A 136      36.583  36.399   8.994  1.00 26.14     0.191 C 
ENDROOT
BRANCH   7   8
ATOM      8  CB  TYR A 136      37.367  36.835  10.240  1.00 28.16     0.060 C 
BRANCH   8   9
ATOM      9  CG  TYR A 136      37.200  38.303  10.546  1.00 31.88    -0.020 A 
ATOM     10  CD2 TYR A 136      37.742  38.867  11.703  1.00 32.67    -0.002 A 
ATOM     11  CE2 TYR A 136      37.580  40.231  11.980  1.00 33.89     0.027 A 
ATOM     12  CZ  TYR A 136      36.868  41.039  11.090  1.00 34.34     0.131 A 
ATOM     13  OH  TYR A 136      36.701  42.394  11.339  1.00 35.14    -0.190 OA
ATOM     14  CE1 TYR A 136      36.322  40.496   9.936  1.00 35.01     0.027 A 
ATOM     15  CD1 TYR A 136      36.485  39.134   9.675  1.00 33.57    -0.002 A 
ENDBRANCH   8   9
ENDBRANCH   7   8
END_RES TYR A 136
BEGIN_RES ASN A 133
REMARK  2 active torsions:
REMARK  status: ('A' for Active; 'I' for Inactive)
REMARK    7  A    between atoms: CA   and  CB  
REMARK    8  A    between atoms: CB   and  CG  
ROOT
ATOM     16  CA  ASN A 133      31.225  30.257  11.749  1.00 18.15     0.196 C 
ENDROOT
BRANCH  16  17
ATOM     17  CB  ASN A 133      30.092  31.240  11.460  1.00 18.27     0.126 C 
BRANCH  17  18
ATOM     18  CG  ASN A 133      28.763  30.575  11.281  1.00 18.94     0.276 C 
ATOM     19  OD1 ASN A 133      28.636  29.585  10.557  1.00 18.09    -0.269 OA
ATOM     20  ND2 ASN A 133      27.744  31.119  11.946  1.00 18.93    -0.107 N 
ENDBRANCH  17  18
ENDBRANCH  16  17
END_RES ASN A 133
