REMARK VINA RESULT:    -3.224      7.615     13.401
REMARK INTER + INTRA:          -7.090
REMARK INTER:                  -3.945
REMARK INTRA:                  -3.145
REMARK UNBOUND:                -3.113
REMARK SMILES CC(=O)OCCn1cc(C)nn1
REMARK SMILES IDX 5 1 6 2 7 3 10 4 9 5 8 6 11 7 12 8 4 9 2 10 3 11 1 12
REMARK H PARENT
REMARK Flexibility Score: inf
ROOT
ATOM      1  C   UNL     1      33.131  35.383  15.761  1.00  0.00     0.256 C 
ENDROOT
BRANCH   1   2
ATOM      2  C   UNL     1      33.763  36.061  14.588  1.00  0.00     0.187 C 
BRANCH   2   3
ATOM      3  N   UNL     1      34.952  35.370  14.119  1.00  0.00    -0.249 N 
ATOM      4  C   UNL     1      38.435  34.295  14.222  1.00  0.00     0.070 C 
ATOM      5  C   UNL     1      37.009  34.580  13.939  1.00  0.00     0.080 A 
ATOM      6  C   UNL     1      36.152  35.354  14.705  1.00  0.00     0.134 A 
ATOM      7  N   UNL     1      36.244  34.160  12.897  1.00  0.00    -0.136 NA
ATOM      8  N   UNL     1      35.020  34.640  13.023  1.00  0.00    -0.067 NA
ENDBRANCH   2   3
ENDBRANCH   1   2
BRANCH   1   9
ATOM      9  O   UNL     1      32.456  34.235  15.335  1.00  0.00    -0.464 OA
BRANCH   9  10
ATOM     10  C   UNL     1      31.724  33.435  16.164  1.00  0.00     0.302 C 
ATOM     11  O   UNL     1      31.563  33.719  17.371  1.00  0.00    -0.253 OA
ATOM     12  C   UNL     1      31.066  32.166  15.685  1.00  0.00     0.139 C 
ENDBRANCH   9  10
ENDBRANCH   1   9
TORSDOF 4
BEGIN_RES LYS A 135
REMARK  4 active torsions:
REMARK  status: ('A' for Active; 'I' for Inactive)
REMARK    1  A    between atoms: CA   and  CB  
REMARK    2  A    between atoms: CB   and  CG  
REMARK    3  A    between atoms: CG   and  CD  
REMARK    4  A    between atoms: CD   and  CE  
ROOT
ATOM      1  CA  LYS A 135      33.193  34.663   9.290  1.00 25.02     0.186 C 
ENDROOT
BRANCH   1   2
ATOM      2  CB  LYS A 135      32.060  35.360  10.034  1.00 26.63     0.034 C 
BRANCH   2   3
ATOM      3  CG  LYS A 135      30.705  34.754   9.773  1.00 29.45     0.005 C 
BRANCH   3   4
ATOM      4  CD  LYS A 135      30.480  34.564   8.281  1.00 32.00     0.041 C 
BRANCH   4   5
ATOM      5  CE  LYS A 135      29.030  34.824   7.924  1.00 34.25     0.338 C 
ATOM      6  NZ  LYS A 135      28.919  35.578   6.645  1.00 35.99     0.618 N 
ENDBRANCH   4   5
ENDBRANCH   3   4
ENDBRANCH   2   3
ENDBRANCH   1   2
END_RES LYS A 135
BEGIN_RES TYR A 136
REMARK  2 active torsions:
REMARK  status: ('A' for Active; 'I' for Inactive)
REMARK    5  A    between atoms: CA   and  CB  
REMARK    6  A    between atoms: CB   and  CG  
ROOT
ATOM      7  CA  TYR A 136      36.583  36.399   8.994  1.00 26.14     0.191 C 
ENDROOT
BRANCH   7   8
ATOM      8  CB  TYR A 136      37.367  36.835  10.240  1.00 28.16     0.060 C 
BRANCH   8   9
ATOM      9  CG  TYR A 136      36.723  37.999  10.953  1.00 31.88    -0.020 A 
ATOM     10  CD2 TYR A 136      36.098  39.026  10.242  1.00 32.67    -0.002 A 
ATOM     11  CE2 TYR A 136      35.505  40.103  10.914  1.00 33.89     0.027 A 
ATOM     12  CZ  TYR A 136      35.537  40.154  12.309  1.00 34.34     0.131 A 
ATOM     13  OH  TYR A 136      34.950  41.207  12.996  1.00 35.14    -0.190 OA
ATOM     14  CE1 TYR A 136      36.155  39.143  13.031  1.00 35.01     0.027 A 
ATOM     15  CD1 TYR A 136      36.748  38.078  12.351  1.00 33.57    -0.002 A 
ENDBRANCH   8   9
ENDBRANCH   7   8
END_RES TYR A 136
BEGIN_RES ASN A 133
REMARK  2 active torsions:
REMARK  status: ('A' for Active; 'I' for Inactive)
REMARK    7  A    between atoms: CA   and  CB  
REMARK    8  A    between atoms: CB   and  CG  
ROOT
ATOM     16  CA  ASN A 133      31.225  30.257  11.749  1.00 18.15     0.196 C 
ENDROOT
BRANCH  16  17
ATOM     17  CB  ASN A 133      30.092  31.240  11.460  1.00 18.27     0.126 C 
BRANCH  17  18
ATOM     18  CG  ASN A 133      28.756  30.579  11.322  1.00 18.94     0.276 C 
ATOM     19  OD1 ASN A 133      28.595  29.615  10.570  1.00 18.09    -0.269 OA
ATOM     20  ND2 ASN A 133      27.770  31.097  12.054  1.00 18.93    -0.107 N 
ENDBRANCH  17  18
ENDBRANCH  16  17
END_RES ASN A 133
