REMARK VINA RESULT:    -4.676      2.030      3.619
REMARK INTER + INTRA:          -8.214
REMARK INTER:                  -5.112
REMARK INTRA:                  -3.101
REMARK UNBOUND:                -3.264
REMARK SMILES Cc1cn(-c2cnc3ccccc3c2)nn1
REMARK SMILES IDX 5 1 6 2 7 3 8 4 9 5 10 6 11 7 12 8 13 9 14 10 4 11 1 12 2 13
REMARK SMILES IDX 3 14 16 15 15 16
REMARK H PARENT
REMARK Flexibility Score: inf
ROOT
ATOM      1  C   UNL     1      34.340  35.212  13.460  1.00  0.00     0.085 A 
ATOM      2  C   UNL     1      33.355  34.734  14.277  1.00  0.00     0.140 A 
ATOM      3  N   UNL     1      32.096  35.205  14.172  1.00  0.00    -0.254 NA
ATOM      4  C   UNL     1      31.759  36.151  13.271  1.00  0.00     0.070 A 
ATOM      5  C   UNL     1      30.473  36.638  13.157  1.00  0.00     0.029 A 
ATOM      6  C   UNL     1      30.171  37.610  12.220  1.00  0.00     0.002 A 
ATOM      7  C   UNL     1      31.162  38.111  11.374  1.00  0.00     0.001 A 
ATOM      8  C   UNL     1      32.430  37.630  11.488  1.00  0.00     0.010 A 
ATOM      9  C   UNL     1      32.721  36.664  12.424  1.00  0.00     0.002 A 
ATOM     10  C   UNL     1      34.001  36.180  12.537  1.00  0.00     0.040 A 
ENDROOT
BRANCH   1  11
ATOM     11  N   UNL     1      35.700  34.740  13.535  1.00  0.00    -0.219 N 
ATOM     12  C   UNL     1      39.067  34.577  14.974  1.00  0.00     0.070 C 
ATOM     13  C   UNL     1      37.800  34.456  14.204  1.00  0.00     0.080 A 
ATOM     14  C   UNL     1      36.605  35.122  14.454  1.00  0.00     0.140 A 
ATOM     15  N   UNL     1      37.542  33.693  13.125  1.00  0.00    -0.135 NA
ATOM     16  N   UNL     1      36.290  33.870  12.735  1.00  0.00    -0.062 NA
ENDBRANCH   1  11
TORSDOF 1
BEGIN_RES LYS A 135
REMARK  4 active torsions:
REMARK  status: ('A' for Active; 'I' for Inactive)
REMARK    1  A    between atoms: CA   and  CB  
REMARK    2  A    between atoms: CB   and  CG  
REMARK    3  A    between atoms: CG   and  CD  
REMARK    4  A    between atoms: CD   and  CE  
ROOT
ATOM      1  CA  LYS A 135      33.193  34.663   9.290  1.00 25.02     0.186 C 
ENDROOT
BRANCH   1   2
ATOM      2  CB  LYS A 135      32.060  35.360  10.034  1.00 26.63     0.034 C 
BRANCH   2   3
ATOM      3  CG  LYS A 135      30.705  34.754   9.772  1.00 29.45     0.005 C 
BRANCH   3   4
ATOM      4  CD  LYS A 135      30.469  34.593   8.279  1.00 32.00     0.041 C 
BRANCH   4   5
ATOM      5  CE  LYS A 135      29.022  34.887   7.933  1.00 34.25     0.338 C 
ATOM      6  NZ  LYS A 135      28.912  35.559   6.609  1.00 35.99     0.618 N 
ENDBRANCH   4   5
ENDBRANCH   3   4
ENDBRANCH   2   3
ENDBRANCH   1   2
END_RES LYS A 135
BEGIN_RES TYR A 136
REMARK  2 active torsions:
REMARK  status: ('A' for Active; 'I' for Inactive)
REMARK    5  A    between atoms: CA   and  CB  
REMARK    6  A    between atoms: CB   and  CG  
ROOT
ATOM      7  CA  TYR A 136      36.583  36.399   8.994  1.00 26.14     0.191 C 
ENDROOT
BRANCH   7   8
ATOM      8  CB  TYR A 136      37.367  36.835  10.240  1.00 28.16     0.060 C 
BRANCH   8   9
ATOM      9  CG  TYR A 136      36.718  37.992  10.958  1.00 31.88    -0.020 A 
ATOM     10  CD2 TYR A 136      36.927  38.206  12.323  1.00 32.67    -0.002 A 
ATOM     11  CE2 TYR A 136      36.318  39.283  12.981  1.00 33.89     0.027 A 
ATOM     12  CZ  TYR A 136      35.492  40.154  12.267  1.00 34.34     0.131 A 
ATOM     13  OH  TYR A 136      34.884  41.232  12.897  1.00 35.14    -0.190 OA
ATOM     14  CE1 TYR A 136      35.272  39.957  10.912  1.00 35.01     0.027 A 
ATOM     15  CD1 TYR A 136      35.879  38.877  10.269  1.00 33.57    -0.002 A 
ENDBRANCH   8   9
ENDBRANCH   7   8
END_RES TYR A 136
BEGIN_RES ASN A 133
REMARK  2 active torsions:
REMARK  status: ('A' for Active; 'I' for Inactive)
REMARK    7  A    between atoms: CA   and  CB  
REMARK    8  A    between atoms: CB   and  CG  
ROOT
ATOM     16  CA  ASN A 133      31.225  30.257  11.749  1.00 18.15     0.196 C 
ENDROOT
BRANCH  16  17
ATOM     17  CB  ASN A 133      30.092  31.240  11.460  1.00 18.27     0.126 C 
BRANCH  17  18
ATOM     18  CG  ASN A 133      28.751  30.582  11.350  1.00 18.94     0.276 C 
ATOM     19  OD1 ASN A 133      28.577  29.607  10.617  1.00 18.09    -0.269 OA
ATOM     20  ND2 ASN A 133      27.778  31.117  12.086  1.00 18.93    -0.107 N 
ENDBRANCH  17  18
ENDBRANCH  16  17
END_RES ASN A 133
