REMARK VINA RESULT:    -4.127      0.723      2.230
REMARK INTER + INTRA:          -8.033
REMARK INTER:                  -4.712
REMARK INTRA:                  -3.321
REMARK UNBOUND:                -3.423
REMARK SMILES Cc1cn(-c2ccccc2C(C)C)nn1
REMARK SMILES IDX 5 1 10 2 9 3 8 4 7 5 6 6 4 7 1 8 2 9 3 10 15 11 14 12 11 13
REMARK SMILES IDX 12 14 13 15
REMARK H PARENT
REMARK Flexibility Score: inf
ROOT
ATOM      1  C   UNL     1      33.245  35.258  14.364  1.00  0.00     0.070 A 
ATOM      2  C   UNL     1      32.511  36.329  13.910  1.00  0.00    -0.020 A 
ATOM      3  C   UNL     1      31.142  36.375  14.143  1.00  0.00     0.006 A 
ATOM      4  C   UNL     1      30.465  35.388  14.816  1.00  0.00     0.000 A 
ATOM      5  C   UNL     1      31.200  34.311  15.273  1.00  0.00     0.002 A 
ATOM      6  C   UNL     1      32.552  34.259  15.047  1.00  0.00     0.029 A 
ENDROOT
BRANCH   1   7
ATOM      7  N   UNL     1      34.661  35.151  14.161  1.00  0.00    -0.220 N 
ATOM      8  C   UNL     1      37.762  34.112  12.505  1.00  0.00     0.070 C 
ATOM      9  C   UNL     1      36.694  34.657  13.364  1.00  0.00     0.080 A 
ATOM     10  C   UNL     1      35.316  34.521  13.172  1.00  0.00     0.140 A 
ATOM     11  N   UNL     1      36.801  35.392  14.504  1.00  0.00    -0.135 NA
ATOM     12  N   UNL     1      35.597  35.663  14.943  1.00  0.00    -0.062 NA
ENDBRANCH   1   7
BRANCH   2  13
ATOM     13  C   UNL     1      33.209  37.410  13.174  1.00  0.00     0.015 C 
ATOM     14  C   UNL     1      32.674  38.767  13.621  1.00  0.00     0.012 C 
ATOM     15  C   UNL     1      32.943  37.289  11.672  1.00  0.00     0.012 C 
ENDBRANCH   2  13
TORSDOF 2
BEGIN_RES LYS A 135
REMARK  4 active torsions:
REMARK  status: ('A' for Active; 'I' for Inactive)
REMARK    1  A    between atoms: CA   and  CB  
REMARK    2  A    between atoms: CB   and  CG  
REMARK    3  A    between atoms: CG   and  CD  
REMARK    4  A    between atoms: CD   and  CE  
ROOT
ATOM      1  CA  LYS A 135      33.193  34.663   9.290  1.00 25.02     0.186 C 
ENDROOT
BRANCH   1   2
ATOM      2  CB  LYS A 135      32.060  35.360  10.034  1.00 26.63     0.034 C 
BRANCH   2   3
ATOM      3  CG  LYS A 135      30.727  34.674   9.881  1.00 29.45     0.005 C 
BRANCH   3   4
ATOM      4  CD  LYS A 135      30.309  34.635   8.419  1.00 32.00     0.041 C 
BRANCH   4   5
ATOM      5  CE  LYS A 135      28.797  34.634   8.298  1.00 34.25     0.338 C 
ATOM      6  NZ  LYS A 135      28.168  33.884   9.420  1.00 35.99     0.618 N 
ENDBRANCH   4   5
ENDBRANCH   3   4
ENDBRANCH   2   3
ENDBRANCH   1   2
END_RES LYS A 135
BEGIN_RES TYR A 136
REMARK  2 active torsions:
REMARK  status: ('A' for Active; 'I' for Inactive)
REMARK    5  A    between atoms: CA   and  CB  
REMARK    6  A    between atoms: CB   and  CG  
ROOT
ATOM      7  CA  TYR A 136      36.583  36.399   8.994  1.00 26.14     0.191 C 
ENDROOT
BRANCH   7   8
ATOM      8  CB  TYR A 136      37.367  36.835  10.240  1.00 28.16     0.060 C 
BRANCH   8   9
ATOM      9  CG  TYR A 136      36.761  38.042  10.914  1.00 31.88    -0.020 A 
ATOM     10  CD2 TYR A 136      36.043  38.992  10.185  1.00 32.67    -0.002 A 
ATOM     11  CE2 TYR A 136      35.486  40.111  10.820  1.00 33.89     0.027 A 
ATOM     12  CZ  TYR A 136      35.649  40.279  12.197  1.00 34.34     0.131 A 
ATOM     13  OH  TYR A 136      35.100  41.375  12.849  1.00 35.14    -0.190 OA
ATOM     14  CE1 TYR A 136      36.361  39.345  12.937  1.00 35.01     0.027 A 
ATOM     15  CD1 TYR A 136      36.916  38.239  12.292  1.00 33.57    -0.002 A 
ENDBRANCH   8   9
ENDBRANCH   7   8
END_RES TYR A 136
BEGIN_RES ASN A 133
REMARK  2 active torsions:
REMARK  status: ('A' for Active; 'I' for Inactive)
REMARK    7  A    between atoms: CA   and  CB  
REMARK    8  A    between atoms: CB   and  CG  
ROOT
ATOM     16  CA  ASN A 133      31.225  30.257  11.749  1.00 18.15     0.196 C 
ENDROOT
BRANCH  16  17
ATOM     17  CB  ASN A 133      30.092  31.240  11.460  1.00 18.27     0.126 C 
BRANCH  17  18
ATOM     18  CG  ASN A 133      28.759  30.576  11.301  1.00 18.94     0.276 C 
ATOM     19  OD1 ASN A 133      28.612  29.612  10.547  1.00 18.09    -0.269 OA
ATOM     20  ND2 ASN A 133      27.761  31.094  12.016  1.00 18.93    -0.107 N 
ENDBRANCH  17  18
ENDBRANCH  16  17
END_RES ASN A 133
