REMARK VINA RESULT:    -3.216      7.772     11.816
REMARK INTER + INTRA:          -7.081
REMARK INTER:                  -3.901
REMARK INTRA:                  -3.180
REMARK UNBOUND:                -3.113
REMARK SMILES CC(=O)OCCn1cc(C)nn1
REMARK SMILES IDX 5 1 6 2 7 3 10 4 9 5 8 6 11 7 12 8 4 9 2 10 3 11 1 12
REMARK H PARENT
REMARK Flexibility Score: inf
ROOT
ATOM      1  C   UNL     1      39.303  37.438   3.620  1.00  0.00     0.256 C 
ENDROOT
BRANCH   1   2
ATOM      2  C   UNL     1      37.875  37.767   3.326  1.00  0.00     0.187 C 
BRANCH   2   3
ATOM      3  N   UNL     1      37.168  38.270   4.492  1.00  0.00    -0.249 N 
ATOM      4  C   UNL     1      36.602  40.462   7.350  1.00  0.00     0.070 C 
ATOM      5  C   UNL     1      36.588  39.449   6.271  1.00  0.00     0.080 A 
ATOM      6  C   UNL     1      37.534  39.292   5.270  1.00  0.00     0.134 A 
ATOM      7  N   UNL     1      35.674  38.474   6.026  1.00  0.00    -0.136 NA
ATOM      8  N   UNL     1      36.036  37.782   4.961  1.00  0.00    -0.067 NA
ENDBRANCH   2   3
ENDBRANCH   1   2
BRANCH   1   9
ATOM      9  O   UNL     1      39.396  36.137   4.121  1.00  0.00    -0.464 OA
BRANCH   9  10
ATOM     10  C   UNL     1      40.547  35.595   4.615  1.00  0.00     0.302 C 
ATOM     11  O   UNL     1      41.268  36.219   5.424  1.00  0.00    -0.253 OA
ATOM     12  C   UNL     1      41.024  34.220   4.222  1.00  0.00     0.139 C 
ENDBRANCH   9  10
ENDBRANCH   1   9
TORSDOF 4
BEGIN_RES LYS A 135
REMARK  4 active torsions:
REMARK  status: ('A' for Active; 'I' for Inactive)
REMARK    1  A    between atoms: CA   and  CB  
REMARK    2  A    between atoms: CB   and  CG  
REMARK    3  A    between atoms: CG   and  CD  
REMARK    4  A    between atoms: CD   and  CE  
ROOT
ATOM      1  CA  LYS A 135      33.193  34.663   9.290  1.00 25.02     0.186 C 
ENDROOT
BRANCH   1   2
ATOM      2  CB  LYS A 135      32.060  35.360  10.034  1.00 26.63     0.034 C 
BRANCH   2   3
ATOM      3  CG  LYS A 135      30.704  34.762   9.763  1.00 29.45     0.005 C 
BRANCH   3   4
ATOM      4  CD  LYS A 135      30.518  34.504   8.276  1.00 32.00     0.041 C 
BRANCH   4   5
ATOM      5  CE  LYS A 135      29.126  34.915   7.834  1.00 34.25     0.338 C 
ATOM      6  NZ  LYS A 135      28.087  34.341   8.733  1.00 35.99     0.618 N 
ENDBRANCH   4   5
ENDBRANCH   3   4
ENDBRANCH   2   3
ENDBRANCH   1   2
END_RES LYS A 135
BEGIN_RES TYR A 136
REMARK  2 active torsions:
REMARK  status: ('A' for Active; 'I' for Inactive)
REMARK    5  A    between atoms: CA   and  CB  
REMARK    6  A    between atoms: CB   and  CG  
ROOT
ATOM      7  CA  TYR A 136      36.583  36.399   8.994  1.00 26.14     0.191 C 
ENDROOT
BRANCH   7   8
ATOM      8  CB  TYR A 136      37.367  36.835  10.240  1.00 28.16     0.060 C 
BRANCH   8   9
ATOM      9  CG  TYR A 136      37.260  38.317  10.504  1.00 31.88    -0.020 A 
ATOM     10  CD2 TYR A 136      38.386  39.142  10.464  1.00 32.67    -0.002 A 
ATOM     11  CE2 TYR A 136      38.276  40.517  10.712  1.00 33.89     0.027 A 
ATOM     12  CZ  TYR A 136      37.027  41.071  11.004  1.00 34.34     0.131 A 
ATOM     13  OH  TYR A 136      36.894  42.431  11.246  1.00 35.14    -0.190 OA
ATOM     14  CE1 TYR A 136      35.898  40.266  11.049  1.00 35.01     0.027 A 
ATOM     15  CD1 TYR A 136      36.021  38.897  10.806  1.00 33.57    -0.002 A 
ENDBRANCH   8   9
ENDBRANCH   7   8
END_RES TYR A 136
BEGIN_RES ASN A 133
REMARK  2 active torsions:
REMARK  status: ('A' for Active; 'I' for Inactive)
REMARK    7  A    between atoms: CA   and  CB  
REMARK    8  A    between atoms: CB   and  CG  
ROOT
ATOM     16  CA  ASN A 133      31.225  30.257  11.749  1.00 18.15     0.196 C 
ENDROOT
BRANCH  16  17
ATOM     17  CB  ASN A 133      30.092  31.240  11.460  1.00 18.27     0.126 C 
BRANCH  17  18
ATOM     18  CG  ASN A 133      28.751  30.582  11.352  1.00 18.94     0.276 C 
ATOM     19  OD1 ASN A 133      28.577  29.604  10.623  1.00 18.09    -0.269 OA
ATOM     20  ND2 ASN A 133      27.777  31.121  12.085  1.00 18.93    -0.107 N 
ENDBRANCH  17  18
ENDBRANCH  16  17
END_RES ASN A 133
