REMARK VINA RESULT:   -10.938      9.583     14.339
REMARK INTER + INTRA:          -7.449
REMARK INTER:                  -5.153
REMARK INTRA:                  -2.296
REMARK UNBOUND:                 6.686
REMARK SMILES Cc1cn(C2CCc3ccccc3NC2=O)nn1
REMARK SMILES IDX 14 1 15 2 16 3 5 5 4 6 1 7 2 8 3 9 18 10 17 11 6 12 13 14
REMARK SMILES IDX 8 15 12 16 9 17 11 18 10 19 7 20
REMARK H PARENT 14 4
REMARK Flexibility Score: 90.00
ROOT
ATOM      1  N   UNL     1      34.710  34.161  13.216  1.00  0.00    -0.324 N 
ATOM      2  C   UNL     1      33.770  35.146  13.604  1.00  0.00     0.249 C 
ATOM      3  O   UNL     1      32.631  34.681  13.869  1.00  0.00    -0.272 OA
ATOM      4  H   UNL     1      34.362  33.205  12.969  1.00  0.00     0.170 HD
ENDROOT
BRANCH   2   5
ATOM      5  C   UNL     1      33.916  36.602  13.743  1.00  0.00     0.198 C 
BRANCH   5   6
ATOM      6  N   UNL     1      32.769  37.221  13.101  1.00  0.00    -0.240 N 
ATOM      7  C   UNL     1      30.759  38.340  10.234  1.00  0.00     0.070 C 
ATOM      8  C   UNL     1      31.384  37.986  11.528  1.00  0.00     0.080 A 
ATOM      9  C   UNL     1      32.582  37.346  11.753  1.00  0.00     0.135 A 
ATOM     10  N   UNL     1      30.868  38.237  12.740  1.00  0.00    -0.136 NA
ATOM     11  N   UNL     1      31.706  37.774  13.680  1.00  0.00    -0.066 NA
ENDBRANCH   5   6
BRANCH   5  12
ATOM     12  C   UNL     1      35.155  37.137  13.080  1.00  0.00     0.042 CG0
ATOM     13  G   UNL     1      36.413  36.738  13.846  1.00  0.00     0.000 G0
ENDBRANCH   5  12
ENDBRANCH   2   5
BRANCH   1  14
ATOM     14  C   UNL     1      36.123  34.285  13.110  1.00  0.00     0.044 A 
ATOM     15  C   UNL     1      36.903  35.413  13.378  1.00  0.00    -0.024 A 
ATOM     16  C   UNL     1      36.758  33.137  12.692  1.00  0.00     0.026 A 
ATOM     17  C   UNL     1      38.269  35.333  13.214  1.00  0.00     0.006 A 
ATOM     18  C   UNL     1      38.122  33.026  12.517  1.00  0.00     0.002 A 
ATOM     19  C   UNL     1      38.878  34.172  12.794  1.00  0.00     0.000 A 
BRANCH  15  20
ATOM     20  C   UNL     1      36.416  36.744  13.839  1.00  0.00     0.040 CG0
ATOM     21  G   UNL     1      35.154  37.146  13.080  1.00  0.00     0.000 G0
ENDBRANCH  15  20
ENDBRANCH   1  14
TORSDOF 1
BEGIN_RES LYS A 135
REMARK  4 active torsions:
REMARK  status: ('A' for Active; 'I' for Inactive)
REMARK    1  A    between atoms: CA   and  CB  
REMARK    2  A    between atoms: CB   and  CG  
REMARK    3  A    between atoms: CG   and  CD  
REMARK    4  A    between atoms: CD   and  CE  
ROOT
ATOM      1  CA  LYS A 135      33.193  34.663   9.290  1.00 25.02     0.186 C 
ENDROOT
BRANCH   1   2
ATOM      2  CB  LYS A 135      32.060  35.360  10.034  1.00 26.63     0.034 C 
BRANCH   2   3
ATOM      3  CG  LYS A 135      30.778  34.568  10.058  1.00 29.45     0.005 C 
BRANCH   3   4
ATOM      4  CD  LYS A 135      30.217  34.414   8.653  1.00 32.00     0.041 C 
BRANCH   4   5
ATOM      5  CE  LYS A 135      28.708  34.263   8.696  1.00 34.25     0.338 C 
ATOM      6  NZ  LYS A 135      28.060  35.035   7.600  1.00 35.99     0.618 N 
ENDBRANCH   4   5
ENDBRANCH   3   4
ENDBRANCH   2   3
ENDBRANCH   1   2
END_RES LYS A 135
BEGIN_RES TYR A 136
REMARK  2 active torsions:
REMARK  status: ('A' for Active; 'I' for Inactive)
REMARK    5  A    between atoms: CA   and  CB  
REMARK    6  A    between atoms: CB   and  CG  
ROOT
ATOM      7  CA  TYR A 136      36.583  36.399   8.994  1.00 26.14     0.191 C 
ENDROOT
BRANCH   7   8
ATOM      8  CB  TYR A 136      37.367  36.835  10.240  1.00 28.16     0.060 C 
BRANCH   8   9
ATOM      9  CG  TYR A 136      37.345  38.330  10.446  1.00 31.88    -0.020 A 
ATOM     10  CD2 TYR A 136      36.376  39.129   9.836  1.00 32.67    -0.002 A 
ATOM     11  CE2 TYR A 136      36.365  40.517  10.032  1.00 33.89     0.027 A 
ATOM     12  CZ  TYR A 136      37.333  41.110  10.846  1.00 34.34     0.131 A 
ATOM     13  OH  TYR A 136      37.338  42.481  11.060  1.00 35.14    -0.190 OA
ATOM     14  CE1 TYR A 136      38.304  40.331  11.459  1.00 35.01     0.027 A 
ATOM     15  CD1 TYR A 136      38.308  38.951  11.251  1.00 33.57    -0.002 A 
ENDBRANCH   8   9
ENDBRANCH   7   8
END_RES TYR A 136
BEGIN_RES ASN A 133
REMARK  2 active torsions:
REMARK  status: ('A' for Active; 'I' for Inactive)
REMARK    7  A    between atoms: CA   and  CB  
REMARK    8  A    between atoms: CB   and  CG  
ROOT
ATOM     16  CA  ASN A 133      31.225  30.257  11.749  1.00 18.15     0.196 C 
ENDROOT
BRANCH  16  17
ATOM     17  CB  ASN A 133      30.092  31.240  11.460  1.00 18.27     0.126 C 
BRANCH  17  18
ATOM     18  CG  ASN A 133      28.759  30.577  11.302  1.00 18.94     0.276 C 
ATOM     19  OD1 ASN A 133      28.610  29.615  10.546  1.00 18.09    -0.269 OA
ATOM     20  ND2 ASN A 133      27.763  31.091  12.023  1.00 18.93    -0.107 N 
ENDBRANCH  17  18
ENDBRANCH  16  17
END_RES ASN A 133
