REMARK VINA RESULT:    -5.569      3.639      5.618
REMARK INTER + INTRA:          -9.863
REMARK INTER:                  -5.384
REMARK INTRA:                  -4.479
REMARK UNBOUND:                -2.666
REMARK SMILES Cc1cn(C[C@@H](C)CN2CCN(c3ccc(Cl)cc3)CC2)nn1
REMARK SMILES IDX 6 1 7 2 5 3 4 4 1 5 2 6 3 7 23 8 22 9 8 10 9 11 10 12 21 13
REMARK SMILES IDX 11 14 20 15 12 16 13 17 14 18 19 19 15 20 18 21 16 22 17 23
REMARK H PARENT
REMARK Flexibility Score: inf
ROOT
ATOM      1  C   UNL     1      30.151  32.995  15.464  1.00  0.00     0.022 C 
ATOM      2  C   UNL     1      29.522  31.815  16.145  1.00  0.00     0.011 C 
ENDROOT
BRANCH   1   3
ATOM      3  C   UNL     1      29.819  33.011  14.011  1.00  0.00     0.150 C 
BRANCH   3   4
ATOM      4  N   UNL     1      29.118  34.217  13.636  1.00  0.00    -0.252 N 
ATOM      5  C   UNL     1      28.719  37.183  11.550  1.00  0.00     0.070 C 
ATOM      6  C   UNL     1      28.635  36.063  12.543  1.00  0.00     0.080 A 
ATOM      7  C   UNL     1      29.530  35.018  12.616  1.00  0.00     0.134 A 
ATOM      8  N   UNL     1      27.723  35.858  13.511  1.00  0.00    -0.136 NA
ATOM      9  N   UNL     1      28.037  34.727  14.165  1.00  0.00    -0.067 NA
ENDBRANCH   3   4
ENDBRANCH   1   3
BRANCH   1  10
ATOM     10  C   UNL     1      31.678  32.968  15.613  1.00  0.00     0.089 C 
BRANCH  10  11
ATOM     11  N   UNL     1      32.136  34.290  15.500  1.00  0.00    -0.299 NA
ATOM     12  C   UNL     1      31.570  35.306  16.277  1.00  0.00     0.106 C 
ATOM     13  C   UNL     1      33.182  34.608  14.624  1.00  0.00     0.106 C 
ATOM     14  C   UNL     1      31.187  36.533  15.458  1.00  0.00     0.132 C 
ATOM     15  C   UNL     1      33.518  36.094  14.823  1.00  0.00     0.132 C 
ATOM     16  N   UNL     1      32.283  36.791  14.542  1.00  0.00    -0.369 N 
BRANCH  16  17
ATOM     17  C   UNL     1      32.118  37.682  13.449  1.00  0.00     0.037 A 
ATOM     18  C   UNL     1      31.594  38.946  13.538  1.00  0.00     0.027 A 
ATOM     19  C   UNL     1      32.507  37.253  12.184  1.00  0.00     0.027 A 
ATOM     20  C   UNL     1      31.438  39.796  12.460  1.00  0.00     0.022 A 
ATOM     21  C   UNL     1      32.366  38.074  11.088  1.00  0.00     0.022 A 
ATOM     22  C   UNL     1      31.830  39.350  11.220  1.00  0.00     0.041 A 
ATOM     23  Cl  UNL     1      31.672  40.350   9.797  1.00  0.00    -0.084 Cl
ENDBRANCH  16  17
ENDBRANCH  10  11
ENDBRANCH   1  10
TORSDOF 5
BEGIN_RES LYS A 135
REMARK  4 active torsions:
REMARK  status: ('A' for Active; 'I' for Inactive)
REMARK    1  A    between atoms: CA   and  CB  
REMARK    2  A    between atoms: CB   and  CG  
REMARK    3  A    between atoms: CG   and  CD  
REMARK    4  A    between atoms: CD   and  CE  
ROOT
ATOM      1  CA  LYS A 135      33.193  34.663   9.290  1.00 25.02     0.186 C 
ENDROOT
BRANCH   1   2
ATOM      2  CB  LYS A 135      32.060  35.360  10.034  1.00 26.63     0.034 C 
BRANCH   2   3
ATOM      3  CG  LYS A 135      30.803  35.509   9.216  1.00 29.45     0.005 C 
BRANCH   3   4
ATOM      4  CD  LYS A 135      30.113  34.164   9.044  1.00 32.00     0.041 C 
BRANCH   4   5
ATOM      5  CE  LYS A 135      28.649  34.358   8.698  1.00 34.25     0.338 C 
ATOM      6  NZ  LYS A 135      27.768  33.678   9.688  1.00 35.99     0.618 N 
ENDBRANCH   4   5
ENDBRANCH   3   4
ENDBRANCH   2   3
ENDBRANCH   1   2
END_RES LYS A 135
BEGIN_RES TYR A 136
REMARK  2 active torsions:
REMARK  status: ('A' for Active; 'I' for Inactive)
REMARK    5  A    between atoms: CA   and  CB  
REMARK    6  A    between atoms: CB   and  CG  
ROOT
ATOM      7  CA  TYR A 136      36.583  36.399   8.994  1.00 26.14     0.191 C 
ENDROOT
BRANCH   7   8
ATOM      8  CB  TYR A 136      37.367  36.835  10.240  1.00 28.16     0.060 C 
BRANCH   8   9
ATOM      9  CG  TYR A 136      36.647  37.894  11.038  1.00 31.88    -0.020 A 
ATOM     10  CD2 TYR A 136      36.403  37.730  12.403  1.00 32.67    -0.002 A 
ATOM     11  CE2 TYR A 136      35.731  38.720  13.134  1.00 33.89     0.027 A 
ATOM     12  CZ  TYR A 136      35.299  39.883  12.493  1.00 34.34     0.131 A 
ATOM     13  OH  TYR A 136      34.639  40.879  13.199  1.00 35.14    -0.190 OA
ATOM     14  CE1 TYR A 136      35.532  40.062  11.137  1.00 35.01     0.027 A 
ATOM     15  CD1 TYR A 136      36.196  39.067  10.418  1.00 33.57    -0.002 A 
ENDBRANCH   8   9
ENDBRANCH   7   8
END_RES TYR A 136
BEGIN_RES ASN A 133
REMARK  2 active torsions:
REMARK  status: ('A' for Active; 'I' for Inactive)
REMARK    7  A    between atoms: CA   and  CB  
REMARK    8  A    between atoms: CB   and  CG  
ROOT
ATOM     16  CA  ASN A 133      31.225  30.257  11.749  1.00 18.15     0.196 C 
ENDROOT
BRANCH  16  17
ATOM     17  CB  ASN A 133      30.092  31.240  11.460  1.00 18.27     0.126 C 
BRANCH  17  18
ATOM     18  CG  ASN A 133      28.758  30.577  11.308  1.00 18.94     0.276 C 
ATOM     19  OD1 ASN A 133      28.609  29.606  10.563  1.00 18.09    -0.269 OA
ATOM     20  ND2 ASN A 133      27.762  31.102  12.019  1.00 18.93    -0.107 N 
ENDBRANCH  17  18
ENDBRANCH  16  17
END_RES ASN A 133
