REMARK VINA RESULT:    -5.541      3.000      5.206
REMARK INTER + INTRA:          -9.827
REMARK INTER:                  -6.049
REMARK INTRA:                  -3.778
REMARK UNBOUND:                -2.666
REMARK SMILES Cc1cn(C[C@@H](C)CN2CCN(c3ccc(Cl)cc3)CC2)nn1
REMARK SMILES IDX 6 1 7 2 5 3 4 4 1 5 2 6 3 7 23 8 22 9 8 10 9 11 10 12 21 13
REMARK SMILES IDX 11 14 20 15 12 16 13 17 14 18 19 19 15 20 18 21 16 22 17 23
REMARK H PARENT
REMARK Flexibility Score: inf
ROOT
ATOM      1  C   UNL     1      36.244  35.136  13.320  1.00  0.00     0.022 C 
ATOM      2  C   UNL     1      36.447  33.876  12.531  1.00  0.00     0.011 C 
ENDROOT
BRANCH   1   3
ATOM      3  C   UNL     1      35.073  35.902  12.809  1.00  0.00     0.150 C 
BRANCH   3   4
ATOM      4  N   UNL     1      33.838  35.458  13.412  1.00  0.00    -0.252 N 
ATOM      5  C   UNL     1      31.933  34.131  16.227  1.00  0.00     0.070 C 
ATOM      6  C   UNL     1      32.452  34.673  14.928  1.00  0.00     0.080 A 
ATOM      7  C   UNL     1      33.768  35.007  14.695  1.00  0.00     0.134 A 
ATOM      8  N   UNL     1      31.780  34.932  13.792  1.00  0.00    -0.136 NA
ATOM      9  N   UNL     1      32.645  35.409  12.880  1.00  0.00    -0.067 NA
ENDBRANCH   3   4
ENDBRANCH   1   3
BRANCH   1  10
ATOM     10  C   UNL     1      37.484  36.037  13.249  1.00  0.00     0.089 C 
BRANCH  10  11
ATOM     11  N   UNL     1      38.065  36.058  14.526  1.00  0.00    -0.299 NA
ATOM     12  C   UNL     1      39.370  35.595  14.719  1.00  0.00     0.106 C 
ATOM     13  C   UNL     1      37.353  36.563  15.622  1.00  0.00     0.106 C 
ATOM     14  C   UNL     1      39.486  34.623  15.888  1.00  0.00     0.132 C 
ATOM     15  C   UNL     1      38.300  36.554  16.832  1.00  0.00     0.132 C 
ATOM     16  N   UNL     1      38.700  35.172  16.977  1.00  0.00    -0.369 N 
BRANCH  16  17
ATOM     17  C   UNL     1      38.365  34.373  18.101  1.00  0.00     0.037 A 
ATOM     18  C   UNL     1      38.874  33.127  18.360  1.00  0.00     0.027 A 
ATOM     19  C   UNL     1      37.446  34.877  19.018  1.00  0.00     0.027 A 
ATOM     20  C   UNL     1      38.531  32.363  19.459  1.00  0.00     0.022 A 
ATOM     21  C   UNL     1      37.082  34.143  20.124  1.00  0.00     0.022 A 
ATOM     22  C   UNL     1      37.622  32.883  20.351  1.00  0.00     0.041 A 
ATOM     23  Cl  UNL     1      37.124  31.994  21.770  1.00  0.00    -0.084 Cl
ENDBRANCH  16  17
ENDBRANCH  10  11
ENDBRANCH   1  10
TORSDOF 5
BEGIN_RES LYS A 135
REMARK  4 active torsions:
REMARK  status: ('A' for Active; 'I' for Inactive)
REMARK    1  A    between atoms: CA   and  CB  
REMARK    2  A    between atoms: CB   and  CG  
REMARK    3  A    between atoms: CG   and  CD  
REMARK    4  A    between atoms: CD   and  CE  
ROOT
ATOM      1  CA  LYS A 135      33.193  34.663   9.290  1.00 25.02     0.186 C 
ENDROOT
BRANCH   1   2
ATOM      2  CB  LYS A 135      32.060  35.360  10.034  1.00 26.63     0.034 C 
BRANCH   2   3
ATOM      3  CG  LYS A 135      30.716  34.711   9.829  1.00 29.45     0.005 C 
BRANCH   3   4
ATOM      4  CD  LYS A 135      30.468  34.445   8.352  1.00 32.00     0.041 C 
BRANCH   4   5
ATOM      5  CE  LYS A 135      29.028  34.755   7.989  1.00 34.25     0.338 C 
ATOM      6  NZ  LYS A 135      28.956  35.778   6.909  1.00 35.99     0.618 N 
ENDBRANCH   4   5
ENDBRANCH   3   4
ENDBRANCH   2   3
ENDBRANCH   1   2
END_RES LYS A 135
BEGIN_RES TYR A 136
REMARK  2 active torsions:
REMARK  status: ('A' for Active; 'I' for Inactive)
REMARK    5  A    between atoms: CA   and  CB  
REMARK    6  A    between atoms: CB   and  CG  
ROOT
ATOM      7  CA  TYR A 136      36.583  36.399   8.994  1.00 26.14     0.191 C 
ENDROOT
BRANCH   7   8
ATOM      8  CB  TYR A 136      37.367  36.835  10.240  1.00 28.16     0.060 C 
BRANCH   8   9
ATOM      9  CG  TYR A 136      37.282  38.321  10.488  1.00 31.88    -0.020 A 
ATOM     10  CD2 TYR A 136      38.422  39.127  10.450  1.00 32.67    -0.002 A 
ATOM     11  CE2 TYR A 136      38.333  40.506  10.684  1.00 33.89     0.027 A 
ATOM     12  CZ  TYR A 136      37.092  41.084  10.959  1.00 34.34     0.131 A 
ATOM     13  OH  TYR A 136      36.978  42.448  11.186  1.00 35.14    -0.190 OA
ATOM     14  CE1 TYR A 136      35.949  40.298  11.002  1.00 35.01     0.027 A 
ATOM     15  CD1 TYR A 136      36.051  38.925  10.774  1.00 33.57    -0.002 A 
ENDBRANCH   8   9
ENDBRANCH   7   8
END_RES TYR A 136
BEGIN_RES ASN A 133
REMARK  2 active torsions:
REMARK  status: ('A' for Active; 'I' for Inactive)
REMARK    7  A    between atoms: CA   and  CB  
REMARK    8  A    between atoms: CB   and  CG  
ROOT
ATOM     16  CA  ASN A 133      31.225  30.257  11.749  1.00 18.15     0.196 C 
ENDROOT
BRANCH  16  17
ATOM     17  CB  ASN A 133      30.092  31.240  11.460  1.00 18.27     0.126 C 
BRANCH  17  18
ATOM     18  CG  ASN A 133      28.749  30.584  11.365  1.00 18.94     0.276 C 
ATOM     19  OD1 ASN A 133      28.569  29.600  10.645  1.00 18.09    -0.269 OA
ATOM     20  ND2 ASN A 133      27.780  31.131  12.098  1.00 18.93    -0.107 N 
ENDBRANCH  17  18
ENDBRANCH  16  17
END_RES ASN A 133
