REMARK VINA RESULT:    -4.901      0.000      0.000
REMARK INTER + INTRA:          -9.918
REMARK INTER:                  -6.442
REMARK INTRA:                  -3.477
REMARK UNBOUND:                -3.584
REMARK SMILES Cc1cn([C@@H](C)C(=O)OCc2ccccc2)nn1
REMARK SMILES IDX 7 1 8 2 5 3 6 4 4 5 1 6 2 7 3 8 18 9 17 10 9 11 10 12 11 13
REMARK SMILES IDX 12 14 16 15 13 16 15 17 14 18
REMARK H PARENT
REMARK Flexibility Score: inf
ROOT
ATOM      1  C   UNL     1      32.716  35.168  14.030  1.00  0.00     0.331 C 
ATOM      2  O   UNL     1      31.705  35.012  13.296  1.00  0.00    -0.250 OA
ENDROOT
BRANCH   1   3
ATOM      3  C   UNL     1      33.779  36.172  13.685  1.00  0.00     0.215 C 
ATOM      4  C   UNL     1      33.601  36.724  12.301  1.00  0.00     0.046 C 
BRANCH   3   5
ATOM      5  N   UNL     1      35.052  35.478  13.720  1.00  0.00    -0.238 N 
ATOM      6  C   UNL     1      38.332  34.456  14.826  1.00  0.00     0.070 C 
ATOM      7  C   UNL     1      37.031  34.698  14.172  1.00  0.00     0.080 A 
ATOM      8  C   UNL     1      36.060  35.555  14.577  1.00  0.00     0.135 A 
ATOM      9  N   UNL     1      36.605  34.093  13.057  1.00  0.00    -0.136 NA
ATOM     10  N   UNL     1      35.397  34.585  12.800  1.00  0.00    -0.066 NA
ENDBRANCH   3   5
ENDBRANCH   1   3
BRANCH   1  11
ATOM     11  O   UNL     1      32.792  34.375  15.153  1.00  0.00    -0.459 OA
BRANCH  11  12
ATOM     12  C   UNL     1      32.075  34.551  16.350  1.00  0.00     0.268 C 
BRANCH  12  13
ATOM     13  C   UNL     1      31.365  33.365  16.835  1.00  0.00    -0.011 A 
ATOM     14  C   UNL     1      31.001  33.223  18.155  1.00  0.00     0.007 A 
ATOM     15  C   UNL     1      31.036  32.349  15.970  1.00  0.00     0.007 A 
ATOM     16  C   UNL     1      30.328  32.111  18.625  1.00  0.00     0.000 A 
ATOM     17  C   UNL     1      30.356  31.208  16.401  1.00  0.00     0.000 A 
ATOM     18  C   UNL     1      30.016  31.120  17.742  1.00  0.00     0.000 A 
ENDBRANCH  12  13
ENDBRANCH  11  12
ENDBRANCH   1  11
TORSDOF 5
BEGIN_RES LYS A 135
REMARK  4 active torsions:
REMARK  status: ('A' for Active; 'I' for Inactive)
REMARK    1  A    between atoms: CA   and  CB  
REMARK    2  A    between atoms: CB   and  CG  
REMARK    3  A    between atoms: CG   and  CD  
REMARK    4  A    between atoms: CD   and  CE  
ROOT
ATOM      1  CA  LYS A 135      33.193  34.663   9.290  1.00 25.02     0.186 C 
ENDROOT
BRANCH   1   2
ATOM      2  CB  LYS A 135      32.060  35.360  10.034  1.00 26.63     0.034 C 
BRANCH   2   3
ATOM      3  CG  LYS A 135      30.701  34.776   9.746  1.00 29.45     0.005 C 
BRANCH   3   4
ATOM      4  CD  LYS A 135      30.568  34.426   8.272  1.00 32.00     0.041 C 
BRANCH   4   5
ATOM      5  CE  LYS A 135      29.394  35.161   7.654  1.00 34.25     0.338 C 
ATOM      6  NZ  LYS A 135      28.102  34.663   8.202  1.00 35.99     0.618 N 
ENDBRANCH   4   5
ENDBRANCH   3   4
ENDBRANCH   2   3
ENDBRANCH   1   2
END_RES LYS A 135
BEGIN_RES TYR A 136
REMARK  2 active torsions:
REMARK  status: ('A' for Active; 'I' for Inactive)
REMARK    5  A    between atoms: CA   and  CB  
REMARK    6  A    between atoms: CB   and  CG  
ROOT
ATOM      7  CA  TYR A 136      36.583  36.399   8.994  1.00 26.14     0.191 C 
ENDROOT
BRANCH   7   8
ATOM      8  CB  TYR A 136      37.367  36.835  10.240  1.00 28.16     0.060 C 
BRANCH   8   9
ATOM      9  CG  TYR A 136      36.759  38.039  10.916  1.00 31.88    -0.020 A 
ATOM     10  CD2 TYR A 136      35.975  38.949  10.204  1.00 32.67    -0.002 A 
ATOM     11  CE2 TYR A 136      35.416  40.065  10.841  1.00 33.89     0.027 A 
ATOM     12  CZ  TYR A 136      35.644  40.273  12.204  1.00 34.34     0.131 A 
ATOM     13  OH  TYR A 136      35.095  41.367  12.857  1.00 35.14    -0.190 OA
ATOM     14  CE1 TYR A 136      36.421  39.379  12.927  1.00 35.01     0.027 A 
ATOM     15  CD1 TYR A 136      36.978  38.275  12.280  1.00 33.57    -0.002 A 
ENDBRANCH   8   9
ENDBRANCH   7   8
END_RES TYR A 136
BEGIN_RES ASN A 133
REMARK  2 active torsions:
REMARK  status: ('A' for Active; 'I' for Inactive)
REMARK    7  A    between atoms: CA   and  CB  
REMARK    8  A    between atoms: CB   and  CG  
ROOT
ATOM     16  CA  ASN A 133      31.225  30.257  11.749  1.00 18.15     0.196 C 
ENDROOT
BRANCH  16  17
ATOM     17  CB  ASN A 133      30.092  31.240  11.460  1.00 18.27     0.126 C 
BRANCH  17  18
ATOM     18  CG  ASN A 133      28.748  30.586  11.378  1.00 18.94     0.276 C 
ATOM     19  OD1 ASN A 133      28.562  29.596  10.667  1.00 18.09    -0.269 OA
ATOM     20  ND2 ASN A 133      27.784  31.140  12.113  1.00 18.93    -0.107 N 
ENDBRANCH  17  18
ENDBRANCH  16  17
END_RES ASN A 133
