REMARK VINA RESULT:    -3.204      6.769      8.049
REMARK INTER + INTRA:          -7.589
REMARK INTER:                  -4.371
REMARK INTRA:                  -3.218
REMARK UNBOUND:                -3.635
REMARK SMILES Cc1cn(CCNS(C)(=O)=O)nn1
REMARK SMILES IDX 6 1 5 2 4 3 1 4 2 5 3 6 13 7 12 8 7 9 8 11 10 12 11 13 9 14
REMARK H PARENT 7 10
REMARK Flexibility Score: inf
ROOT
ATOM      1  C   UNL     1      36.428  37.523   1.601  1.00  0.00     0.122 C 
ENDROOT
BRANCH   1   2
ATOM      2  C   UNL     1      36.794  37.604   3.087  1.00  0.00     0.162 C 
BRANCH   2   3
ATOM      3  N   UNL     1      35.744  38.409   3.726  1.00  0.00    -0.251 N 
ATOM      4  C   UNL     1      33.841  39.708   6.562  1.00  0.00     0.070 C 
ATOM      5  C   UNL     1      34.436  39.343   5.244  1.00  0.00     0.080 A 
ATOM      6  C   UNL     1      35.495  38.489   5.042  1.00  0.00     0.134 A 
ATOM      7  N   UNL     1      34.073  39.758   4.020  1.00  0.00    -0.136 NA
ATOM      8  N   UNL     1      34.865  39.191   3.130  1.00  0.00    -0.067 NA
ENDBRANCH   2   3
ENDBRANCH   1   2
BRANCH   1   9
ATOM      9  N   UNL     1      37.613  37.216   0.854  1.00  0.00    -0.214 NA
ATOM     10  H   UNL     1      37.440  36.545   0.098  1.00  0.00     0.141 HD
BRANCH   9  11
ATOM     11  S   UNL     1      38.378  38.652   0.309  1.00  0.00     0.208 S 
ATOM     12  O   UNL     1      39.032  38.427  -1.022  1.00  0.00    -0.213 OA
ATOM     13  O   UNL     1      39.448  39.034   1.317  1.00  0.00    -0.213 OA
ATOM     14  C   UNL     1      37.202  39.956   0.249  1.00  0.00     0.176 C 
ENDBRANCH   9  11
ENDBRANCH   1   9
TORSDOF 4
BEGIN_RES LYS A 135
REMARK  4 active torsions:
REMARK  status: ('A' for Active; 'I' for Inactive)
REMARK    1  A    between atoms: CA   and  CB  
REMARK    2  A    between atoms: CB   and  CG  
REMARK    3  A    between atoms: CG   and  CD  
REMARK    4  A    between atoms: CD   and  CE  
ROOT
ATOM      1  CA  LYS A 135      33.193  34.663   9.290  1.00 25.02     0.186 C 
ENDROOT
BRANCH   1   2
ATOM      2  CB  LYS A 135      32.060  35.360  10.034  1.00 26.63     0.034 C 
BRANCH   2   3
ATOM      3  CG  LYS A 135      30.825  35.565   9.195  1.00 29.45     0.005 C 
BRANCH   3   4
ATOM      4  CD  LYS A 135      30.090  34.249   8.992  1.00 32.00     0.041 C 
BRANCH   4   5
ATOM      5  CE  LYS A 135      28.749  34.486   8.324  1.00 34.25     0.338 C 
ATOM      6  NZ  LYS A 135      28.889  35.384   7.144  1.00 35.99     0.618 N 
ENDBRANCH   4   5
ENDBRANCH   3   4
ENDBRANCH   2   3
ENDBRANCH   1   2
END_RES LYS A 135
BEGIN_RES TYR A 136
REMARK  2 active torsions:
REMARK  status: ('A' for Active; 'I' for Inactive)
REMARK    5  A    between atoms: CA   and  CB  
REMARK    6  A    between atoms: CB   and  CG  
ROOT
ATOM      7  CA  TYR A 136      36.583  36.399   8.994  1.00 26.14     0.191 C 
ENDROOT
BRANCH   7   8
ATOM      8  CB  TYR A 136      37.367  36.835  10.240  1.00 28.16     0.060 C 
BRANCH   8   9
ATOM      9  CG  TYR A 136      37.286  38.322  10.486  1.00 31.88    -0.020 A 
ATOM     10  CD2 TYR A 136      38.432  39.073  10.757  1.00 32.67    -0.002 A 
ATOM     11  CE2 TYR A 136      38.346  40.453  10.986  1.00 33.89     0.027 A 
ATOM     12  CZ  TYR A 136      37.102  41.087  10.942  1.00 34.34     0.131 A 
ATOM     13  OH  TYR A 136      36.993  42.454  11.158  1.00 35.14    -0.190 OA
ATOM     14  CE1 TYR A 136      35.953  40.356  10.675  1.00 35.01     0.027 A 
ATOM     15  CD1 TYR A 136      36.051  38.981  10.455  1.00 33.57    -0.002 A 
ENDBRANCH   8   9
ENDBRANCH   7   8
END_RES TYR A 136
BEGIN_RES ASN A 133
REMARK  2 active torsions:
REMARK  status: ('A' for Active; 'I' for Inactive)
REMARK    7  A    between atoms: CA   and  CB  
REMARK    8  A    between atoms: CB   and  CG  
ROOT
ATOM     16  CA  ASN A 133      31.225  30.257  11.749  1.00 18.15     0.196 C 
ENDROOT
BRANCH  16  17
ATOM     17  CB  ASN A 133      30.092  31.240  11.460  1.00 18.27     0.126 C 
BRANCH  17  18
ATOM     18  CG  ASN A 133      28.754  30.580  11.330  1.00 18.94     0.276 C 
ATOM     19  OD1 ASN A 133      28.590  29.612  10.585  1.00 18.09    -0.269 OA
ATOM     20  ND2 ASN A 133      27.773  31.103  12.063  1.00 18.93    -0.107 N 
ENDBRANCH  17  18
ENDBRANCH  16  17
END_RES ASN A 133
