REMARK VINA RESULT:    -3.605      2.336      4.209
REMARK INTER + INTRA:          -7.710
REMARK INTER:                  -4.511
REMARK INTRA:                  -3.199
REMARK UNBOUND:                -3.052
REMARK SMILES C=CCCCCn1cc(C)nn1
REMARK SMILES IDX 5 1 6 2 7 3 10 4 9 5 8 6 11 7 12 8 4 9 3 10 2 11 1 12
REMARK H PARENT
REMARK Flexibility Score: inf
ROOT
ATOM      1  C   UNL     1      33.902  36.223  12.754  1.00  0.00     0.024 C 
ENDROOT
BRANCH   1   2
ATOM      2  C   UNL     1      34.536  35.912  14.071  1.00  0.00     0.146 C 
BRANCH   2   3
ATOM      3  N   UNL     1      35.750  35.162  13.964  1.00  0.00    -0.252 N 
ATOM      4  C   UNL     1      38.055  32.741  12.519  1.00  0.00     0.070 C 
ATOM      5  C   UNL     1      37.295  33.786  13.302  1.00  0.00     0.080 A 
ATOM      6  C   UNL     1      36.028  34.252  13.020  1.00  0.00     0.134 A 
ATOM      7  N   UNL     1      37.703  34.438  14.391  1.00  0.00    -0.136 NA
ATOM      8  N   UNL     1      36.769  35.257  14.775  1.00  0.00    -0.067 NA
ENDBRANCH   2   3
ENDBRANCH   1   2
BRANCH   1   9
ATOM      9  C   UNL     1      33.254  37.585  12.715  1.00  0.00     0.006 C 
BRANCH   9  10
ATOM     10  C   UNL     1      32.944  37.976  11.266  1.00  0.00     0.027 C 
BRANCH  10  11
ATOM     11  C   UNL     1      31.953  39.078  11.341  1.00  0.00    -0.035 C 
ATOM     12  C   UNL     1      32.160  40.181  10.635  1.00  0.00     0.004 C 
ENDBRANCH  10  11
ENDBRANCH   9  10
ENDBRANCH   1   9
TORSDOF 5
BEGIN_RES LYS A 135
REMARK  4 active torsions:
REMARK  status: ('A' for Active; 'I' for Inactive)
REMARK    1  A    between atoms: CA   and  CB  
REMARK    2  A    between atoms: CB   and  CG  
REMARK    3  A    between atoms: CG   and  CD  
REMARK    4  A    between atoms: CD   and  CE  
ROOT
ATOM      1  CA  LYS A 135      33.193  34.663   9.290  1.00 25.02     0.186 C 
ENDROOT
BRANCH   1   2
ATOM      2  CB  LYS A 135      32.060  35.360  10.034  1.00 26.63     0.034 C 
BRANCH   2   3
ATOM      3  CG  LYS A 135      30.844  35.613   9.180  1.00 29.45     0.005 C 
BRANCH   3   4
ATOM      4  CD  LYS A 135      30.245  34.300   8.699  1.00 32.00     0.041 C 
BRANCH   4   5
ATOM      5  CE  LYS A 135      28.745  34.435   8.517  1.00 34.25     0.338 C 
ATOM      6  NZ  LYS A 135      28.007  33.703   9.583  1.00 35.99     0.618 N 
ENDBRANCH   4   5
ENDBRANCH   3   4
ENDBRANCH   2   3
ENDBRANCH   1   2
END_RES LYS A 135
BEGIN_RES TYR A 136
REMARK  2 active torsions:
REMARK  status: ('A' for Active; 'I' for Inactive)
REMARK    5  A    between atoms: CA   and  CB  
REMARK    6  A    between atoms: CB   and  CG  
ROOT
ATOM      7  CA  TYR A 136      36.583  36.399   8.994  1.00 26.14     0.191 C 
ENDROOT
BRANCH   7   8
ATOM      8  CB  TYR A 136      37.367  36.835  10.240  1.00 28.16     0.060 C 
BRANCH   8   9
ATOM      9  CG  TYR A 136      36.838  38.115  10.840  1.00 31.88    -0.020 A 
ATOM     10  CD2 TYR A 136      36.881  38.339  12.218  1.00 32.67    -0.002 A 
ATOM     11  CE2 TYR A 136      36.385  39.530  12.765  1.00 33.89     0.027 A 
ATOM     12  CZ  TYR A 136      35.842  40.506  11.926  1.00 34.34     0.131 A 
ATOM     13  OH  TYR A 136      35.352  41.696  12.446  1.00 35.14    -0.190 OA
ATOM     14  CE1 TYR A 136      35.790  40.299  10.555  1.00 35.01     0.027 A 
ATOM     15  CD1 TYR A 136      36.281  39.106  10.022  1.00 33.57    -0.002 A 
ENDBRANCH   8   9
ENDBRANCH   7   8
END_RES TYR A 136
BEGIN_RES ASN A 133
REMARK  2 active torsions:
REMARK  status: ('A' for Active; 'I' for Inactive)
REMARK    7  A    between atoms: CA   and  CB  
REMARK    8  A    between atoms: CB   and  CG  
ROOT
ATOM     16  CA  ASN A 133      31.225  30.257  11.749  1.00 18.15     0.196 C 
ENDROOT
BRANCH  16  17
ATOM     17  CB  ASN A 133      30.092  31.240  11.460  1.00 18.27     0.126 C 
BRANCH  17  18
ATOM     18  CG  ASN A 133      28.756  30.579  11.323  1.00 18.94     0.276 C 
ATOM     19  OD1 ASN A 133      28.594  29.617  10.569  1.00 18.09    -0.269 OA
ATOM     20  ND2 ASN A 133      27.772  31.095  12.058  1.00 18.93    -0.107 N 
ENDBRANCH  17  18
ENDBRANCH  16  17
END_RES ASN A 133
