REMARK VINA RESULT:    -3.651      0.000      0.000
REMARK INTER + INTRA:          -7.310
REMARK INTER:                  -4.070
REMARK INTRA:                  -3.239
REMARK UNBOUND:                -3.232
REMARK SMILES Cc1cn(Cc2ccsc2)nn1
REMARK SMILES IDX 5 1 4 2 1 3 2 4 3 5 12 6 11 7 6 8 7 9 10 10 8 11 9 12
REMARK H PARENT
REMARK Flexibility Score: inf
ROOT
ATOM      1  C   UNL     1      21.069  33.591  -0.959  1.00  0.00     0.182 C 
ENDROOT
BRANCH   1   2
ATOM      2  N   UNL     1      21.742  32.408  -0.497  1.00  0.00    -0.248 N 
ATOM      3  C   UNL     1      22.980  28.981  -0.487  1.00  0.00     0.070 C 
ATOM      4  C   UNL     1      22.567  30.397  -0.308  1.00  0.00     0.080 A 
ATOM      5  C   UNL     1      21.842  31.222  -1.106  1.00  0.00     0.134 A 
ATOM      6  N   UNL     1      22.897  31.107   0.784  1.00  0.00    -0.136 NA
ATOM      7  N   UNL     1      22.390  32.304   0.641  1.00  0.00    -0.067 NA
ENDBRANCH   1   2
BRANCH   1   8
ATOM      8  C   UNL     1      22.060  34.715  -1.224  1.00  0.00    -0.016 A 
ATOM      9  C   UNL     1      23.029  34.700  -2.117  1.00  0.00     0.017 A 
ATOM     10  C   UNL     1      21.968  35.923  -0.449  1.00  0.00     0.070 A 
ATOM     11  C   UNL     1      23.884  35.761  -2.291  1.00  0.00     0.065 A 
ATOM     12  S   UNL     1      23.229  36.924  -1.029  1.00  0.00    -0.152 S 
ENDBRANCH   1   8
TORSDOF 2
BEGIN_RES LYS A 135
REMARK  4 active torsions:
REMARK  status: ('A' for Active; 'I' for Inactive)
REMARK    1  A    between atoms: CA   and  CB  
REMARK    2  A    between atoms: CB   and  CG  
REMARK    3  A    between atoms: CG   and  CD  
REMARK    4  A    between atoms: CD   and  CE  
ROOT
ATOM      1  CA  LYS A 135      33.193  34.663   9.290  1.00 25.02     0.186 C 
ENDROOT
BRANCH   1   2
ATOM      2  CB  LYS A 135      32.060  35.360  10.034  1.00 26.63     0.034 C 
BRANCH   2   3
ATOM      3  CG  LYS A 135      30.726  34.677   9.877  1.00 29.45     0.005 C 
BRANCH   3   4
ATOM      4  CD  LYS A 135      30.337  34.590   8.409  1.00 32.00     0.041 C 
BRANCH   4   5
ATOM      5  CE  LYS A 135      28.828  34.571   8.258  1.00 34.25     0.338 C 
ATOM      6  NZ  LYS A 135      28.185  33.845   9.387  1.00 35.99     0.618 N 
ENDBRANCH   4   5
ENDBRANCH   3   4
ENDBRANCH   2   3
ENDBRANCH   1   2
END_RES LYS A 135
BEGIN_RES TYR A 136
REMARK  2 active torsions:
REMARK  status: ('A' for Active; 'I' for Inactive)
REMARK    5  A    between atoms: CA   and  CB  
REMARK    6  A    between atoms: CB   and  CG  
ROOT
ATOM      7  CA  TYR A 136      36.583  36.399   8.994  1.00 26.14     0.191 C 
ENDROOT
BRANCH   7   8
ATOM      8  CB  TYR A 136      37.367  36.835  10.240  1.00 28.16     0.060 C 
BRANCH   8   9
ATOM      9  CG  TYR A 136      37.196  38.302  10.549  1.00 31.88    -0.020 A 
ATOM     10  CD2 TYR A 136      36.785  39.205   9.566  1.00 32.67    -0.002 A 
ATOM     11  CE2 TYR A 136      36.631  40.566   9.863  1.00 33.89     0.027 A 
ATOM     12  CZ  TYR A 136      36.892  41.028  11.155  1.00 34.34     0.131 A 
ATOM     13  OH  TYR A 136      36.740  42.370  11.474  1.00 35.14    -0.190 OA
ATOM     14  CE1 TYR A 136      37.303  40.145  12.143  1.00 35.01     0.027 A 
ATOM     15  CD1 TYR A 136      37.459  38.793  11.834  1.00 33.57    -0.002 A 
ENDBRANCH   8   9
ENDBRANCH   7   8
END_RES TYR A 136
BEGIN_RES ASN A 133
REMARK  2 active torsions:
REMARK  status: ('A' for Active; 'I' for Inactive)
REMARK    7  A    between atoms: CA   and  CB  
REMARK    8  A    between atoms: CB   and  CG  
ROOT
ATOM     16  CA  ASN A 133      31.225  30.257  11.749  1.00 18.15     0.196 C 
ENDROOT
BRANCH  16  17
ATOM     17  CB  ASN A 133      30.092  31.240  11.460  1.00 18.27     0.126 C 
BRANCH  17  18
ATOM     18  CG  ASN A 133      28.757  30.578  11.315  1.00 18.94     0.276 C 
ATOM     19  OD1 ASN A 133      28.603  29.609  10.570  1.00 18.09    -0.269 OA
ATOM     20  ND2 ASN A 133      27.765  31.102  12.034  1.00 18.93    -0.107 N 
ENDBRANCH  17  18
ENDBRANCH  16  17
END_RES ASN A 133
