REMARK VINA RESULT:    -4.366      2.011      3.947
REMARK INTER + INTRA:          -7.486
REMARK INTER:                  -4.359
REMARK INTRA:                  -3.127
REMARK UNBOUND:                -2.865
REMARK SMILES Cc1ccc(-n2cc(C)nn2)cc1
REMARK SMILES IDX 5 1 4 2 3 3 2 4 1 5 13 6 12 7 6 8 9 9 8 10 7 11 10 12 11 13
REMARK H PARENT
REMARK Flexibility Score: inf
ROOT
ATOM      1  C   UNL     1      35.090  34.957  13.777  1.00  0.00     0.066 A 
ATOM      2  C   UNL     1      35.752  35.549  14.822  1.00  0.00     0.029 A 
ATOM      3  C   UNL     1      37.127  35.453  14.907  1.00  0.00     0.005 A 
ATOM      4  C   UNL     1      37.886  34.777  13.975  1.00  0.00    -0.051 A 
ATOM      5  C   UNL     1      39.366  34.687  14.087  1.00  0.00     0.044 C 
ATOM      6  C   UNL     1      37.194  34.188  12.930  1.00  0.00     0.005 A 
ATOM      7  C   UNL     1      35.818  34.273  12.825  1.00  0.00     0.029 A 
ENDROOT
BRANCH   1   8
ATOM      8  N   UNL     1      33.693  35.041  13.667  1.00  0.00    -0.220 N 
ATOM      9  C   UNL     1      30.313  34.546  14.917  1.00  0.00     0.070 C 
ATOM     10  C   UNL     1      31.546  34.876  14.140  1.00  0.00     0.080 A 
ATOM     11  C   UNL     1      32.817  34.630  14.603  1.00  0.00     0.140 A 
ATOM     12  N   UNL     1      31.679  35.427  12.940  1.00  0.00    -0.135 NA
ATOM     13  N   UNL     1      32.964  35.525  12.659  1.00  0.00    -0.062 NA
ENDBRANCH   1   8
TORSDOF 1
BEGIN_RES LYS A 135
REMARK  4 active torsions:
REMARK  status: ('A' for Active; 'I' for Inactive)
REMARK    1  A    between atoms: CA   and  CB  
REMARK    2  A    between atoms: CB   and  CG  
REMARK    3  A    between atoms: CG   and  CD  
REMARK    4  A    between atoms: CD   and  CE  
ROOT
ATOM      1  CA  LYS A 135      33.193  34.663   9.290  1.00 25.02     0.186 C 
ENDROOT
BRANCH   1   2
ATOM      2  CB  LYS A 135      32.060  35.360  10.034  1.00 26.63     0.034 C 
BRANCH   2   3
ATOM      3  CG  LYS A 135      30.820  35.553   9.199  1.00 29.45     0.005 C 
BRANCH   3   4
ATOM      4  CD  LYS A 135      30.192  34.212   8.854  1.00 32.00     0.041 C 
BRANCH   4   5
ATOM      5  CE  LYS A 135      28.709  34.374   8.578  1.00 34.25     0.338 C 
ATOM      6  NZ  LYS A 135      27.893  33.694   9.622  1.00 35.99     0.618 N 
ENDBRANCH   4   5
ENDBRANCH   3   4
ENDBRANCH   2   3
ENDBRANCH   1   2
END_RES LYS A 135
BEGIN_RES TYR A 136
REMARK  2 active torsions:
REMARK  status: ('A' for Active; 'I' for Inactive)
REMARK    5  A    between atoms: CA   and  CB  
REMARK    6  A    between atoms: CB   and  CG  
ROOT
ATOM      7  CA  TYR A 136      36.583  36.399   8.994  1.00 26.14     0.191 C 
ENDROOT
BRANCH   7   8
ATOM      8  CB  TYR A 136      37.367  36.835  10.240  1.00 28.16     0.060 C 
BRANCH   8   9
ATOM      9  CG  TYR A 136      36.732  38.009  10.944  1.00 31.88    -0.020 A 
ATOM     10  CD2 TYR A 136      36.120  39.038  10.225  1.00 32.67    -0.002 A 
ATOM     11  CE2 TYR A 136      35.534  40.125  10.888  1.00 33.89     0.027 A 
ATOM     12  CZ  TYR A 136      35.561  40.183  12.284  1.00 34.34     0.131 A 
ATOM     13  OH  TYR A 136      34.982  41.246  12.962  1.00 35.14    -0.190 OA
ATOM     14  CE1 TYR A 136      36.166  39.169  13.014  1.00 35.01     0.027 A 
ATOM     15  CD1 TYR A 136      36.751  38.095  12.342  1.00 33.57    -0.002 A 
ENDBRANCH   8   9
ENDBRANCH   7   8
END_RES TYR A 136
BEGIN_RES ASN A 133
REMARK  2 active torsions:
REMARK  status: ('A' for Active; 'I' for Inactive)
REMARK    7  A    between atoms: CA   and  CB  
REMARK    8  A    between atoms: CB   and  CG  
ROOT
ATOM     16  CA  ASN A 133      31.225  30.257  11.749  1.00 18.15     0.196 C 
ENDROOT
BRANCH  16  17
ATOM     17  CB  ASN A 133      30.092  31.240  11.460  1.00 18.27     0.126 C 
BRANCH  17  18
ATOM     18  CG  ASN A 133      28.749  30.584  11.367  1.00 18.94     0.276 C 
ATOM     19  OD1 ASN A 133      28.561  29.617  10.626  1.00 18.09    -0.269 OA
ATOM     20  ND2 ASN A 133      27.789  31.112  12.125  1.00 18.93    -0.107 N 
ENDBRANCH  17  18
ENDBRANCH  16  17
END_RES ASN A 133
