REMARK VINA RESULT:    -5.173      1.618      2.722
REMARK INTER + INTRA:          -8.524
REMARK INTER:                  -5.056
REMARK INTRA:                  -3.468
REMARK UNBOUND:                -2.142
REMARK SMILES CC(=O)Oc1ccccc1Cn1cc(C)nn1
REMARK SMILES IDX 10 1 5 2 6 3 7 4 8 5 9 6 11 7 12 8 15 9 14 10 13 11 16 12
REMARK SMILES IDX 17 13 4 14 2 15 3 16 1 17
REMARK H PARENT
REMARK Flexibility Score: inf
ROOT
ATOM      1  C   UNL     1      37.618  35.105  14.469  1.00  0.00     0.016 A 
ATOM      2  C   UNL     1      38.395  34.351  13.626  1.00  0.00     0.135 A 
ATOM      3  C   UNL     1      37.899  33.629  12.550  1.00  0.00     0.047 A 
ATOM      4  C   UNL     1      36.545  33.658  12.297  1.00  0.00     0.004 A 
ATOM      5  C   UNL     1      35.741  34.398  13.119  1.00  0.00     0.001 A 
ATOM      6  C   UNL     1      36.259  35.118  14.197  1.00  0.00     0.009 A 
ENDROOT
BRANCH   1   7
ATOM      7  C   UNL     1      38.194  35.879  15.597  1.00  0.00     0.185 C 
BRANCH   7   8
ATOM      8  N   UNL     1      38.232  37.287  15.247  1.00  0.00    -0.248 N 
ATOM      9  C   UNL     1      39.274  40.283  13.427  1.00  0.00     0.070 C 
ATOM     10  C   UNL     1      38.669  39.267  14.317  1.00  0.00     0.080 A 
ATOM     11  C   UNL     1      38.969  37.901  14.312  1.00  0.00     0.134 A 
ATOM     12  N   UNL     1      37.745  39.399  15.280  1.00  0.00    -0.136 NA
ATOM     13  N   UNL     1      37.484  38.225  15.834  1.00  0.00    -0.067 NA
ENDBRANCH   7   8
ENDBRANCH   1   7
BRANCH   2  14
ATOM     14  O   UNL     1      39.783  34.276  13.829  1.00  0.00    -0.426 OA
BRANCH  14  15
ATOM     15  C   UNL     1      40.561  34.418  12.683  1.00  0.00     0.308 C 
ATOM     16  O   UNL     1      41.299  33.478  12.284  1.00  0.00    -0.252 OA
ATOM     17  C   UNL     1      40.530  35.675  11.919  1.00  0.00     0.139 C 
ENDBRANCH  14  15
ENDBRANCH   2  14
TORSDOF 4
BEGIN_RES LYS A 135
REMARK  4 active torsions:
REMARK  status: ('A' for Active; 'I' for Inactive)
REMARK    1  A    between atoms: CA   and  CB  
REMARK    2  A    between atoms: CB   and  CG  
REMARK    3  A    between atoms: CG   and  CD  
REMARK    4  A    between atoms: CD   and  CE  
ROOT
ATOM      1  CA  LYS A 135      33.193  34.663   9.290  1.00 25.02     0.186 C 
ENDROOT
BRANCH   1   2
ATOM      2  CB  LYS A 135      32.060  35.360  10.034  1.00 26.63     0.034 C 
BRANCH   2   3
ATOM      3  CG  LYS A 135      30.704  34.762   9.763  1.00 29.45     0.005 C 
BRANCH   3   4
ATOM      4  CD  LYS A 135      30.515  34.513   8.274  1.00 32.00     0.041 C 
BRANCH   4   5
ATOM      5  CE  LYS A 135      29.115  34.905   7.842  1.00 34.25     0.338 C 
ATOM      6  NZ  LYS A 135      28.089  34.319   8.749  1.00 35.99     0.618 N 
ENDBRANCH   4   5
ENDBRANCH   3   4
ENDBRANCH   2   3
ENDBRANCH   1   2
END_RES LYS A 135
BEGIN_RES TYR A 136
REMARK  2 active torsions:
REMARK  status: ('A' for Active; 'I' for Inactive)
REMARK    5  A    between atoms: CA   and  CB  
REMARK    6  A    between atoms: CB   and  CG  
ROOT
ATOM      7  CA  TYR A 136      36.583  36.399   8.994  1.00 26.14     0.191 C 
ENDROOT
BRANCH   7   8
ATOM      8  CB  TYR A 136      37.367  36.835  10.240  1.00 28.16     0.060 C 
BRANCH   8   9
ATOM      9  CG  TYR A 136      36.791  38.072  10.885  1.00 31.88    -0.020 A 
ATOM     10  CD2 TYR A 136      37.078  39.346  10.390  1.00 32.67    -0.002 A 
ATOM     11  CE2 TYR A 136      36.539  40.488  10.997  1.00 33.89     0.027 A 
ATOM     12  CZ  TYR A 136      35.706  40.355  12.110  1.00 34.34     0.131 A 
ATOM     13  OH  TYR A 136      35.155  41.471  12.723  1.00 35.14    -0.190 OA
ATOM     14  CE1 TYR A 136      35.411  39.097  12.616  1.00 35.01     0.027 A 
ATOM     15  CD1 TYR A 136      35.959  37.967  12.007  1.00 33.57    -0.002 A 
ENDBRANCH   8   9
ENDBRANCH   7   8
END_RES TYR A 136
BEGIN_RES ASN A 133
REMARK  2 active torsions:
REMARK  status: ('A' for Active; 'I' for Inactive)
REMARK    7  A    between atoms: CA   and  CB  
REMARK    8  A    between atoms: CB   and  CG  
ROOT
ATOM     16  CA  ASN A 133      31.225  30.257  11.749  1.00 18.15     0.196 C 
ENDROOT
BRANCH  16  17
ATOM     17  CB  ASN A 133      30.092  31.240  11.460  1.00 18.27     0.126 C 
BRANCH  17  18
ATOM     18  CG  ASN A 133      28.749  30.584  11.368  1.00 18.94     0.276 C 
ATOM     19  OD1 ASN A 133      28.566  29.602  10.648  1.00 18.09    -0.269 OA
ATOM     20  ND2 ASN A 133      27.783  31.130  12.106  1.00 18.93    -0.107 N 
ENDBRANCH  17  18
ENDBRANCH  16  17
END_RES ASN A 133
