REMARK VINA RESULT:    -3.419      2.750      5.148
REMARK INTER + INTRA:          -7.470
REMARK INTER:                  -5.440
REMARK INTRA:                  -2.030
REMARK UNBOUND:                -3.052
REMARK SMILES C=CCCCCn1cc(C)nn1
REMARK SMILES IDX 5 1 6 2 7 3 10 4 9 5 8 6 11 7 12 8 4 9 3 10 2 11 1 12
REMARK H PARENT
REMARK Flexibility Score: inf
ROOT
ATOM      1  C   UNL     1      27.686  33.901   9.698  1.00  0.00     0.024 C 
ENDROOT
BRANCH   1   2
ATOM      2  C   UNL     1      27.585  34.835  10.861  1.00  0.00     0.146 C 
BRANCH   2   3
ATOM      3  N   UNL     1      28.419  34.472  11.965  1.00  0.00    -0.252 N 
ATOM      4  C   UNL     1      29.276  33.952  15.466  1.00  0.00     0.070 C 
ATOM      5  C   UNL     1      29.173  34.081  13.965  1.00  0.00     0.080 A 
ATOM      6  C   UNL     1      28.070  34.514  13.259  1.00  0.00     0.134 A 
ATOM      7  N   UNL     1      30.115  33.806  13.062  1.00  0.00    -0.136 NA
ATOM      8  N   UNL     1      29.650  34.045  11.871  1.00  0.00    -0.067 NA
ENDBRANCH   2   3
ENDBRANCH   1   2
BRANCH   1   9
ATOM      9  C   UNL     1      26.776  34.277   8.555  1.00  0.00     0.006 C 
BRANCH   9  10
ATOM     10  C   UNL     1      27.165  35.653   8.006  1.00  0.00     0.027 C 
BRANCH  10  11
ATOM     11  C   UNL     1      28.040  35.396   6.835  1.00  0.00    -0.035 C 
ATOM     12  C   UNL     1      28.510  36.425   6.143  1.00  0.00     0.004 C 
ENDBRANCH  10  11
ENDBRANCH   9  10
ENDBRANCH   1   9
TORSDOF 5
BEGIN_RES LYS A 135
REMARK  4 active torsions:
REMARK  status: ('A' for Active; 'I' for Inactive)
REMARK    1  A    between atoms: CA   and  CB  
REMARK    2  A    between atoms: CB   and  CG  
REMARK    3  A    between atoms: CG   and  CD  
REMARK    4  A    between atoms: CD   and  CE  
ROOT
ATOM      1  CA  LYS A 135      33.193  34.663   9.290  1.00 25.02     0.186 C 
ENDROOT
BRANCH   1   2
ATOM      2  CB  LYS A 135      32.060  35.360  10.034  1.00 26.63     0.034 C 
BRANCH   2   3
ATOM      3  CG  LYS A 135      30.889  35.713   9.154  1.00 29.45     0.005 C 
BRANCH   3   4
ATOM      4  CD  LYS A 135      30.279  37.040   9.579  1.00 32.00     0.041 C 
BRANCH   4   5
ATOM      5  CE  LYS A 135      30.860  37.493  10.904  1.00 34.25     0.338 C 
ATOM      6  NZ  LYS A 135      29.790  37.688  11.921  1.00 35.99     0.618 N 
ENDBRANCH   4   5
ENDBRANCH   3   4
ENDBRANCH   2   3
ENDBRANCH   1   2
END_RES LYS A 135
BEGIN_RES TYR A 136
REMARK  2 active torsions:
REMARK  status: ('A' for Active; 'I' for Inactive)
REMARK    5  A    between atoms: CA   and  CB  
REMARK    6  A    between atoms: CB   and  CG  
ROOT
ATOM      7  CA  TYR A 136      36.583  36.399   8.994  1.00 26.14     0.191 C 
ENDROOT
BRANCH   7   8
ATOM      8  CB  TYR A 136      37.367  36.835  10.240  1.00 28.16     0.060 C 
BRANCH   8   9
ATOM      9  CG  TYR A 136      37.152  38.289  10.582  1.00 31.88    -0.020 A 
ATOM     10  CD2 TYR A 136      37.545  39.303   9.706  1.00 32.67    -0.002 A 
ATOM     11  CE2 TYR A 136      37.342  40.651  10.034  1.00 33.89     0.027 A 
ATOM     12  CZ  TYR A 136      36.740  40.986  11.249  1.00 34.34     0.131 A 
ATOM     13  OH  TYR A 136      36.523  42.314  11.591  1.00 35.14    -0.190 OA
ATOM     14  CE1 TYR A 136      36.345  39.991  12.131  1.00 35.01     0.027 A 
ATOM     15  CD1 TYR A 136      36.558  38.653  11.797  1.00 33.57    -0.002 A 
ENDBRANCH   8   9
ENDBRANCH   7   8
END_RES TYR A 136
BEGIN_RES ASN A 133
REMARK  2 active torsions:
REMARK  status: ('A' for Active; 'I' for Inactive)
REMARK    7  A    between atoms: CA   and  CB  
REMARK    8  A    between atoms: CB   and  CG  
ROOT
ATOM     16  CA  ASN A 133      31.225  30.257  11.749  1.00 18.15     0.196 C 
ENDROOT
BRANCH  16  17
ATOM     17  CB  ASN A 133      30.092  31.240  11.460  1.00 18.27     0.126 C 
BRANCH  17  18
ATOM     18  CG  ASN A 133      28.756  30.578  11.319  1.00 18.94     0.276 C 
ATOM     19  OD1 ASN A 133      28.596  29.619  10.562  1.00 18.09    -0.269 OA
ATOM     20  ND2 ASN A 133      27.771  31.092  12.055  1.00 18.93    -0.107 N 
ENDBRANCH  17  18
ENDBRANCH  16  17
END_RES ASN A 133
