REMARK VINA RESULT:    -5.670      3.289      6.228
REMARK INTER + INTRA:         -10.667
REMARK INTER:                  -6.915
REMARK INTRA:                  -3.752
REMARK UNBOUND:                -3.836
REMARK SMILES Cc1cn(-c2ccc(-c3c4ccc(=O)cc-4oc4cc(O)ccc34)c(C(=O)[O-])c2)nn1
REMARK SMILES IDX 9 1 24 2 23 3 22 4 20 5 19 6 18 7 17 8 16 9 15 10 13 11
REMARK SMILES IDX 14 12 12 13 11 14 10 15 8 16 5 17 29 18 6 19 25 20 7 21 4 22
REMARK SMILES IDX 1 23 2 24 3 25 31 26 30 27 26 28 27 29 28 30 21 31
REMARK H PARENT 21 32
REMARK Flexibility Score: inf
ROOT
ATOM      1  C   UNL     1      36.825  36.236  14.938  1.00  0.00     0.004 A 
ATOM      2  C   UNL     1      37.871  35.664  14.248  1.00  0.00     0.026 A 
ATOM      3  C   UNL     1      38.005  35.889  12.895  1.00  0.00     0.016 A 
ATOM      4  C   UNL     1      39.042  35.334  12.161  1.00  0.00     0.047 A 
ATOM      5  C   UNL     1      39.951  34.539  12.825  1.00  0.00     0.119 A 
ATOM      6  C   UNL     1      39.818  34.312  14.179  1.00  0.00     0.093 A 
ATOM      7  C   UNL     1      38.779  34.866  14.930  1.00  0.00     0.139 A 
ATOM      8  O   UNL     1      38.683  34.629  16.218  1.00  0.00    -0.456 OA
ATOM      9  C   UNL     1      37.737  35.121  16.952  1.00  0.00     0.139 A 
ATOM     10  C   UNL     1      37.605  34.896  18.301  1.00  0.00     0.099 A 
ATOM     11  C   UNL     1      36.553  35.476  18.971  1.00  0.00     0.182 A 
ATOM     12  O   UNL     1      36.441  35.264  20.204  1.00  0.00    -0.290 OA
ATOM     13  C   UNL     1      35.621  36.279  18.340  1.00  0.00     0.053 A 
ATOM     14  C   UNL     1      35.692  36.548  16.990  1.00  0.00     0.016 A 
ATOM     15  C   UNL     1      36.741  35.976  16.289  1.00  0.00     0.026 A 
ENDROOT
BRANCH   1  16
ATOM     16  C   UNL     1      35.883  37.067  14.219  1.00  0.00    -0.008 A 
ATOM     17  C   UNL     1      34.023  38.612  12.818  1.00  0.00     0.067 A 
ATOM     18  C   UNL     1      33.829  37.253  12.949  1.00  0.00     0.039 A 
ATOM     19  C   UNL     1      35.140  39.210  13.382  1.00  0.00     0.029 A 
ATOM     20  C   UNL     1      34.761  36.505  13.646  1.00  0.00     0.007 A 
ATOM     21  C   UNL     1      36.053  38.432  14.074  1.00  0.00     0.012 A 
BRANCH  17  22
ATOM     22  N   UNL     1      33.100  39.431  12.113  1.00  0.00    -0.220 N 
ATOM     23  C   UNL     1      31.110  40.280   9.134  1.00  0.00     0.070 C 
ATOM     24  C   UNL     1      31.797  40.171  10.455  1.00  0.00     0.080 A 
ATOM     25  C   UNL     1      32.689  39.189  10.834  1.00  0.00     0.140 A 
ATOM     26  N   UNL     1      31.692  40.982  11.522  1.00  0.00    -0.135 NA
ATOM     27  N   UNL     1      32.479  40.514  12.489  1.00  0.00    -0.062 NA
ENDBRANCH  17  22
BRANCH  20  28
ATOM     28  C   UNL     1      34.543  35.069  13.777  1.00  0.00     0.072 C 
ATOM     29  O   UNL     1      33.799  34.593  14.665  1.00  0.00    -0.545 OA
ATOM     30  O   UNL     1      35.155  34.172  12.913  1.00  0.00    -0.545 OA
ENDBRANCH  20  28
ENDBRANCH   1  16
BRANCH   5  31
ATOM     31  O   UNL     1      41.005  33.972  12.091  1.00  0.00    -0.508 OA
ATOM     32  H   UNL     1      41.961  34.123  12.383  1.00  0.00     0.293 HD
ENDBRANCH   5  31
TORSDOF 4
BEGIN_RES LYS A 135
REMARK  4 active torsions:
REMARK  status: ('A' for Active; 'I' for Inactive)
REMARK    1  A    between atoms: CA   and  CB  
REMARK    2  A    between atoms: CB   and  CG  
REMARK    3  A    between atoms: CG   and  CD  
REMARK    4  A    between atoms: CD   and  CE  
ROOT
ATOM      1  CA  LYS A 135      33.193  34.663   9.290  1.00 25.02     0.186 C 
ENDROOT
BRANCH   1   2
ATOM      2  CB  LYS A 135      32.060  35.360  10.034  1.00 26.63     0.034 C 
BRANCH   2   3
ATOM      3  CG  LYS A 135      30.707  34.746   9.783  1.00 29.45     0.005 C 
BRANCH   3   4
ATOM      4  CD  LYS A 135      30.460  34.584   8.291  1.00 32.00     0.041 C 
BRANCH   4   5
ATOM      5  CE  LYS A 135      29.019  34.913   7.951  1.00 34.25     0.338 C 
ATOM      6  NZ  LYS A 135      28.913  35.520   6.595  1.00 35.99     0.618 N 
ENDBRANCH   4   5
ENDBRANCH   3   4
ENDBRANCH   2   3
ENDBRANCH   1   2
END_RES LYS A 135
BEGIN_RES TYR A 136
REMARK  2 active torsions:
REMARK  status: ('A' for Active; 'I' for Inactive)
REMARK    5  A    between atoms: CA   and  CB  
REMARK    6  A    between atoms: CB   and  CG  
ROOT
ATOM      7  CA  TYR A 136      36.583  36.399   8.994  1.00 26.14     0.191 C 
ENDROOT
BRANCH   7   8
ATOM      8  CB  TYR A 136      37.367  36.835  10.240  1.00 28.16     0.060 C 
BRANCH   8   9
ATOM      9  CG  TYR A 136      37.323  38.327  10.461  1.00 31.88    -0.020 A 
ATOM     10  CD2 TYR A 136      38.296  38.974  11.225  1.00 32.67    -0.002 A 
ATOM     11  CE2 TYR A 136      38.245  40.360  11.426  1.00 33.89     0.027 A 
ATOM     12  CZ  TYR A 136      37.210  41.106  10.856  1.00 34.34     0.131 A 
ATOM     13  OH  TYR A 136      37.143  42.481  11.035  1.00 35.14    -0.190 OA
ATOM     14  CE1 TYR A 136      36.234  40.479  10.094  1.00 35.01     0.027 A 
ATOM     15  CD1 TYR A 136      36.292  39.097   9.907  1.00 33.57    -0.002 A 
ENDBRANCH   8   9
ENDBRANCH   7   8
END_RES TYR A 136
BEGIN_RES ASN A 133
REMARK  2 active torsions:
REMARK  status: ('A' for Active; 'I' for Inactive)
REMARK    7  A    between atoms: CA   and  CB  
REMARK    8  A    between atoms: CB   and  CG  
ROOT
ATOM     16  CA  ASN A 133      31.225  30.257  11.749  1.00 18.15     0.196 C 
ENDROOT
BRANCH  16  17
ATOM     17  CB  ASN A 133      30.092  31.240  11.460  1.00 18.27     0.126 C 
BRANCH  17  18
ATOM     18  CG  ASN A 133      28.755  30.580  11.329  1.00 18.94     0.276 C 
ATOM     19  OD1 ASN A 133      28.586  29.625  10.569  1.00 18.09    -0.269 OA
ATOM     20  ND2 ASN A 133      27.777  31.089  12.078  1.00 18.93    -0.107 N 
ENDBRANCH  17  18
ENDBRANCH  16  17
END_RES ASN A 133
