REMARK VINA RESULT:    -4.968      1.928      3.013
REMARK INTER + INTRA:          -8.561
REMARK INTER:                  -5.415
REMARK INTRA:                  -3.145
REMARK UNBOUND:                -2.722
REMARK SMILES Cc1cn(Cc2ccc(C#N)cc2)nn1
REMARK SMILES IDX 6 1 7 2 8 3 9 4 12 5 13 6 5 7 4 8 1 9 2 10 3 11 15 12 14 13
REMARK SMILES IDX 10 14 11 15
REMARK H PARENT
REMARK Flexibility Score: inf
ROOT
ATOM      1  C   UNL     1      34.402  35.400  14.319  1.00  0.00    -0.026 A 
ATOM      2  C   UNL     1      35.468  35.783  15.105  1.00  0.00     0.007 A 
ATOM      3  C   UNL     1      36.760  35.424  14.781  1.00  0.00     0.020 A 
ATOM      4  C   UNL     1      37.050  34.665  13.658  1.00  0.00     0.052 A 
ATOM      5  C   UNL     1      35.975  34.287  12.880  1.00  0.00     0.020 A 
ATOM      6  C   UNL     1      34.680  34.644  13.201  1.00  0.00     0.007 A 
ENDROOT
BRANCH   1   7
ATOM      7  C   UNL     1      32.998  35.789  14.667  1.00  0.00     0.181 C 
BRANCH   7   8
ATOM      8  N   UNL     1      32.378  34.763  15.509  1.00  0.00    -0.248 N 
ATOM      9  C   UNL     1      30.653  31.605  16.287  1.00  0.00     0.070 C 
ATOM     10  C   UNL     1      31.350  32.936  16.248  1.00  0.00     0.080 A 
ATOM     11  C   UNL     1      31.812  33.602  15.129  1.00  0.00     0.134 A 
ATOM     12  N   UNL     1      31.657  33.731  17.289  1.00  0.00    -0.136 NA
ATOM     13  N   UNL     1      32.268  34.811  16.816  1.00  0.00    -0.067 NA
ENDBRANCH   7   8
ENDBRANCH   1   7
BRANCH   4  14
ATOM     14  C   UNL     1      38.398  34.296  13.332  1.00  0.00     0.099 C 
ATOM     15  N   UNL     1      39.490  33.999  13.087  1.00  0.00    -0.192 NA
ENDBRANCH   4  14
TORSDOF 3
BEGIN_RES LYS A 135
REMARK  4 active torsions:
REMARK  status: ('A' for Active; 'I' for Inactive)
REMARK    1  A    between atoms: CA   and  CB  
REMARK    2  A    between atoms: CB   and  CG  
REMARK    3  A    between atoms: CG   and  CD  
REMARK    4  A    between atoms: CD   and  CE  
ROOT
ATOM      1  CA  LYS A 135      33.193  34.663   9.290  1.00 25.02     0.186 C 
ENDROOT
BRANCH   1   2
ATOM      2  CB  LYS A 135      32.060  35.360  10.034  1.00 26.63     0.034 C 
BRANCH   2   3
ATOM      3  CG  LYS A 135      30.727  34.674   9.882  1.00 29.45     0.005 C 
BRANCH   3   4
ATOM      4  CD  LYS A 135      30.314  34.622   8.419  1.00 32.00     0.041 C 
BRANCH   4   5
ATOM      5  CE  LYS A 135      28.806  34.521   8.294  1.00 34.25     0.338 C 
ATOM      6  NZ  LYS A 135      28.216  33.824   9.470  1.00 35.99     0.618 N 
ENDBRANCH   4   5
ENDBRANCH   3   4
ENDBRANCH   2   3
ENDBRANCH   1   2
END_RES LYS A 135
BEGIN_RES TYR A 136
REMARK  2 active torsions:
REMARK  status: ('A' for Active; 'I' for Inactive)
REMARK    5  A    between atoms: CA   and  CB  
REMARK    6  A    between atoms: CB   and  CG  
ROOT
ATOM      7  CA  TYR A 136      36.583  36.399   8.994  1.00 26.14     0.191 C 
ENDROOT
BRANCH   7   8
ATOM      8  CB  TYR A 136      37.367  36.835  10.240  1.00 28.16     0.060 C 
BRANCH   8   9
ATOM      9  CG  TYR A 136      36.771  38.052  10.904  1.00 31.88    -0.020 A 
ATOM     10  CD2 TYR A 136      36.027  37.941  12.081  1.00 32.67    -0.002 A 
ATOM     11  CE2 TYR A 136      35.476  39.078  12.690  1.00 33.89     0.027 A 
ATOM     12  CZ  TYR A 136      35.671  40.336  12.114  1.00 34.34     0.131 A 
ATOM     13  OH  TYR A 136      35.141  41.475  12.703  1.00 35.14    -0.190 OA
ATOM     14  CE1 TYR A 136      36.406  40.463  10.945  1.00 35.01     0.027 A 
ATOM     15  CD1 TYR A 136      36.944  39.324  10.345  1.00 33.57    -0.002 A 
ENDBRANCH   8   9
ENDBRANCH   7   8
END_RES TYR A 136
BEGIN_RES ASN A 133
REMARK  2 active torsions:
REMARK  status: ('A' for Active; 'I' for Inactive)
REMARK    7  A    between atoms: CA   and  CB  
REMARK    8  A    between atoms: CB   and  CG  
ROOT
ATOM     16  CA  ASN A 133      31.225  30.257  11.749  1.00 18.15     0.196 C 
ENDROOT
BRANCH  16  17
ATOM     17  CB  ASN A 133      30.092  31.240  11.460  1.00 18.27     0.126 C 
BRANCH  17  18
ATOM     18  CG  ASN A 133      28.751  30.583  11.354  1.00 18.94     0.276 C 
ATOM     19  OD1 ASN A 133      28.579  29.595  10.637  1.00 18.09    -0.269 OA
ATOM     20  ND2 ASN A 133      27.774  31.132  12.075  1.00 18.93    -0.107 N 
ENDBRANCH  17  18
ENDBRANCH  16  17
END_RES ASN A 133
