REMARK VINA RESULT:    -3.358      8.264     15.694
REMARK INTER + INTRA:          -7.210
REMARK INTER:                  -3.946
REMARK INTRA:                  -3.265
REMARK UNBOUND:                -3.263
REMARK SMILES Cc1cn(CCN2CCCC2)nn1
REMARK SMILES IDX 5 1 4 2 1 3 2 4 3 5 13 6 12 7 6 8 7 9 8 10 11 11 9 12 10 13
REMARK H PARENT
REMARK Flexibility Score: inf
ROOT
ATOM      1  C   UNL     1      38.890  34.562  15.179  1.00  0.00     0.161 C 
ENDROOT
BRANCH   1   2
ATOM      2  N   UNL     1      38.502  34.403  16.565  1.00  0.00    -0.251 N 
ATOM      3  C   UNL     1      38.581  32.567  19.718  1.00  0.00     0.070 C 
ATOM      4  C   UNL     1      38.358  33.516  18.606  1.00  0.00     0.080 A 
ATOM      5  C   UNL     1      38.900  33.363  17.348  1.00  0.00     0.134 A 
ATOM      6  N   UNL     1      37.647  34.652  18.538  1.00  0.00    -0.136 NA
ATOM      7  N   UNL     1      37.745  35.163  17.320  1.00  0.00    -0.067 NA
ENDBRANCH   1   2
BRANCH   1   8
ATOM      8  C   UNL     1      37.921  33.875  14.245  1.00  0.00     0.108 C 
BRANCH   8   9
ATOM      9  N   UNL     1      37.436  34.727  13.209  1.00  0.00    -0.301 NA
ATOM     10  C   UNL     1      36.871  35.964  13.640  1.00  0.00     0.084 C 
ATOM     11  C   UNL     1      36.300  34.047  12.585  1.00  0.00     0.084 C 
ATOM     12  C   UNL     1      35.585  35.562  14.283  1.00  0.00     0.017 C 
ATOM     13  C   UNL     1      35.081  34.499  13.323  1.00  0.00     0.017 C 
ENDBRANCH   8   9
ENDBRANCH   1   8
TORSDOF 3
BEGIN_RES LYS A 135
REMARK  4 active torsions:
REMARK  status: ('A' for Active; 'I' for Inactive)
REMARK    1  A    between atoms: CA   and  CB  
REMARK    2  A    between atoms: CB   and  CG  
REMARK    3  A    between atoms: CG   and  CD  
REMARK    4  A    between atoms: CD   and  CE  
ROOT
ATOM      1  CA  LYS A 135      33.193  34.663   9.290  1.00 25.02     0.186 C 
ENDROOT
BRANCH   1   2
ATOM      2  CB  LYS A 135      32.060  35.360  10.034  1.00 26.63     0.034 C 
BRANCH   2   3
ATOM      3  CG  LYS A 135      30.823  35.560   9.197  1.00 29.45     0.005 C 
BRANCH   3   4
ATOM      4  CD  LYS A 135      30.268  34.223   8.731  1.00 32.00     0.041 C 
BRANCH   4   5
ATOM      5  CE  LYS A 135      28.855  34.024   9.246  1.00 34.25     0.338 C 
ATOM      6  NZ  LYS A 135      27.858  34.635   8.325  1.00 35.99     0.618 N 
ENDBRANCH   4   5
ENDBRANCH   3   4
ENDBRANCH   2   3
ENDBRANCH   1   2
END_RES LYS A 135
BEGIN_RES TYR A 136
REMARK  2 active torsions:
REMARK  status: ('A' for Active; 'I' for Inactive)
REMARK    5  A    between atoms: CA   and  CB  
REMARK    6  A    between atoms: CB   and  CG  
ROOT
ATOM      7  CA  TYR A 136      36.583  36.399   8.994  1.00 26.14     0.191 C 
ENDROOT
BRANCH   7   8
ATOM      8  CB  TYR A 136      37.367  36.835  10.240  1.00 28.16     0.060 C 
BRANCH   8   9
ATOM      9  CG  TYR A 136      37.207  38.305  10.541  1.00 31.88    -0.020 A 
ATOM     10  CD2 TYR A 136      37.944  38.919  11.556  1.00 32.67    -0.002 A 
ATOM     11  CE2 TYR A 136      37.787  40.285  11.829  1.00 33.89     0.027 A 
ATOM     12  CZ  TYR A 136      36.884  41.043  11.079  1.00 34.34     0.131 A 
ATOM     13  OH  TYR A 136      36.717  42.398  11.327  1.00 35.14    -0.190 OA
ATOM     14  CE1 TYR A 136      36.143  40.449  10.068  1.00 35.01     0.027 A 
ATOM     15  CD1 TYR A 136      36.303  39.086   9.810  1.00 33.57    -0.002 A 
ENDBRANCH   8   9
ENDBRANCH   7   8
END_RES TYR A 136
BEGIN_RES ASN A 133
REMARK  2 active torsions:
REMARK  status: ('A' for Active; 'I' for Inactive)
REMARK    7  A    between atoms: CA   and  CB  
REMARK    8  A    between atoms: CB   and  CG  
ROOT
ATOM     16  CA  ASN A 133      31.225  30.257  11.749  1.00 18.15     0.196 C 
ENDROOT
BRANCH  16  17
ATOM     17  CB  ASN A 133      30.092  31.240  11.460  1.00 18.27     0.126 C 
BRANCH  17  18
ATOM     18  CG  ASN A 133      28.757  30.578  11.315  1.00 18.94     0.276 C 
ATOM     19  OD1 ASN A 133      28.603  29.607  10.571  1.00 18.09    -0.269 OA
ATOM     20  ND2 ASN A 133      27.764  31.104  12.032  1.00 18.93    -0.107 N 
ENDBRANCH  17  18
ENDBRANCH  16  17
END_RES ASN A 133
