REMARK VINA RESULT:    -5.673      3.378      8.690
REMARK INTER + INTRA:          -8.990
REMARK INTER:                  -7.648
REMARK INTRA:                  -1.341
REMARK UNBOUND:                -2.985
REMARK SMILES Cc1cn(-c2c3ccccc3nc3ccccc23)nn1
REMARK SMILES IDX 5 1 6 2 7 3 8 4 9 5 10 6 11 7 12 8 13 9 14 10 15 11 16 12
REMARK SMILES IDX 17 13 18 14 4 15 1 16 2 17 3 18 20 19 19 20
REMARK H PARENT
REMARK Flexibility Score: inf
ROOT
ATOM      1  C   UNL     1      27.319  36.323   7.798  1.00  0.00     0.085 A 
ATOM      2  C   UNL     1      26.025  36.326   8.287  1.00  0.00     0.027 A 
ATOM      3  C   UNL     1      25.082  37.191   7.774  1.00  0.00     0.012 A 
ATOM      4  C   UNL     1      23.799  37.173   8.280  1.00  0.00     0.001 A 
ATOM      5  C   UNL     1      23.513  36.278   9.288  1.00  0.00     0.002 A 
ATOM      6  C   UNL     1      24.452  35.420   9.793  1.00  0.00     0.029 A 
ATOM      7  C   UNL     1      25.755  35.423   9.295  1.00  0.00     0.073 A 
ATOM      8  N   UNL     1      26.660  34.575   9.805  1.00  0.00    -0.248 NA
ATOM      9  C   UNL     1      27.940  34.567   9.327  1.00  0.00     0.073 A 
ATOM     10  C   UNL     1      28.879  33.696   9.847  1.00  0.00     0.029 A 
ATOM     11  C   UNL     1      30.152  33.738   9.322  1.00  0.00     0.002 A 
ATOM     12  C   UNL     1      30.493  34.616   8.311  1.00  0.00     0.001 A 
ATOM     13  C   UNL     1      29.556  35.464   7.813  1.00  0.00     0.012 A 
ATOM     14  C   UNL     1      28.277  35.441   8.321  1.00  0.00     0.027 A 
ENDROOT
BRANCH   1  15
ATOM     15  N   UNL     1      27.700  37.213   6.760  1.00  0.00    -0.219 N 
ATOM     16  C   UNL     1      29.007  40.330   5.333  1.00  0.00     0.070 C 
ATOM     17  C   UNL     1      28.441  38.970   5.651  1.00  0.00     0.080 A 
ATOM     18  C   UNL     1      28.207  38.443   6.901  1.00  0.00     0.140 A 
ATOM     19  N   UNL     1      28.064  38.040   4.765  1.00  0.00    -0.135 NA
ATOM     20  N   UNL     1      27.632  37.014   5.466  1.00  0.00    -0.062 NA
ENDBRANCH   1  15
TORSDOF 1
BEGIN_RES LYS A 135
REMARK  4 active torsions:
REMARK  status: ('A' for Active; 'I' for Inactive)
REMARK    1  A    between atoms: CA   and  CB  
REMARK    2  A    between atoms: CB   and  CG  
REMARK    3  A    between atoms: CG   and  CD  
REMARK    4  A    between atoms: CD   and  CE  
ROOT
ATOM      1  CA  LYS A 135      33.193  34.663   9.290  1.00 25.02     0.186 C 
ENDROOT
BRANCH   1   2
ATOM      2  CB  LYS A 135      32.060  35.360  10.034  1.00 26.63     0.034 C 
BRANCH   2   3
ATOM      3  CG  LYS A 135      32.509  36.075  11.282  1.00 29.45     0.005 C 
BRANCH   3   4
ATOM      4  CD  LYS A 135      31.714  37.356  11.482  1.00 32.00     0.041 C 
BRANCH   4   5
ATOM      5  CE  LYS A 135      30.253  37.136  11.138  1.00 34.25     0.338 C 
ATOM      6  NZ  LYS A 135      29.752  38.196  10.221  1.00 35.99     0.618 N 
ENDBRANCH   4   5
ENDBRANCH   3   4
ENDBRANCH   2   3
ENDBRANCH   1   2
END_RES LYS A 135
BEGIN_RES TYR A 136
REMARK  2 active torsions:
REMARK  status: ('A' for Active; 'I' for Inactive)
REMARK    5  A    between atoms: CA   and  CB  
REMARK    6  A    between atoms: CB   and  CG  
ROOT
ATOM      7  CA  TYR A 136      36.583  36.399   8.994  1.00 26.14     0.191 C 
ENDROOT
BRANCH   7   8
ATOM      8  CB  TYR A 136      37.367  36.835  10.240  1.00 28.16     0.060 C 
BRANCH   8   9
ATOM      9  CG  TYR A 136      36.495  37.518  11.264  1.00 31.88    -0.020 A 
ATOM     10  CD2 TYR A 136      36.338  36.991  12.548  1.00 32.67    -0.002 A 
ATOM     11  CE2 TYR A 136      35.524  37.633  13.492  1.00 33.89     0.027 A 
ATOM     12  CZ  TYR A 136      34.861  38.813  13.148  1.00 34.34     0.131 A 
ATOM     13  OH  TYR A 136      34.056  39.470  14.068  1.00 35.14    -0.190 OA
ATOM     14  CE1 TYR A 136      35.005  39.351  11.877  1.00 35.01     0.027 A 
ATOM     15  CD1 TYR A 136      35.813  38.699  10.943  1.00 33.57    -0.002 A 
ENDBRANCH   8   9
ENDBRANCH   7   8
END_RES TYR A 136
BEGIN_RES ASN A 133
REMARK  2 active torsions:
REMARK  status: ('A' for Active; 'I' for Inactive)
REMARK    7  A    between atoms: CA   and  CB  
REMARK    8  A    between atoms: CB   and  CG  
ROOT
ATOM     16  CA  ASN A 133      31.225  30.257  11.749  1.00 18.15     0.196 C 
ENDROOT
BRANCH  16  17
ATOM     17  CB  ASN A 133      30.092  31.240  11.460  1.00 18.27     0.126 C 
BRANCH  17  18
ATOM     18  CG  ASN A 133      28.748  30.586  11.378  1.00 18.94     0.276 C 
ATOM     19  OD1 ASN A 133      28.551  29.621  10.637  1.00 18.09    -0.269 OA
ATOM     20  ND2 ASN A 133      27.796  31.112  12.148  1.00 18.93    -0.107 N 
ENDBRANCH  17  18
ENDBRANCH  16  17
END_RES ASN A 133
