REMARK VINA RESULT:    -3.462      3.500      5.083
REMARK INTER + INTRA:          -7.526
REMARK INTER:                  -4.238
REMARK INTRA:                  -3.288
REMARK UNBOUND:                -3.052
REMARK SMILES C=CCCCCn1cc(C)nn1
REMARK SMILES IDX 5 1 6 2 7 3 10 4 9 5 8 6 11 7 12 8 4 9 3 10 2 11 1 12
REMARK H PARENT
REMARK Flexibility Score: inf
ROOT
ATOM      1  C   UNL     1      30.438  31.378  19.062  1.00  0.00     0.024 C 
ENDROOT
BRANCH   1   2
ATOM      2  C   UNL     1      29.123  30.713  19.312  1.00  0.00     0.146 C 
BRANCH   2   3
ATOM      3  N   UNL     1      29.237  29.411  19.893  1.00  0.00    -0.252 N 
ATOM      4  C   UNL     1      30.828  26.726  21.769  1.00  0.00     0.070 C 
ATOM      5  C   UNL     1      29.963  27.664  20.960  1.00  0.00     0.080 A 
ATOM      6  C   UNL     1      30.282  28.956  20.598  1.00  0.00     0.134 A 
ATOM      7  N   UNL     1      28.754  27.418  20.456  1.00  0.00    -0.136 NA
ATOM      8  N   UNL     1      28.333  28.472  19.820  1.00  0.00    -0.067 NA
ENDBRANCH   2   3
ENDBRANCH   1   2
BRANCH   1   9
ATOM      9  C   UNL     1      30.433  32.263  17.840  1.00  0.00     0.006 C 
BRANCH   9  10
ATOM     10  C   UNL     1      30.491  31.406  16.571  1.00  0.00     0.027 C 
BRANCH  10  11
ATOM     11  C   UNL     1      31.137  32.249  15.535  1.00  0.00    -0.035 C 
ATOM     12  C   UNL     1      31.753  33.364  15.903  1.00  0.00     0.004 C 
ENDBRANCH  10  11
ENDBRANCH   9  10
ENDBRANCH   1   9
TORSDOF 5
BEGIN_RES LYS A 135
REMARK  4 active torsions:
REMARK  status: ('A' for Active; 'I' for Inactive)
REMARK    1  A    between atoms: CA   and  CB  
REMARK    2  A    between atoms: CB   and  CG  
REMARK    3  A    between atoms: CG   and  CD  
REMARK    4  A    between atoms: CD   and  CE  
ROOT
ATOM      1  CA  LYS A 135      33.193  34.663   9.290  1.00 25.02     0.186 C 
ENDROOT
BRANCH   1   2
ATOM      2  CB  LYS A 135      32.060  35.360  10.034  1.00 26.63     0.034 C 
BRANCH   2   3
ATOM      3  CG  LYS A 135      30.846  35.618   9.179  1.00 29.45     0.005 C 
BRANCH   3   4
ATOM      4  CD  LYS A 135      30.295  34.314   8.622  1.00 32.00     0.041 C 
BRANCH   4   5
ATOM      5  CE  LYS A 135      28.788  34.393   8.474  1.00 34.25     0.338 C 
ATOM      6  NZ  LYS A 135      28.101  33.759   9.633  1.00 35.99     0.618 N 
ENDBRANCH   4   5
ENDBRANCH   3   4
ENDBRANCH   2   3
ENDBRANCH   1   2
END_RES LYS A 135
BEGIN_RES TYR A 136
REMARK  2 active torsions:
REMARK  status: ('A' for Active; 'I' for Inactive)
REMARK    5  A    between atoms: CA   and  CB  
REMARK    6  A    between atoms: CB   and  CG  
ROOT
ATOM      7  CA  TYR A 136      36.583  36.399   8.994  1.00 26.14     0.191 C 
ENDROOT
BRANCH   7   8
ATOM      8  CB  TYR A 136      37.367  36.835  10.240  1.00 28.16     0.060 C 
BRANCH   8   9
ATOM      9  CG  TYR A 136      37.209  38.305  10.540  1.00 31.88    -0.020 A 
ATOM     10  CD2 TYR A 136      36.068  38.793  11.182  1.00 32.67    -0.002 A 
ATOM     11  CE2 TYR A 136      35.930  40.161  11.455  1.00 33.89     0.027 A 
ATOM     12  CZ  TYR A 136      36.942  41.049  11.081  1.00 34.34     0.131 A 
ATOM     13  OH  TYR A 136      36.830  42.406  11.348  1.00 35.14    -0.190 OA
ATOM     14  CE1 TYR A 136      38.081  40.581  10.442  1.00 35.01     0.027 A 
ATOM     15  CD1 TYR A 136      38.205  39.218  10.170  1.00 33.57    -0.002 A 
ENDBRANCH   8   9
ENDBRANCH   7   8
END_RES TYR A 136
BEGIN_RES ASN A 133
REMARK  2 active torsions:
REMARK  status: ('A' for Active; 'I' for Inactive)
REMARK    7  A    between atoms: CA   and  CB  
REMARK    8  A    between atoms: CB   and  CG  
ROOT
ATOM     16  CA  ASN A 133      31.225  30.257  11.749  1.00 18.15     0.196 C 
ENDROOT
BRANCH  16  17
ATOM     17  CB  ASN A 133      30.092  31.240  11.460  1.00 18.27     0.126 C 
BRANCH  17  18
ATOM     18  CG  ASN A 133      28.754  30.580  11.330  1.00 18.94     0.276 C 
ATOM     19  OD1 ASN A 133      28.586  29.624  10.571  1.00 18.09    -0.269 OA
ATOM     20  ND2 ASN A 133      27.777  31.090  12.078  1.00 18.93    -0.107 N 
ENDBRANCH  17  18
ENDBRANCH  16  17
END_RES ASN A 133
