REMARK VINA RESULT:    -4.946      2.340      3.421
REMARK INTER + INTRA:          -8.342
REMARK INTER:                  -5.133
REMARK INTRA:                  -3.208
REMARK UNBOUND:                -2.529
REMARK SMILES Cc1cn(Cc2cccc(C#N)c2)nn1
REMARK SMILES IDX 6 1 7 2 8 3 9 4 10 5 13 6 5 7 4 8 1 9 2 10 3 11 15 12 14 13
REMARK SMILES IDX 11 14 12 15
REMARK H PARENT
REMARK Flexibility Score: inf
ROOT
ATOM      1  C   UNL     1      35.717  34.667  13.607  1.00  0.00    -0.025 A 
ATOM      2  C   UNL     1      36.172  33.937  12.536  1.00  0.00     0.006 A 
ATOM      3  C   UNL     1      37.514  33.789  12.241  1.00  0.00     0.002 A 
ATOM      4  C   UNL     1      38.430  34.408  13.067  1.00  0.00     0.019 A 
ATOM      5  C   UNL     1      38.020  35.152  14.154  1.00  0.00     0.052 A 
ATOM      6  C   UNL     1      36.655  35.276  14.416  1.00  0.00     0.025 A 
ENDROOT
BRANCH   1   7
ATOM      7  C   UNL     1      34.286  34.827  13.925  1.00  0.00     0.181 C 
BRANCH   7   8
ATOM      8  N   UNL     1      33.752  36.093  13.537  1.00  0.00    -0.248 N 
ATOM      9  C   UNL     1      32.478  38.422  11.039  1.00  0.00     0.070 C 
ATOM     10  C   UNL     1      32.950  37.687  12.256  1.00  0.00     0.080 A 
ATOM     11  C   UNL     1      33.427  36.408  12.271  1.00  0.00     0.134 A 
ATOM     12  N   UNL     1      32.992  38.136  13.524  1.00  0.00    -0.136 NA
ATOM     13  N   UNL     1      33.476  37.167  14.275  1.00  0.00    -0.067 NA
ENDBRANCH   7   8
ENDBRANCH   1   7
BRANCH   5  14
ATOM     14  C   UNL     1      39.025  35.768  14.970  1.00  0.00     0.099 C 
ATOM     15  N   UNL     1      39.836  36.247  15.637  1.00  0.00    -0.192 NA
ENDBRANCH   5  14
TORSDOF 3
BEGIN_RES LYS A 135
REMARK  4 active torsions:
REMARK  status: ('A' for Active; 'I' for Inactive)
REMARK    1  A    between atoms: CA   and  CB  
REMARK    2  A    between atoms: CB   and  CG  
REMARK    3  A    between atoms: CG   and  CD  
REMARK    4  A    between atoms: CD   and  CE  
ROOT
ATOM      1  CA  LYS A 135      33.193  34.663   9.290  1.00 25.02     0.186 C 
ENDROOT
BRANCH   1   2
ATOM      2  CB  LYS A 135      32.060  35.360  10.034  1.00 26.63     0.034 C 
BRANCH   2   3
ATOM      3  CG  LYS A 135      30.837  35.595   9.185  1.00 29.45     0.005 C 
BRANCH   3   4
ATOM      4  CD  LYS A 135      30.278  34.277   8.672  1.00 32.00     0.041 C 
BRANCH   4   5
ATOM      5  CE  LYS A 135      28.763  34.280   8.736  1.00 34.25     0.338 C 
ATOM      6  NZ  LYS A 135      28.181  35.098   7.636  1.00 35.99     0.618 N 
ENDBRANCH   4   5
ENDBRANCH   3   4
ENDBRANCH   2   3
ENDBRANCH   1   2
END_RES LYS A 135
BEGIN_RES TYR A 136
REMARK  2 active torsions:
REMARK  status: ('A' for Active; 'I' for Inactive)
REMARK    5  A    between atoms: CA   and  CB  
REMARK    6  A    between atoms: CB   and  CG  
ROOT
ATOM      7  CA  TYR A 136      36.583  36.399   8.994  1.00 26.14     0.191 C 
ENDROOT
BRANCH   7   8
ATOM      8  CB  TYR A 136      37.367  36.835  10.240  1.00 28.16     0.060 C 
BRANCH   8   9
ATOM      9  CG  TYR A 136      36.775  38.056  10.900  1.00 31.88    -0.020 A 
ATOM     10  CD2 TYR A 136      36.788  38.204  12.289  1.00 32.67    -0.002 A 
ATOM     11  CE2 TYR A 136      36.233  39.341  12.893  1.00 33.89     0.027 A 
ATOM     12  CZ  TYR A 136      35.660  40.338  12.100  1.00 34.34     0.131 A 
ATOM     13  OH  TYR A 136      35.112  41.476  12.675  1.00 35.14    -0.190 OA
ATOM     14  CE1 TYR A 136      35.638  40.206  10.719  1.00 35.01     0.027 A 
ATOM     15  CD1 TYR A 136      36.187  39.067  10.129  1.00 33.57    -0.002 A 
ENDBRANCH   8   9
ENDBRANCH   7   8
END_RES TYR A 136
BEGIN_RES ASN A 133
REMARK  2 active torsions:
REMARK  status: ('A' for Active; 'I' for Inactive)
REMARK    7  A    between atoms: CA   and  CB  
REMARK    8  A    between atoms: CB   and  CG  
ROOT
ATOM     16  CA  ASN A 133      31.225  30.257  11.749  1.00 18.15     0.196 C 
ENDROOT
BRANCH  16  17
ATOM     17  CB  ASN A 133      30.092  31.240  11.460  1.00 18.27     0.126 C 
BRANCH  17  18
ATOM     18  CG  ASN A 133      28.752  30.582  11.349  1.00 18.94     0.276 C 
ATOM     19  OD1 ASN A 133      28.578  29.608  10.614  1.00 18.09    -0.269 OA
ATOM     20  ND2 ASN A 133      27.778  31.115  12.086  1.00 18.93    -0.107 N 
ENDBRANCH  17  18
ENDBRANCH  16  17
END_RES ASN A 133
