REMARK VINA RESULT:    -3.326      2.591      3.061
REMARK INTER + INTRA:          -6.667
REMARK INTER:                  -3.980
REMARK INTRA:                  -2.687
REMARK UNBOUND:                -3.147
REMARK SMILES Cc1cn(-c2ccncc2)nn1
REMARK SMILES IDX 1 1 2 2 3 3 4 4 11 5 12 6 5 7 6 8 10 9 7 10 9 11 8 12
REMARK H PARENT
REMARK Flexibility Score: inf
ROOT
ATOM      1  C   UNL     1      23.665  29.387   1.931  1.00  0.00     0.070 C 
ATOM      2  C   UNL     1      23.054  30.075   0.777  1.00  0.00     0.080 A 
ATOM      3  C   UNL     1      22.785  31.428   0.622  1.00  0.00     0.140 A 
ATOM      4  N   UNL     1      22.226  31.626  -0.581  1.00  0.00    -0.220 N 
ATOM      5  N   UNL     1      22.147  30.440  -1.162  1.00  0.00    -0.062 NA
ATOM      6  N   UNL     1      22.637  29.500  -0.365  1.00  0.00    -0.135 NA
ENDROOT
BRANCH   4   7
ATOM      7  C   UNL     1      21.807  32.880  -1.111  1.00  0.00     0.069 A 
ATOM      8  C   UNL     1      22.049  34.050  -0.412  1.00  0.00     0.048 A 
ATOM      9  C   UNL     1      21.154  33.001  -2.315  1.00  0.00     0.048 A 
ATOM     10  C   UNL     1      21.643  35.250  -0.929  1.00  0.00     0.113 A 
ATOM     11  C   UNL     1      20.746  34.210  -2.832  1.00  0.00     0.113 A 
ATOM     12  N   UNL     1      21.012  35.308  -2.105  1.00  0.00    -0.265 NA
ENDBRANCH   4   7
TORSDOF 1
BEGIN_RES LYS A 135
REMARK  4 active torsions:
REMARK  status: ('A' for Active; 'I' for Inactive)
REMARK    1  A    between atoms: CA   and  CB  
REMARK    2  A    between atoms: CB   and  CG  
REMARK    3  A    between atoms: CG   and  CD  
REMARK    4  A    between atoms: CD   and  CE  
ROOT
ATOM      1  CA  LYS A 135      33.193  34.663   9.290  1.00 25.02     0.186 C 
ENDROOT
BRANCH   1   2
ATOM      2  CB  LYS A 135      32.060  35.360  10.034  1.00 26.63     0.034 C 
BRANCH   2   3
ATOM      3  CG  LYS A 135      30.858  35.645   9.171  1.00 29.45     0.005 C 
BRANCH   3   4
ATOM      4  CD  LYS A 135      30.276  34.354   8.618  1.00 32.00     0.041 C 
BRANCH   4   5
ATOM      5  CE  LYS A 135      28.808  34.533   8.279  1.00 34.25     0.338 C 
ATOM      6  NZ  LYS A 135      28.638  35.344   7.042  1.00 35.99     0.618 N 
ENDBRANCH   4   5
ENDBRANCH   3   4
ENDBRANCH   2   3
ENDBRANCH   1   2
END_RES LYS A 135
BEGIN_RES TYR A 136
REMARK  2 active torsions:
REMARK  status: ('A' for Active; 'I' for Inactive)
REMARK    5  A    between atoms: CA   and  CB  
REMARK    6  A    between atoms: CB   and  CG  
ROOT
ATOM      7  CA  TYR A 136      36.583  36.399   8.994  1.00 26.14     0.191 C 
ENDROOT
BRANCH   7   8
ATOM      8  CB  TYR A 136      37.367  36.835  10.240  1.00 28.16     0.060 C 
BRANCH   8   9
ATOM      9  CG  TYR A 136      36.657  36.485  11.524  1.00 31.88    -0.020 A 
ATOM     10  CD2 TYR A 136      36.981  35.329  12.238  1.00 32.67    -0.002 A 
ATOM     11  CE2 TYR A 136      36.314  35.012  13.430  1.00 33.89     0.027 A 
ATOM     12  CZ  TYR A 136      35.313  35.859  13.911  1.00 34.34     0.131 A 
ATOM     13  OH  TYR A 136      34.644  35.569  15.092  1.00 35.14    -0.190 OA
ATOM     14  CE1 TYR A 136      34.977  37.011  13.213  1.00 35.01     0.027 A 
ATOM     15  CD1 TYR A 136      35.644  37.313  12.025  1.00 33.57    -0.002 A 
ENDBRANCH   8   9
ENDBRANCH   7   8
END_RES TYR A 136
BEGIN_RES ASN A 133
REMARK  2 active torsions:
REMARK  status: ('A' for Active; 'I' for Inactive)
REMARK    7  A    between atoms: CA   and  CB  
REMARK    8  A    between atoms: CB   and  CG  
ROOT
ATOM     16  CA  ASN A 133      31.225  30.257  11.749  1.00 18.15     0.196 C 
ENDROOT
BRANCH  16  17
ATOM     17  CB  ASN A 133      30.092  31.240  11.460  1.00 18.27     0.126 C 
BRANCH  17  18
ATOM     18  CG  ASN A 133      28.756  30.579  11.321  1.00 18.94     0.276 C 
ATOM     19  OD1 ASN A 133      28.596  29.615  10.570  1.00 18.09    -0.269 OA
ATOM     20  ND2 ASN A 133      27.770  31.098  12.052  1.00 18.93    -0.107 N 
ENDBRANCH  17  18
ENDBRANCH  16  17
END_RES ASN A 133
