REMARK VINA RESULT:    -2.844      7.057      7.927
REMARK INTER + INTRA:          -8.034
REMARK INTER:                  -4.967
REMARK INTRA:                  -3.067
REMARK UNBOUND:                -4.110
REMARK SMILES Cc1cn(CCCCCC(=O)O)nn1
REMARK SMILES IDX 7 1 6 2 5 3 4 4 1 5 2 6 3 7 14 8 13 9 8 10 9 11 10 12 11 13
REMARK SMILES IDX 12 14
REMARK H PARENT 12 15
REMARK Flexibility Score: inf
ROOT
ATOM      1  C   UNL     1      27.148  34.777   7.992  1.00  0.00     0.002 C 
ENDROOT
BRANCH   1   2
ATOM      2  C   UNL     1      26.728  35.453   9.281  1.00  0.00     0.024 C 
BRANCH   2   3
ATOM      3  C   UNL     1      25.420  36.184   8.985  1.00  0.00     0.146 C 
BRANCH   3   4
ATOM      4  N   UNL     1      25.710  37.533   8.480  1.00  0.00    -0.252 N 
ATOM      5  C   UNL     1      27.554  40.706   8.538  1.00  0.00     0.070 C 
ATOM      6  C   UNL     1      26.657  39.532   8.287  1.00  0.00     0.080 A 
ATOM      7  C   UNL     1      26.652  38.345   9.000  1.00  0.00     0.134 A 
ATOM      8  N   UNL     1      25.709  39.388   7.355  1.00  0.00    -0.136 NA
ATOM      9  N   UNL     1      25.153  38.183   7.489  1.00  0.00    -0.067 NA
ENDBRANCH   3   4
ENDBRANCH   2   3
ENDBRANCH   1   2
BRANCH   1  10
ATOM     10  C   UNL     1      28.454  35.354   7.475  1.00  0.00     0.012 C 
BRANCH  10  11
ATOM     11  C   UNL     1      28.254  35.704   6.026  1.00  0.00     0.122 C 
BRANCH  11  12
ATOM     12  C   UNL     1      28.185  37.168   5.818  1.00  0.00     0.303 C 
ATOM     13  O   UNL     1      29.107  37.883   6.283  1.00  0.00    -0.252 OA
BRANCH  12  14
ATOM     14  O   UNL     1      27.153  37.781   5.132  1.00  0.00    -0.481 OA
ATOM     15  H   UNL     1      27.110  37.820   4.121  1.00  0.00     0.296 HD
ENDBRANCH  12  14
ENDBRANCH  11  12
ENDBRANCH  10  11
ENDBRANCH   1  10
TORSDOF 7
BEGIN_RES LYS A 135
REMARK  4 active torsions:
REMARK  status: ('A' for Active; 'I' for Inactive)
REMARK    1  A    between atoms: CA   and  CB  
REMARK    2  A    between atoms: CB   and  CG  
REMARK    3  A    between atoms: CG   and  CD  
REMARK    4  A    between atoms: CD   and  CE  
ROOT
ATOM      1  CA  LYS A 135      33.193  34.663   9.290  1.00 25.02     0.186 C 
ENDROOT
BRANCH   1   2
ATOM      2  CB  LYS A 135      32.060  35.360  10.034  1.00 26.63     0.034 C 
BRANCH   2   3
ATOM      3  CG  LYS A 135      30.752  34.614   9.975  1.00 29.45     0.005 C 
BRANCH   3   4
ATOM      4  CD  LYS A 135      29.912  34.906  11.209  1.00 32.00     0.041 C 
BRANCH   4   5
ATOM      5  CE  LYS A 135      30.247  36.275  11.770  1.00 34.25     0.338 C 
ATOM      6  NZ  LYS A 135      29.226  37.283  11.371  1.00 35.99     0.618 N 
ENDBRANCH   4   5
ENDBRANCH   3   4
ENDBRANCH   2   3
ENDBRANCH   1   2
END_RES LYS A 135
BEGIN_RES TYR A 136
REMARK  2 active torsions:
REMARK  status: ('A' for Active; 'I' for Inactive)
REMARK    5  A    between atoms: CA   and  CB  
REMARK    6  A    between atoms: CB   and  CG  
ROOT
ATOM      7  CA  TYR A 136      36.583  36.399   8.994  1.00 26.14     0.191 C 
ENDROOT
BRANCH   7   8
ATOM      8  CB  TYR A 136      37.367  36.835  10.240  1.00 28.16     0.060 C 
BRANCH   8   9
ATOM      9  CG  TYR A 136      36.772  38.053  10.903  1.00 31.88    -0.020 A 
ATOM     10  CD2 TYR A 136      36.615  38.118  12.289  1.00 32.67    -0.002 A 
ATOM     11  CE2 TYR A 136      36.060  39.253  12.895  1.00 33.89     0.027 A 
ATOM     12  CZ  TYR A 136      35.658  40.334  12.106  1.00 34.34     0.131 A 
ATOM     13  OH  TYR A 136      35.112  41.471  12.685  1.00 35.14    -0.190 OA
ATOM     14  CE1 TYR A 136      35.806  40.286  10.727  1.00 35.01     0.027 A 
ATOM     15  CD1 TYR A 136      36.354  39.147  10.135  1.00 33.57    -0.002 A 
ENDBRANCH   8   9
ENDBRANCH   7   8
END_RES TYR A 136
BEGIN_RES ASN A 133
REMARK  2 active torsions:
REMARK  status: ('A' for Active; 'I' for Inactive)
REMARK    7  A    between atoms: CA   and  CB  
REMARK    8  A    between atoms: CB   and  CG  
ROOT
ATOM     16  CA  ASN A 133      31.225  30.257  11.749  1.00 18.15     0.196 C 
ENDROOT
BRANCH  16  17
ATOM     17  CB  ASN A 133      30.092  31.240  11.460  1.00 18.27     0.126 C 
BRANCH  17  18
ATOM     18  CG  ASN A 133      28.750  30.583  11.359  1.00 18.94     0.276 C 
ATOM     19  OD1 ASN A 133      28.573  29.601  10.635  1.00 18.09    -0.269 OA
ATOM     20  ND2 ASN A 133      27.779  31.126  12.091  1.00 18.93    -0.107 N 
ENDBRANCH  17  18
ENDBRANCH  16  17
END_RES ASN A 133
