REMARK VINA RESULT:    -3.742      3.324      4.913
REMARK INTER + INTRA:          -7.625
REMARK INTER:                  -4.372
REMARK INTRA:                  -3.253
REMARK UNBOUND:                -3.226
REMARK SMILES COc1ccc(Cn2cc(C)nn2)cc1
REMARK SMILES IDX 6 1 5 2 4 3 3 4 15 5 14 6 7 7 8 8 11 9 10 10 9 11 12 12
REMARK SMILES IDX 13 13 2 14 1 15
REMARK H PARENT
REMARK Flexibility Score: inf
ROOT
ATOM      1  C   UNL     1      30.396  31.864  17.642  1.00  0.00    -0.026 A 
ATOM      2  C   UNL     1      30.883  33.099  18.047  1.00  0.00     0.009 A 
ATOM      3  C   UNL     1      31.569  33.903  17.136  1.00  0.00     0.047 A 
ATOM      4  C   UNL     1      31.747  33.445  15.848  1.00  0.00     0.118 A 
ATOM      5  C   UNL     1      31.249  32.212  15.483  1.00  0.00     0.047 A 
ATOM      6  C   UNL     1      30.565  31.396  16.364  1.00  0.00     0.009 A 
ENDROOT
BRANCH   1   7
ATOM      7  C   UNL     1      29.671  31.034  18.635  1.00  0.00     0.181 C 
BRANCH   7   8
ATOM      8  N   UNL     1      28.298  30.760  18.180  1.00  0.00    -0.248 N 
ATOM      9  C   UNL     1      25.426  28.694  17.258  1.00  0.00     0.070 C 
ATOM     10  C   UNL     1      26.442  29.753  17.577  1.00  0.00     0.080 A 
ATOM     11  C   UNL     1      27.730  29.557  18.014  1.00  0.00     0.134 A 
ATOM     12  N   UNL     1      26.261  31.079  17.489  1.00  0.00    -0.136 NA
ATOM     13  N   UNL     1      27.375  31.644  17.851  1.00  0.00    -0.067 NA
ENDBRANCH   7   8
ENDBRANCH   1   7
BRANCH   4  14
ATOM     14  O   UNL     1      32.434  34.275  14.975  1.00  0.00    -0.497 OA
ATOM     15  C   UNL     1      31.679  34.959  13.992  1.00  0.00     0.278 C 
ENDBRANCH   4  14
TORSDOF 3
BEGIN_RES LYS A 135
REMARK  4 active torsions:
REMARK  status: ('A' for Active; 'I' for Inactive)
REMARK    1  A    between atoms: CA   and  CB  
REMARK    2  A    between atoms: CB   and  CG  
REMARK    3  A    between atoms: CG   and  CD  
REMARK    4  A    between atoms: CD   and  CE  
ROOT
ATOM      1  CA  LYS A 135      33.193  34.663   9.290  1.00 25.02     0.186 C 
ENDROOT
BRANCH   1   2
ATOM      2  CB  LYS A 135      32.060  35.360  10.034  1.00 26.63     0.034 C 
BRANCH   2   3
ATOM      3  CG  LYS A 135      30.830  35.577   9.191  1.00 29.45     0.005 C 
BRANCH   3   4
ATOM      4  CD  LYS A 135      30.126  34.256   8.919  1.00 32.00     0.041 C 
BRANCH   4   5
ATOM      5  CE  LYS A 135      28.745  34.498   8.340  1.00 34.25     0.338 C 
ATOM      6  NZ  LYS A 135      28.815  35.364   7.131  1.00 35.99     0.618 N 
ENDBRANCH   4   5
ENDBRANCH   3   4
ENDBRANCH   2   3
ENDBRANCH   1   2
END_RES LYS A 135
BEGIN_RES TYR A 136
REMARK  2 active torsions:
REMARK  status: ('A' for Active; 'I' for Inactive)
REMARK    5  A    between atoms: CA   and  CB  
REMARK    6  A    between atoms: CB   and  CG  
ROOT
ATOM      7  CA  TYR A 136      36.583  36.399   8.994  1.00 26.14     0.191 C 
ENDROOT
BRANCH   7   8
ATOM      8  CB  TYR A 136      37.367  36.835  10.240  1.00 28.16     0.060 C 
BRANCH   8   9
ATOM      9  CG  TYR A 136      37.265  38.318  10.500  1.00 31.88    -0.020 A 
ATOM     10  CD2 TYR A 136      36.296  39.098   9.866  1.00 32.67    -0.002 A 
ATOM     11  CE2 TYR A 136      36.210  40.475  10.114  1.00 33.89     0.027 A 
ATOM     12  CZ  TYR A 136      37.103  41.077  11.004  1.00 34.34     0.131 A 
ATOM     13  OH  TYR A 136      37.033  42.437  11.269  1.00 35.14    -0.190 OA
ATOM     14  CE1 TYR A 136      38.073  40.317  11.642  1.00 35.01     0.027 A 
ATOM     15  CD1 TYR A 136      38.152  38.948  11.382  1.00 33.57    -0.002 A 
ENDBRANCH   8   9
ENDBRANCH   7   8
END_RES TYR A 136
BEGIN_RES ASN A 133
REMARK  2 active torsions:
REMARK  status: ('A' for Active; 'I' for Inactive)
REMARK    7  A    between atoms: CA   and  CB  
REMARK    8  A    between atoms: CB   and  CG  
ROOT
ATOM     16  CA  ASN A 133      31.225  30.257  11.749  1.00 18.15     0.196 C 
ENDROOT
BRANCH  16  17
ATOM     17  CB  ASN A 133      30.092  31.240  11.460  1.00 18.27     0.126 C 
BRANCH  17  18
ATOM     18  CG  ASN A 133      28.751  30.583  11.357  1.00 18.94     0.276 C 
ATOM     19  OD1 ASN A 133      28.572  29.607  10.625  1.00 18.09    -0.269 OA
ATOM     20  ND2 ASN A 133      27.780  31.119  12.096  1.00 18.93    -0.107 N 
ENDBRANCH  17  18
ENDBRANCH  16  17
END_RES ASN A 133
