REMARK VINA RESULT:    -4.152      2.724      4.321
REMARK INTER + INTRA:          -8.061
REMARK INTER:                  -4.848
REMARK INTRA:                  -3.213
REMARK UNBOUND:                -3.423
REMARK SMILES Cc1cn(-c2ccccc2C(C)C)nn1
REMARK SMILES IDX 5 1 10 2 9 3 8 4 7 5 6 6 4 7 1 8 2 9 3 10 15 11 14 12 11 13
REMARK SMILES IDX 12 14 13 15
REMARK H PARENT
REMARK Flexibility Score: inf
ROOT
ATOM      1  C   UNL     1      38.255  34.208  16.565  1.00  0.00     0.070 A 
ATOM      2  C   UNL     1      37.595  35.186  17.273  1.00  0.00    -0.020 A 
ATOM      3  C   UNL     1      37.530  35.109  18.659  1.00  0.00     0.006 A 
ATOM      4  C   UNL     1      38.099  34.087  19.378  1.00  0.00     0.000 A 
ATOM      5  C   UNL     1      38.762  33.103  18.670  1.00  0.00     0.002 A 
ATOM      6  C   UNL     1      38.831  33.174  17.301  1.00  0.00     0.029 A 
ENDROOT
BRANCH   1   7
ATOM      7  N   UNL     1      38.363  34.231  15.136  1.00  0.00    -0.220 N 
ATOM      8  C   UNL     1      37.384  33.554  11.667  1.00  0.00     0.070 C 
ATOM      9  C   UNL     1      38.010  33.956  12.941  1.00  0.00     0.080 A 
ATOM     10  C   UNL     1      37.515  33.719  14.227  1.00  0.00     0.140 A 
ATOM     11  N   UNL     1      39.176  34.625  13.151  1.00  0.00    -0.135 NA
ATOM     12  N   UNL     1      39.351  34.769  14.441  1.00  0.00    -0.062 NA
ENDBRANCH   1   7
BRANCH   2  13
ATOM     13  C   UNL     1      36.964  36.303  16.528  1.00  0.00     0.015 C 
ATOM     14  C   UNL     1      37.371  37.634  17.152  1.00  0.00     0.012 C 
ATOM     15  C   UNL     1      35.440  36.206  16.618  1.00  0.00     0.012 C 
ENDBRANCH   2  13
TORSDOF 2
BEGIN_RES LYS A 135
REMARK  4 active torsions:
REMARK  status: ('A' for Active; 'I' for Inactive)
REMARK    1  A    between atoms: CA   and  CB  
REMARK    2  A    between atoms: CB   and  CG  
REMARK    3  A    between atoms: CG   and  CD  
REMARK    4  A    between atoms: CD   and  CE  
ROOT
ATOM      1  CA  LYS A 135      33.193  34.663   9.290  1.00 25.02     0.186 C 
ENDROOT
BRANCH   1   2
ATOM      2  CB  LYS A 135      32.060  35.360  10.034  1.00 26.63     0.034 C 
BRANCH   2   3
ATOM      3  CG  LYS A 135      30.731  34.663   9.898  1.00 29.45     0.005 C 
BRANCH   3   4
ATOM      4  CD  LYS A 135      30.340  34.534   8.434  1.00 32.00     0.041 C 
BRANCH   4   5
ATOM      5  CE  LYS A 135      28.831  34.542   8.283  1.00 34.25     0.338 C 
ATOM      6  NZ  LYS A 135      28.175  33.835   9.418  1.00 35.99     0.618 N 
ENDBRANCH   4   5
ENDBRANCH   3   4
ENDBRANCH   2   3
ENDBRANCH   1   2
END_RES LYS A 135
BEGIN_RES TYR A 136
REMARK  2 active torsions:
REMARK  status: ('A' for Active; 'I' for Inactive)
REMARK    5  A    between atoms: CA   and  CB  
REMARK    6  A    between atoms: CB   and  CG  
ROOT
ATOM      7  CA  TYR A 136      36.583  36.399   8.994  1.00 26.14     0.191 C 
ENDROOT
BRANCH   7   8
ATOM      8  CB  TYR A 136      37.367  36.835  10.240  1.00 28.16     0.060 C 
BRANCH   8   9
ATOM      9  CG  TYR A 136      36.538  37.672  11.183  1.00 31.88    -0.020 A 
ATOM     10  CD2 TYR A 136      36.439  37.349  12.539  1.00 32.67    -0.002 A 
ATOM     11  CE2 TYR A 136      35.665  38.132  13.406  1.00 33.89     0.027 A 
ATOM     12  CZ  TYR A 136      34.985  39.248  12.913  1.00 34.34     0.131 A 
ATOM     13  OH  TYR A 136      34.218  40.042  13.755  1.00 35.14    -0.190 OA
ATOM     14  CE1 TYR A 136      35.071  39.583  11.569  1.00 35.01     0.027 A 
ATOM     15  CD1 TYR A 136      35.840  38.791  10.714  1.00 33.57    -0.002 A 
ENDBRANCH   8   9
ENDBRANCH   7   8
END_RES TYR A 136
BEGIN_RES ASN A 133
REMARK  2 active torsions:
REMARK  status: ('A' for Active; 'I' for Inactive)
REMARK    7  A    between atoms: CA   and  CB  
REMARK    8  A    between atoms: CB   and  CG  
ROOT
ATOM     16  CA  ASN A 133      31.225  30.257  11.749  1.00 18.15     0.196 C 
ENDROOT
BRANCH  16  17
ATOM     17  CB  ASN A 133      30.092  31.240  11.460  1.00 18.27     0.126 C 
BRANCH  17  18
ATOM     18  CG  ASN A 133      28.752  30.581  11.343  1.00 18.94     0.276 C 
ATOM     19  OD1 ASN A 133      28.585  29.600  10.616  1.00 18.09    -0.269 OA
ATOM     20  ND2 ASN A 133      27.772  31.121  12.067  1.00 18.93    -0.107 N 
ENDBRANCH  17  18
ENDBRANCH  16  17
END_RES ASN A 133
