REMARK VINA RESULT:    -4.944      1.209      3.563
REMARK INTER + INTRA:          -7.228
REMARK INTER:                  -4.257
REMARK INTRA:                  -2.971
REMARK UNBOUND:                -1.996
REMARK SMILES Cc1cn(-c2ccccc2I)nn1
REMARK SMILES IDX 5 1 6 2 7 3 8 4 9 5 10 6 11 7 4 8 1 9 2 10 3 11 13 12 12 13
REMARK H PARENT
REMARK Flexibility Score: inf
ROOT
ATOM      1  C   UNL     1      33.394  36.248  13.129  1.00  0.00     0.080 A 
ATOM      2  C   UNL     1      33.340  37.199  12.132  1.00  0.00     0.029 A 
ATOM      3  C   UNL     1      32.143  37.754  11.704  1.00  0.00     0.002 A 
ATOM      4  C   UNL     1      30.946  37.351  12.289  1.00  0.00     0.001 A 
ATOM      5  C   UNL     1      30.980  36.399  13.290  1.00  0.00     0.017 A 
ATOM      6  C   UNL     1      32.184  35.864  13.696  1.00  0.00     0.039 A 
ATOM      7  I   UNL     1      32.200  34.413  15.227  1.00  0.00    -0.042 I 
ENDROOT
BRANCH   1   8
ATOM      8  N   UNL     1      34.638  35.686  13.556  1.00  0.00    -0.219 N 
ATOM      9  C   UNL     1      37.570  33.544  13.581  1.00  0.00     0.070 C 
ATOM     10  C   UNL     1      36.465  34.532  13.788  1.00  0.00     0.080 A 
ATOM     11  C   UNL     1      35.348  34.705  13.008  1.00  0.00     0.140 A 
ATOM     12  N   UNL     1      36.380  35.429  14.785  1.00  0.00    -0.135 NA
ATOM     13  N   UNL     1      35.281  36.112  14.632  1.00  0.00    -0.062 NA
ENDBRANCH   1   8
TORSDOF 1
BEGIN_RES LYS A 135
REMARK  4 active torsions:
REMARK  status: ('A' for Active; 'I' for Inactive)
REMARK    1  A    between atoms: CA   and  CB  
REMARK    2  A    between atoms: CB   and  CG  
REMARK    3  A    between atoms: CG   and  CD  
REMARK    4  A    between atoms: CD   and  CE  
ROOT
ATOM      1  CA  LYS A 135      33.193  34.663   9.290  1.00 25.02     0.186 C 
ENDROOT
BRANCH   1   2
ATOM      2  CB  LYS A 135      32.060  35.360  10.034  1.00 26.63     0.034 C 
BRANCH   2   3
ATOM      3  CG  LYS A 135      30.699  34.787   9.732  1.00 29.45     0.005 C 
BRANCH   3   4
ATOM      4  CD  LYS A 135      30.556  34.498   8.246  1.00 32.00     0.041 C 
BRANCH   4   5
ATOM      5  CE  LYS A 135      29.234  35.027   7.725  1.00 34.25     0.338 C 
ATOM      6  NZ  LYS A 135      28.090  34.458   8.490  1.00 35.99     0.618 N 
ENDBRANCH   4   5
ENDBRANCH   3   4
ENDBRANCH   2   3
ENDBRANCH   1   2
END_RES LYS A 135
BEGIN_RES TYR A 136
REMARK  2 active torsions:
REMARK  status: ('A' for Active; 'I' for Inactive)
REMARK    5  A    between atoms: CA   and  CB  
REMARK    6  A    between atoms: CB   and  CG  
ROOT
ATOM      7  CA  TYR A 136      36.583  36.399   8.994  1.00 26.14     0.191 C 
ENDROOT
BRANCH   7   8
ATOM      8  CB  TYR A 136      37.367  36.835  10.240  1.00 28.16     0.060 C 
BRANCH   8   9
ATOM      9  CG  TYR A 136      36.758  38.038  10.917  1.00 31.88    -0.020 A 
ATOM     10  CD2 TYR A 136      36.917  38.254  12.288  1.00 32.67    -0.002 A 
ATOM     11  CE2 TYR A 136      36.345  39.373  12.908  1.00 33.89     0.027 A 
ATOM     12  CZ  TYR A 136      35.607  40.285  12.149  1.00 34.34     0.131 A 
ATOM     13  OH  TYR A 136      35.038  41.404  12.741  1.00 35.14    -0.190 OA
ATOM     14  CE1 TYR A 136      35.438  40.085  10.787  1.00 35.01     0.027 A 
ATOM     15  CD1 TYR A 136      36.007  38.963  10.182  1.00 33.57    -0.002 A 
ENDBRANCH   8   9
ENDBRANCH   7   8
END_RES TYR A 136
BEGIN_RES ASN A 133
REMARK  2 active torsions:
REMARK  status: ('A' for Active; 'I' for Inactive)
REMARK    7  A    between atoms: CA   and  CB  
REMARK    8  A    between atoms: CB   and  CG  
ROOT
ATOM     16  CA  ASN A 133      31.225  30.257  11.749  1.00 18.15     0.196 C 
ENDROOT
BRANCH  16  17
ATOM     17  CB  ASN A 133      30.092  31.240  11.460  1.00 18.27     0.126 C 
BRANCH  17  18
ATOM     18  CG  ASN A 133      28.751  30.582  11.353  1.00 18.94     0.276 C 
ATOM     19  OD1 ASN A 133      28.576  29.605  10.623  1.00 18.09    -0.269 OA
ATOM     20  ND2 ASN A 133      27.778  31.120  12.088  1.00 18.93    -0.107 N 
ENDBRANCH  17  18
ENDBRANCH  16  17
END_RES ASN A 133
