REMARK VINA RESULT:    -4.248      8.470     14.667
REMARK INTER + INTRA:          -8.219
REMARK INTER:                  -4.907
REMARK INTRA:                  -3.312
REMARK UNBOUND:                -3.226
REMARK SMILES COc1ccc(Cn2cc(C)nn2)cc1
REMARK SMILES IDX 6 1 5 2 4 3 3 4 15 5 14 6 7 7 8 8 11 9 10 10 9 11 12 12
REMARK SMILES IDX 13 13 2 14 1 15
REMARK H PARENT
REMARK Flexibility Score: inf
ROOT
ATOM      1  C   UNL     1      21.900  33.651  -1.076  1.00  0.00    -0.026 A 
ATOM      2  C   UNL     1      21.814  32.505  -1.855  1.00  0.00     0.009 A 
ATOM      3  C   UNL     1      22.157  31.269  -1.304  1.00  0.00     0.047 A 
ATOM      4  C   UNL     1      22.577  31.220   0.008  1.00  0.00     0.118 A 
ATOM      5  C   UNL     1      22.650  32.380   0.750  1.00  0.00     0.047 A 
ATOM      6  C   UNL     1      22.315  33.616   0.231  1.00  0.00     0.009 A 
ENDROOT
BRANCH   1   7
ATOM      7  C   UNL     1      21.528  34.948  -1.691  1.00  0.00     0.181 C 
BRANCH   7   8
ATOM      8  N   UNL     1      22.703  35.828  -1.800  1.00  0.00    -0.248 N 
ATOM      9  C   UNL     1      24.667  38.868  -1.286  1.00  0.00     0.070 C 
ATOM     10  C   UNL     1      24.081  37.529  -1.631  1.00  0.00     0.080 A 
ATOM     11  C   UNL     1      22.829  37.067  -1.303  1.00  0.00     0.134 A 
ATOM     12  N   UNL     1      24.686  36.553  -2.322  1.00  0.00    -0.136 NA
ATOM     13  N   UNL     1      23.846  35.563  -2.405  1.00  0.00    -0.067 NA
ENDBRANCH   7   8
ENDBRANCH   1   7
BRANCH   4  14
ATOM     14  O   UNL     1      22.908  29.972   0.515  1.00  0.00    -0.497 OA
ATOM     15  C   UNL     1      22.884  28.875  -0.379  1.00  0.00     0.278 C 
ENDBRANCH   4  14
TORSDOF 3
BEGIN_RES LYS A 135
REMARK  4 active torsions:
REMARK  status: ('A' for Active; 'I' for Inactive)
REMARK    1  A    between atoms: CA   and  CB  
REMARK    2  A    between atoms: CB   and  CG  
REMARK    3  A    between atoms: CG   and  CD  
REMARK    4  A    between atoms: CD   and  CE  
ROOT
ATOM      1  CA  LYS A 135      33.193  34.663   9.290  1.00 25.02     0.186 C 
ENDROOT
BRANCH   1   2
ATOM      2  CB  LYS A 135      32.060  35.360  10.034  1.00 26.63     0.034 C 
BRANCH   2   3
ATOM      3  CG  LYS A 135      30.726  34.676   9.878  1.00 29.45     0.005 C 
BRANCH   3   4
ATOM      4  CD  LYS A 135      30.341  34.580   8.410  1.00 32.00     0.041 C 
BRANCH   4   5
ATOM      5  CE  LYS A 135      28.833  34.574   8.254  1.00 34.25     0.338 C 
ATOM      6  NZ  LYS A 135      28.178  33.871   9.392  1.00 35.99     0.618 N 
ENDBRANCH   4   5
ENDBRANCH   3   4
ENDBRANCH   2   3
ENDBRANCH   1   2
END_RES LYS A 135
BEGIN_RES TYR A 136
REMARK  2 active torsions:
REMARK  status: ('A' for Active; 'I' for Inactive)
REMARK    5  A    between atoms: CA   and  CB  
REMARK    6  A    between atoms: CB   and  CG  
ROOT
ATOM      7  CA  TYR A 136      36.583  36.399   8.994  1.00 26.14     0.191 C 
ENDROOT
BRANCH   7   8
ATOM      8  CB  TYR A 136      37.367  36.835  10.240  1.00 28.16     0.060 C 
BRANCH   8   9
ATOM      9  CG  TYR A 136      37.194  38.301  10.551  1.00 31.88    -0.020 A 
ATOM     10  CD2 TYR A 136      38.267  39.191  10.463  1.00 32.67    -0.002 A 
ATOM     11  CE2 TYR A 136      38.096  40.551  10.755  1.00 33.89     0.027 A 
ATOM     12  CZ  TYR A 136      36.839  41.025  11.140  1.00 34.34     0.131 A 
ATOM     13  OH  TYR A 136      36.645  42.369  11.428  1.00 35.14    -0.190 OA
ATOM     14  CE1 TYR A 136      35.762  40.155  11.234  1.00 35.01     0.027 A 
ATOM     15  CD1 TYR A 136      35.946  38.802  10.946  1.00 33.57    -0.002 A 
ENDBRANCH   8   9
ENDBRANCH   7   8
END_RES TYR A 136
BEGIN_RES ASN A 133
REMARK  2 active torsions:
REMARK  status: ('A' for Active; 'I' for Inactive)
REMARK    7  A    between atoms: CA   and  CB  
REMARK    8  A    between atoms: CB   and  CG  
ROOT
ATOM     16  CA  ASN A 133      31.225  30.257  11.749  1.00 18.15     0.196 C 
ENDROOT
BRANCH  16  17
ATOM     17  CB  ASN A 133      30.092  31.240  11.460  1.00 18.27     0.126 C 
BRANCH  17  18
ATOM     18  CG  ASN A 133      28.757  30.578  11.317  1.00 18.94     0.276 C 
ATOM     19  OD1 ASN A 133      28.602  29.606  10.575  1.00 18.09    -0.269 OA
ATOM     20  ND2 ASN A 133      27.765  31.106  12.033  1.00 18.93    -0.107 N 
ENDBRANCH  17  18
ENDBRANCH  16  17
END_RES ASN A 133
