REMARK VINA RESULT:    -3.840      4.138      8.976
REMARK INTER + INTRA:          -7.532
REMARK INTER:                  -5.855
REMARK INTRA:                  -1.676
REMARK UNBOUND:                -3.243
REMARK SMILES CC(=O)c1ccccc1-n1cc(C)nn1
REMARK SMILES IDX 9 1 4 2 5 3 6 4 7 5 8 6 10 7 13 8 12 9 11 10 14 11 15 12
REMARK SMILES IDX 2 13 3 14 1 15
REMARK H PARENT
REMARK Flexibility Score: inf
ROOT
ATOM      1  C   UNL     1      29.201  35.411   7.981  1.00  0.00     0.077 A 
ATOM      2  C   UNL     1      28.414  35.035   9.064  1.00  0.00     0.043 A 
ATOM      3  C   UNL     1      28.851  34.095   9.976  1.00  0.00     0.014 A 
ATOM      4  C   UNL     1      30.066  33.500   9.851  1.00  0.00     0.001 A 
ATOM      5  C   UNL     1      30.877  33.842   8.794  1.00  0.00     0.002 A 
ATOM      6  C   UNL     1      30.425  34.780   7.897  1.00  0.00     0.029 A 
ENDROOT
BRANCH   1   7
ATOM      7  N   UNL     1      28.752  36.377   7.044  1.00  0.00    -0.220 N 
ATOM      8  C   UNL     1      28.375  39.706   5.555  1.00  0.00     0.070 C 
ATOM      9  C   UNL     1      28.383  38.286   5.963  1.00  0.00     0.080 A 
ATOM     10  C   UNL     1      28.993  37.698   7.035  1.00  0.00     0.140 A 
ATOM     11  N   UNL     1      27.754  37.260   5.317  1.00  0.00    -0.135 NA
ATOM     12  N   UNL     1      27.995  36.145   5.984  1.00  0.00    -0.062 NA
ENDBRANCH   1   7
BRANCH   2  13
ATOM     13  C   UNL     1      27.113  35.612   9.276  1.00  0.00     0.161 C 
ATOM     14  O   UNL     1      27.033  36.675   9.919  1.00  0.00    -0.294 OA
ATOM     15  C   UNL     1      25.894  34.977   8.757  1.00  0.00     0.093 C 
ENDBRANCH   2  13
TORSDOF 2
BEGIN_RES LYS A 135
REMARK  4 active torsions:
REMARK  status: ('A' for Active; 'I' for Inactive)
REMARK    1  A    between atoms: CA   and  CB  
REMARK    2  A    between atoms: CB   and  CG  
REMARK    3  A    between atoms: CG   and  CD  
REMARK    4  A    between atoms: CD   and  CE  
ROOT
ATOM      1  CA  LYS A 135      33.193  34.663   9.290  1.00 25.02     0.186 C 
ENDROOT
BRANCH   1   2
ATOM      2  CB  LYS A 135      32.060  35.360  10.034  1.00 26.63     0.034 C 
BRANCH   2   3
ATOM      3  CG  LYS A 135      32.501  36.036  11.307  1.00 29.45     0.005 C 
BRANCH   3   4
ATOM      4  CD  LYS A 135      31.342  36.145  12.286  1.00 32.00     0.041 C 
BRANCH   4   5
ATOM      5  CE  LYS A 135      31.397  35.021  13.303  1.00 34.25     0.338 C 
ATOM      6  NZ  LYS A 135      30.076  34.344  13.426  1.00 35.99     0.618 N 
ENDBRANCH   4   5
ENDBRANCH   3   4
ENDBRANCH   2   3
ENDBRANCH   1   2
END_RES LYS A 135
BEGIN_RES TYR A 136
REMARK  2 active torsions:
REMARK  status: ('A' for Active; 'I' for Inactive)
REMARK    5  A    between atoms: CA   and  CB  
REMARK    6  A    between atoms: CB   and  CG  
ROOT
ATOM      7  CA  TYR A 136      36.583  36.399   8.994  1.00 26.14     0.191 C 
ENDROOT
BRANCH   7   8
ATOM      8  CB  TYR A 136      37.367  36.835  10.240  1.00 28.16     0.060 C 
BRANCH   8   9
ATOM      9  CG  TYR A 136      36.466  37.264  11.372  1.00 31.88    -0.020 A 
ATOM     10  CD2 TYR A 136      35.679  38.414  11.273  1.00 32.67    -0.002 A 
ATOM     11  CE2 TYR A 136      34.846  38.805  12.331  1.00 33.89     0.027 A 
ATOM     12  CZ  TYR A 136      34.802  38.038  13.498  1.00 34.34     0.131 A 
ATOM     13  OH  TYR A 136      33.979  38.402  14.556  1.00 35.14    -0.190 OA
ATOM     14  CE1 TYR A 136      35.578  36.894  13.614  1.00 35.01     0.027 A 
ATOM     15  CD1 TYR A 136      36.408  36.518  12.556  1.00 33.57    -0.002 A 
ENDBRANCH   8   9
ENDBRANCH   7   8
END_RES TYR A 136
BEGIN_RES ASN A 133
REMARK  2 active torsions:
REMARK  status: ('A' for Active; 'I' for Inactive)
REMARK    7  A    between atoms: CA   and  CB  
REMARK    8  A    between atoms: CB   and  CG  
ROOT
ATOM     16  CA  ASN A 133      31.225  30.257  11.749  1.00 18.15     0.196 C 
ENDROOT
BRANCH  16  17
ATOM     17  CB  ASN A 133      30.092  31.240  11.460  1.00 18.27     0.126 C 
BRANCH  17  18
ATOM     18  CG  ASN A 133      28.747  30.586  11.381  1.00 18.94     0.276 C 
ATOM     19  OD1 ASN A 133      28.558  29.601  10.665  1.00 18.09    -0.269 OA
ATOM     20  ND2 ASN A 133      27.787  31.136  12.123  1.00 18.93    -0.107 N 
ENDBRANCH  17  18
ENDBRANCH  16  17
END_RES ASN A 133
