REMARK VINA RESULT:    -3.107      7.803     10.504
REMARK INTER + INTRA:          -7.233
REMARK INTER:                  -3.987
REMARK INTRA:                  -3.245
REMARK UNBOUND:                -3.398
REMARK SMILES Cc1cn(CC(O)CO)nn1
REMARK SMILES IDX 6 1 5 2 4 3 1 4 2 5 3 6 11 7 10 8 7 9 8 11 9 12
REMARK H PARENT 7 10 9 13
REMARK Flexibility Score: inf
ROOT
ATOM      1  C   UNL     1      37.832  37.813   3.779  1.00  0.00     0.161 C 
ENDROOT
BRANCH   1   2
ATOM      2  C   UNL     1      36.692  37.869   2.789  1.00  0.00     0.180 C 
BRANCH   2   3
ATOM      3  N   UNL     1      35.597  38.682   3.275  1.00  0.00    -0.250 N 
ATOM      4  C   UNL     1      32.890  41.143   3.112  1.00  0.00     0.070 C 
ATOM      5  C   UNL     1      33.921  40.122   3.426  1.00  0.00     0.080 A 
ATOM      6  C   UNL     1      34.857  39.568   2.587  1.00  0.00     0.134 A 
ATOM      7  N   UNL     1      34.124  39.543   4.626  1.00  0.00    -0.136 NA
ATOM      8  N   UNL     1      35.120  38.698   4.507  1.00  0.00    -0.067 NA
ENDBRANCH   2   3
ENDBRANCH   1   2
BRANCH   1   9
ATOM      9  O   UNL     1      37.436  37.033   4.856  1.00  0.00    -0.389 OA
ATOM     10  H   UNL     1      37.574  37.438   5.726  1.00  0.00     0.211 HD
ENDBRANCH   1   9
BRANCH   1  11
ATOM     11  C   UNL     1      39.032  37.171   3.153  1.00  0.00     0.189 C 
BRANCH  11  12
ATOM     12  O   UNL     1      39.171  35.895   3.676  1.00  0.00    -0.394 OA
ATOM     13  H   UNL     1      39.438  35.238   2.984  1.00  0.00     0.210 HD
ENDBRANCH  11  12
ENDBRANCH   1  11
TORSDOF 5
BEGIN_RES LYS A 135
REMARK  4 active torsions:
REMARK  status: ('A' for Active; 'I' for Inactive)
REMARK    1  A    between atoms: CA   and  CB  
REMARK    2  A    between atoms: CB   and  CG  
REMARK    3  A    between atoms: CG   and  CD  
REMARK    4  A    between atoms: CD   and  CE  
ROOT
ATOM      1  CA  LYS A 135      33.193  34.663   9.290  1.00 25.02     0.186 C 
ENDROOT
BRANCH   1   2
ATOM      2  CB  LYS A 135      32.060  35.360  10.034  1.00 26.63     0.034 C 
BRANCH   2   3
ATOM      3  CG  LYS A 135      30.701  34.779   9.743  1.00 29.45     0.005 C 
BRANCH   3   4
ATOM      4  CD  LYS A 135      30.553  34.475   8.260  1.00 32.00     0.041 C 
BRANCH   4   5
ATOM      5  CE  LYS A 135      29.198  34.931   7.754  1.00 34.25     0.338 C 
ATOM      6  NZ  LYS A 135      29.153  36.412   7.603  1.00 35.99     0.618 N 
ENDBRANCH   4   5
ENDBRANCH   3   4
ENDBRANCH   2   3
ENDBRANCH   1   2
END_RES LYS A 135
BEGIN_RES TYR A 136
REMARK  2 active torsions:
REMARK  status: ('A' for Active; 'I' for Inactive)
REMARK    5  A    between atoms: CA   and  CB  
REMARK    6  A    between atoms: CB   and  CG  
ROOT
ATOM      7  CA  TYR A 136      36.583  36.399   8.994  1.00 26.14     0.191 C 
ENDROOT
BRANCH   7   8
ATOM      8  CB  TYR A 136      37.367  36.835  10.240  1.00 28.16     0.060 C 
BRANCH   8   9
ATOM      9  CG  TYR A 136      37.178  38.297  10.562  1.00 31.88    -0.020 A 
ATOM     10  CD2 TYR A 136      36.450  39.136   9.716  1.00 32.67    -0.002 A 
ATOM     11  CE2 TYR A 136      36.281  40.493  10.024  1.00 33.89     0.027 A 
ATOM     12  CZ  TYR A 136      36.847  41.015  11.189  1.00 34.34     0.131 A 
ATOM     13  OH  TYR A 136      36.688  42.354  11.517  1.00 35.14    -0.190 OA
ATOM     14  CE1 TYR A 136      37.575  40.197  12.041  1.00 35.01     0.027 A 
ATOM     15  CD1 TYR A 136      37.741  38.848  11.720  1.00 33.57    -0.002 A 
ENDBRANCH   8   9
ENDBRANCH   7   8
END_RES TYR A 136
BEGIN_RES ASN A 133
REMARK  2 active torsions:
REMARK  status: ('A' for Active; 'I' for Inactive)
REMARK    7  A    between atoms: CA   and  CB  
REMARK    8  A    between atoms: CB   and  CG  
ROOT
ATOM     16  CA  ASN A 133      31.225  30.257  11.749  1.00 18.15     0.196 C 
ENDROOT
BRANCH  16  17
ATOM     17  CB  ASN A 133      30.092  31.240  11.460  1.00 18.27     0.126 C 
BRANCH  17  18
ATOM     18  CG  ASN A 133      28.751  30.582  11.353  1.00 18.94     0.276 C 
ATOM     19  OD1 ASN A 133      28.575  29.605  10.623  1.00 18.09    -0.269 OA
ATOM     20  ND2 ASN A 133      27.778  31.119  12.089  1.00 18.93    -0.107 N 
ENDBRANCH  17  18
ENDBRANCH  16  17
END_RES ASN A 133
