REMARK VINA RESULT:    -3.979      2.911      4.114
REMARK INTER + INTRA:          -8.412
REMARK INTER:                  -5.020
REMARK INTRA:                  -3.392
REMARK UNBOUND:                -3.502
REMARK SMILES CCOC(=O)c1cccc(-n2cc(C)nn2)c1
REMARK SMILES IDX 4 1 5 2 6 3 10 4 17 5 9 6 8 7 7 8 11 9 14 10 13 11 12 12
REMARK SMILES IDX 15 13 16 14 3 15 2 16 1 17
REMARK H PARENT
REMARK Flexibility Score: inf
ROOT
ATOM      1  C   UNL     1      38.337  33.724  12.794  1.00  0.00     0.338 C 
ATOM      2  O   UNL     1      38.411  32.503  12.505  1.00  0.00    -0.246 OA
ENDROOT
BRANCH   1   3
ATOM      3  C   UNL     1      37.164  34.319  13.415  1.00  0.00     0.062 A 
ATOM      4  C   UNL     1      36.128  35.541  15.222  1.00  0.00     0.067 A 
ATOM      5  C   UNL     1      37.237  34.977  14.632  1.00  0.00     0.044 A 
ATOM      6  C   UNL     1      34.925  35.434  14.567  1.00  0.00     0.028 A 
ATOM      7  C   UNL     1      34.791  34.786  13.345  1.00  0.00     0.003 A 
ATOM      8  C   UNL     1      35.935  34.241  12.799  1.00  0.00     0.016 A 
BRANCH   4   9
ATOM      9  N   UNL     1      36.197  36.216  16.469  1.00  0.00    -0.220 N 
ATOM     10  C   UNL     1      34.899  37.380  19.714  1.00  0.00     0.070 C 
ATOM     11  C   UNL     1      35.674  37.055  18.488  1.00  0.00     0.080 A 
ATOM     12  C   UNL     1      35.228  36.317  17.411  1.00  0.00     0.140 A 
ATOM     13  N   UNL     1      36.939  37.391  18.162  1.00  0.00    -0.135 NA
ATOM     14  N   UNL     1      37.235  36.893  16.974  1.00  0.00    -0.062 NA
ENDBRANCH   4   9
ENDBRANCH   1   3
BRANCH   1  15
ATOM     15  O   UNL     1      39.445  34.499  12.491  1.00  0.00    -0.462 OA
BRANCH  15  16
ATOM     16  C   UNL     1      40.748  34.088  12.851  1.00  0.00     0.230 C 
ATOM     17  C   UNL     1      41.082  34.664  14.193  1.00  0.00     0.049 C 
ENDBRANCH  15  16
ENDBRANCH   1  15
TORSDOF 4
BEGIN_RES LYS A 135
REMARK  4 active torsions:
REMARK  status: ('A' for Active; 'I' for Inactive)
REMARK    1  A    between atoms: CA   and  CB  
REMARK    2  A    between atoms: CB   and  CG  
REMARK    3  A    between atoms: CG   and  CD  
REMARK    4  A    between atoms: CD   and  CE  
ROOT
ATOM      1  CA  LYS A 135      33.193  34.663   9.290  1.00 25.02     0.186 C 
ENDROOT
BRANCH   1   2
ATOM      2  CB  LYS A 135      32.060  35.360  10.034  1.00 26.63     0.034 C 
BRANCH   2   3
ATOM      3  CG  LYS A 135      30.816  35.541   9.204  1.00 29.45     0.005 C 
BRANCH   3   4
ATOM      4  CD  LYS A 135      30.180  34.196   8.889  1.00 32.00     0.041 C 
BRANCH   4   5
ATOM      5  CE  LYS A 135      28.700  34.361   8.601  1.00 34.25     0.338 C 
ATOM      6  NZ  LYS A 135      27.873  33.679   9.635  1.00 35.99     0.618 N 
ENDBRANCH   4   5
ENDBRANCH   3   4
ENDBRANCH   2   3
ENDBRANCH   1   2
END_RES LYS A 135
BEGIN_RES TYR A 136
REMARK  2 active torsions:
REMARK  status: ('A' for Active; 'I' for Inactive)
REMARK    5  A    between atoms: CA   and  CB  
REMARK    6  A    between atoms: CB   and  CG  
ROOT
ATOM      7  CA  TYR A 136      36.583  36.399   8.994  1.00 26.14     0.191 C 
ENDROOT
BRANCH   7   8
ATOM      8  CB  TYR A 136      37.367  36.835  10.240  1.00 28.16     0.060 C 
BRANCH   8   9
ATOM      9  CG  TYR A 136      36.639  37.883  11.046  1.00 31.88    -0.020 A 
ATOM     10  CD2 TYR A 136      35.829  38.838  10.427  1.00 32.67    -0.002 A 
ATOM     11  CE2 TYR A 136      35.159  39.808  11.185  1.00 33.89     0.027 A 
ATOM     12  CZ  TYR A 136      35.301  39.823  12.575  1.00 34.34     0.131 A 
ATOM     13  OH  TYR A 136      34.642  40.769  13.346  1.00 35.14    -0.190 OA
ATOM     14  CE1 TYR A 136      36.103  38.882  13.206  1.00 35.01     0.027 A 
ATOM     15  CD1 TYR A 136      36.770  37.925  12.440  1.00 33.57    -0.002 A 
ENDBRANCH   8   9
ENDBRANCH   7   8
END_RES TYR A 136
BEGIN_RES ASN A 133
REMARK  2 active torsions:
REMARK  status: ('A' for Active; 'I' for Inactive)
REMARK    7  A    between atoms: CA   and  CB  
REMARK    8  A    between atoms: CB   and  CG  
ROOT
ATOM     16  CA  ASN A 133      31.225  30.257  11.749  1.00 18.15     0.196 C 
ENDROOT
BRANCH  16  17
ATOM     17  CB  ASN A 133      30.092  31.240  11.460  1.00 18.27     0.126 C 
BRANCH  17  18
ATOM     18  CG  ASN A 133      28.747  30.586  11.381  1.00 18.94     0.276 C 
ATOM     19  OD1 ASN A 133      28.551  29.618  10.644  1.00 18.09    -0.269 OA
ATOM     20  ND2 ASN A 133      27.795  31.117  12.147  1.00 18.93    -0.107 N 
ENDBRANCH  17  18
ENDBRANCH  16  17
END_RES ASN A 133
