REMARK VINA RESULT:    -5.024      2.256      4.549
REMARK INTER + INTRA:          -8.304
REMARK INTER:                  -5.296
REMARK INTRA:                  -3.007
REMARK UNBOUND:                -2.985
REMARK SMILES Cc1cn(-c2c3ccccc3nc3ccccc23)nn1
REMARK SMILES IDX 5 1 6 2 7 3 8 4 9 5 10 6 11 7 12 8 13 9 14 10 15 11 16 12
REMARK SMILES IDX 17 13 18 14 4 15 1 16 2 17 3 18 20 19 19 20
REMARK H PARENT
REMARK Flexibility Score: inf
ROOT
ATOM      1  C   UNL     1      38.705  35.255  15.031  1.00  0.00     0.085 A 
ATOM      2  C   UNL     1      39.847  34.787  14.405  1.00  0.00     0.027 A 
ATOM      3  C   UNL     1      41.085  34.947  14.991  1.00  0.00     0.012 A 
ATOM      4  C   UNL     1      42.206  34.471  14.345  1.00  0.00     0.001 A 
ATOM      5  C   UNL     1      42.038  33.848  13.127  1.00  0.00     0.002 A 
ATOM      6  C   UNL     1      40.807  33.691  12.551  1.00  0.00     0.029 A 
ATOM      7  C   UNL     1      39.660  34.166  13.188  1.00  0.00     0.073 A 
ATOM      8  N   UNL     1      38.463  34.002  12.604  1.00  0.00    -0.248 NA
ATOM      9  C   UNL     1      37.332  34.462  13.217  1.00  0.00     0.073 A 
ATOM     10  C   UNL     1      36.095  34.297  12.624  1.00  0.00     0.029 A 
ATOM     11  C   UNL     1      34.993  34.783  13.292  1.00  0.00     0.002 A 
ATOM     12  C   UNL     1      35.106  35.416  14.515  1.00  0.00     0.001 A 
ATOM     13  C   UNL     1      36.330  35.568  15.083  1.00  0.00     0.012 A 
ATOM     14  C   UNL     1      37.446  35.091  14.434  1.00  0.00     0.027 A 
ENDROOT
BRANCH   1  15
ATOM     15  N   UNL     1      38.788  35.910  16.288  1.00  0.00    -0.219 N 
ATOM     16  C   UNL     1      38.808  36.139  19.949  1.00  0.00     0.070 C 
ATOM     17  C   UNL     1      38.836  36.323  18.454  1.00  0.00     0.080 A 
ATOM     18  C   UNL     1      38.709  35.343  17.497  1.00  0.00     0.140 A 
ATOM     19  N   UNL     1      38.991  37.481  17.800  1.00  0.00    -0.135 NA
ATOM     20  N   UNL     1      38.956  37.190  16.518  1.00  0.00    -0.062 NA
ENDBRANCH   1  15
TORSDOF 1
BEGIN_RES LYS A 135
REMARK  4 active torsions:
REMARK  status: ('A' for Active; 'I' for Inactive)
REMARK    1  A    between atoms: CA   and  CB  
REMARK    2  A    between atoms: CB   and  CG  
REMARK    3  A    between atoms: CG   and  CD  
REMARK    4  A    between atoms: CD   and  CE  
ROOT
ATOM      1  CA  LYS A 135      33.193  34.663   9.290  1.00 25.02     0.186 C 
ENDROOT
BRANCH   1   2
ATOM      2  CB  LYS A 135      32.060  35.360  10.034  1.00 26.63     0.034 C 
BRANCH   2   3
ATOM      3  CG  LYS A 135      30.829  35.576   9.192  1.00 29.45     0.005 C 
BRANCH   3   4
ATOM      4  CD  LYS A 135      30.209  34.245   8.796  1.00 32.00     0.041 C 
BRANCH   4   5
ATOM      5  CE  LYS A 135      28.722  34.404   8.543  1.00 34.25     0.338 C 
ATOM      6  NZ  LYS A 135      27.923  33.685   9.574  1.00 35.99     0.618 N 
ENDBRANCH   4   5
ENDBRANCH   3   4
ENDBRANCH   2   3
ENDBRANCH   1   2
END_RES LYS A 135
BEGIN_RES TYR A 136
REMARK  2 active torsions:
REMARK  status: ('A' for Active; 'I' for Inactive)
REMARK    5  A    between atoms: CA   and  CB  
REMARK    6  A    between atoms: CB   and  CG  
ROOT
ATOM      7  CA  TYR A 136      36.583  36.399   8.994  1.00 26.14     0.191 C 
ENDROOT
BRANCH   7   8
ATOM      8  CB  TYR A 136      37.367  36.835  10.240  1.00 28.16     0.060 C 
BRANCH   8   9
ATOM      9  CG  TYR A 136      36.728  38.005  10.948  1.00 31.88    -0.020 A 
ATOM     10  CD2 TYR A 136      36.151  39.056  10.231  1.00 32.67    -0.002 A 
ATOM     11  CE2 TYR A 136      35.562  40.138  10.898  1.00 33.89     0.027 A 
ATOM     12  CZ  TYR A 136      35.550  40.170  12.295  1.00 34.34     0.131 A 
ATOM     13  OH  TYR A 136      34.966  41.228  12.977  1.00 35.14    -0.190 OA
ATOM     14  CE1 TYR A 136      36.120  39.135  13.022  1.00 35.01     0.027 A 
ATOM     15  CD1 TYR A 136      36.710  38.065  12.347  1.00 33.57    -0.002 A 
ENDBRANCH   8   9
ENDBRANCH   7   8
END_RES TYR A 136
BEGIN_RES ASN A 133
REMARK  2 active torsions:
REMARK  status: ('A' for Active; 'I' for Inactive)
REMARK    7  A    between atoms: CA   and  CB  
REMARK    8  A    between atoms: CB   and  CG  
ROOT
ATOM     16  CA  ASN A 133      31.225  30.257  11.749  1.00 18.15     0.196 C 
ENDROOT
BRANCH  16  17
ATOM     17  CB  ASN A 133      30.092  31.240  11.460  1.00 18.27     0.126 C 
BRANCH  17  18
ATOM     18  CG  ASN A 133      28.750  30.583  11.360  1.00 18.94     0.276 C 
ATOM     19  OD1 ASN A 133      28.568  29.613  10.622  1.00 18.09    -0.269 OA
ATOM     20  ND2 ASN A 133      27.784  31.114  12.108  1.00 18.93    -0.107 N 
ENDBRANCH  17  18
ENDBRANCH  16  17
END_RES ASN A 133
