REMARK VINA RESULT:    -4.908      2.951      7.427
REMARK INTER + INTRA:          -8.205
REMARK INTER:                  -5.330
REMARK INTRA:                  -2.875
REMARK UNBOUND:                -2.723
REMARK SMILES Cc1cn(-c2ncn3c2c(=O)n(C(C)C)c2ccccc23)nn1
REMARK SMILES IDX 5 1 6 2 7 3 8 4 21 5 20 6 19 7 18 8 17 9 16 10 12 11 10 12
REMARK SMILES IDX 11 13 9 14 4 15 1 16 2 17 3 18 23 19 22 20 13 21 14 22 15 23
REMARK H PARENT
REMARK Flexibility Score: inf
ROOT
ATOM      1  C   UNL     1      30.834  33.710  14.986  1.00  0.00     0.186 A 
ATOM      2  N   UNL     1      31.552  32.725  15.545  1.00  0.00    -0.216 NA
ATOM      3  C   UNL     1      30.763  31.701  15.907  1.00  0.00     0.207 A 
ATOM      4  N   UNL     1      29.495  32.046  15.567  1.00  0.00    -0.291 N 
ATOM      5  C   UNL     1      28.306  31.408  15.693  1.00  0.00     0.071 A 
ATOM      6  C   UNL     1      28.356  30.160  16.273  1.00  0.00     0.029 A 
ATOM      7  C   UNL     1      27.163  29.489  16.408  1.00  0.00     0.002 A 
ATOM      8  C   UNL     1      25.972  30.028  15.988  1.00  0.00     0.002 A 
ATOM      9  C   UNL     1      25.942  31.269  15.414  1.00  0.00     0.028 A 
ATOM     10  C   UNL     1      27.121  31.963  15.267  1.00  0.00     0.068 A 
ATOM     11  N   UNL     1      27.178  33.211  14.698  1.00  0.00    -0.302 N 
ATOM     12  C   UNL     1      28.350  33.855  14.565  1.00  0.00     0.279 A 
ATOM     13  O   UNL     1      28.477  34.998  14.052  1.00  0.00    -0.267 OA
ATOM     14  C   UNL     1      29.521  33.271  15.003  1.00  0.00     0.158 A 
ENDROOT
BRANCH   1  15
ATOM     15  N   UNL     1      31.316  34.968  14.472  1.00  0.00    -0.200 N 
ATOM     16  C   UNL     1      32.731  37.187  11.969  1.00  0.00     0.070 C 
ATOM     17  C   UNL     1      32.148  36.520  13.169  1.00  0.00     0.080 A 
ATOM     18  C   UNL     1      31.805  35.196  13.240  1.00  0.00     0.142 A 
ATOM     19  N   UNL     1      31.866  37.071  14.348  1.00  0.00    -0.135 NA
ATOM     20  N   UNL     1      31.364  36.117  15.121  1.00  0.00    -0.061 NA
ENDBRANCH   1  15
BRANCH  11  21
ATOM     21  C   UNL     1      25.951  33.783  14.267  1.00  0.00     0.085 C 
ATOM     22  C   UNL     1      25.646  35.056  15.020  1.00  0.00     0.031 C 
ATOM     23  C   UNL     1      25.920  34.118  12.791  1.00  0.00     0.031 C 
ENDBRANCH  11  21
TORSDOF 2
BEGIN_RES LYS A 135
REMARK  4 active torsions:
REMARK  status: ('A' for Active; 'I' for Inactive)
REMARK    1  A    between atoms: CA   and  CB  
REMARK    2  A    between atoms: CB   and  CG  
REMARK    3  A    between atoms: CG   and  CD  
REMARK    4  A    between atoms: CD   and  CE  
ROOT
ATOM      1  CA  LYS A 135      33.193  34.663   9.290  1.00 25.02     0.186 C 
ENDROOT
BRANCH   1   2
ATOM      2  CB  LYS A 135      32.060  35.360  10.034  1.00 26.63     0.034 C 
BRANCH   2   3
ATOM      3  CG  LYS A 135      30.854  35.635   9.174  1.00 29.45     0.005 C 
BRANCH   3   4
ATOM      4  CD  LYS A 135      30.346  34.352   8.535  1.00 32.00     0.041 C 
BRANCH   4   5
ATOM      5  CE  LYS A 135      28.833  34.372   8.431  1.00 34.25     0.338 C 
ATOM      6  NZ  LYS A 135      28.202  33.857   9.678  1.00 35.99     0.618 N 
ENDBRANCH   4   5
ENDBRANCH   3   4
ENDBRANCH   2   3
ENDBRANCH   1   2
END_RES LYS A 135
BEGIN_RES TYR A 136
REMARK  2 active torsions:
REMARK  status: ('A' for Active; 'I' for Inactive)
REMARK    5  A    between atoms: CA   and  CB  
REMARK    6  A    between atoms: CB   and  CG  
ROOT
ATOM      7  CA  TYR A 136      36.583  36.399   8.994  1.00 26.14     0.191 C 
ENDROOT
BRANCH   7   8
ATOM      8  CB  TYR A 136      37.367  36.835  10.240  1.00 28.16     0.060 C 
BRANCH   8   9
ATOM      9  CG  TYR A 136      36.667  37.924  11.014  1.00 31.88    -0.020 A 
ATOM     10  CD2 TYR A 136      36.562  37.870  12.406  1.00 32.67    -0.002 A 
ATOM     11  CE2 TYR A 136      35.908  38.886  13.116  1.00 33.89     0.027 A 
ATOM     12  CZ  TYR A 136      35.353  39.967  12.426  1.00 34.34     0.131 A 
ATOM     13  OH  TYR A 136      34.707  40.989  13.109  1.00 35.14    -0.190 OA
ATOM     14  CE1 TYR A 136      35.447  40.037  11.044  1.00 35.01     0.027 A 
ATOM     15  CD1 TYR A 136      36.095  39.016  10.347  1.00 33.57    -0.002 A 
ENDBRANCH   8   9
ENDBRANCH   7   8
END_RES TYR A 136
BEGIN_RES ASN A 133
REMARK  2 active torsions:
REMARK  status: ('A' for Active; 'I' for Inactive)
REMARK    7  A    between atoms: CA   and  CB  
REMARK    8  A    between atoms: CB   and  CG  
ROOT
ATOM     16  CA  ASN A 133      31.225  30.257  11.749  1.00 18.15     0.196 C 
ENDROOT
BRANCH  16  17
ATOM     17  CB  ASN A 133      30.092  31.240  11.460  1.00 18.27     0.126 C 
BRANCH  17  18
ATOM     18  CG  ASN A 133      28.764  30.574  11.271  1.00 18.94     0.276 C 
ATOM     19  OD1 ASN A 133      28.646  29.580  10.551  1.00 18.09    -0.269 OA
ATOM     20  ND2 ASN A 133      27.739  31.122  11.922  1.00 18.93    -0.107 N 
ENDBRANCH  17  18
ENDBRANCH  16  17
END_RES ASN A 133
