REMARK VINA RESULT:    -4.034      0.000      0.000
REMARK INTER + INTRA:          -8.407
REMARK INTER:                  -4.707
REMARK INTRA:                  -3.699
REMARK UNBOUND:                -3.429
REMARK SMILES COCC(C(N)=O)n1cc(C)nn1
REMARK SMILES IDX 3 1 4 2 8 3 11 4 10 5 9 6 12 7 13 8 5 9 7 10 6 11 2 14 1 15
REMARK H PARENT 6 12 6 13
REMARK Flexibility Score: inf
ROOT
ATOM      1  C   UNL     1      38.648  34.629  14.146  1.00  0.00     0.197 C 
ENDROOT
BRANCH   1   2
ATOM      2  C   UNL     1      37.402  33.909  13.645  1.00  0.00     0.223 C 
BRANCH   2   3
ATOM      3  N   UNL     1      36.304  34.830  13.462  1.00  0.00    -0.237 N 
ATOM      4  C   UNL     1      34.466  37.973  13.310  1.00  0.00     0.070 C 
ATOM      5  C   UNL     1      34.979  36.567  13.303  1.00  0.00     0.080 A 
ATOM      6  C   UNL     1      36.261  36.165  13.579  1.00  0.00     0.135 A 
ATOM      7  N   UNL     1      34.289  35.442  13.027  1.00  0.00    -0.136 NA
ATOM      8  N   UNL     1      35.081  34.411  13.123  1.00  0.00    -0.066 NA
ENDBRANCH   2   3
BRANCH   2   9
ATOM      9  C   UNL     1      37.750  33.181  12.422  1.00  0.00     0.244 C 
ATOM     10  O   UNL     1      38.387  32.101  12.511  1.00  0.00    -0.273 OA
ATOM     11  N   UNL     1      37.386  33.663  11.141  1.00  0.00    -0.368 N 
ATOM     12  H   UNL     1      36.616  34.351  10.974  1.00  0.00     0.159 HD
ATOM     13  H   UNL     1      37.881  33.347  10.258  1.00  0.00     0.159 HD
ENDBRANCH   2   9
ENDBRANCH   1   2
BRANCH   1  14
ATOM     14  O   UNL     1      39.420  34.969  13.039  1.00  0.00    -0.382 OA
ATOM     15  C   UNL     1      40.003  36.228  13.255  1.00  0.00     0.195 C 
ENDBRANCH   1  14
TORSDOF 4
BEGIN_RES LYS A 135
REMARK  4 active torsions:
REMARK  status: ('A' for Active; 'I' for Inactive)
REMARK    1  A    between atoms: CA   and  CB  
REMARK    2  A    between atoms: CB   and  CG  
REMARK    3  A    between atoms: CG   and  CD  
REMARK    4  A    between atoms: CD   and  CE  
ROOT
ATOM      1  CA  LYS A 135      33.193  34.663   9.290  1.00 25.02     0.186 C 
ENDROOT
BRANCH   1   2
ATOM      2  CB  LYS A 135      32.060  35.360  10.034  1.00 26.63     0.034 C 
BRANCH   2   3
ATOM      3  CG  LYS A 135      30.703  34.765   9.760  1.00 29.45     0.005 C 
BRANCH   3   4
ATOM      4  CD  LYS A 135      30.521  34.507   8.272  1.00 32.00     0.041 C 
BRANCH   4   5
ATOM      5  CE  LYS A 135      29.142  34.950   7.820  1.00 34.25     0.338 C 
ATOM      6  NZ  LYS A 135      28.080  34.355   8.677  1.00 35.99     0.618 N 
ENDBRANCH   4   5
ENDBRANCH   3   4
ENDBRANCH   2   3
ENDBRANCH   1   2
END_RES LYS A 135
BEGIN_RES TYR A 136
REMARK  2 active torsions:
REMARK  status: ('A' for Active; 'I' for Inactive)
REMARK    5  A    between atoms: CA   and  CB  
REMARK    6  A    between atoms: CB   and  CG  
ROOT
ATOM      7  CA  TYR A 136      36.583  36.399   8.994  1.00 26.14     0.191 C 
ENDROOT
BRANCH   7   8
ATOM      8  CB  TYR A 136      37.367  36.835  10.240  1.00 28.16     0.060 C 
BRANCH   8   9
ATOM      9  CG  TYR A 136      37.089  38.266  10.629  1.00 31.88    -0.020 A 
ATOM     10  CD2 TYR A 136      36.078  39.002  10.006  1.00 32.67    -0.002 A 
ATOM     11  CE2 TYR A 136      35.829  40.331  10.374  1.00 33.89     0.027 A 
ATOM     12  CZ  TYR A 136      36.598  40.930  11.375  1.00 34.34     0.131 A 
ATOM     13  OH  TYR A 136      36.364  42.242  11.760  1.00 35.14    -0.190 OA
ATOM     14  CE1 TYR A 136      37.606  40.214  12.004  1.00 35.01     0.027 A 
ATOM     15  CD1 TYR A 136      37.850  38.893  11.624  1.00 33.57    -0.002 A 
ENDBRANCH   8   9
ENDBRANCH   7   8
END_RES TYR A 136
BEGIN_RES ASN A 133
REMARK  2 active torsions:
REMARK  status: ('A' for Active; 'I' for Inactive)
REMARK    7  A    between atoms: CA   and  CB  
REMARK    8  A    between atoms: CB   and  CG  
ROOT
ATOM     16  CA  ASN A 133      31.225  30.257  11.749  1.00 18.15     0.196 C 
ENDROOT
BRANCH  16  17
ATOM     17  CB  ASN A 133      30.092  31.240  11.460  1.00 18.27     0.126 C 
BRANCH  17  18
ATOM     18  CG  ASN A 133      28.754  30.580  11.331  1.00 18.94     0.276 C 
ATOM     19  OD1 ASN A 133      28.584  29.627  10.567  1.00 18.09    -0.269 OA
ATOM     20  ND2 ASN A 133      27.779  31.086  12.084  1.00 18.93    -0.107 N 
ENDBRANCH  17  18
ENDBRANCH  16  17
END_RES ASN A 133
