REMARK VINA RESULT:    -3.829      4.331      7.654
REMARK INTER + INTRA:          -7.700
REMARK INTER:                  -5.106
REMARK INTRA:                  -2.594
REMARK UNBOUND:                -3.423
REMARK SMILES Cc1cn(-c2ccccc2C(C)C)nn1
REMARK SMILES IDX 5 1 10 2 9 3 8 4 7 5 6 6 4 7 1 8 2 9 3 10 15 11 14 12 11 13
REMARK SMILES IDX 12 14 13 15
REMARK H PARENT
REMARK Flexibility Score: inf
ROOT
ATOM      1  C   UNL     1      25.051  37.088   8.166  1.00  0.00     0.070 A 
ATOM      2  C   UNL     1      25.080  35.982   8.982  1.00  0.00    -0.020 A 
ATOM      3  C   UNL     1      23.889  35.368   9.354  1.00  0.00     0.006 A 
ATOM      4  C   UNL     1      22.658  35.816   8.943  1.00  0.00     0.000 A 
ATOM      5  C   UNL     1      22.626  36.927   8.123  1.00  0.00     0.002 A 
ATOM      6  C   UNL     1      23.798  37.537   7.751  1.00  0.00     0.029 A 
ENDROOT
BRANCH   1   7
ATOM      7  N   UNL     1      26.242  37.765   7.741  1.00  0.00    -0.220 N 
ATOM      8  C   UNL     1      29.146  38.471   5.617  1.00  0.00     0.070 C 
ATOM      9  C   UNL     1      28.078  38.409   6.633  1.00  0.00     0.080 A 
ATOM     10  C   UNL     1      27.003  37.516   6.663  1.00  0.00     0.140 A 
ATOM     11  N   UNL     1      27.900  39.181   7.739  1.00  0.00    -0.135 NA
ATOM     12  N   UNL     1      26.821  38.779   8.363  1.00  0.00    -0.062 NA
ENDBRANCH   1   7
BRANCH   2  13
ATOM     13  C   UNL     1      26.393  35.475   9.449  1.00  0.00     0.015 C 
ATOM     14  C   UNL     1      26.855  34.335   8.548  1.00  0.00     0.012 C 
ATOM     15  C   UNL     1      26.271  34.912  10.867  1.00  0.00     0.012 C 
ENDBRANCH   2  13
TORSDOF 2
BEGIN_RES LYS A 135
REMARK  4 active torsions:
REMARK  status: ('A' for Active; 'I' for Inactive)
REMARK    1  A    between atoms: CA   and  CB  
REMARK    2  A    between atoms: CB   and  CG  
REMARK    3  A    between atoms: CG   and  CD  
REMARK    4  A    between atoms: CD   and  CE  
ROOT
ATOM      1  CA  LYS A 135      33.193  34.663   9.290  1.00 25.02     0.186 C 
ENDROOT
BRANCH   1   2
ATOM      2  CB  LYS A 135      32.060  35.360  10.034  1.00 26.63     0.034 C 
BRANCH   2   3
ATOM      3  CG  LYS A 135      30.711  35.175   9.388  1.00 29.45     0.005 C 
BRANCH   3   4
ATOM      4  CD  LYS A 135      30.058  36.521   9.115  1.00 32.00     0.041 C 
BRANCH   4   5
ATOM      5  CE  LYS A 135      30.919  37.649   9.650  1.00 34.25     0.338 C 
ATOM      6  NZ  LYS A 135      31.307  38.589   8.563  1.00 35.99     0.618 N 
ENDBRANCH   4   5
ENDBRANCH   3   4
ENDBRANCH   2   3
ENDBRANCH   1   2
END_RES LYS A 135
BEGIN_RES TYR A 136
REMARK  2 active torsions:
REMARK  status: ('A' for Active; 'I' for Inactive)
REMARK    5  A    between atoms: CA   and  CB  
REMARK    6  A    between atoms: CB   and  CG  
ROOT
ATOM      7  CA  TYR A 136      36.583  36.399   8.994  1.00 26.14     0.191 C 
ENDROOT
BRANCH   7   8
ATOM      8  CB  TYR A 136      37.367  36.835  10.240  1.00 28.16     0.060 C 
BRANCH   8   9
ATOM      9  CG  TYR A 136      37.194  38.301  10.551  1.00 31.88    -0.020 A 
ATOM     10  CD2 TYR A 136      36.441  39.133   9.719  1.00 32.67    -0.002 A 
ATOM     11  CE2 TYR A 136      36.287  40.494  10.016  1.00 33.89     0.027 A 
ATOM     12  CZ  TYR A 136      36.893  41.028  11.155  1.00 34.34     0.131 A 
ATOM     13  OH  TYR A 136      36.749  42.372  11.473  1.00 35.14    -0.190 OA
ATOM     14  CE1 TYR A 136      37.646  40.217  11.992  1.00 35.01     0.027 A 
ATOM     15  CD1 TYR A 136      37.797  38.864  11.683  1.00 33.57    -0.002 A 
ENDBRANCH   8   9
ENDBRANCH   7   8
END_RES TYR A 136
BEGIN_RES ASN A 133
REMARK  2 active torsions:
REMARK  status: ('A' for Active; 'I' for Inactive)
REMARK    7  A    between atoms: CA   and  CB  
REMARK    8  A    between atoms: CB   and  CG  
ROOT
ATOM     16  CA  ASN A 133      31.225  30.257  11.749  1.00 18.15     0.196 C 
ENDROOT
BRANCH  16  17
ATOM     17  CB  ASN A 133      30.092  31.240  11.460  1.00 18.27     0.126 C 
BRANCH  17  18
ATOM     18  CG  ASN A 133      28.756  30.578  11.317  1.00 18.94     0.276 C 
ATOM     19  OD1 ASN A 133      28.600  29.611  10.570  1.00 18.09    -0.269 OA
ATOM     20  ND2 ASN A 133      27.767  31.100  12.041  1.00 18.93    -0.107 N 
ENDBRANCH  17  18
ENDBRANCH  16  17
END_RES ASN A 133
