REMARK VINA RESULT:    -4.727      0.000      0.000
REMARK INTER + INTRA:          -8.667
REMARK INTER:                  -5.445
REMARK INTRA:                  -3.222
REMARK UNBOUND:                -3.249
REMARK SMILES Cc1cn(-c2ccc(S(N)(=O)=O)cc2)nn1
REMARK SMILES IDX 5 1 6 2 7 3 8 4 13 5 14 6 4 7 1 8 2 9 3 10 16 11 15 12 9 13
REMARK SMILES IDX 11 14 12 15 10 16
REMARK H PARENT 10 17 10 18
REMARK Flexibility Score: inf
ROOT
ATOM      1  C   UNL     1      34.762  39.144   5.064  1.00  0.00     0.066 A 
ATOM      2  C   UNL     1      34.527  39.548   3.766  1.00  0.00     0.030 A 
ATOM      3  C   UNL     1      35.353  39.141   2.712  1.00  0.00     0.024 A 
ATOM      4  C   UNL     1      36.432  38.318   2.948  1.00  0.00     0.082 A 
ATOM      5  C   UNL     1      36.672  37.913   4.231  1.00  0.00     0.024 A 
ATOM      6  C   UNL     1      35.863  38.312   5.262  1.00  0.00     0.030 A 
ENDROOT
BRANCH   1   7
ATOM      7  N   UNL     1      33.959  39.526   6.167  1.00  0.00    -0.220 N 
ATOM      8  C   UNL     1      33.570  40.466   9.654  1.00  0.00     0.070 C 
ATOM      9  C   UNL     1      33.388  40.127   8.238  1.00  0.00     0.080 A 
ATOM     10  C   UNL     1      34.441  39.779   7.392  1.00  0.00     0.140 A 
ATOM     11  N   UNL     1      32.297  40.066   7.465  1.00  0.00    -0.135 NA
ATOM     12  N   UNL     1      32.655  39.705   6.228  1.00  0.00    -0.062 NA
ENDBRANCH   1   7
BRANCH   4  13
ATOM     13  S   UNL     1      37.463  37.810   1.629  1.00  0.00     0.238 S 
ATOM     14  O   UNL     1      37.692  38.969   0.698  1.00  0.00    -0.207 OA
ATOM     15  O   UNL     1      38.776  37.325   2.128  1.00  0.00    -0.207 OA
BRANCH  13  16
ATOM     16  N   UNL     1      36.641  36.591   0.720  1.00  0.00    -0.225 NA
ATOM     17  H   UNL     1      36.667  35.691   1.255  1.00  0.00     0.137 HD
ATOM     18  H   UNL     1      35.634  36.909   0.657  1.00  0.00     0.137 HD
ENDBRANCH  13  16
ENDBRANCH   4  13
TORSDOF 3
BEGIN_RES LYS A 135
REMARK  4 active torsions:
REMARK  status: ('A' for Active; 'I' for Inactive)
REMARK    1  A    between atoms: CA   and  CB  
REMARK    2  A    between atoms: CB   and  CG  
REMARK    3  A    between atoms: CG   and  CD  
REMARK    4  A    between atoms: CD   and  CE  
ROOT
ATOM      1  CA  LYS A 135      33.193  34.663   9.290  1.00 25.02     0.186 C 
ENDROOT
BRANCH   1   2
ATOM      2  CB  LYS A 135      32.060  35.360  10.034  1.00 26.63     0.034 C 
BRANCH   2   3
ATOM      3  CG  LYS A 135      30.709  34.735   9.797  1.00 29.45     0.005 C 
BRANCH   3   4
ATOM      4  CD  LYS A 135      30.469  34.527   8.309  1.00 32.00     0.041 C 
BRANCH   4   5
ATOM      5  CE  LYS A 135      29.026  34.834   7.955  1.00 34.25     0.338 C 
ATOM      6  NZ  LYS A 135      28.933  35.534   6.644  1.00 35.99     0.618 N 
ENDBRANCH   4   5
ENDBRANCH   3   4
ENDBRANCH   2   3
ENDBRANCH   1   2
END_RES LYS A 135
BEGIN_RES TYR A 136
REMARK  2 active torsions:
REMARK  status: ('A' for Active; 'I' for Inactive)
REMARK    5  A    between atoms: CA   and  CB  
REMARK    6  A    between atoms: CB   and  CG  
ROOT
ATOM      7  CA  TYR A 136      36.583  36.399   8.994  1.00 26.14     0.191 C 
ENDROOT
BRANCH   7   8
ATOM      8  CB  TYR A 136      37.367  36.835  10.240  1.00 28.16     0.060 C 
BRANCH   8   9
ATOM      9  CG  TYR A 136      37.228  38.310  10.526  1.00 31.88    -0.020 A 
ATOM     10  CD2 TYR A 136      36.821  38.768  11.782  1.00 32.67    -0.002 A 
ATOM     11  CE2 TYR A 136      36.694  40.140  12.037  1.00 33.89     0.027 A 
ATOM     12  CZ  TYR A 136      36.975  41.063  11.026  1.00 34.34     0.131 A 
ATOM     13  OH  TYR A 136      36.863  42.426  11.258  1.00 35.14    -0.190 OA
ATOM     14  CE1 TYR A 136      37.379  40.625   9.773  1.00 35.01     0.027 A 
ATOM     15  CD1 TYR A 136      37.497  39.256   9.529  1.00 33.57    -0.002 A 
ENDBRANCH   8   9
ENDBRANCH   7   8
END_RES TYR A 136
BEGIN_RES ASN A 133
REMARK  2 active torsions:
REMARK  status: ('A' for Active; 'I' for Inactive)
REMARK    7  A    between atoms: CA   and  CB  
REMARK    8  A    between atoms: CB   and  CG  
ROOT
ATOM     16  CA  ASN A 133      31.225  30.257  11.749  1.00 18.15     0.196 C 
ENDROOT
BRANCH  16  17
ATOM     17  CB  ASN A 133      30.092  31.240  11.460  1.00 18.27     0.126 C 
BRANCH  17  18
ATOM     18  CG  ASN A 133      28.749  30.584  11.367  1.00 18.94     0.276 C 
ATOM     19  OD1 ASN A 133      28.568  29.599  10.649  1.00 18.09    -0.269 OA
ATOM     20  ND2 ASN A 133      27.781  31.132  12.101  1.00 18.93    -0.107 N 
ENDBRANCH  17  18
ENDBRANCH  16  17
END_RES ASN A 133
