REMARK VINA RESULT:    -3.680      5.976     10.569
REMARK INTER + INTRA:          -7.688
REMARK INTER:                  -5.251
REMARK INTRA:                  -2.436
REMARK UNBOUND:                -3.470
REMARK SMILES Cc1cn(-c2ccc(O)c([N+](=O)[O-])c2)nn1
REMARK SMILES IDX 5 1 6 2 7 3 8 4 10 5 14 6 4 7 1 8 2 9 3 10 16 11 15 12 11 13
REMARK SMILES IDX 12 14 13 15 9 16
REMARK H PARENT 9 17
REMARK Flexibility Score: inf
ROOT
ATOM      1  C   UNL     1      27.089  37.495   6.471  1.00  0.00     0.073 A 
ATOM      2  C   UNL     1      27.962  36.470   6.173  1.00  0.00     0.033 A 
ATOM      3  C   UNL     1      27.969  35.315   6.928  1.00  0.00     0.056 A 
ATOM      4  C   UNL     1      27.101  35.208   7.968  1.00  0.00     0.194 A 
ATOM      5  C   UNL     1      26.213  36.212   8.295  1.00  0.00     0.312 A 
ATOM      6  C   UNL     1      26.235  37.351   7.518  1.00  0.00     0.118 A 
ENDROOT
BRANCH   1   7
ATOM      7  N   UNL     1      27.127  38.676   5.647  1.00  0.00    -0.220 N 
ATOM      8  C   UNL     1      26.421  42.188   4.816  1.00  0.00     0.070 C 
ATOM      9  C   UNL     1      26.826  40.761   4.921  1.00  0.00     0.080 A 
ATOM     10  C   UNL     1      26.590  39.872   5.950  1.00  0.00     0.140 A 
ATOM     11  N   UNL     1      27.517  40.057   4.005  1.00  0.00    -0.135 NA
ATOM     12  N   UNL     1      27.685  38.815   4.461  1.00  0.00    -0.062 NA
ENDBRANCH   1   7
BRANCH   5  13
ATOM     13  N   UNL     1      25.312  36.055   9.403  1.00  0.00     0.066 N 
ATOM     14  O   UNL     1      24.082  35.921   9.252  1.00  0.00    -0.258 OA
ATOM     15  O   UNL     1      25.875  36.059  10.656  1.00  0.00    -0.258 OA
ENDBRANCH   5  13
BRANCH   4  16
ATOM     16  O   UNL     1      27.093  34.066   8.731  1.00  0.00    -0.502 OA
ATOM     17  H   UNL     1      26.253  33.598   9.039  1.00  0.00     0.293 HD
ENDBRANCH   4  16
TORSDOF 3
BEGIN_RES LYS A 135
REMARK  4 active torsions:
REMARK  status: ('A' for Active; 'I' for Inactive)
REMARK    1  A    between atoms: CA   and  CB  
REMARK    2  A    between atoms: CB   and  CG  
REMARK    3  A    between atoms: CG   and  CD  
REMARK    4  A    between atoms: CD   and  CE  
ROOT
ATOM      1  CA  LYS A 135      33.193  34.663   9.290  1.00 25.02     0.186 C 
ENDROOT
BRANCH   1   2
ATOM      2  CB  LYS A 135      32.060  35.360  10.034  1.00 26.63     0.034 C 
BRANCH   2   3
ATOM      3  CG  LYS A 135      30.800  35.499   9.219  1.00 29.45     0.005 C 
BRANCH   3   4
ATOM      4  CD  LYS A 135      30.402  36.962   9.093  1.00 32.00     0.041 C 
BRANCH   4   5
ATOM      5  CE  LYS A 135      29.333  37.313  10.110  1.00 34.25     0.338 C 
ATOM      6  NZ  LYS A 135      28.680  38.609   9.776  1.00 35.99     0.618 N 
ENDBRANCH   4   5
ENDBRANCH   3   4
ENDBRANCH   2   3
ENDBRANCH   1   2
END_RES LYS A 135
BEGIN_RES TYR A 136
REMARK  2 active torsions:
REMARK  status: ('A' for Active; 'I' for Inactive)
REMARK    5  A    between atoms: CA   and  CB  
REMARK    6  A    between atoms: CB   and  CG  
ROOT
ATOM      7  CA  TYR A 136      36.583  36.399   8.994  1.00 26.14     0.191 C 
ENDROOT
BRANCH   7   8
ATOM      8  CB  TYR A 136      37.367  36.835  10.240  1.00 28.16     0.060 C 
BRANCH   8   9
ATOM      9  CG  TYR A 136      37.240  38.313  10.518  1.00 31.88    -0.020 A 
ATOM     10  CD2 TYR A 136      36.338  39.107   9.807  1.00 32.67    -0.002 A 
ATOM     11  CE2 TYR A 136      36.229  40.479  10.071  1.00 33.89     0.027 A 
ATOM     12  CZ  TYR A 136      37.030  41.062  11.057  1.00 34.34     0.131 A 
ATOM     13  OH  TYR A 136      36.933  42.417  11.341  1.00 35.14    -0.190 OA
ATOM     14  CE1 TYR A 136      37.932  40.287  11.772  1.00 35.01     0.027 A 
ATOM     15  CD1 TYR A 136      38.036  38.923  11.495  1.00 33.57    -0.002 A 
ENDBRANCH   8   9
ENDBRANCH   7   8
END_RES TYR A 136
BEGIN_RES ASN A 133
REMARK  2 active torsions:
REMARK  status: ('A' for Active; 'I' for Inactive)
REMARK    7  A    between atoms: CA   and  CB  
REMARK    8  A    between atoms: CB   and  CG  
ROOT
ATOM     16  CA  ASN A 133      31.225  30.257  11.749  1.00 18.15     0.196 C 
ENDROOT
BRANCH  16  17
ATOM     17  CB  ASN A 133      30.092  31.240  11.460  1.00 18.27     0.126 C 
BRANCH  17  18
ATOM     18  CG  ASN A 133      28.756  30.578  11.319  1.00 18.94     0.276 C 
ATOM     19  OD1 ASN A 133      28.598  29.613  10.570  1.00 18.09    -0.269 OA
ATOM     20  ND2 ASN A 133      27.768  31.099  12.046  1.00 18.93    -0.107 N 
ENDBRANCH  17  18
ENDBRANCH  16  17
END_RES ASN A 133
