REMARK VINA RESULT:    -5.585      1.680      4.914
REMARK INTER + INTRA:          -8.896
REMARK INTER:                  -5.840
REMARK INTRA:                  -3.057
REMARK UNBOUND:                -2.985
REMARK SMILES Cc1cn(-c2c3ccccc3nc3ccccc23)nn1
REMARK SMILES IDX 5 1 6 2 7 3 8 4 9 5 10 6 11 7 12 8 13 9 14 10 15 11 16 12
REMARK SMILES IDX 17 13 18 14 4 15 1 16 2 17 3 18 20 19 19 20
REMARK H PARENT
REMARK Flexibility Score: inf
ROOT
ATOM      1  C   UNL     1      32.848  35.585  13.771  1.00  0.00     0.085 A 
ATOM      2  C   UNL     1      31.940  34.842  14.505  1.00  0.00     0.027 A 
ATOM      3  C   UNL     1      32.372  33.843  15.351  1.00  0.00     0.012 A 
ATOM      4  C   UNL     1      31.446  33.117  16.070  1.00  0.00     0.001 A 
ATOM      5  C   UNL     1      30.113  33.428  15.910  1.00  0.00     0.002 A 
ATOM      6  C   UNL     1      29.690  34.421  15.070  1.00  0.00     0.029 A 
ATOM      7  C   UNL     1      30.611  35.167  14.333  1.00  0.00     0.073 A 
ATOM      8  N   UNL     1      30.174  36.135  13.514  1.00  0.00    -0.248 NA
ATOM      9  C   UNL     1      31.065  36.873  12.786  1.00  0.00     0.073 A 
ATOM     10  C   UNL     1      30.624  37.873  11.941  1.00  0.00     0.029 A 
ATOM     11  C   UNL     1      31.572  38.580  11.235  1.00  0.00     0.002 A 
ATOM     12  C   UNL     1      32.921  38.309  11.358  1.00  0.00     0.001 A 
ATOM     13  C   UNL     1      33.335  37.323  12.195  1.00  0.00     0.012 A 
ATOM     14  C   UNL     1      32.407  36.602  12.911  1.00  0.00     0.027 A 
ENDROOT
BRANCH   1  15
ATOM     15  N   UNL     1      34.240  35.331  13.875  1.00  0.00    -0.219 N 
ATOM     16  C   UNL     1      37.427  33.734  13.007  1.00  0.00     0.070 C 
ATOM     17  C   UNL     1      36.270  34.527  13.556  1.00  0.00     0.080 A 
ATOM     18  C   UNL     1      34.959  34.475  13.140  1.00  0.00     0.140 A 
ATOM     19  N   UNL     1      36.322  35.423  14.550  1.00  0.00    -0.135 NA
ATOM     20  N   UNL     1      35.096  35.875  14.706  1.00  0.00    -0.062 NA
ENDBRANCH   1  15
TORSDOF 1
BEGIN_RES LYS A 135
REMARK  4 active torsions:
REMARK  status: ('A' for Active; 'I' for Inactive)
REMARK    1  A    between atoms: CA   and  CB  
REMARK    2  A    between atoms: CB   and  CG  
REMARK    3  A    between atoms: CG   and  CD  
REMARK    4  A    between atoms: CD   and  CE  
ROOT
ATOM      1  CA  LYS A 135      33.193  34.663   9.290  1.00 25.02     0.186 C 
ENDROOT
BRANCH   1   2
ATOM      2  CB  LYS A 135      32.060  35.360  10.034  1.00 26.63     0.034 C 
BRANCH   2   3
ATOM      3  CG  LYS A 135      30.808  35.521   9.211  1.00 29.45     0.005 C 
BRANCH   3   4
ATOM      4  CD  LYS A 135      30.156  34.171   8.955  1.00 32.00     0.041 C 
BRANCH   4   5
ATOM      5  CE  LYS A 135      28.687  34.344   8.621  1.00 34.25     0.338 C 
ATOM      6  NZ  LYS A 135      27.824  33.682   9.638  1.00 35.99     0.618 N 
ENDBRANCH   4   5
ENDBRANCH   3   4
ENDBRANCH   2   3
ENDBRANCH   1   2
END_RES LYS A 135
BEGIN_RES TYR A 136
REMARK  2 active torsions:
REMARK  status: ('A' for Active; 'I' for Inactive)
REMARK    5  A    between atoms: CA   and  CB  
REMARK    6  A    between atoms: CB   and  CG  
ROOT
ATOM      7  CA  TYR A 136      36.583  36.399   8.994  1.00 26.14     0.191 C 
ENDROOT
BRANCH   7   8
ATOM      8  CB  TYR A 136      37.367  36.835  10.240  1.00 28.16     0.060 C 
BRANCH   8   9
ATOM      9  CG  TYR A 136      36.850  38.124  10.829  1.00 31.88    -0.020 A 
ATOM     10  CD2 TYR A 136      36.374  39.153  10.013  1.00 32.67    -0.002 A 
ATOM     11  CE2 TYR A 136      35.897  40.347  10.570  1.00 33.89     0.027 A 
ATOM     12  CZ  TYR A 136      35.897  40.514  11.958  1.00 34.34     0.131 A 
ATOM     13  OH  TYR A 136      35.423  41.685  12.532  1.00 35.14    -0.190 OA
ATOM     14  CE1 TYR A 136      36.367  39.503  12.783  1.00 35.01     0.027 A 
ATOM     15  CD1 TYR A 136      36.845  38.320  12.216  1.00 33.57    -0.002 A 
ENDBRANCH   8   9
ENDBRANCH   7   8
END_RES TYR A 136
BEGIN_RES ASN A 133
REMARK  2 active torsions:
REMARK  status: ('A' for Active; 'I' for Inactive)
REMARK    7  A    between atoms: CA   and  CB  
REMARK    8  A    between atoms: CB   and  CG  
ROOT
ATOM     16  CA  ASN A 133      31.225  30.257  11.749  1.00 18.15     0.196 C 
ENDROOT
BRANCH  16  17
ATOM     17  CB  ASN A 133      30.092  31.240  11.460  1.00 18.27     0.126 C 
BRANCH  17  18
ATOM     18  CG  ASN A 133      28.750  30.584  11.364  1.00 18.94     0.276 C 
ATOM     19  OD1 ASN A 133      28.565  29.612  10.629  1.00 18.09    -0.269 OA
ATOM     20  ND2 ASN A 133      27.786  31.116  12.115  1.00 18.93    -0.107 N 
ENDBRANCH  17  18
ENDBRANCH  16  17
END_RES ASN A 133
