REMARK VINA RESULT:    -3.012      8.040     12.603
REMARK INTER + INTRA:          -6.944
REMARK INTER:                  -4.226
REMARK INTRA:                  -2.717
REMARK UNBOUND:                -3.227
REMARK SMILES CCOC(=O)Cn1cc(C)nn1
REMARK SMILES IDX 4 1 5 2 6 3 7 4 10 5 9 6 8 7 11 8 12 9 3 10 2 11 1 12
REMARK H PARENT
REMARK Flexibility Score: inf
ROOT
ATOM      1  C   UNL     1      33.014  35.983  12.890  1.00  0.00     0.327 C 
ATOM      2  O   UNL     1      32.005  35.245  12.655  1.00  0.00    -0.250 OA
ENDROOT
BRANCH   1   3
ATOM      3  C   UNL     1      33.757  35.750  14.141  1.00  0.00     0.268 C 
BRANCH   3   4
ATOM      4  N   UNL     1      35.053  35.167  13.908  1.00  0.00    -0.241 N 
ATOM      5  C   UNL     1      37.612  33.116  12.324  1.00  0.00     0.070 C 
ATOM      6  C   UNL     1      36.740  34.014  13.124  1.00  0.00     0.080 A 
ATOM      7  C   UNL     1      35.417  34.318  12.957  1.00  0.00     0.134 A 
ATOM      8  N   UNL     1      37.171  34.711  14.211  1.00  0.00    -0.136 NA
ATOM      9  N   UNL     1      36.134  35.384  14.645  1.00  0.00    -0.067 NA
ENDBRANCH   3   4
ENDBRANCH   1   3
BRANCH   1  10
ATOM     10  O   UNL     1      33.302  36.925  11.936  1.00  0.00    -0.465 OA
BRANCH  10  11
ATOM     11  C   UNL     1      32.514  38.109  11.797  1.00  0.00     0.229 C 
ATOM     12  C   UNL     1      32.685  38.743  10.461  1.00  0.00     0.049 C 
ENDBRANCH  10  11
ENDBRANCH   1  10
TORSDOF 4
BEGIN_RES LYS A 135
REMARK  4 active torsions:
REMARK  status: ('A' for Active; 'I' for Inactive)
REMARK    1  A    between atoms: CA   and  CB  
REMARK    2  A    between atoms: CB   and  CG  
REMARK    3  A    between atoms: CG   and  CD  
REMARK    4  A    between atoms: CD   and  CE  
ROOT
ATOM      1  CA  LYS A 135      33.193  34.663   9.290  1.00 25.02     0.186 C 
ENDROOT
BRANCH   1   2
ATOM      2  CB  LYS A 135      32.060  35.360  10.034  1.00 26.63     0.034 C 
BRANCH   2   3
ATOM      3  CG  LYS A 135      30.848  35.622   9.177  1.00 29.45     0.005 C 
BRANCH   3   4
ATOM      4  CD  LYS A 135      30.237  34.315   8.698  1.00 32.00     0.041 C 
BRANCH   4   5
ATOM      5  CE  LYS A 135      28.819  34.538   8.207  1.00 34.25     0.338 C 
ATOM      6  NZ  LYS A 135      28.803  35.392   6.987  1.00 35.99     0.618 N 
ENDBRANCH   4   5
ENDBRANCH   3   4
ENDBRANCH   2   3
ENDBRANCH   1   2
END_RES LYS A 135
BEGIN_RES TYR A 136
REMARK  2 active torsions:
REMARK  status: ('A' for Active; 'I' for Inactive)
REMARK    5  A    between atoms: CA   and  CB  
REMARK    6  A    between atoms: CB   and  CG  
ROOT
ATOM      7  CA  TYR A 136      36.583  36.399   8.994  1.00 26.14     0.191 C 
ENDROOT
BRANCH   7   8
ATOM      8  CB  TYR A 136      37.367  36.835  10.240  1.00 28.16     0.060 C 
BRANCH   8   9
ATOM      9  CG  TYR A 136      36.787  38.068  10.889  1.00 31.88    -0.020 A 
ATOM     10  CD2 TYR A 136      36.526  39.221  10.145  1.00 32.67    -0.002 A 
ATOM     11  CE2 TYR A 136      35.989  40.362  10.758  1.00 33.89     0.027 A 
ATOM     12  CZ  TYR A 136      35.710  40.348  12.127  1.00 34.34     0.131 A 
ATOM     13  OH  TYR A 136      35.171  41.463  12.753  1.00 35.14    -0.190 OA
ATOM     14  CE1 TYR A 136      35.964  39.211  12.880  1.00 35.01     0.027 A 
ATOM     15  CD1 TYR A 136      36.506  38.084  12.261  1.00 33.57    -0.002 A 
ENDBRANCH   8   9
ENDBRANCH   7   8
END_RES TYR A 136
BEGIN_RES ASN A 133
REMARK  2 active torsions:
REMARK  status: ('A' for Active; 'I' for Inactive)
REMARK    7  A    between atoms: CA   and  CB  
REMARK    8  A    between atoms: CB   and  CG  
ROOT
ATOM     16  CA  ASN A 133      31.225  30.257  11.749  1.00 18.15     0.196 C 
ENDROOT
BRANCH  16  17
ATOM     17  CB  ASN A 133      30.092  31.240  11.460  1.00 18.27     0.126 C 
BRANCH  17  18
ATOM     18  CG  ASN A 133      28.746  30.588  11.394  1.00 18.94     0.276 C 
ATOM     19  OD1 ASN A 133      27.826  30.947  12.133  1.00 18.09    -0.269 OA
ATOM     20  ND2 ASN A 133      28.615  29.610  10.499  1.00 18.93    -0.107 N 
ENDBRANCH  17  18
ENDBRANCH  16  17
END_RES ASN A 133
