REMARK VINA RESULT:    -6.059      1.821      4.738
REMARK INTER + INTRA:          -9.355
REMARK INTER:                  -5.982
REMARK INTRA:                  -3.373
REMARK UNBOUND:                -1.880
REMARK SMILES Cc1cn(C(C)CC(=O)c2ccccc2)nn1
REMARK SMILES IDX 7 1 5 2 6 3 4 4 1 5 2 6 3 7 17 8 16 9 8 10 9 11 10 12 11 13
REMARK SMILES IDX 15 14 12 15 14 16 13 17
REMARK H PARENT
REMARK Flexibility Score: inf
ROOT
ATOM      1  C   UNL     1      33.033  34.541  14.386  1.00  0.00     0.108 C 
ENDROOT
BRANCH   1   2
ATOM      2  C   UNL     1      32.308  34.812  15.652  1.00  0.00     0.114 C 
ATOM      3  C   UNL     1      33.104  35.390  16.753  1.00  0.00     0.034 C 
BRANCH   2   4
ATOM      4  N   UNL     1      31.653  33.588  16.074  1.00  0.00    -0.249 N 
ATOM      5  C   UNL     1      30.017  31.611  18.644  1.00  0.00     0.070 C 
ATOM      6  C   UNL     1      30.626  32.157  17.421  1.00  0.00     0.080 A 
ATOM      7  C   UNL     1      31.195  33.412  17.327  1.00  0.00     0.134 A 
ATOM      8  N   UNL     1      30.761  31.609  16.199  1.00  0.00    -0.136 NA
ATOM      9  N   UNL     1      31.379  32.490  15.418  1.00  0.00    -0.067 NA
ENDBRANCH   2   4
ENDBRANCH   1   2
BRANCH   1  10
ATOM     10  C   UNL     1      34.057  35.533  14.029  1.00  0.00     0.164 C 
ATOM     11  O   UNL     1      33.839  36.747  13.851  1.00  0.00    -0.294 OA
BRANCH  10  12
ATOM     12  C   UNL     1      35.428  35.062  13.874  1.00  0.00     0.018 A 
ATOM     13  C   UNL     1      36.432  35.396  14.779  1.00  0.00     0.012 A 
ATOM     14  C   UNL     1      35.827  34.252  12.819  1.00  0.00     0.012 A 
ATOM     15  C   UNL     1      37.732  34.956  14.640  1.00  0.00     0.001 A 
ATOM     16  C   UNL     1      37.096  33.797  12.645  1.00  0.00     0.001 A 
ATOM     17  C   UNL     1      38.060  34.148  13.560  1.00  0.00     0.000 A 
ENDBRANCH  10  12
ENDBRANCH   1  10
TORSDOF 4
BEGIN_RES LYS A 135
REMARK  4 active torsions:
REMARK  status: ('A' for Active; 'I' for Inactive)
REMARK    1  A    between atoms: CA   and  CB  
REMARK    2  A    between atoms: CB   and  CG  
REMARK    3  A    between atoms: CG   and  CD  
REMARK    4  A    between atoms: CD   and  CE  
ROOT
ATOM      1  CA  LYS A 135      33.193  34.663   9.290  1.00 25.02     0.186 C 
ENDROOT
BRANCH   1   2
ATOM      2  CB  LYS A 135      32.060  35.360  10.034  1.00 26.63     0.034 C 
BRANCH   2   3
ATOM      3  CG  LYS A 135      30.762  34.595  10.009  1.00 29.45     0.005 C 
BRANCH   3   4
ATOM      4  CD  LYS A 135      30.334  34.312   8.577  1.00 32.00     0.041 C 
BRANCH   4   5
ATOM      5  CE  LYS A 135      28.850  34.574   8.403  1.00 34.25     0.338 C 
ATOM      6  NZ  LYS A 135      28.050  33.815   9.404  1.00 35.99     0.618 N 
ENDBRANCH   4   5
ENDBRANCH   3   4
ENDBRANCH   2   3
ENDBRANCH   1   2
END_RES LYS A 135
BEGIN_RES TYR A 136
REMARK  2 active torsions:
REMARK  status: ('A' for Active; 'I' for Inactive)
REMARK    5  A    between atoms: CA   and  CB  
REMARK    6  A    between atoms: CB   and  CG  
ROOT
ATOM      7  CA  TYR A 136      36.583  36.399   8.994  1.00 26.14     0.191 C 
ENDROOT
BRANCH   7   8
ATOM      8  CB  TYR A 136      37.367  36.835  10.240  1.00 28.16     0.060 C 
BRANCH   8   9
ATOM      9  CG  TYR A 136      36.721  37.997  10.955  1.00 31.88    -0.020 A 
ATOM     10  CD2 TYR A 136      36.004  38.969  10.254  1.00 32.67    -0.002 A 
ATOM     11  CE2 TYR A 136      35.410  40.045  10.927  1.00 33.89     0.027 A 
ATOM     12  CZ  TYR A 136      35.534  40.149  12.314  1.00 34.34     0.131 A 
ATOM     13  OH  TYR A 136      34.948  41.202  13.003  1.00 35.14    -0.190 OA
ATOM     14  CE1 TYR A 136      36.244  39.193  13.027  1.00 35.01     0.027 A 
ATOM     15  CD1 TYR A 136      36.837  38.129  12.344  1.00 33.57    -0.002 A 
ENDBRANCH   8   9
ENDBRANCH   7   8
END_RES TYR A 136
BEGIN_RES ASN A 133
REMARK  2 active torsions:
REMARK  status: ('A' for Active; 'I' for Inactive)
REMARK    7  A    between atoms: CA   and  CB  
REMARK    8  A    between atoms: CB   and  CG  
ROOT
ATOM     16  CA  ASN A 133      31.225  30.257  11.749  1.00 18.15     0.196 C 
ENDROOT
BRANCH  16  17
ATOM     17  CB  ASN A 133      30.092  31.240  11.460  1.00 18.27     0.126 C 
BRANCH  17  18
ATOM     18  CG  ASN A 133      28.752  30.581  11.344  1.00 18.94     0.276 C 
ATOM     19  OD1 ASN A 133      28.585  29.600  10.617  1.00 18.09    -0.269 OA
ATOM     20  ND2 ASN A 133      27.772  31.122  12.066  1.00 18.93    -0.107 N 
ENDBRANCH  17  18
ENDBRANCH  16  17
END_RES ASN A 133
