REMARK VINA RESULT:    -3.699      3.834      8.844
REMARK INTER + INTRA:          -7.575
REMARK INTER:                  -5.047
REMARK INTRA:                  -2.527
REMARK UNBOUND:                -3.226
REMARK SMILES COc1ccc(Cn2cc(C)nn2)cc1
REMARK SMILES IDX 6 1 5 2 4 3 3 4 15 5 14 6 7 7 8 8 11 9 10 10 9 11 12 12
REMARK SMILES IDX 13 13 2 14 1 15
REMARK H PARENT
REMARK Flexibility Score: inf
ROOT
ATOM      1  C   UNL     1      27.208  36.116   7.135  1.00  0.00    -0.026 A 
ATOM      2  C   UNL     1      26.184  37.029   7.345  1.00  0.00     0.009 A 
ATOM      3  C   UNL     1      25.222  36.772   8.323  1.00  0.00     0.047 A 
ATOM      4  C   UNL     1      25.315  35.610   9.059  1.00  0.00     0.118 A 
ATOM      5  C   UNL     1      26.348  34.727   8.820  1.00  0.00     0.047 A 
ATOM      6  C   UNL     1      27.313  34.956   7.859  1.00  0.00     0.009 A 
ENDROOT
BRANCH   1   7
ATOM      7  C   UNL     1      28.215  36.419   6.088  1.00  0.00     0.181 C 
BRANCH   7   8
ATOM      8  N   UNL     1      28.998  37.612   6.450  1.00  0.00    -0.248 N 
ATOM      9  C   UNL     1      30.543  40.885   5.935  1.00  0.00     0.070 C 
ATOM     10  C   UNL     1      30.017  39.556   6.397  1.00  0.00     0.080 A 
ATOM     11  C   UNL     1      29.254  38.673   5.671  1.00  0.00     0.134 A 
ATOM     12  N   UNL     1      30.205  39.004   7.604  1.00  0.00    -0.136 NA
ATOM     13  N   UNL     1      29.592  37.858   7.603  1.00  0.00    -0.067 NA
ENDBRANCH   7   8
ENDBRANCH   1   7
BRANCH   4  14
ATOM     14  O   UNL     1      24.339  35.394  10.020  1.00  0.00    -0.497 OA
ATOM     15  C   UNL     1      22.987  35.465   9.607  1.00  0.00     0.278 C 
ENDBRANCH   4  14
TORSDOF 3
BEGIN_RES LYS A 135
REMARK  4 active torsions:
REMARK  status: ('A' for Active; 'I' for Inactive)
REMARK    1  A    between atoms: CA   and  CB  
REMARK    2  A    between atoms: CB   and  CG  
REMARK    3  A    between atoms: CG   and  CD  
REMARK    4  A    between atoms: CD   and  CE  
ROOT
ATOM      1  CA  LYS A 135      33.193  34.663   9.290  1.00 25.02     0.186 C 
ENDROOT
BRANCH   1   2
ATOM      2  CB  LYS A 135      32.060  35.360  10.034  1.00 26.63     0.034 C 
BRANCH   2   3
ATOM      3  CG  LYS A 135      30.690  34.988   9.529  1.00 29.45     0.005 C 
BRANCH   3   4
ATOM      4  CD  LYS A 135      29.717  34.825  10.688  1.00 32.00     0.041 C 
BRANCH   4   5
ATOM      5  CE  LYS A 135      30.320  35.369  11.969  1.00 34.25     0.338 C 
ATOM      6  NZ  LYS A 135      30.082  34.440  13.109  1.00 35.99     0.618 N 
ENDBRANCH   4   5
ENDBRANCH   3   4
ENDBRANCH   2   3
ENDBRANCH   1   2
END_RES LYS A 135
BEGIN_RES TYR A 136
REMARK  2 active torsions:
REMARK  status: ('A' for Active; 'I' for Inactive)
REMARK    5  A    between atoms: CA   and  CB  
REMARK    6  A    between atoms: CB   and  CG  
ROOT
ATOM      7  CA  TYR A 136      36.583  36.399   8.994  1.00 26.14     0.191 C 
ENDROOT
BRANCH   7   8
ATOM      8  CB  TYR A 136      37.367  36.835  10.240  1.00 28.16     0.060 C 
BRANCH   8   9
ATOM      9  CG  TYR A 136      37.218  38.308  10.533  1.00 31.88    -0.020 A 
ATOM     10  CD2 TYR A 136      36.382  39.118   9.762  1.00 32.67    -0.002 A 
ATOM     11  CE2 TYR A 136      36.252  40.485  10.042  1.00 33.89     0.027 A 
ATOM     12  CZ  TYR A 136      36.965  41.047  11.103  1.00 34.34     0.131 A 
ATOM     13  OH  TYR A 136      36.847  42.397  11.403  1.00 35.14    -0.190 OA
ATOM     14  CE1 TYR A 136      37.801  40.257  11.879  1.00 35.01     0.027 A 
ATOM     15  CD1 TYR A 136      37.928  38.898  11.587  1.00 33.57    -0.002 A 
ENDBRANCH   8   9
ENDBRANCH   7   8
END_RES TYR A 136
BEGIN_RES ASN A 133
REMARK  2 active torsions:
REMARK  status: ('A' for Active; 'I' for Inactive)
REMARK    7  A    between atoms: CA   and  CB  
REMARK    8  A    between atoms: CB   and  CG  
ROOT
ATOM     16  CA  ASN A 133      31.225  30.257  11.749  1.00 18.15     0.196 C 
ENDROOT
BRANCH  16  17
ATOM     17  CB  ASN A 133      30.092  31.240  11.460  1.00 18.27     0.126 C 
BRANCH  17  18
ATOM     18  CG  ASN A 133      28.748  30.586  11.377  1.00 18.94     0.276 C 
ATOM     19  OD1 ASN A 133      28.562  29.596  10.667  1.00 18.09    -0.269 OA
ATOM     20  ND2 ASN A 133      27.783  31.140  12.111  1.00 18.93    -0.107 N 
ENDBRANCH  17  18
ENDBRANCH  16  17
END_RES ASN A 133
