REMARK VINA RESULT:    -3.934      6.197      9.497
REMARK INTER + INTRA:          -8.868
REMARK INTER:                  -5.021
REMARK INTRA:                  -3.847
REMARK UNBOUND:                -3.439
REMARK SMILES Cc1cn(C[C@H](CC(=O)O)CC(C)C)nn1
REMARK SMILES IDX 7 1 6 2 5 3 4 4 1 5 2 6 3 7 16 8 15 9 11 10 12 11 13 12
REMARK SMILES IDX 14 13 8 14 9 15 10 16
REMARK H PARENT 10 17
REMARK Flexibility Score: inf
ROOT
ATOM      1  C   UNL     1      38.236  37.542   2.654  1.00  0.00     0.128 C 
ENDROOT
BRANCH   1   2
ATOM      2  C   UNL     1      37.719  38.234   3.878  1.00  0.00     0.022 C 
BRANCH   2   3
ATOM      3  C   UNL     1      36.460  37.644   4.451  1.00  0.00     0.150 C 
BRANCH   3   4
ATOM      4  N   UNL     1      35.353  38.590   4.408  1.00  0.00    -0.252 N 
ATOM      5  C   UNL     1      32.777  40.655   5.908  1.00  0.00     0.070 C 
ATOM      6  C   UNL     1      33.732  39.915   5.057  1.00  0.00     0.080 A 
ATOM      7  C   UNL     1      34.721  39.036   5.503  1.00  0.00     0.134 A 
ATOM      8  N   UNL     1      33.820  39.950   3.729  1.00  0.00    -0.136 NA
ATOM      9  N   UNL     1      34.799  39.149   3.343  1.00  0.00    -0.067 NA
ENDBRANCH   3   4
ENDBRANCH   2   3
BRANCH   2  10
ATOM     10  C   UNL     1      38.696  38.824   4.781  1.00  0.00     0.009 C 
BRANCH  10  11
ATOM     11  C   UNL     1      38.678  40.208   5.243  1.00  0.00    -0.017 C 
ATOM     12  C   UNL     1      38.098  40.144   6.692  1.00  0.00     0.007 C 
ATOM     13  C   UNL     1      37.729  41.154   4.544  1.00  0.00     0.007 C 
ENDBRANCH  10  11
ENDBRANCH   2  10
ENDBRANCH   1   2
BRANCH   1  14
ATOM     14  C   UNL     1      37.535  37.745   1.408  1.00  0.00     0.303 C 
ATOM     15  O   UNL     1      37.250  38.868   0.969  1.00  0.00    -0.252 OA
BRANCH  14  16
ATOM     16  O   UNL     1      37.157  36.641   0.659  1.00  0.00    -0.481 OA
ATOM     17  H   UNL     1      36.392  36.036   0.908  1.00  0.00     0.296 HD
ENDBRANCH  14  16
ENDBRANCH   1  14
TORSDOF 7
BEGIN_RES LYS A 135
REMARK  4 active torsions:
REMARK  status: ('A' for Active; 'I' for Inactive)
REMARK    1  A    between atoms: CA   and  CB  
REMARK    2  A    between atoms: CB   and  CG  
REMARK    3  A    between atoms: CG   and  CD  
REMARK    4  A    between atoms: CD   and  CE  
ROOT
ATOM      1  CA  LYS A 135      33.193  34.663   9.290  1.00 25.02     0.186 C 
ENDROOT
BRANCH   1   2
ATOM      2  CB  LYS A 135      32.060  35.360  10.034  1.00 26.63     0.034 C 
BRANCH   2   3
ATOM      3  CG  LYS A 135      30.844  35.612   9.180  1.00 29.45     0.005 C 
BRANCH   3   4
ATOM      4  CD  LYS A 135      30.249  34.300   8.693  1.00 32.00     0.041 C 
BRANCH   4   5
ATOM      5  CE  LYS A 135      28.751  34.433   8.501  1.00 34.25     0.338 C 
ATOM      6  NZ  LYS A 135      28.007  33.717   9.574  1.00 35.99     0.618 N 
ENDBRANCH   4   5
ENDBRANCH   3   4
ENDBRANCH   2   3
ENDBRANCH   1   2
END_RES LYS A 135
BEGIN_RES TYR A 136
REMARK  2 active torsions:
REMARK  status: ('A' for Active; 'I' for Inactive)
REMARK    5  A    between atoms: CA   and  CB  
REMARK    6  A    between atoms: CB   and  CG  
ROOT
ATOM      7  CA  TYR A 136      36.583  36.399   8.994  1.00 26.14     0.191 C 
ENDROOT
BRANCH   7   8
ATOM      8  CB  TYR A 136      37.367  36.835  10.240  1.00 28.16     0.060 C 
BRANCH   8   9
ATOM      9  CG  TYR A 136      37.478  38.335  10.360  1.00 31.88    -0.020 A 
ATOM     10  CD2 TYR A 136      36.339  39.140  10.441  1.00 32.67    -0.002 A 
ATOM     11  CE2 TYR A 136      36.453  40.533  10.551  1.00 33.89     0.027 A 
ATOM     12  CZ  TYR A 136      37.718  41.125  10.580  1.00 34.34     0.131 A 
ATOM     13  OH  TYR A 136      37.855  42.502  10.695  1.00 35.14    -0.190 OA
ATOM     14  CE1 TYR A 136      38.859  40.341  10.499  1.00 35.01     0.027 A 
ATOM     15  CD1 TYR A 136      38.733  38.956  10.384  1.00 33.57    -0.002 A 
ENDBRANCH   8   9
ENDBRANCH   7   8
END_RES TYR A 136
BEGIN_RES ASN A 133
REMARK  2 active torsions:
REMARK  status: ('A' for Active; 'I' for Inactive)
REMARK    7  A    between atoms: CA   and  CB  
REMARK    8  A    between atoms: CB   and  CG  
ROOT
ATOM     16  CA  ASN A 133      31.225  30.257  11.749  1.00 18.15     0.196 C 
ENDROOT
BRANCH  16  17
ATOM     17  CB  ASN A 133      30.092  31.240  11.460  1.00 18.27     0.126 C 
BRANCH  17  18
ATOM     18  CG  ASN A 133      28.755  30.579  11.328  1.00 18.94     0.276 C 
ATOM     19  OD1 ASN A 133      28.587  29.625  10.566  1.00 18.09    -0.269 OA
ATOM     20  ND2 ASN A 133      27.777  31.088  12.077  1.00 18.93    -0.107 N 
ENDBRANCH  17  18
ENDBRANCH  16  17
END_RES ASN A 133
