REMARK VINA RESULT:    -2.667      3.425      4.185
REMARK INTER + INTRA:          -6.145
REMARK INTER:                  -2.762
REMARK INTRA:                  -3.383
REMARK UNBOUND:                -3.088
REMARK SMILES Cc1cn(CCO)nn1
REMARK SMILES IDX 5 1 4 2 1 3 2 4 3 5 9 6 8 7 6 8 7 9
REMARK H PARENT 7 10
REMARK Flexibility Score: inf
ROOT
ATOM      1  C   UNL     1      22.320  36.820  -1.022  1.00  0.00     0.174 C 
ENDROOT
BRANCH   1   2
ATOM      2  N   UNL     1      23.645  37.118  -1.526  1.00  0.00    -0.250 N 
ATOM      3  C   UNL     1      26.457  39.430  -1.896  1.00  0.00     0.070 C 
ATOM      4  C   UNL     1      25.476  38.313  -1.896  1.00  0.00     0.080 A 
ATOM      5  C   UNL     1      24.229  38.309  -1.308  1.00  0.00     0.134 A 
ATOM      6  N   UNL     1      25.579  37.089  -2.453  1.00  0.00    -0.136 NA
ATOM      7  N   UNL     1      24.477  36.400  -2.219  1.00  0.00    -0.067 NA
ENDBRANCH   1   2
BRANCH   1   8
ATOM      8  C   UNL     1      22.369  36.024   0.261  1.00  0.00     0.179 C 
BRANCH   8   9
ATOM      9  O   UNL     1      23.361  35.030   0.176  1.00  0.00    -0.394 OA
ATOM     10  H   UNL     1      23.521  34.854  -0.786  1.00  0.00     0.210 HD
ENDBRANCH   8   9
ENDBRANCH   1   8
TORSDOF 3
BEGIN_RES LYS A 135
REMARK  4 active torsions:
REMARK  status: ('A' for Active; 'I' for Inactive)
REMARK    1  A    between atoms: CA   and  CB  
REMARK    2  A    between atoms: CB   and  CG  
REMARK    3  A    between atoms: CG   and  CD  
REMARK    4  A    between atoms: CD   and  CE  
ROOT
ATOM      1  CA  LYS A 135      33.193  34.663   9.290  1.00 25.02     0.186 C 
ENDROOT
BRANCH   1   2
ATOM      2  CB  LYS A 135      32.060  35.360  10.034  1.00 26.63     0.034 C 
BRANCH   2   3
ATOM      3  CG  LYS A 135      30.728  34.672   9.884  1.00 29.45     0.005 C 
BRANCH   3   4
ATOM      4  CD  LYS A 135      30.351  34.547   8.415  1.00 32.00     0.041 C 
BRANCH   4   5
ATOM      5  CE  LYS A 135      28.843  34.547   8.250  1.00 34.25     0.338 C 
ATOM      6  NZ  LYS A 135      28.180  33.843   9.382  1.00 35.99     0.618 N 
ENDBRANCH   4   5
ENDBRANCH   3   4
ENDBRANCH   2   3
ENDBRANCH   1   2
END_RES LYS A 135
BEGIN_RES TYR A 136
REMARK  2 active torsions:
REMARK  status: ('A' for Active; 'I' for Inactive)
REMARK    5  A    between atoms: CA   and  CB  
REMARK    6  A    between atoms: CB   and  CG  
ROOT
ATOM      7  CA  TYR A 136      36.583  36.399   8.994  1.00 26.14     0.191 C 
ENDROOT
BRANCH   7   8
ATOM      8  CB  TYR A 136      37.367  36.835  10.240  1.00 28.16     0.060 C 
BRANCH   8   9
ATOM      9  CG  TYR A 136      37.231  38.311  10.524  1.00 31.88    -0.020 A 
ATOM     10  CD2 TYR A 136      37.698  38.863  11.719  1.00 32.67    -0.002 A 
ATOM     11  CE2 TYR A 136      37.565  40.235  11.974  1.00 33.89     0.027 A 
ATOM     12  CZ  TYR A 136      36.959  41.061  11.025  1.00 34.34     0.131 A 
ATOM     13  OH  TYR A 136      36.823  42.424  11.253  1.00 35.14    -0.190 OA
ATOM     14  CE1 TYR A 136      36.488  40.529   9.833  1.00 35.01     0.027 A 
ATOM     15  CD1 TYR A 136      36.621  39.161   9.593  1.00 33.57    -0.002 A 
ENDBRANCH   8   9
ENDBRANCH   7   8
END_RES TYR A 136
BEGIN_RES ASN A 133
REMARK  2 active torsions:
REMARK  status: ('A' for Active; 'I' for Inactive)
REMARK    7  A    between atoms: CA   and  CB  
REMARK    8  A    between atoms: CB   and  CG  
ROOT
ATOM     16  CA  ASN A 133      31.225  30.257  11.749  1.00 18.15     0.196 C 
ENDROOT
BRANCH  16  17
ATOM     17  CB  ASN A 133      30.092  31.240  11.460  1.00 18.27     0.126 C 
BRANCH  17  18
ATOM     18  CG  ASN A 133      28.752  30.581  11.343  1.00 18.94     0.276 C 
ATOM     19  OD1 ASN A 133      28.586  29.598  10.620  1.00 18.09    -0.269 OA
ATOM     20  ND2 ASN A 133      27.771  31.125  12.063  1.00 18.93    -0.107 N 
ENDBRANCH  17  18
ENDBRANCH  16  17
END_RES ASN A 133
