REMARK VINA RESULT:    -4.345      8.898     14.196
REMARK INTER + INTRA:          -8.664
REMARK INTER:                  -5.356
REMARK INTRA:                  -3.307
REMARK UNBOUND:                -3.429
REMARK SMILES Cc1cn(-c2cccc(C=CC(=O)O)c2)nn1
REMARK SMILES IDX 10 1 11 2 9 3 5 4 15 5 6 6 7 7 8 8 4 9 1 10 2 11 3 12 17 13
REMARK SMILES IDX 16 14 12 15 13 16 14 17
REMARK H PARENT 14 18
REMARK Flexibility Score: inf
ROOT
ATOM      1  C   UNL     1      22.644  32.013   0.676  1.00  0.00     0.015 C 
ATOM      2  C   UNL     1      22.776  30.776   0.476  1.00  0.00     0.094 C 
ENDROOT
BRANCH   1   3
ATOM      3  C   UNL     1      22.269  33.122  -0.141  1.00  0.00    -0.023 A 
ATOM      4  C   UNL     1      22.560  35.295  -1.160  1.00  0.00     0.067 A 
ATOM      5  C   UNL     1      23.044  34.209  -0.420  1.00  0.00     0.036 A 
ATOM      6  C   UNL     1      21.265  35.250  -1.614  1.00  0.00     0.028 A 
ATOM      7  C   UNL     1      20.466  34.160  -1.346  1.00  0.00     0.003 A 
ATOM      8  C   UNL     1      20.942  33.107  -0.625  1.00  0.00     0.008 A 
BRANCH   4   9
ATOM      9  N   UNL     1      23.401  36.410  -1.426  1.00  0.00    -0.220 N 
ATOM     10  C   UNL     1      26.276  38.162  -2.934  1.00  0.00     0.070 C 
ATOM     11  C   UNL     1      25.058  37.685  -2.219  1.00  0.00     0.080 A 
ATOM     12  C   UNL     1      24.512  36.418  -2.204  1.00  0.00     0.140 A 
ATOM     13  N   UNL     1      24.239  38.419  -1.431  1.00  0.00    -0.135 NA
ATOM     14  N   UNL     1      23.262  37.653  -0.968  1.00  0.00    -0.062 NA
ENDBRANCH   4   9
ENDBRANCH   1   3
BRANCH   2  15
ATOM     15  C   UNL     1      22.634  29.883  -0.613  1.00  0.00     0.328 C 
ATOM     16  O   UNL     1      22.643  30.134  -1.835  1.00  0.00    -0.247 OA
BRANCH  15  17
ATOM     17  O   UNL     1      22.453  28.482  -0.328  1.00  0.00    -0.478 OA
ATOM     18  H   UNL     1      22.717  28.195   0.616  1.00  0.00     0.297 HD
ENDBRANCH  15  17
ENDBRANCH   2  15
TORSDOF 4
BEGIN_RES LYS A 135
REMARK  4 active torsions:
REMARK  status: ('A' for Active; 'I' for Inactive)
REMARK    1  A    between atoms: CA   and  CB  
REMARK    2  A    between atoms: CB   and  CG  
REMARK    3  A    between atoms: CG   and  CD  
REMARK    4  A    between atoms: CD   and  CE  
ROOT
ATOM      1  CA  LYS A 135      33.193  34.663   9.290  1.00 25.02     0.186 C 
ENDROOT
BRANCH   1   2
ATOM      2  CB  LYS A 135      32.060  35.360  10.034  1.00 26.63     0.034 C 
BRANCH   2   3
ATOM      3  CG  LYS A 135      30.703  34.765   9.759  1.00 29.45     0.005 C 
BRANCH   3   4
ATOM      4  CD  LYS A 135      30.467  34.635   8.263  1.00 32.00     0.041 C 
BRANCH   4   5
ATOM      5  CE  LYS A 135      29.019  34.932   7.924  1.00 34.25     0.338 C 
ATOM      6  NZ  LYS A 135      28.096  34.260   8.880  1.00 35.99     0.618 N 
ENDBRANCH   4   5
ENDBRANCH   3   4
ENDBRANCH   2   3
ENDBRANCH   1   2
END_RES LYS A 135
BEGIN_RES TYR A 136
REMARK  2 active torsions:
REMARK  status: ('A' for Active; 'I' for Inactive)
REMARK    5  A    between atoms: CA   and  CB  
REMARK    6  A    between atoms: CB   and  CG  
ROOT
ATOM      7  CA  TYR A 136      36.583  36.399   8.994  1.00 26.14     0.191 C 
ENDROOT
BRANCH   7   8
ATOM      8  CB  TYR A 136      37.367  36.835  10.240  1.00 28.16     0.060 C 
BRANCH   8   9
ATOM      9  CG  TYR A 136      37.165  38.293  10.572  1.00 31.88    -0.020 A 
ATOM     10  CD2 TYR A 136      37.142  38.737  11.896  1.00 32.67    -0.002 A 
ATOM     11  CE2 TYR A 136      36.952  40.093  12.193  1.00 33.89     0.027 A 
ATOM     12  CZ  TYR A 136      36.783  41.014  11.156  1.00 34.34     0.131 A 
ATOM     13  OH  TYR A 136      36.601  42.363  11.427  1.00 35.14    -0.190 OA
ATOM     14  CE1 TYR A 136      36.802  40.590   9.835  1.00 35.01     0.027 A 
ATOM     15  CD1 TYR A 136      36.986  39.236   9.552  1.00 33.57    -0.002 A 
ENDBRANCH   8   9
ENDBRANCH   7   8
END_RES TYR A 136
BEGIN_RES ASN A 133
REMARK  2 active torsions:
REMARK  status: ('A' for Active; 'I' for Inactive)
REMARK    7  A    between atoms: CA   and  CB  
REMARK    8  A    between atoms: CB   and  CG  
ROOT
ATOM     16  CA  ASN A 133      31.225  30.257  11.749  1.00 18.15     0.196 C 
ENDROOT
BRANCH  16  17
ATOM     17  CB  ASN A 133      30.092  31.240  11.460  1.00 18.27     0.126 C 
BRANCH  17  18
ATOM     18  CG  ASN A 133      28.758  30.577  11.306  1.00 18.94     0.276 C 
ATOM     19  OD1 ASN A 133      28.606  29.618  10.547  1.00 18.09    -0.269 OA
ATOM     20  ND2 ASN A 133      27.766  31.089  12.033  1.00 18.93    -0.107 N 
ENDBRANCH  17  18
ENDBRANCH  16  17
END_RES ASN A 133
