REMARK VINA RESULT:    -3.776      7.981     13.419
REMARK INTER + INTRA:          -7.674
REMARK INTER:                  -4.224
REMARK INTRA:                  -3.450
REMARK UNBOUND:                -3.346
REMARK SMILES Cc1cn(C(C)(C)C(=O)O)nn1
REMARK SMILES IDX 5 1 6 2 7 3 4 4 1 5 2 6 3 7 12 8 11 9 8 10 9 11 10 12
REMARK H PARENT 10 13
REMARK Flexibility Score: inf
ROOT
ATOM      1  C   UNL     1      21.988  33.375  -0.757  1.00  0.00     0.155 C 
ATOM      2  C   UNL     1      22.208  32.452  -1.937  1.00  0.00     0.049 C 
ATOM      3  C   UNL     1      20.491  33.559  -0.615  1.00  0.00     0.049 C 
ENDROOT
BRANCH   1   4
ATOM      4  N   UNL     1      22.563  34.685  -0.974  1.00  0.00    -0.235 N 
ATOM      5  C   UNL     1      24.676  37.136  -2.599  1.00  0.00     0.070 C 
ATOM      6  C   UNL     1      23.733  36.345  -1.767  1.00  0.00     0.080 A 
ATOM      7  C   UNL     1      23.458  35.005  -1.915  1.00  0.00     0.135 A 
ATOM      8  N   UNL     1      22.997  36.804  -0.741  1.00  0.00    -0.136 NA
ATOM      9  N   UNL     1      22.307  35.778  -0.290  1.00  0.00    -0.066 NA
ENDBRANCH   1   4
BRANCH   1  10
ATOM     10  C   UNL     1      22.590  32.788   0.456  1.00  0.00     0.331 C 
ATOM     11  O   UNL     1      22.629  31.538   0.609  1.00  0.00    -0.250 OA
BRANCH  10  12
ATOM     12  O   UNL     1      23.105  33.655   1.411  1.00  0.00    -0.479 OA
ATOM     13  H   UNL     1      22.455  33.985   2.132  1.00  0.00     0.296 HD
ENDBRANCH  10  12
ENDBRANCH   1  10
TORSDOF 3
BEGIN_RES LYS A 135
REMARK  4 active torsions:
REMARK  status: ('A' for Active; 'I' for Inactive)
REMARK    1  A    between atoms: CA   and  CB  
REMARK    2  A    between atoms: CB   and  CG  
REMARK    3  A    between atoms: CG   and  CD  
REMARK    4  A    between atoms: CD   and  CE  
ROOT
ATOM      1  CA  LYS A 135      33.193  34.663   9.290  1.00 25.02     0.186 C 
ENDROOT
BRANCH   1   2
ATOM      2  CB  LYS A 135      32.060  35.360  10.034  1.00 26.63     0.034 C 
BRANCH   2   3
ATOM      3  CG  LYS A 135      30.727  34.673   9.882  1.00 29.45     0.005 C 
BRANCH   3   4
ATOM      4  CD  LYS A 135      30.350  34.553   8.413  1.00 32.00     0.041 C 
BRANCH   4   5
ATOM      5  CE  LYS A 135      28.842  34.567   8.248  1.00 34.25     0.338 C 
ATOM      6  NZ  LYS A 135      28.172  33.878   9.385  1.00 35.99     0.618 N 
ENDBRANCH   4   5
ENDBRANCH   3   4
ENDBRANCH   2   3
ENDBRANCH   1   2
END_RES LYS A 135
BEGIN_RES TYR A 136
REMARK  2 active torsions:
REMARK  status: ('A' for Active; 'I' for Inactive)
REMARK    5  A    between atoms: CA   and  CB  
REMARK    6  A    between atoms: CB   and  CG  
ROOT
ATOM      7  CA  TYR A 136      36.583  36.399   8.994  1.00 26.14     0.191 C 
ENDROOT
BRANCH   7   8
ATOM      8  CB  TYR A 136      37.367  36.835  10.240  1.00 28.16     0.060 C 
BRANCH   8   9
ATOM      9  CG  TYR A 136      37.204  38.304  10.543  1.00 31.88    -0.020 A 
ATOM     10  CD2 TYR A 136      37.756  38.870  11.695  1.00 32.67    -0.002 A 
ATOM     11  CE2 TYR A 136      37.598  40.236  11.968  1.00 33.89     0.027 A 
ATOM     12  CZ  TYR A 136      36.880  41.042  11.081  1.00 34.34     0.131 A 
ATOM     13  OH  TYR A 136      36.717  42.398  11.328  1.00 35.14    -0.190 OA
ATOM     14  CE1 TYR A 136      36.325  40.496   9.933  1.00 35.01     0.027 A 
ATOM     15  CD1 TYR A 136      36.484  39.134   9.675  1.00 33.57    -0.002 A 
ENDBRANCH   8   9
ENDBRANCH   7   8
END_RES TYR A 136
BEGIN_RES ASN A 133
REMARK  2 active torsions:
REMARK  status: ('A' for Active; 'I' for Inactive)
REMARK    7  A    between atoms: CA   and  CB  
REMARK    8  A    between atoms: CB   and  CG  
ROOT
ATOM     16  CA  ASN A 133      31.225  30.257  11.749  1.00 18.15     0.196 C 
ENDROOT
BRANCH  16  17
ATOM     17  CB  ASN A 133      30.092  31.240  11.460  1.00 18.27     0.126 C 
BRANCH  17  18
ATOM     18  CG  ASN A 133      28.753  30.581  11.341  1.00 18.94     0.276 C 
ATOM     19  OD1 ASN A 133      28.587  29.597  10.617  1.00 18.09    -0.269 OA
ATOM     20  ND2 ASN A 133      27.770  31.124  12.059  1.00 18.93    -0.107 N 
ENDBRANCH  17  18
ENDBRANCH  16  17
END_RES ASN A 133
