REMARK VINA RESULT:    -5.538      4.279      7.422
REMARK INTER + INTRA:          -7.627
REMARK INTER:                  -5.241
REMARK INTRA:                  -2.387
REMARK UNBOUND:                -1.442
REMARK SMILES Cc1cn(Cc2ccccc2Br)nn1
REMARK SMILES IDX 5 1 4 2 1 3 2 4 3 5 14 6 13 7 6 8 7 9 11 10 8 11 10 12 12 13
REMARK SMILES IDX 9 14
REMARK H PARENT
REMARK Flexibility Score: inf
ROOT
ATOM      1  C   UNL     1      26.076  36.766   7.541  1.00  0.00     0.182 C 
ENDROOT
BRANCH   1   2
ATOM      2  N   UNL     1      27.153  37.275   6.719  1.00  0.00    -0.248 N 
ATOM      3  C   UNL     1      29.799  39.696   5.908  1.00  0.00     0.070 C 
ATOM      4  C   UNL     1      28.797  38.577   6.007  1.00  0.00     0.080 A 
ATOM      5  C   UNL     1      27.860  38.398   6.990  1.00  0.00     0.134 A 
ATOM      6  N   UNL     1      28.636  37.535   5.141  1.00  0.00    -0.136 NA
ATOM      7  N   UNL     1      27.648  36.804   5.621  1.00  0.00    -0.067 NA
ENDBRANCH   1   2
BRANCH   1   8
ATOM      8  C   UNL     1      26.542  35.911   8.651  1.00  0.00    -0.012 A 
ATOM      9  C   UNL     1      27.029  34.661   8.356  1.00  0.00     0.007 A 
ATOM     10  C   UNL     1      26.480  36.375   9.968  1.00  0.00     0.023 A 
ATOM     11  C   UNL     1      27.465  33.844   9.374  1.00  0.00     0.000 A 
ATOM     12  C   UNL     1      26.918  35.551  10.981  1.00  0.00     0.016 A 
ATOM     13  Br  UNL     1      25.788  38.123  10.260  1.00  0.00    -0.050 Br
ATOM     14  C   UNL     1      27.397  34.316  10.669  1.00  0.00     0.001 A 
ENDBRANCH   1   8
TORSDOF 2
BEGIN_RES LYS A 135
REMARK  4 active torsions:
REMARK  status: ('A' for Active; 'I' for Inactive)
REMARK    1  A    between atoms: CA   and  CB  
REMARK    2  A    between atoms: CB   and  CG  
REMARK    3  A    between atoms: CG   and  CD  
REMARK    4  A    between atoms: CD   and  CE  
ROOT
ATOM      1  CA  LYS A 135      33.193  34.663   9.290  1.00 25.02     0.186 C 
ENDROOT
BRANCH   1   2
ATOM      2  CB  LYS A 135      32.060  35.360  10.034  1.00 26.63     0.034 C 
BRANCH   2   3
ATOM      3  CG  LYS A 135      30.779  35.438   9.245  1.00 29.45     0.005 C 
BRANCH   3   4
ATOM      4  CD  LYS A 135      30.145  36.813   9.385  1.00 32.00     0.041 C 
BRANCH   4   5
ATOM      5  CE  LYS A 135      31.146  37.807   9.942  1.00 34.25     0.338 C 
ATOM      6  NZ  LYS A 135      31.552  38.797   8.906  1.00 35.99     0.618 N 
ENDBRANCH   4   5
ENDBRANCH   3   4
ENDBRANCH   2   3
ENDBRANCH   1   2
END_RES LYS A 135
BEGIN_RES TYR A 136
REMARK  2 active torsions:
REMARK  status: ('A' for Active; 'I' for Inactive)
REMARK    5  A    between atoms: CA   and  CB  
REMARK    6  A    between atoms: CB   and  CG  
ROOT
ATOM      7  CA  TYR A 136      36.583  36.399   8.994  1.00 26.14     0.191 C 
ENDROOT
BRANCH   7   8
ATOM      8  CB  TYR A 136      37.367  36.835  10.240  1.00 28.16     0.060 C 
BRANCH   8   9
ATOM      9  CG  TYR A 136      37.220  38.308  10.532  1.00 31.88    -0.020 A 
ATOM     10  CD2 TYR A 136      38.002  39.258   9.872  1.00 32.67    -0.002 A 
ATOM     11  CE2 TYR A 136      37.859  40.624  10.152  1.00 33.89     0.027 A 
ATOM     12  CZ  TYR A 136      36.924  41.043  11.102  1.00 34.34     0.131 A 
ATOM     13  OH  TYR A 136      36.760  42.391  11.390  1.00 35.14    -0.190 OA
ATOM     14  CE1 TYR A 136      36.139  40.113  11.768  1.00 35.01     0.027 A 
ATOM     15  CD1 TYR A 136      36.295  38.755  11.485  1.00 33.57    -0.002 A 
ENDBRANCH   8   9
ENDBRANCH   7   8
END_RES TYR A 136
BEGIN_RES ASN A 133
REMARK  2 active torsions:
REMARK  status: ('A' for Active; 'I' for Inactive)
REMARK    7  A    between atoms: CA   and  CB  
REMARK    8  A    between atoms: CB   and  CG  
ROOT
ATOM     16  CA  ASN A 133      31.225  30.257  11.749  1.00 18.15     0.196 C 
ENDROOT
BRANCH  16  17
ATOM     17  CB  ASN A 133      30.092  31.240  11.460  1.00 18.27     0.126 C 
BRANCH  17  18
ATOM     18  CG  ASN A 133      28.749  30.585  11.369  1.00 18.94     0.276 C 
ATOM     19  OD1 ASN A 133      28.549  29.642  10.600  1.00 18.09    -0.269 OA
ATOM     20  ND2 ASN A 133      27.802  31.084  12.162  1.00 18.93    -0.107 N 
ENDBRANCH  17  18
ENDBRANCH  16  17
END_RES ASN A 133
