REMARK VINA RESULT:    -5.727      2.291      5.048
REMARK INTER + INTRA:          -8.946
REMARK INTER:                  -5.484
REMARK INTRA:                  -3.462
REMARK UNBOUND:                -1.880
REMARK SMILES Cc1cn(C(C)CC(=O)c2ccccc2)nn1
REMARK SMILES IDX 7 1 5 2 6 3 4 4 1 5 2 6 3 7 17 8 16 9 8 10 9 11 10 12 11 13
REMARK SMILES IDX 15 14 12 15 14 16 13 17
REMARK H PARENT
REMARK Flexibility Score: inf
ROOT
ATOM      1  C   UNL     1      33.370  35.467  13.033  1.00  0.00     0.108 C 
ENDROOT
BRANCH   1   2
ATOM      2  C   UNL     1      32.715  35.573  14.360  1.00  0.00     0.114 C 
ATOM      3  C   UNL     1      33.612  35.629  15.531  1.00  0.00     0.034 C 
BRANCH   2   4
ATOM      4  N   UNL     1      31.763  34.486  14.488  1.00  0.00    -0.249 N 
ATOM      5  C   UNL     1      30.613  31.485  16.179  1.00  0.00     0.070 C 
ATOM      6  C   UNL     1      30.826  32.652  15.309  1.00  0.00     0.080 A 
ATOM      7  C   UNL     1      31.871  33.544  15.444  1.00  0.00     0.134 A 
ATOM      8  N   UNL     1      30.109  33.094  14.258  1.00  0.00    -0.136 NA
ATOM      9  N   UNL     1      30.697  34.192  13.791  1.00  0.00    -0.067 NA
ENDBRANCH   2   4
ENDBRANCH   1   2
BRANCH   1  10
ATOM     10  C   UNL     1      34.476  36.408  12.807  1.00  0.00     0.164 C 
ATOM     11  O   UNL     1      35.684  36.101  12.811  1.00  0.00    -0.294 OA
BRANCH  10  12
ATOM     12  C   UNL     1      34.134  37.804  12.557  1.00  0.00     0.018 A 
ATOM     13  C   UNL     1      34.420  38.810  13.475  1.00  0.00     0.012 A 
ATOM     14  C   UNL     1      33.503  38.224  11.393  1.00  0.00     0.012 A 
ATOM     15  C   UNL     1      34.099  40.133  13.248  1.00  0.00     0.001 A 
ATOM     16  C   UNL     1      33.171  39.515  11.130  1.00  0.00     0.001 A 
ATOM     17  C   UNL     1      33.469  40.482  12.061  1.00  0.00     0.000 A 
ENDBRANCH  10  12
ENDBRANCH   1  10
TORSDOF 4
BEGIN_RES LYS A 135
REMARK  4 active torsions:
REMARK  status: ('A' for Active; 'I' for Inactive)
REMARK    1  A    between atoms: CA   and  CB  
REMARK    2  A    between atoms: CB   and  CG  
REMARK    3  A    between atoms: CG   and  CD  
REMARK    4  A    between atoms: CD   and  CE  
ROOT
ATOM      1  CA  LYS A 135      33.193  34.663   9.290  1.00 25.02     0.186 C 
ENDROOT
BRANCH   1   2
ATOM      2  CB  LYS A 135      32.060  35.360  10.034  1.00 26.63     0.034 C 
BRANCH   2   3
ATOM      3  CG  LYS A 135      30.703  34.766   9.758  1.00 29.45     0.005 C 
BRANCH   3   4
ATOM      4  CD  LYS A 135      30.526  34.500   8.271  1.00 32.00     0.041 C 
BRANCH   4   5
ATOM      5  CE  LYS A 135      29.172  34.992   7.798  1.00 34.25     0.338 C 
ATOM      6  NZ  LYS A 135      28.981  36.432   8.123  1.00 35.99     0.618 N 
ENDBRANCH   4   5
ENDBRANCH   3   4
ENDBRANCH   2   3
ENDBRANCH   1   2
END_RES LYS A 135
BEGIN_RES TYR A 136
REMARK  2 active torsions:
REMARK  status: ('A' for Active; 'I' for Inactive)
REMARK    5  A    between atoms: CA   and  CB  
REMARK    6  A    between atoms: CB   and  CG  
ROOT
ATOM      7  CA  TYR A 136      36.583  36.399   8.994  1.00 26.14     0.191 C 
ENDROOT
BRANCH   7   8
ATOM      8  CB  TYR A 136      37.367  36.835  10.240  1.00 28.16     0.060 C 
BRANCH   8   9
ATOM      9  CG  TYR A 136      37.233  38.311  10.522  1.00 31.88    -0.020 A 
ATOM     10  CD2 TYR A 136      37.700  38.864  11.717  1.00 32.67    -0.002 A 
ATOM     11  CE2 TYR A 136      37.569  40.236  11.971  1.00 33.89     0.027 A 
ATOM     12  CZ  TYR A 136      36.966  41.063  11.020  1.00 34.34     0.131 A 
ATOM     13  OH  TYR A 136      36.833  42.426  11.246  1.00 35.14    -0.190 OA
ATOM     14  CE1 TYR A 136      36.496  40.531   9.828  1.00 35.01     0.027 A 
ATOM     15  CD1 TYR A 136      36.626  39.161   9.589  1.00 33.57    -0.002 A 
ENDBRANCH   8   9
ENDBRANCH   7   8
END_RES TYR A 136
BEGIN_RES ASN A 133
REMARK  2 active torsions:
REMARK  status: ('A' for Active; 'I' for Inactive)
REMARK    7  A    between atoms: CA   and  CB  
REMARK    8  A    between atoms: CB   and  CG  
ROOT
ATOM     16  CA  ASN A 133      31.225  30.257  11.749  1.00 18.15     0.196 C 
ENDROOT
BRANCH  16  17
ATOM     17  CB  ASN A 133      30.092  31.240  11.460  1.00 18.27     0.126 C 
BRANCH  17  18
ATOM     18  CG  ASN A 133      28.755  30.579  11.328  1.00 18.94     0.276 C 
ATOM     19  OD1 ASN A 133      28.588  29.623  10.569  1.00 18.09    -0.269 OA
ATOM     20  ND2 ASN A 133      27.776  31.091  12.074  1.00 18.93    -0.107 N 
ENDBRANCH  17  18
ENDBRANCH  16  17
END_RES ASN A 133
