REMARK VINA RESULT:    -3.898      7.917     12.452
REMARK INTER + INTRA:          -7.467
REMARK INTER:                  -4.516
REMARK INTRA:                  -2.951
REMARK UNBOUND:                -3.228
REMARK SMILES Cc1cn(-c2nc(C)nc(N)n2)nn1
REMARK SMILES IDX 5 1 12 2 10 3 9 4 7 5 8 6 6 7 4 8 1 9 2 10 3 11 14 12 13 13
REMARK SMILES IDX 11 14
REMARK H PARENT 11 15 11 16
REMARK Flexibility Score: inf
ROOT
ATOM      1  C   UNL     1      37.449  38.609   3.685  1.00  0.00     0.257 A 
ATOM      2  N   UNL     1      37.634  37.781   2.656  1.00  0.00    -0.175 NA
ATOM      3  C   UNL     1      36.653  37.595   1.766  1.00  0.00     0.225 A 
ATOM      4  N   UNL     1      35.485  38.245   1.913  1.00  0.00    -0.198 NA
ATOM      5  C   UNL     1      35.283  39.086   2.948  1.00  0.00     0.133 A 
ATOM      6  C   UNL     1      33.987  39.808   3.113  1.00  0.00     0.090 C 
ATOM      7  N   UNL     1      36.288  39.245   3.817  1.00  0.00    -0.196 NA
ENDROOT
BRANCH   1   8
ATOM      8  N   UNL     1      38.499  38.799   4.625  1.00  0.00    -0.185 N 
ATOM      9  C   UNL     1      40.141  40.094   7.618  1.00  0.00     0.070 C 
ATOM     10  C   UNL     1      39.711  39.446   6.365  1.00  0.00     0.080 A 
ATOM     11  C   UNL     1      38.488  39.543   5.752  1.00  0.00     0.144 A 
ATOM     12  N   UNL     1      40.446  38.643   5.595  1.00  0.00    -0.135 NA
ATOM     13  N   UNL     1      39.700  38.273   4.568  1.00  0.00    -0.059 NA
ENDBRANCH   1   8
BRANCH   3  14
ATOM     14  N   UNL     1      36.908  36.701   0.692  1.00  0.00    -0.368 N 
ATOM     15  H   UNL     1      37.832  36.705   0.213  1.00  0.00     0.159 HD
ATOM     16  H   UNL     1      36.185  36.030   0.364  1.00  0.00     0.159 HD
ENDBRANCH   3  14
TORSDOF 2
BEGIN_RES LYS A 135
REMARK  4 active torsions:
REMARK  status: ('A' for Active; 'I' for Inactive)
REMARK    1  A    between atoms: CA   and  CB  
REMARK    2  A    between atoms: CB   and  CG  
REMARK    3  A    between atoms: CG   and  CD  
REMARK    4  A    between atoms: CD   and  CE  
ROOT
ATOM      1  CA  LYS A 135      33.193  34.663   9.290  1.00 25.02     0.186 C 
ENDROOT
BRANCH   1   2
ATOM      2  CB  LYS A 135      32.060  35.360  10.034  1.00 26.63     0.034 C 
BRANCH   2   3
ATOM      3  CG  LYS A 135      30.712  34.723   9.812  1.00 29.45     0.005 C 
BRANCH   3   4
ATOM      4  CD  LYS A 135      30.419  34.591   8.326  1.00 32.00     0.041 C 
BRANCH   4   5
ATOM      5  CE  LYS A 135      29.440  35.660   7.879  1.00 34.25     0.338 C 
ATOM      6  NZ  LYS A 135      28.098  35.076   7.601  1.00 35.99     0.618 N 
ENDBRANCH   4   5
ENDBRANCH   3   4
ENDBRANCH   2   3
ENDBRANCH   1   2
END_RES LYS A 135
BEGIN_RES TYR A 136
REMARK  2 active torsions:
REMARK  status: ('A' for Active; 'I' for Inactive)
REMARK    5  A    between atoms: CA   and  CB  
REMARK    6  A    between atoms: CB   and  CG  
ROOT
ATOM      7  CA  TYR A 136      36.583  36.399   8.994  1.00 26.14     0.191 C 
ENDROOT
BRANCH   7   8
ATOM      8  CB  TYR A 136      37.367  36.835  10.240  1.00 28.16     0.060 C 
BRANCH   8   9
ATOM      9  CG  TYR A 136      37.542  38.332  10.321  1.00 31.88    -0.020 A 
ATOM     10  CD2 TYR A 136      38.429  38.908  11.233  1.00 32.67    -0.002 A 
ATOM     11  CE2 TYR A 136      38.582  40.299  11.302  1.00 33.89     0.027 A 
ATOM     12  CZ  TYR A 136      37.841  41.122  10.451  1.00 34.34     0.131 A 
ATOM     13  OH  TYR A 136      37.982  42.502  10.497  1.00 35.14    -0.190 OA
ATOM     14  CE1 TYR A 136      36.954  40.567   9.540  1.00 35.01     0.027 A 
ATOM     15  CD1 TYR A 136      36.805  39.180   9.485  1.00 33.57    -0.002 A 
ENDBRANCH   8   9
ENDBRANCH   7   8
END_RES TYR A 136
BEGIN_RES ASN A 133
REMARK  2 active torsions:
REMARK  status: ('A' for Active; 'I' for Inactive)
REMARK    7  A    between atoms: CA   and  CB  
REMARK    8  A    between atoms: CB   and  CG  
ROOT
ATOM     16  CA  ASN A 133      31.225  30.257  11.749  1.00 18.15     0.196 C 
ENDROOT
BRANCH  16  17
ATOM     17  CB  ASN A 133      30.092  31.240  11.460  1.00 18.27     0.126 C 
BRANCH  17  18
ATOM     18  CG  ASN A 133      28.750  30.584  11.363  1.00 18.94     0.276 C 
ATOM     19  OD1 ASN A 133      28.565  29.614  10.624  1.00 18.09    -0.269 OA
ATOM     20  ND2 ASN A 133      27.786  31.113  12.116  1.00 18.93    -0.107 N 
ENDBRANCH  17  18
ENDBRANCH  16  17
END_RES ASN A 133
