REMARK VINA RESULT:    -4.116      2.905      4.002
REMARK INTER + INTRA:          -7.221
REMARK INTER:                  -4.105
REMARK INTRA:                  -3.115
REMARK UNBOUND:                -2.865
REMARK SMILES Cc1ccc(-n2cc(C)nn2)cc1
REMARK SMILES IDX 5 1 4 2 3 3 2 4 1 5 13 6 12 7 6 8 9 9 8 10 7 11 10 12 11 13
REMARK H PARENT
REMARK Flexibility Score: inf
ROOT
ATOM      1  C   UNL     1      35.598  35.474  14.247  1.00  0.00     0.066 A 
ATOM      2  C   UNL     1      35.276  34.770  13.116  1.00  0.00     0.029 A 
ATOM      3  C   UNL     1      36.179  33.871  12.585  1.00  0.00     0.005 A 
ATOM      4  C   UNL     1      37.419  33.641  13.146  1.00  0.00    -0.051 A 
ATOM      5  C   UNL     1      38.377  32.669  12.556  1.00  0.00     0.044 C 
ATOM      6  C   UNL     1      37.721  34.365  14.286  1.00  0.00     0.005 A 
ATOM      7  C   UNL     1      36.829  35.269  14.836  1.00  0.00     0.029 A 
ENDROOT
BRANCH   1   8
ATOM      8  N   UNL     1      34.696  36.392  14.807  1.00  0.00    -0.220 N 
ATOM      9  C   UNL     1      33.327  38.302  17.584  1.00  0.00     0.070 C 
ATOM     10  C   UNL     1      33.654  37.672  16.269  1.00  0.00     0.080 A 
ATOM     11  C   UNL     1      34.671  36.761  16.101  1.00  0.00     0.140 A 
ATOM     12  N   UNL     1      33.089  37.833  15.079  1.00  0.00    -0.135 NA
ATOM     13  N   UNL     1      33.713  37.067  14.206  1.00  0.00    -0.062 NA
ENDBRANCH   1   8
TORSDOF 1
BEGIN_RES LYS A 135
REMARK  4 active torsions:
REMARK  status: ('A' for Active; 'I' for Inactive)
REMARK    1  A    between atoms: CA   and  CB  
REMARK    2  A    between atoms: CB   and  CG  
REMARK    3  A    between atoms: CG   and  CD  
REMARK    4  A    between atoms: CD   and  CE  
ROOT
ATOM      1  CA  LYS A 135      33.193  34.663   9.290  1.00 25.02     0.186 C 
ENDROOT
BRANCH   1   2
ATOM      2  CB  LYS A 135      32.060  35.360  10.034  1.00 26.63     0.034 C 
BRANCH   2   3
ATOM      3  CG  LYS A 135      30.831  35.580   9.190  1.00 29.45     0.005 C 
BRANCH   3   4
ATOM      4  CD  LYS A 135      30.225  34.251   8.768  1.00 32.00     0.041 C 
BRANCH   4   5
ATOM      5  CE  LYS A 135      28.736  34.399   8.519  1.00 34.25     0.338 C 
ATOM      6  NZ  LYS A 135      27.944  33.735   9.591  1.00 35.99     0.618 N 
ENDBRANCH   4   5
ENDBRANCH   3   4
ENDBRANCH   2   3
ENDBRANCH   1   2
END_RES LYS A 135
BEGIN_RES TYR A 136
REMARK  2 active torsions:
REMARK  status: ('A' for Active; 'I' for Inactive)
REMARK    5  A    between atoms: CA   and  CB  
REMARK    6  A    between atoms: CB   and  CG  
ROOT
ATOM      7  CA  TYR A 136      36.583  36.399   8.994  1.00 26.14     0.191 C 
ENDROOT
BRANCH   7   8
ATOM      8  CB  TYR A 136      37.367  36.835  10.240  1.00 28.16     0.060 C 
BRANCH   8   9
ATOM      9  CG  TYR A 136      36.705  37.976  10.972  1.00 31.88    -0.020 A 
ATOM     10  CD2 TYR A 136      35.864  38.871  10.307  1.00 32.67    -0.002 A 
ATOM     11  CE2 TYR A 136      35.255  39.929  10.996  1.00 33.89     0.027 A 
ATOM     12  CZ  TYR A 136      35.490  40.093  12.363  1.00 34.34     0.131 A 
ATOM     13  OH  TYR A 136      34.892  41.129  13.068  1.00 35.14    -0.190 OA
ATOM     14  CE1 TYR A 136      36.324  39.214  13.040  1.00 35.01     0.027 A 
ATOM     15  CD1 TYR A 136      36.930  38.168  12.341  1.00 33.57    -0.002 A 
ENDBRANCH   8   9
ENDBRANCH   7   8
END_RES TYR A 136
BEGIN_RES ASN A 133
REMARK  2 active torsions:
REMARK  status: ('A' for Active; 'I' for Inactive)
REMARK    7  A    between atoms: CA   and  CB  
REMARK    8  A    between atoms: CB   and  CG  
ROOT
ATOM     16  CA  ASN A 133      31.225  30.257  11.749  1.00 18.15     0.196 C 
ENDROOT
BRANCH  16  17
ATOM     17  CB  ASN A 133      30.092  31.240  11.460  1.00 18.27     0.126 C 
BRANCH  17  18
ATOM     18  CG  ASN A 133      28.755  30.579  11.329  1.00 18.94     0.276 C 
ATOM     19  OD1 ASN A 133      28.587  29.622  10.571  1.00 18.09    -0.269 OA
ATOM     20  ND2 ASN A 133      27.776  31.092  12.074  1.00 18.93    -0.107 N 
ENDBRANCH  17  18
ENDBRANCH  16  17
END_RES ASN A 133
