REMARK VINA RESULT:    -5.318      2.281      3.557
REMARK INTER + INTRA:          -8.703
REMARK INTER:                  -5.267
REMARK INTRA:                  -3.436
REMARK UNBOUND:                -2.142
REMARK SMILES CC(=O)Oc1ccccc1Cn1cc(C)nn1
REMARK SMILES IDX 10 1 5 2 6 3 7 4 8 5 9 6 11 7 12 8 15 9 14 10 13 11 16 12
REMARK SMILES IDX 17 13 4 14 2 15 3 16 1 17
REMARK H PARENT
REMARK Flexibility Score: inf
ROOT
ATOM      1  C   UNL     1      37.316  36.370  15.033  1.00  0.00     0.016 A 
ATOM      2  C   UNL     1      38.016  35.493  14.244  1.00  0.00     0.135 A 
ATOM      3  C   UNL     1      39.050  35.867  13.396  1.00  0.00     0.047 A 
ATOM      4  C   UNL     1      39.407  37.195  13.327  1.00  0.00     0.004 A 
ATOM      5  C   UNL     1      38.728  38.096  14.099  1.00  0.00     0.001 A 
ATOM      6  C   UNL     1      37.692  37.701  14.947  1.00  0.00     0.009 A 
ENDROOT
BRANCH   1   7
ATOM      7  C   UNL     1      36.231  35.924  15.942  1.00  0.00     0.185 C 
BRANCH   7   8
ATOM      8  N   UNL     1      34.944  36.196  15.329  1.00  0.00    -0.248 N 
ATOM      9  C   UNL     1      32.054  35.631  13.159  1.00  0.00     0.070 C 
ATOM     10  C   UNL     1      33.070  36.114  14.122  1.00  0.00     0.080 A 
ATOM     11  C   UNL     1      34.281  35.479  14.413  1.00  0.00     0.134 A 
ATOM     12  N   UNL     1      33.074  37.207  14.901  1.00  0.00    -0.136 NA
ATOM     13  N   UNL     1      34.186  37.257  15.618  1.00  0.00    -0.067 NA
ENDBRANCH   7   8
ENDBRANCH   1   7
BRANCH   2  14
ATOM     14  O   UNL     1      37.701  34.125  14.264  1.00  0.00    -0.426 OA
BRANCH  14  15
ATOM     15  C   UNL     1      37.414  33.562  13.023  1.00  0.00     0.308 C 
ATOM     16  O   UNL     1      36.436  33.970  12.340  1.00  0.00    -0.252 OA
ATOM     17  C   UNL     1      38.253  32.477  12.491  1.00  0.00     0.139 C 
ENDBRANCH  14  15
ENDBRANCH   2  14
TORSDOF 4
BEGIN_RES LYS A 135
REMARK  4 active torsions:
REMARK  status: ('A' for Active; 'I' for Inactive)
REMARK    1  A    between atoms: CA   and  CB  
REMARK    2  A    between atoms: CB   and  CG  
REMARK    3  A    between atoms: CG   and  CD  
REMARK    4  A    between atoms: CD   and  CE  
ROOT
ATOM      1  CA  LYS A 135      33.193  34.663   9.290  1.00 25.02     0.186 C 
ENDROOT
BRANCH   1   2
ATOM      2  CB  LYS A 135      32.060  35.360  10.034  1.00 26.63     0.034 C 
BRANCH   2   3
ATOM      3  CG  LYS A 135      30.702  34.769   9.754  1.00 29.45     0.005 C 
BRANCH   3   4
ATOM      4  CD  LYS A 135      30.485  34.608   8.257  1.00 32.00     0.041 C 
BRANCH   4   5
ATOM      5  CE  LYS A 135      29.031  34.850   7.901  1.00 34.25     0.338 C 
ATOM      6  NZ  LYS A 135      28.910  35.577   6.607  1.00 35.99     0.618 N 
ENDBRANCH   4   5
ENDBRANCH   3   4
ENDBRANCH   2   3
ENDBRANCH   1   2
END_RES LYS A 135
BEGIN_RES TYR A 136
REMARK  2 active torsions:
REMARK  status: ('A' for Active; 'I' for Inactive)
REMARK    5  A    between atoms: CA   and  CB  
REMARK    6  A    between atoms: CB   and  CG  
ROOT
ATOM      7  CA  TYR A 136      36.583  36.399   8.994  1.00 26.14     0.191 C 
ENDROOT
BRANCH   7   8
ATOM      8  CB  TYR A 136      37.367  36.835  10.240  1.00 28.16     0.060 C 
BRANCH   8   9
ATOM      9  CG  TYR A 136      36.733  38.010  10.943  1.00 31.88    -0.020 A 
ATOM     10  CD2 TYR A 136      35.681  37.831  11.845  1.00 32.67    -0.002 A 
ATOM     11  CE2 TYR A 136      35.098  38.929  12.492  1.00 33.89     0.027 A 
ATOM     12  CZ  TYR A 136      35.570  40.218  12.233  1.00 34.34     0.131 A 
ATOM     13  OH  TYR A 136      35.012  41.319  12.867  1.00 35.14    -0.190 OA
ATOM     14  CE1 TYR A 136      36.613  40.414  11.339  1.00 35.01     0.027 A 
ATOM     15  CD1 TYR A 136      37.182  39.313  10.696  1.00 33.57    -0.002 A 
ENDBRANCH   8   9
ENDBRANCH   7   8
END_RES TYR A 136
BEGIN_RES ASN A 133
REMARK  2 active torsions:
REMARK  status: ('A' for Active; 'I' for Inactive)
REMARK    7  A    between atoms: CA   and  CB  
REMARK    8  A    between atoms: CB   and  CG  
ROOT
ATOM     16  CA  ASN A 133      31.225  30.257  11.749  1.00 18.15     0.196 C 
ENDROOT
BRANCH  16  17
ATOM     17  CB  ASN A 133      30.092  31.240  11.460  1.00 18.27     0.126 C 
BRANCH  17  18
ATOM     18  CG  ASN A 133      28.749  30.584  11.365  1.00 18.94     0.276 C 
ATOM     19  OD1 ASN A 133      28.566  29.608  10.636  1.00 18.09    -0.269 OA
ATOM     20  ND2 ASN A 133      27.784  31.122  12.110  1.00 18.93    -0.107 N 
ENDBRANCH  17  18
ENDBRANCH  16  17
END_RES ASN A 133
