REMARK VINA RESULT:    -3.073      7.921     14.959
REMARK INTER + INTRA:          -7.190
REMARK INTER:                  -4.201
REMARK INTRA:                  -2.988
REMARK UNBOUND:                -3.398
REMARK SMILES Cc1cn(CC(O)CO)nn1
REMARK SMILES IDX 6 1 5 2 4 3 1 4 2 5 3 6 11 7 10 8 7 9 8 11 9 12
REMARK H PARENT 7 10 9 13
REMARK Flexibility Score: inf
ROOT
ATOM      1  C   UNL     1      37.782  33.617  13.218  1.00  0.00     0.161 C 
ENDROOT
BRANCH   1   2
ATOM      2  C   UNL     1      37.604  34.593  14.357  1.00  0.00     0.180 C 
BRANCH   2   3
ATOM      3  N   UNL     1      38.595  34.398  15.394  1.00  0.00    -0.250 N 
ATOM      4  C   UNL     1      41.829  34.743  17.079  1.00  0.00     0.070 C 
ATOM      5  C   UNL     1      40.452  34.459  16.600  1.00  0.00     0.080 A 
ATOM      6  C   UNL     1      39.848  34.882  15.441  1.00  0.00     0.134 A 
ATOM      7  N   UNL     1      39.528  33.714  17.237  1.00  0.00    -0.136 NA
ATOM      8  N   UNL     1      38.442  33.695  16.502  1.00  0.00    -0.067 NA
ENDBRANCH   2   3
ENDBRANCH   1   2
BRANCH   1   9
ATOM      9  O   UNL     1      37.708  32.330  13.731  1.00  0.00    -0.389 OA
ATOM     10  H   UNL     1      38.564  31.907  13.898  1.00  0.00     0.211 HD
ENDBRANCH   1   9
BRANCH   1  11
ATOM     11  C   UNL     1      36.684  33.784  12.213  1.00  0.00     0.189 C 
BRANCH  11  12
ATOM     12  O   UNL     1      35.474  33.526  12.838  1.00  0.00    -0.394 OA
ATOM     13  H   UNL     1      34.754  34.126  12.514  1.00  0.00     0.210 HD
ENDBRANCH  11  12
ENDBRANCH   1  11
TORSDOF 5
BEGIN_RES LYS A 135
REMARK  4 active torsions:
REMARK  status: ('A' for Active; 'I' for Inactive)
REMARK    1  A    between atoms: CA   and  CB  
REMARK    2  A    between atoms: CB   and  CG  
REMARK    3  A    between atoms: CG   and  CD  
REMARK    4  A    between atoms: CD   and  CE  
ROOT
ATOM      1  CA  LYS A 135      33.193  34.663   9.290  1.00 25.02     0.186 C 
ENDROOT
BRANCH   1   2
ATOM      2  CB  LYS A 135      32.060  35.360  10.034  1.00 26.63     0.034 C 
BRANCH   2   3
ATOM      3  CG  LYS A 135      30.732  34.660   9.901  1.00 29.45     0.005 C 
BRANCH   3   4
ATOM      4  CD  LYS A 135      30.329  34.546   8.439  1.00 32.00     0.041 C 
BRANCH   4   5
ATOM      5  CE  LYS A 135      28.819  34.530   8.303  1.00 34.25     0.338 C 
ATOM      6  NZ  LYS A 135      28.184  33.818   9.446  1.00 35.99     0.618 N 
ENDBRANCH   4   5
ENDBRANCH   3   4
ENDBRANCH   2   3
ENDBRANCH   1   2
END_RES LYS A 135
BEGIN_RES TYR A 136
REMARK  2 active torsions:
REMARK  status: ('A' for Active; 'I' for Inactive)
REMARK    5  A    between atoms: CA   and  CB  
REMARK    6  A    between atoms: CB   and  CG  
ROOT
ATOM      7  CA  TYR A 136      36.583  36.399   8.994  1.00 26.14     0.191 C 
ENDROOT
BRANCH   7   8
ATOM      8  CB  TYR A 136      37.367  36.835  10.240  1.00 28.16     0.060 C 
BRANCH   8   9
ATOM      9  CG  TYR A 136      37.219  38.308  10.532  1.00 31.88    -0.020 A 
ATOM     10  CD2 TYR A 136      36.178  38.786  11.332  1.00 32.67    -0.002 A 
ATOM     11  CE2 TYR A 136      36.049  40.156  11.596  1.00 33.89     0.027 A 
ATOM     12  CZ  TYR A 136      36.970  41.057  11.055  1.00 34.34     0.131 A 
ATOM     13  OH  TYR A 136      36.865  42.417  11.309  1.00 35.14    -0.190 OA
ATOM     14  CE1 TYR A 136      38.009  40.600  10.258  1.00 35.01     0.027 A 
ATOM     15  CD1 TYR A 136      38.124  39.233   9.997  1.00 33.57    -0.002 A 
ENDBRANCH   8   9
ENDBRANCH   7   8
END_RES TYR A 136
BEGIN_RES ASN A 133
REMARK  2 active torsions:
REMARK  status: ('A' for Active; 'I' for Inactive)
REMARK    7  A    between atoms: CA   and  CB  
REMARK    8  A    between atoms: CB   and  CG  
ROOT
ATOM     16  CA  ASN A 133      31.225  30.257  11.749  1.00 18.15     0.196 C 
ENDROOT
BRANCH  16  17
ATOM     17  CB  ASN A 133      30.092  31.240  11.460  1.00 18.27     0.126 C 
BRANCH  17  18
ATOM     18  CG  ASN A 133      28.749  30.584  11.367  1.00 18.94     0.276 C 
ATOM     19  OD1 ASN A 133      27.804  30.964  12.061  1.00 18.09    -0.269 OA
ATOM     20  ND2 ASN A 133      28.650  29.578  10.499  1.00 18.93    -0.107 N 
ENDBRANCH  17  18
ENDBRANCH  16  17
END_RES ASN A 133
