REMARK VINA RESULT:    -4.217      3.118      4.683
REMARK INTER + INTRA:          -7.173
REMARK INTER:                  -3.758
REMARK INTRA:                  -3.415
REMARK UNBOUND:                -2.340
REMARK SMILES Cc1cn([C@@H](C)C(=O)O)nn1
REMARK SMILES IDX 5 1 6 2 4 3 1 4 2 5 3 6 11 7 10 8 7 9 8 10 9 11
REMARK H PARENT 9 12
REMARK Flexibility Score: inf
ROOT
ATOM      1  C   UNL     1      34.870  35.959  13.029  1.00  0.00     0.215 C 
ATOM      2  C   UNL     1      35.493  36.936  13.992  1.00  0.00     0.046 C 
ENDROOT
BRANCH   1   3
ATOM      3  N   UNL     1      33.583  35.466  13.532  1.00  0.00    -0.238 N 
ATOM      4  C   UNL     1      29.991  34.922  13.552  1.00  0.00     0.070 C 
ATOM      5  C   UNL     1      31.461  34.984  13.809  1.00  0.00     0.080 A 
ATOM      6  C   UNL     1      32.375  35.616  12.985  1.00  0.00     0.135 A 
ATOM      7  N   UNL     1      32.149  34.473  14.824  1.00  0.00    -0.136 NA
ATOM      8  N   UNL     1      33.427  34.771  14.642  1.00  0.00    -0.066 NA
ENDBRANCH   1   3
BRANCH   1   9
ATOM      9  C   UNL     1      35.780  34.817  12.822  1.00  0.00     0.328 C 
ATOM     10  O   UNL     1      37.000  35.017  12.658  1.00  0.00    -0.250 OA
BRANCH   9  11
ATOM     11  O   UNL     1      35.343  33.500  12.800  1.00  0.00    -0.480 OA
ATOM     12  H   UNL     1      35.887  32.749  13.252  1.00  0.00     0.296 HD
ENDBRANCH   9  11
ENDBRANCH   1   9
TORSDOF 3
BEGIN_RES LYS A 135
REMARK  4 active torsions:
REMARK  status: ('A' for Active; 'I' for Inactive)
REMARK    1  A    between atoms: CA   and  CB  
REMARK    2  A    between atoms: CB   and  CG  
REMARK    3  A    between atoms: CG   and  CD  
REMARK    4  A    between atoms: CD   and  CE  
ROOT
ATOM      1  CA  LYS A 135      33.193  34.663   9.290  1.00 25.02     0.186 C 
ENDROOT
BRANCH   1   2
ATOM      2  CB  LYS A 135      32.060  35.360  10.034  1.00 26.63     0.034 C 
BRANCH   2   3
ATOM      3  CG  LYS A 135      30.723  34.686   9.863  1.00 29.45     0.005 C 
BRANCH   3   4
ATOM      4  CD  LYS A 135      30.365  34.571   8.389  1.00 32.00     0.041 C 
BRANCH   4   5
ATOM      5  CE  LYS A 135      28.859  34.592   8.204  1.00 34.25     0.338 C 
ATOM      6  NZ  LYS A 135      28.170  33.910   9.334  1.00 35.99     0.618 N 
ENDBRANCH   4   5
ENDBRANCH   3   4
ENDBRANCH   2   3
ENDBRANCH   1   2
END_RES LYS A 135
BEGIN_RES TYR A 136
REMARK  2 active torsions:
REMARK  status: ('A' for Active; 'I' for Inactive)
REMARK    5  A    between atoms: CA   and  CB  
REMARK    6  A    between atoms: CB   and  CG  
ROOT
ATOM      7  CA  TYR A 136      36.583  36.399   8.994  1.00 26.14     0.191 C 
ENDROOT
BRANCH   7   8
ATOM      8  CB  TYR A 136      37.367  36.835  10.240  1.00 28.16     0.060 C 
BRANCH   8   9
ATOM      9  CG  TYR A 136      37.056  38.252  10.654  1.00 31.88    -0.020 A 
ATOM     10  CD2 TYR A 136      37.699  38.844  11.744  1.00 32.67    -0.002 A 
ATOM     11  CE2 TYR A 136      37.402  40.161  12.122  1.00 33.89     0.027 A 
ATOM     12  CZ  TYR A 136      36.453  40.892  11.403  1.00 34.34     0.131 A 
ATOM     13  OH  TYR A 136      36.148  42.199  11.755  1.00 35.14    -0.190 OA
ATOM     14  CE1 TYR A 136      35.804  40.319  10.319  1.00 35.01     0.027 A 
ATOM     15  CD1 TYR A 136      36.104  39.005   9.956  1.00 33.57    -0.002 A 
ENDBRANCH   8   9
ENDBRANCH   7   8
END_RES TYR A 136
BEGIN_RES ASN A 133
REMARK  2 active torsions:
REMARK  status: ('A' for Active; 'I' for Inactive)
REMARK    7  A    between atoms: CA   and  CB  
REMARK    8  A    between atoms: CB   and  CG  
ROOT
ATOM     16  CA  ASN A 133      31.225  30.257  11.749  1.00 18.15     0.196 C 
ENDROOT
BRANCH  16  17
ATOM     17  CB  ASN A 133      30.092  31.240  11.460  1.00 18.27     0.126 C 
BRANCH  17  18
ATOM     18  CG  ASN A 133      28.753  30.581  11.340  1.00 18.94     0.276 C 
ATOM     19  OD1 ASN A 133      28.589  29.597  10.616  1.00 18.09    -0.269 OA
ATOM     20  ND2 ASN A 133      27.769  31.124  12.056  1.00 18.93    -0.107 N 
ENDBRANCH  17  18
ENDBRANCH  16  17
END_RES ASN A 133
