REMARK VINA RESULT:    -4.163      3.355      4.095
REMARK INTER + INTRA:          -7.594
REMARK INTER:                  -4.520
REMARK INTRA:                  -3.074
REMARK UNBOUND:                -3.188
REMARK SMILES Cc1cn(-c2ccc(Cl)cc2)nn1
REMARK SMILES IDX 5 1 6 2 7 3 8 4 9 5 10 6 11 7 4 8 1 9 2 10 3 11 13 12 12 13
REMARK H PARENT
REMARK Flexibility Score: inf
ROOT
ATOM      1  C   UNL     1      34.805  36.475  13.510  1.00  0.00     0.066 A 
ATOM      2  C   UNL     1      34.628  37.564  14.340  1.00  0.00     0.030 A 
ATOM      3  C   UNL     1      33.626  38.484  14.176  1.00  0.00     0.023 A 
ATOM      4  C   UNL     1      32.728  38.335  13.123  1.00  0.00     0.041 A 
ATOM      5  Cl  UNL     1      31.436  39.499  12.888  1.00  0.00    -0.084 Cl
ATOM      6  C   UNL     1      32.888  37.247  12.275  1.00  0.00     0.023 A 
ATOM      7  C   UNL     1      33.909  36.336  12.468  1.00  0.00     0.030 A 
ENDROOT
BRANCH   1   8
ATOM      8  N   UNL     1      35.854  35.532  13.701  1.00  0.00    -0.220 N 
ATOM      9  C   UNL     1      37.946  32.666  12.739  1.00  0.00     0.070 C 
ATOM     10  C   UNL     1      37.251  33.826  13.342  1.00  0.00     0.080 A 
ATOM     11  C   UNL     1      36.192  34.544  12.830  1.00  0.00     0.140 A 
ATOM     12  N   UNL     1      37.536  34.397  14.522  1.00  0.00    -0.135 NA
ATOM     13  N   UNL     1      36.697  35.402  14.712  1.00  0.00    -0.062 NA
ENDBRANCH   1   8
TORSDOF 1
BEGIN_RES LYS A 135
REMARK  4 active torsions:
REMARK  status: ('A' for Active; 'I' for Inactive)
REMARK    1  A    between atoms: CA   and  CB  
REMARK    2  A    between atoms: CB   and  CG  
REMARK    3  A    between atoms: CG   and  CD  
REMARK    4  A    between atoms: CD   and  CE  
ROOT
ATOM      1  CA  LYS A 135      33.193  34.663   9.290  1.00 25.02     0.186 C 
ENDROOT
BRANCH   1   2
ATOM      2  CB  LYS A 135      32.060  35.360  10.034  1.00 26.63     0.034 C 
BRANCH   2   3
ATOM      3  CG  LYS A 135      30.802  35.506   9.217  1.00 29.45     0.005 C 
BRANCH   3   4
ATOM      4  CD  LYS A 135      30.129  34.156   9.023  1.00 32.00     0.041 C 
BRANCH   4   5
ATOM      5  CE  LYS A 135      28.669  34.338   8.652  1.00 34.25     0.338 C 
ATOM      6  NZ  LYS A 135      27.778  33.669   9.639  1.00 35.99     0.618 N 
ENDBRANCH   4   5
ENDBRANCH   3   4
ENDBRANCH   2   3
ENDBRANCH   1   2
END_RES LYS A 135
BEGIN_RES TYR A 136
REMARK  2 active torsions:
REMARK  status: ('A' for Active; 'I' for Inactive)
REMARK    5  A    between atoms: CA   and  CB  
REMARK    6  A    between atoms: CB   and  CG  
ROOT
ATOM      7  CA  TYR A 136      36.583  36.399   8.994  1.00 26.14     0.191 C 
ENDROOT
BRANCH   7   8
ATOM      8  CB  TYR A 136      37.367  36.835  10.240  1.00 28.16     0.060 C 
BRANCH   8   9
ATOM      9  CG  TYR A 136      36.825  38.103  10.852  1.00 31.88    -0.020 A 
ATOM     10  CD2 TYR A 136      35.739  38.774  10.285  1.00 32.67    -0.002 A 
ATOM     11  CE2 TYR A 136      35.244  39.952  10.860  1.00 33.89     0.027 A 
ATOM     12  CZ  TYR A 136      35.842  40.464  12.014  1.00 34.34     0.131 A 
ATOM     13  OH  TYR A 136      35.365  41.626  12.605  1.00 35.14    -0.190 OA
ATOM     14  CE1 TYR A 136      36.923  39.812  12.590  1.00 35.01     0.027 A 
ATOM     15  CD1 TYR A 136      37.410  38.643  12.005  1.00 33.57    -0.002 A 
ENDBRANCH   8   9
ENDBRANCH   7   8
END_RES TYR A 136
BEGIN_RES ASN A 133
REMARK  2 active torsions:
REMARK  status: ('A' for Active; 'I' for Inactive)
REMARK    7  A    between atoms: CA   and  CB  
REMARK    8  A    between atoms: CB   and  CG  
ROOT
ATOM     16  CA  ASN A 133      31.225  30.257  11.749  1.00 18.15     0.196 C 
ENDROOT
BRANCH  16  17
ATOM     17  CB  ASN A 133      30.092  31.240  11.460  1.00 18.27     0.126 C 
BRANCH  17  18
ATOM     18  CG  ASN A 133      28.750  30.584  11.364  1.00 18.94     0.276 C 
ATOM     19  OD1 ASN A 133      28.564  29.614  10.626  1.00 18.09    -0.269 OA
ATOM     20  ND2 ASN A 133      27.787  31.114  12.117  1.00 18.93    -0.107 N 
ENDBRANCH  17  18
ENDBRANCH  16  17
END_RES ASN A 133
