REMARK VINA RESULT:    -3.712      0.000      0.000
REMARK INTER + INTRA:          -7.694
REMARK INTER:                  -4.432
REMARK INTRA:                  -3.263
REMARK UNBOUND:                -3.223
REMARK SMILES Cc1cn(CCC(=O)O)nn1
REMARK SMILES IDX 6 1 5 2 4 3 1 4 2 5 3 6 11 7 10 8 7 9 8 10 9 11
REMARK H PARENT 9 12
REMARK Flexibility Score: inf
ROOT
ATOM      1  C   UNL     1      37.668  38.191   2.304  1.00  0.00     0.146 C 
ENDROOT
BRANCH   1   2
ATOM      2  C   UNL     1      37.819  37.387   3.599  1.00  0.00     0.158 C 
BRANCH   2   3
ATOM      3  N   UNL     1      37.170  38.072   4.688  1.00  0.00    -0.252 N 
ATOM      4  C   UNL     1      36.766  40.618   7.283  1.00  0.00     0.070 C 
ATOM      5  C   UNL     1      36.684  39.485   6.320  1.00  0.00     0.080 A 
ATOM      6  C   UNL     1      37.642  39.152   5.348  1.00  0.00     0.134 A 
ATOM      7  N   UNL     1      35.704  38.608   6.196  1.00  0.00    -0.136 NA
ATOM      8  N   UNL     1      36.017  37.766   5.210  1.00  0.00    -0.067 NA
ENDBRANCH   2   3
ENDBRANCH   1   2
BRANCH   1   9
ATOM      9  C   UNL     1      36.628  37.514   1.515  1.00  0.00     0.305 C 
ATOM     10  O   UNL     1      35.435  37.804   1.719  1.00  0.00    -0.252 OA
BRANCH   9  11
ATOM     11  O   UNL     1      36.961  36.568   0.565  1.00  0.00    -0.481 OA
ATOM     12  H   UNL     1      36.804  35.574   0.684  1.00  0.00     0.296 HD
ENDBRANCH   9  11
ENDBRANCH   1   9
TORSDOF 4
BEGIN_RES LYS A 135
REMARK  4 active torsions:
REMARK  status: ('A' for Active; 'I' for Inactive)
REMARK    1  A    between atoms: CA   and  CB  
REMARK    2  A    between atoms: CB   and  CG  
REMARK    3  A    between atoms: CG   and  CD  
REMARK    4  A    between atoms: CD   and  CE  
ROOT
ATOM      1  CA  LYS A 135      33.193  34.663   9.290  1.00 25.02     0.186 C 
ENDROOT
BRANCH   1   2
ATOM      2  CB  LYS A 135      32.060  35.360  10.034  1.00 26.63     0.034 C 
BRANCH   2   3
ATOM      3  CG  LYS A 135      30.839  35.601   9.184  1.00 29.45     0.005 C 
BRANCH   3   4
ATOM      4  CD  LYS A 135      30.228  34.282   8.736  1.00 32.00     0.041 C 
BRANCH   4   5
ATOM      5  CE  LYS A 135      28.737  34.437   8.508  1.00 34.25     0.338 C 
ATOM      6  NZ  LYS A 135      27.957  33.710   9.547  1.00 35.99     0.618 N 
ENDBRANCH   4   5
ENDBRANCH   3   4
ENDBRANCH   2   3
ENDBRANCH   1   2
END_RES LYS A 135
BEGIN_RES TYR A 136
REMARK  2 active torsions:
REMARK  status: ('A' for Active; 'I' for Inactive)
REMARK    5  A    between atoms: CA   and  CB  
REMARK    6  A    between atoms: CB   and  CG  
ROOT
ATOM      7  CA  TYR A 136      36.583  36.399   8.994  1.00 26.14     0.191 C 
ENDROOT
BRANCH   7   8
ATOM      8  CB  TYR A 136      37.367  36.835  10.240  1.00 28.16     0.060 C 
BRANCH   8   9
ATOM      9  CG  TYR A 136      37.269  38.319  10.497  1.00 31.88    -0.020 A 
ATOM     10  CD2 TYR A 136      36.039  38.929  10.752  1.00 32.67    -0.002 A 
ATOM     11  CE2 TYR A 136      35.959  40.308  10.988  1.00 33.89     0.027 A 
ATOM     12  CZ  TYR A 136      37.120  41.084  10.969  1.00 34.34     0.131 A 
ATOM     13  OH  TYR A 136      37.065  42.450  11.207  1.00 35.14    -0.190 OA
ATOM     14  CE1 TYR A 136      38.351  40.494  10.717  1.00 35.01     0.027 A 
ATOM     15  CD1 TYR A 136      38.417  39.121  10.477  1.00 33.57    -0.002 A 
ENDBRANCH   8   9
ENDBRANCH   7   8
END_RES TYR A 136
BEGIN_RES ASN A 133
REMARK  2 active torsions:
REMARK  status: ('A' for Active; 'I' for Inactive)
REMARK    7  A    between atoms: CA   and  CB  
REMARK    8  A    between atoms: CB   and  CG  
ROOT
ATOM     16  CA  ASN A 133      31.225  30.257  11.749  1.00 18.15     0.196 C 
ENDROOT
BRANCH  16  17
ATOM     17  CB  ASN A 133      30.092  31.240  11.460  1.00 18.27     0.126 C 
BRANCH  17  18
ATOM     18  CG  ASN A 133      28.756  30.578  11.319  1.00 18.94     0.276 C 
ATOM     19  OD1 ASN A 133      28.597  29.614  10.569  1.00 18.09    -0.269 OA
ATOM     20  ND2 ASN A 133      27.769  31.098  12.048  1.00 18.93    -0.107 N 
ENDBRANCH  17  18
ENDBRANCH  16  17
END_RES ASN A 133
