REMARK VINA RESULT:    -5.422      4.525      8.940
REMARK INTER + INTRA:          -7.498
REMARK INTER:                  -5.162
REMARK INTRA:                  -2.335
REMARK UNBOUND:                -1.442
REMARK SMILES Cc1cn(Cc2ccccc2Br)nn1
REMARK SMILES IDX 5 1 4 2 1 3 2 4 3 5 14 6 13 7 6 8 7 9 11 10 8 11 10 12 12 13
REMARK SMILES IDX 9 14
REMARK H PARENT
REMARK Flexibility Score: inf
ROOT
ATOM      1  C   UNL     1      25.623  37.280   9.072  1.00  0.00     0.182 C 
ENDROOT
BRANCH   1   2
ATOM      2  N   UNL     1      24.226  37.236   8.699  1.00  0.00    -0.248 N 
ATOM      3  C   UNL     1      20.978  35.549   8.337  1.00  0.00     0.070 C 
ATOM      4  C   UNL     1      22.175  36.459   8.379  1.00  0.00     0.080 A 
ATOM      5  C   UNL     1      23.432  36.145   8.824  1.00  0.00     0.134 A 
ATOM      6  N   UNL     1      22.234  37.764   7.983  1.00  0.00    -0.136 NA
ATOM      7  N   UNL     1      23.473  38.162   8.199  1.00  0.00    -0.067 NA
ENDBRANCH   1   2
BRANCH   1   8
ATOM      8  C   UNL     1      26.523  36.761   8.024  1.00  0.00    -0.012 A 
ATOM      9  C   UNL     1      26.746  37.530   6.909  1.00  0.00     0.007 A 
ATOM     10  C   UNL     1      27.126  35.508   8.175  1.00  0.00     0.023 A 
ATOM     11  C   UNL     1      27.578  37.065   5.916  1.00  0.00     0.000 A 
ATOM     12  C   UNL     1      27.957  35.050   7.177  1.00  0.00     0.016 A 
ATOM     13  Br  UNL     1      26.747  34.528   9.760  1.00  0.00    -0.050 Br
ATOM     14  C   UNL     1      28.165  35.827   6.080  1.00  0.00     0.001 A 
ENDBRANCH   1   8
TORSDOF 2
BEGIN_RES LYS A 135
REMARK  4 active torsions:
REMARK  status: ('A' for Active; 'I' for Inactive)
REMARK    1  A    between atoms: CA   and  CB  
REMARK    2  A    between atoms: CB   and  CG  
REMARK    3  A    between atoms: CG   and  CD  
REMARK    4  A    between atoms: CD   and  CE  
ROOT
ATOM      1  CA  LYS A 135      33.193  34.663   9.290  1.00 25.02     0.186 C 
ENDROOT
BRANCH   1   2
ATOM      2  CB  LYS A 135      32.060  35.360  10.034  1.00 26.63     0.034 C 
BRANCH   2   3
ATOM      3  CG  LYS A 135      30.802  35.506   9.217  1.00 29.45     0.005 C 
BRANCH   3   4
ATOM      4  CD  LYS A 135      30.530  36.970   8.907  1.00 32.00     0.041 C 
BRANCH   4   5
ATOM      5  CE  LYS A 135      30.258  37.742  10.184  1.00 34.25     0.338 C 
ATOM      6  NZ  LYS A 135      29.002  37.277  10.836  1.00 35.99     0.618 N 
ENDBRANCH   4   5
ENDBRANCH   3   4
ENDBRANCH   2   3
ENDBRANCH   1   2
END_RES LYS A 135
BEGIN_RES TYR A 136
REMARK  2 active torsions:
REMARK  status: ('A' for Active; 'I' for Inactive)
REMARK    5  A    between atoms: CA   and  CB  
REMARK    6  A    between atoms: CB   and  CG  
ROOT
ATOM      7  CA  TYR A 136      36.583  36.399   8.994  1.00 26.14     0.191 C 
ENDROOT
BRANCH   7   8
ATOM      8  CB  TYR A 136      37.367  36.835  10.240  1.00 28.16     0.060 C 
BRANCH   8   9
ATOM      9  CG  TYR A 136      37.233  38.311  10.523  1.00 31.88    -0.020 A 
ATOM     10  CD2 TYR A 136      37.944  38.916  11.562  1.00 32.67    -0.002 A 
ATOM     11  CE2 TYR A 136      37.811  40.288  11.817  1.00 33.89     0.027 A 
ATOM     12  CZ  TYR A 136      36.959  41.061  11.025  1.00 34.34     0.131 A 
ATOM     13  OH  TYR A 136      36.817  42.423  11.256  1.00 35.14    -0.190 OA
ATOM     14  CE1 TYR A 136      36.244  40.477   9.990  1.00 35.01     0.027 A 
ATOM     15  CD1 TYR A 136      36.380  39.109   9.749  1.00 33.57    -0.002 A 
ENDBRANCH   8   9
ENDBRANCH   7   8
END_RES TYR A 136
BEGIN_RES ASN A 133
REMARK  2 active torsions:
REMARK  status: ('A' for Active; 'I' for Inactive)
REMARK    7  A    between atoms: CA   and  CB  
REMARK    8  A    between atoms: CB   and  CG  
ROOT
ATOM     16  CA  ASN A 133      31.225  30.257  11.749  1.00 18.15     0.196 C 
ENDROOT
BRANCH  16  17
ATOM     17  CB  ASN A 133      30.092  31.240  11.460  1.00 18.27     0.126 C 
BRANCH  17  18
ATOM     18  CG  ASN A 133      28.757  30.578  11.317  1.00 18.94     0.276 C 
ATOM     19  OD1 ASN A 133      28.601  29.610  10.570  1.00 18.09    -0.269 OA
ATOM     20  ND2 ASN A 133      27.767  31.101  12.039  1.00 18.93    -0.107 N 
ENDBRANCH  17  18
ENDBRANCH  16  17
END_RES ASN A 133
