REMARK VINA RESULT:    -4.243      2.879      4.854
REMARK INTER + INTRA:          -8.541
REMARK INTER:                  -6.025
REMARK INTRA:                  -2.516
REMARK UNBOUND:                -3.429
REMARK SMILES Cc1cn(-c2cccc(C=CC(=O)O)c2)nn1
REMARK SMILES IDX 10 1 11 2 9 3 5 4 15 5 6 6 7 7 8 8 4 9 1 10 2 11 3 12 17 13
REMARK SMILES IDX 16 14 12 15 13 16 14 17
REMARK H PARENT 14 18
REMARK Flexibility Score: inf
ROOT
ATOM      1  C   UNL     1      32.574  35.700  13.046  1.00  0.00     0.015 C 
ATOM      2  C   UNL     1      31.696  34.938  13.532  1.00  0.00     0.094 C 
ENDROOT
BRANCH   1   3
ATOM      3  C   UNL     1      33.937  35.982  13.364  1.00  0.00    -0.023 A 
ATOM      4  C   UNL     1      36.304  35.505  13.497  1.00  0.00     0.067 A 
ATOM      5  C   UNL     1      35.008  35.192  13.066  1.00  0.00     0.036 A 
ATOM      6  C   UNL     1      36.487  36.645  14.240  1.00  0.00     0.028 A 
ATOM      7  C   UNL     1      35.419  37.459  14.549  1.00  0.00     0.003 A 
ATOM      8  C   UNL     1      34.161  37.149  14.127  1.00  0.00     0.008 A 
BRANCH   4   9
ATOM      9  N   UNL     1      37.392  34.652  13.167  1.00  0.00    -0.220 N 
ATOM     10  C   UNL     1      40.941  33.786  12.651  1.00  0.00     0.070 C 
ATOM     11  C   UNL     1      39.460  33.888  12.791  1.00  0.00     0.080 A 
ATOM     12  C   UNL     1      38.708  34.982  13.167  1.00  0.00     0.140 A 
ATOM     13  N   UNL     1      38.553  32.909  12.572  1.00  0.00    -0.135 NA
ATOM     14  N   UNL     1      37.333  33.373  12.798  1.00  0.00    -0.062 NA
ENDBRANCH   4   9
ENDBRANCH   1   3
BRANCH   2  15
ATOM     15  C   UNL     1      31.604  34.013  14.600  1.00  0.00     0.328 C 
ATOM     16  O   UNL     1      32.044  34.116  15.762  1.00  0.00    -0.247 OA
BRANCH  15  17
ATOM     17  O   UNL     1      30.917  32.767  14.366  1.00  0.00    -0.478 OA
ATOM     18  H   UNL     1      31.524  31.951  14.268  1.00  0.00     0.297 HD
ENDBRANCH  15  17
ENDBRANCH   2  15
TORSDOF 4
BEGIN_RES LYS A 135
REMARK  4 active torsions:
REMARK  status: ('A' for Active; 'I' for Inactive)
REMARK    1  A    between atoms: CA   and  CB  
REMARK    2  A    between atoms: CB   and  CG  
REMARK    3  A    between atoms: CG   and  CD  
REMARK    4  A    between atoms: CD   and  CE  
ROOT
ATOM      1  CA  LYS A 135      33.193  34.663   9.290  1.00 25.02     0.186 C 
ENDROOT
BRANCH   1   2
ATOM      2  CB  LYS A 135      32.060  35.360  10.034  1.00 26.63     0.034 C 
BRANCH   2   3
ATOM      3  CG  LYS A 135      30.743  34.632   9.945  1.00 29.45     0.005 C 
BRANCH   3   4
ATOM      4  CD  LYS A 135      29.715  35.472   9.203  1.00 32.00     0.041 C 
BRANCH   4   5
ATOM      5  CE  LYS A 135      29.207  34.734   7.979  1.00 34.25     0.338 C 
ATOM      6  NZ  LYS A 135      29.024  35.663   6.830  1.00 35.99     0.618 N 
ENDBRANCH   4   5
ENDBRANCH   3   4
ENDBRANCH   2   3
ENDBRANCH   1   2
END_RES LYS A 135
BEGIN_RES TYR A 136
REMARK  2 active torsions:
REMARK  status: ('A' for Active; 'I' for Inactive)
REMARK    5  A    between atoms: CA   and  CB  
REMARK    6  A    between atoms: CB   and  CG  
ROOT
ATOM      7  CA  TYR A 136      36.583  36.399   8.994  1.00 26.14     0.191 C 
ENDROOT
BRANCH   7   8
ATOM      8  CB  TYR A 136      37.367  36.835  10.240  1.00 28.16     0.060 C 
BRANCH   8   9
ATOM      9  CG  TYR A 136      36.789  38.070  10.886  1.00 31.88    -0.020 A 
ATOM     10  CD2 TYR A 136      35.436  38.389  10.755  1.00 32.67    -0.002 A 
ATOM     11  CE2 TYR A 136      34.909  39.540  11.358  1.00 33.89     0.027 A 
ATOM     12  CZ  TYR A 136      35.745  40.379  12.099  1.00 34.34     0.131 A 
ATOM     13  OH  TYR A 136      35.244  41.520  12.710  1.00 35.14    -0.190 OA
ATOM     14  CE1 TYR A 136      37.092  40.078  12.239  1.00 35.01     0.027 A 
ATOM     15  CD1 TYR A 136      37.606  38.933  11.628  1.00 33.57    -0.002 A 
ENDBRANCH   8   9
ENDBRANCH   7   8
END_RES TYR A 136
BEGIN_RES ASN A 133
REMARK  2 active torsions:
REMARK  status: ('A' for Active; 'I' for Inactive)
REMARK    7  A    between atoms: CA   and  CB  
REMARK    8  A    between atoms: CB   and  CG  
ROOT
ATOM     16  CA  ASN A 133      31.225  30.257  11.749  1.00 18.15     0.196 C 
ENDROOT
BRANCH  16  17
ATOM     17  CB  ASN A 133      30.092  31.240  11.460  1.00 18.27     0.126 C 
BRANCH  17  18
ATOM     18  CG  ASN A 133      28.750  30.583  11.358  1.00 18.94     0.276 C 
ATOM     19  OD1 ASN A 133      28.574  29.601  10.635  1.00 18.09    -0.269 OA
ATOM     20  ND2 ASN A 133      27.778  31.127  12.090  1.00 18.93    -0.107 N 
ENDBRANCH  17  18
ENDBRANCH  16  17
END_RES ASN A 133
