REMARK VINA RESULT:    -5.034      3.972      6.899
REMARK INTER + INTRA:          -8.709
REMARK INTER:                  -5.292
REMARK INTRA:                  -3.417
REMARK UNBOUND:                -3.381
REMARK SMILES Cc1cn(C2c3ccccc3-c3ccccc32)nn1
REMARK SMILES IDX 5 1 6 2 7 3 8 4 9 5 10 6 11 7 12 8 13 9 14 10 15 11 16 12
REMARK SMILES IDX 17 13 4 14 1 15 2 16 3 17 19 18 18 19
REMARK H PARENT
REMARK Flexibility Score: inf
ROOT
ATOM      1  C   UNL     1      29.451  32.040  18.764  1.00  0.00     0.170 C 
ATOM      2  C   UNL     1      28.725  31.005  18.014  1.00  0.00    -0.011 A 
ATOM      3  C   UNL     1      27.750  30.125  18.459  1.00  0.00     0.007 A 
ATOM      4  C   UNL     1      27.189  29.222  17.581  1.00  0.00     0.000 A 
ATOM      5  C   UNL     1      27.617  29.215  16.261  1.00  0.00     0.001 A 
ATOM      6  C   UNL     1      28.590  30.095  15.814  1.00  0.00     0.009 A 
ATOM      7  C   UNL     1      29.140  30.993  16.710  1.00  0.00    -0.012 A 
ATOM      8  C   UNL     1      30.154  32.020  16.564  1.00  0.00    -0.012 A 
ATOM      9  C   UNL     1      30.876  32.389  15.421  1.00  0.00     0.009 A 
ATOM     10  C   UNL     1      31.790  33.399  15.531  1.00  0.00     0.001 A 
ATOM     11  C   UNL     1      32.031  34.070  16.719  1.00  0.00     0.000 A 
ATOM     12  C   UNL     1      31.299  33.669  17.802  1.00  0.00     0.007 A 
ATOM     13  C   UNL     1      30.349  32.648  17.768  1.00  0.00    -0.011 A 
ENDROOT
BRANCH   1  14
ATOM     14  N   UNL     1      30.123  31.511  19.904  1.00  0.00    -0.240 N 
ATOM     15  C   UNL     1      32.377  29.214  21.593  1.00  0.00     0.070 C 
ATOM     16  C   UNL     1      31.419  30.267  21.189  1.00  0.00     0.080 A 
ATOM     17  C   UNL     1      30.978  30.481  19.891  1.00  0.00     0.135 A 
ATOM     18  N   UNL     1      30.805  31.186  21.938  1.00  0.00    -0.136 NA
ATOM     19  N   UNL     1      30.023  31.933  21.145  1.00  0.00    -0.066 NA
ENDBRANCH   1  14
TORSDOF 1
BEGIN_RES LYS A 135
REMARK  4 active torsions:
REMARK  status: ('A' for Active; 'I' for Inactive)
REMARK    1  A    between atoms: CA   and  CB  
REMARK    2  A    between atoms: CB   and  CG  
REMARK    3  A    between atoms: CG   and  CD  
REMARK    4  A    between atoms: CD   and  CE  
ROOT
ATOM      1  CA  LYS A 135      33.193  34.663   9.290  1.00 25.02     0.186 C 
ENDROOT
BRANCH   1   2
ATOM      2  CB  LYS A 135      32.060  35.360  10.034  1.00 26.63     0.034 C 
BRANCH   2   3
ATOM      3  CG  LYS A 135      30.729  34.668   9.890  1.00 29.45     0.005 C 
BRANCH   3   4
ATOM      4  CD  LYS A 135      30.336  34.561   8.425  1.00 32.00     0.041 C 
BRANCH   4   5
ATOM      5  CE  LYS A 135      28.826  34.551   8.278  1.00 34.25     0.338 C 
ATOM      6  NZ  LYS A 135      28.181  33.838   9.415  1.00 35.99     0.618 N 
ENDBRANCH   4   5
ENDBRANCH   3   4
ENDBRANCH   2   3
ENDBRANCH   1   2
END_RES LYS A 135
BEGIN_RES TYR A 136
REMARK  2 active torsions:
REMARK  status: ('A' for Active; 'I' for Inactive)
REMARK    5  A    between atoms: CA   and  CB  
REMARK    6  A    between atoms: CB   and  CG  
ROOT
ATOM      7  CA  TYR A 136      36.583  36.399   8.994  1.00 26.14     0.191 C 
ENDROOT
BRANCH   7   8
ATOM      8  CB  TYR A 136      37.367  36.835  10.240  1.00 28.16     0.060 C 
BRANCH   8   9
ATOM      9  CG  TYR A 136      37.197  38.302  10.548  1.00 31.88    -0.020 A 
ATOM     10  CD2 TYR A 136      36.694  39.188   9.593  1.00 32.67    -0.002 A 
ATOM     11  CE2 TYR A 136      36.542  40.550   9.889  1.00 33.89     0.027 A 
ATOM     12  CZ  TYR A 136      36.897  41.029  11.152  1.00 34.34     0.131 A 
ATOM     13  OH  TYR A 136      36.749  42.372  11.469  1.00 35.14    -0.190 OA
ATOM     14  CE1 TYR A 136      37.400  40.164  12.112  1.00 35.01     0.027 A 
ATOM     15  CD1 TYR A 136      37.553  38.811  11.804  1.00 33.57    -0.002 A 
ENDBRANCH   8   9
ENDBRANCH   7   8
END_RES TYR A 136
BEGIN_RES ASN A 133
REMARK  2 active torsions:
REMARK  status: ('A' for Active; 'I' for Inactive)
REMARK    7  A    between atoms: CA   and  CB  
REMARK    8  A    between atoms: CB   and  CG  
ROOT
ATOM     16  CA  ASN A 133      31.225  30.257  11.749  1.00 18.15     0.196 C 
ENDROOT
BRANCH  16  17
ATOM     17  CB  ASN A 133      30.092  31.240  11.460  1.00 18.27     0.126 C 
BRANCH  17  18
ATOM     18  CG  ASN A 133      28.750  30.583  11.358  1.00 18.94     0.276 C 
ATOM     19  OD1 ASN A 133      28.571  29.607  10.627  1.00 18.09    -0.269 OA
ATOM     20  ND2 ASN A 133      27.781  31.119  12.098  1.00 18.93    -0.107 N 
ENDBRANCH  17  18
ENDBRANCH  16  17
END_RES ASN A 133
