REMARK VINA RESULT:    -5.587      3.437      6.116
REMARK INTER + INTRA:          -9.254
REMARK INTER:                  -5.800
REMARK INTRA:                  -3.454
REMARK UNBOUND:                -2.688
REMARK SMILES Cc1cn(C(c2ccccc2)c2ccccc2)nn1
REMARK SMILES IDX 5 1 4 2 1 3 2 4 3 5 19 6 18 7 6 8 7 9 11 10 8 11 10 12 9 13
REMARK SMILES IDX 12 14 13 15 17 16 14 17 16 18 15 19
REMARK H PARENT
REMARK Flexibility Score: inf
ROOT
ATOM      1  C   UNL     1      38.149  35.527  15.808  1.00  0.00     0.169 C 
ENDROOT
BRANCH   1   2
ATOM      2  N   UNL     1      39.416  36.222  15.590  1.00  0.00    -0.240 N 
ATOM      3  C   UNL     1      42.955  37.011  16.050  1.00  0.00     0.070 C 
ATOM      4  C   UNL     1      41.538  36.876  15.699  1.00  0.00     0.080 A 
ATOM      5  C   UNL     1      40.592  35.988  16.200  1.00  0.00     0.135 A 
ATOM      6  N   UNL     1      40.873  37.619  14.794  1.00  0.00    -0.136 NA
ATOM      7  N   UNL     1      39.620  37.216  14.746  1.00  0.00    -0.066 NA
ENDBRANCH   1   2
BRANCH   1   8
ATOM      8  C   UNL     1      38.147  34.690  17.026  1.00  0.00    -0.019 A 
ATOM      9  C   UNL     1      38.696  33.437  17.086  1.00  0.00     0.006 A 
ATOM     10  C   UNL     1      37.570  35.170  18.199  1.00  0.00     0.006 A 
ATOM     11  C   UNL     1      38.661  32.706  18.279  1.00  0.00     0.000 A 
ATOM     12  C   UNL     1      37.535  34.454  19.369  1.00  0.00     0.000 A 
ATOM     13  C   UNL     1      38.085  33.203  19.420  1.00  0.00     0.000 A 
ENDBRANCH   1   8
BRANCH   1  14
ATOM     14  C   UNL     1      37.685  34.846  14.598  1.00  0.00    -0.019 A 
ATOM     15  C   UNL     1      38.479  34.065  13.787  1.00  0.00     0.006 A 
ATOM     16  C   UNL     1      36.360  34.954  14.216  1.00  0.00     0.006 A 
ATOM     17  C   UNL     1      37.973  33.449  12.683  1.00  0.00     0.000 A 
ATOM     18  C   UNL     1      35.824  34.341  13.105  1.00  0.00     0.000 A 
ATOM     19  C   UNL     1      36.651  33.581  12.336  1.00  0.00     0.000 A 
ENDBRANCH   1  14
TORSDOF 3
BEGIN_RES LYS A 135
REMARK  4 active torsions:
REMARK  status: ('A' for Active; 'I' for Inactive)
REMARK    1  A    between atoms: CA   and  CB  
REMARK    2  A    between atoms: CB   and  CG  
REMARK    3  A    between atoms: CG   and  CD  
REMARK    4  A    between atoms: CD   and  CE  
ROOT
ATOM      1  CA  LYS A 135      33.193  34.663   9.290  1.00 25.02     0.186 C 
ENDROOT
BRANCH   1   2
ATOM      2  CB  LYS A 135      32.060  35.360  10.034  1.00 26.63     0.034 C 
BRANCH   2   3
ATOM      3  CG  LYS A 135      30.709  34.735   9.797  1.00 29.45     0.005 C 
BRANCH   3   4
ATOM      4  CD  LYS A 135      30.468  34.526   8.310  1.00 32.00     0.041 C 
BRANCH   4   5
ATOM      5  CE  LYS A 135      29.021  34.816   7.960  1.00 34.25     0.338 C 
ATOM      6  NZ  LYS A 135      28.916  35.522   6.654  1.00 35.99     0.618 N 
ENDBRANCH   4   5
ENDBRANCH   3   4
ENDBRANCH   2   3
ENDBRANCH   1   2
END_RES LYS A 135
BEGIN_RES TYR A 136
REMARK  2 active torsions:
REMARK  status: ('A' for Active; 'I' for Inactive)
REMARK    5  A    between atoms: CA   and  CB  
REMARK    6  A    between atoms: CB   and  CG  
ROOT
ATOM      7  CA  TYR A 136      36.583  36.399   8.994  1.00 26.14     0.191 C 
ENDROOT
BRANCH   7   8
ATOM      8  CB  TYR A 136      37.367  36.835  10.240  1.00 28.16     0.060 C 
BRANCH   8   9
ATOM      9  CG  TYR A 136      36.747  38.026  10.929  1.00 31.88    -0.020 A 
ATOM     10  CD2 TYR A 136      36.524  38.029  12.307  1.00 32.67    -0.002 A 
ATOM     11  CE2 TYR A 136      35.946  39.139  12.937  1.00 33.89     0.027 A 
ATOM     12  CZ  TYR A 136      35.586  40.257  12.180  1.00 34.34     0.131 A 
ATOM     13  OH  TYR A 136      35.018  41.370  12.784  1.00 35.14    -0.190 OA
ATOM     14  CE1 TYR A 136      35.799  40.270  10.809  1.00 35.01     0.027 A 
ATOM     15  CD1 TYR A 136      36.370  39.156  10.192  1.00 33.57    -0.002 A 
ENDBRANCH   8   9
ENDBRANCH   7   8
END_RES TYR A 136
BEGIN_RES ASN A 133
REMARK  2 active torsions:
REMARK  status: ('A' for Active; 'I' for Inactive)
REMARK    7  A    between atoms: CA   and  CB  
REMARK    8  A    between atoms: CB   and  CG  
ROOT
ATOM     16  CA  ASN A 133      31.225  30.257  11.749  1.00 18.15     0.196 C 
ENDROOT
BRANCH  16  17
ATOM     17  CB  ASN A 133      30.092  31.240  11.460  1.00 18.27     0.126 C 
BRANCH  17  18
ATOM     18  CG  ASN A 133      28.755  30.579  11.325  1.00 18.94     0.276 C 
ATOM     19  OD1 ASN A 133      28.590  29.621  10.567  1.00 18.09    -0.269 OA
ATOM     20  ND2 ASN A 133      27.774  31.091  12.067  1.00 18.93    -0.107 N 
ENDBRANCH  17  18
ENDBRANCH  16  17
END_RES ASN A 133
