REMARK VINA RESULT:    -4.872      0.000      0.000
REMARK INTER + INTRA:         -10.084
REMARK INTER:                  -6.444
REMARK INTRA:                  -3.639
REMARK UNBOUND:                -3.788
REMARK SMILES Cc1cn(CCNC(=O)NCc2ccco2)nn1
REMARK SMILES IDX 7 1 8 2 9 3 10 4 6 7 5 8 4 9 1 10 2 11 3 12 18 13 17 14
REMARK SMILES IDX 11 15 12 16 13 17 16 18 14 19 15 20
REMARK H PARENT 7 5 10 6
REMARK Flexibility Score: inf
ROOT
ATOM      1  N   UNL     1      32.077  34.906  12.505  1.00  0.00    -0.336 N 
ATOM      2  C   UNL     1      33.283  35.408  13.067  1.00  0.00     0.315 C 
ATOM      3  O   UNL     1      33.217  36.006  14.152  1.00  0.00    -0.249 OA
ATOM      4  N   UNL     1      34.544  35.233  12.407  1.00  0.00    -0.331 N 
ATOM      5  H   UNL     1      32.154  34.407  11.594  1.00  0.00     0.165 HD
ATOM      6  H   UNL     1      34.536  34.722  11.499  1.00  0.00     0.165 HD
ENDROOT
BRANCH   1   7
ATOM      7  C   UNL     1      30.804  35.061  13.133  1.00  0.00     0.141 C 
BRANCH   7   8
ATOM      8  C   UNL     1      29.958  33.814  13.122  1.00  0.00     0.167 C 
BRANCH   8   9
ATOM      9  N   UNL     1      30.222  33.104  14.357  1.00  0.00    -0.251 N 
ATOM     10  C   UNL     1      29.640  30.861  17.142  1.00  0.00     0.070 C 
ATOM     11  C   UNL     1      30.118  31.817  16.134  1.00  0.00     0.080 A 
ATOM     12  C   UNL     1      29.438  32.226  15.011  1.00  0.00     0.134 A 
ATOM     13  N   UNL     1      31.297  32.449  16.143  1.00  0.00    -0.136 NA
ATOM     14  N   UNL     1      31.330  33.211  15.069  1.00  0.00    -0.067 NA
ENDBRANCH   8   9
ENDBRANCH   7   8
ENDBRANCH   1   7
BRANCH   4  15
ATOM     15  C   UNL     1      35.738  35.759  13.015  1.00  0.00     0.193 C 
BRANCH  15  16
ATOM     16  C   UNL     1      36.852  34.784  12.933  1.00  0.00     0.122 A 
ATOM     17  C   UNL     1      36.813  33.514  12.404  1.00  0.00     0.047 A 
ATOM     18  O   UNL     1      38.095  34.981  13.364  1.00  0.00    -0.467 OA
ATOM     19  C   UNL     1      38.092  32.956  12.538  1.00  0.00     0.042 A 
ATOM     20  C   UNL     1      38.828  33.939  13.147  1.00  0.00     0.195 A 
ENDBRANCH  15  16
ENDBRANCH   4  15
TORSDOF 5
BEGIN_RES LYS A 135
REMARK  4 active torsions:
REMARK  status: ('A' for Active; 'I' for Inactive)
REMARK    1  A    between atoms: CA   and  CB  
REMARK    2  A    between atoms: CB   and  CG  
REMARK    3  A    between atoms: CG   and  CD  
REMARK    4  A    between atoms: CD   and  CE  
ROOT
ATOM      1  CA  LYS A 135      33.193  34.663   9.290  1.00 25.02     0.186 C 
ENDROOT
BRANCH   1   2
ATOM      2  CB  LYS A 135      32.060  35.360  10.034  1.00 26.63     0.034 C 
BRANCH   2   3
ATOM      3  CG  LYS A 135      30.790  35.472   9.230  1.00 29.45     0.005 C 
BRANCH   3   4
ATOM      4  CD  LYS A 135      30.216  34.093   8.940  1.00 32.00     0.041 C 
BRANCH   4   5
ATOM      5  CE  LYS A 135      28.777  34.006   9.411  1.00 34.25     0.338 C 
ATOM      6  NZ  LYS A 135      27.844  34.557   8.390  1.00 35.99     0.618 N 
ENDBRANCH   4   5
ENDBRANCH   3   4
ENDBRANCH   2   3
ENDBRANCH   1   2
END_RES LYS A 135
BEGIN_RES TYR A 136
REMARK  2 active torsions:
REMARK  status: ('A' for Active; 'I' for Inactive)
REMARK    5  A    between atoms: CA   and  CB  
REMARK    6  A    between atoms: CB   and  CG  
ROOT
ATOM      7  CA  TYR A 136      36.583  36.399   8.994  1.00 26.14     0.191 C 
ENDROOT
BRANCH   7   8
ATOM      8  CB  TYR A 136      37.367  36.835  10.240  1.00 28.16     0.060 C 
BRANCH   8   9
ATOM      9  CG  TYR A 136      37.136  38.284  10.593  1.00 31.88    -0.020 A 
ATOM     10  CD2 TYR A 136      36.417  39.129   9.745  1.00 32.67    -0.002 A 
ATOM     11  CE2 TYR A 136      36.210  40.474  10.082  1.00 33.89     0.027 A 
ATOM     12  CZ  TYR A 136      36.726  40.977  11.278  1.00 34.34     0.131 A 
ATOM     13  OH  TYR A 136      36.527  42.303  11.636  1.00 35.14    -0.190 OA
ATOM     14  CE1 TYR A 136      37.444  40.152  12.132  1.00 35.01     0.027 A 
ATOM     15  CD1 TYR A 136      37.650  38.816  11.783  1.00 33.57    -0.002 A 
ENDBRANCH   8   9
ENDBRANCH   7   8
END_RES TYR A 136
BEGIN_RES ASN A 133
REMARK  2 active torsions:
REMARK  status: ('A' for Active; 'I' for Inactive)
REMARK    7  A    between atoms: CA   and  CB  
REMARK    8  A    between atoms: CB   and  CG  
ROOT
ATOM     16  CA  ASN A 133      31.225  30.257  11.749  1.00 18.15     0.196 C 
ENDROOT
BRANCH  16  17
ATOM     17  CB  ASN A 133      30.092  31.240  11.460  1.00 18.27     0.126 C 
BRANCH  17  18
ATOM     18  CG  ASN A 133      28.760  30.576  11.295  1.00 18.94     0.276 C 
ATOM     19  OD1 ASN A 133      28.625  29.590  10.567  1.00 18.09    -0.269 OA
ATOM     20  ND2 ASN A 133      27.751  31.117  11.975  1.00 18.93    -0.107 N 
ENDBRANCH  17  18
ENDBRANCH  16  17
END_RES ASN A 133
