REMARK VINA RESULT:    -3.069      7.633     14.561
REMARK INTER + INTRA:          -7.185
REMARK INTER:                  -3.821
REMARK INTRA:                  -3.363
REMARK UNBOUND:                -3.398
REMARK SMILES Cc1cn(CC(O)CO)nn1
REMARK SMILES IDX 6 1 5 2 4 3 1 4 2 5 3 6 11 7 10 8 7 9 8 11 9 12
REMARK H PARENT 7 10 9 13
REMARK Flexibility Score: inf
ROOT
ATOM      1  C   UNL     1      30.158  28.001  21.032  1.00  0.00     0.161 C 
ENDROOT
BRANCH   1   2
ATOM      2  C   UNL     1      29.322  29.156  20.532  1.00  0.00     0.180 C 
BRANCH   2   3
ATOM      3  N   UNL     1      28.063  28.707  19.974  1.00  0.00    -0.250 N 
ATOM      4  C   UNL     1      25.411  28.368  17.472  1.00  0.00     0.070 C 
ATOM      5  C   UNL     1      26.337  28.354  18.633  1.00  0.00     0.080 A 
ATOM      6  C   UNL     1      27.554  28.978  18.760  1.00  0.00     0.134 A 
ATOM      7  N   UNL     1      26.138  27.709  19.798  1.00  0.00    -0.136 NA
ATOM      8  N   UNL     1      27.172  27.936  20.572  1.00  0.00    -0.067 NA
ENDBRANCH   2   3
ENDBRANCH   1   2
BRANCH   1   9
ATOM      9  O   UNL     1      29.751  26.851  20.372  1.00  0.00    -0.389 OA
ATOM     10  H   UNL     1      30.332  26.084  20.492  1.00  0.00     0.211 HD
ENDBRANCH   1   9
BRANCH   1  11
ATOM     11  C   UNL     1      31.604  28.233  20.720  1.00  0.00     0.189 C 
BRANCH  11  12
ATOM     12  O   UNL     1      32.044  27.212  19.892  1.00  0.00    -0.394 OA
ATOM     13  H   UNL     1      31.837  26.317  20.264  1.00  0.00     0.210 HD
ENDBRANCH  11  12
ENDBRANCH   1  11
TORSDOF 5
BEGIN_RES LYS A 135
REMARK  4 active torsions:
REMARK  status: ('A' for Active; 'I' for Inactive)
REMARK    1  A    between atoms: CA   and  CB  
REMARK    2  A    between atoms: CB   and  CG  
REMARK    3  A    between atoms: CG   and  CD  
REMARK    4  A    between atoms: CD   and  CE  
ROOT
ATOM      1  CA  LYS A 135      33.193  34.663   9.290  1.00 25.02     0.186 C 
ENDROOT
BRANCH   1   2
ATOM      2  CB  LYS A 135      32.060  35.360  10.034  1.00 26.63     0.034 C 
BRANCH   2   3
ATOM      3  CG  LYS A 135      30.712  34.724   9.811  1.00 29.45     0.005 C 
BRANCH   3   4
ATOM      4  CD  LYS A 135      30.422  34.588   8.324  1.00 32.00     0.041 C 
BRANCH   4   5
ATOM      5  CE  LYS A 135      28.946  34.797   8.048  1.00 34.25     0.338 C 
ATOM      6  NZ  LYS A 135      28.738  35.513   6.759  1.00 35.99     0.618 N 
ENDBRANCH   4   5
ENDBRANCH   3   4
ENDBRANCH   2   3
ENDBRANCH   1   2
END_RES LYS A 135
BEGIN_RES TYR A 136
REMARK  2 active torsions:
REMARK  status: ('A' for Active; 'I' for Inactive)
REMARK    5  A    between atoms: CA   and  CB  
REMARK    6  A    between atoms: CB   and  CG  
ROOT
ATOM      7  CA  TYR A 136      36.583  36.399   8.994  1.00 26.14     0.191 C 
ENDROOT
BRANCH   7   8
ATOM      8  CB  TYR A 136      37.367  36.835  10.240  1.00 28.16     0.060 C 
BRANCH   8   9
ATOM      9  CG  TYR A 136      37.262  38.317  10.502  1.00 31.88    -0.020 A 
ATOM     10  CD2 TYR A 136      38.096  38.949  11.428  1.00 32.67    -0.002 A 
ATOM     11  CE2 TYR A 136      37.990  40.326  11.665  1.00 33.89     0.027 A 
ATOM     12  CZ  TYR A 136      37.039  41.078  10.970  1.00 34.34     0.131 A 
ATOM     13  OH  TYR A 136      36.921  42.444  11.184  1.00 35.14    -0.190 OA
ATOM     14  CE1 TYR A 136      36.202  40.467  10.049  1.00 35.01     0.027 A 
ATOM     15  CD1 TYR A 136      36.313  39.094   9.825  1.00 33.57    -0.002 A 
ENDBRANCH   8   9
ENDBRANCH   7   8
END_RES TYR A 136
BEGIN_RES ASN A 133
REMARK  2 active torsions:
REMARK  status: ('A' for Active; 'I' for Inactive)
REMARK    7  A    between atoms: CA   and  CB  
REMARK    8  A    between atoms: CB   and  CG  
ROOT
ATOM     16  CA  ASN A 133      31.225  30.257  11.749  1.00 18.15     0.196 C 
ENDROOT
BRANCH  16  17
ATOM     17  CB  ASN A 133      30.092  31.240  11.460  1.00 18.27     0.126 C 
BRANCH  17  18
ATOM     18  CG  ASN A 133      28.750  30.584  11.362  1.00 18.94     0.276 C 
ATOM     19  OD1 ASN A 133      28.566  29.614  10.624  1.00 18.09    -0.269 OA
ATOM     20  ND2 ASN A 133      27.786  31.114  12.113  1.00 18.93    -0.107 N 
ENDBRANCH  17  18
ENDBRANCH  16  17
END_RES ASN A 133
