REMARK VINA RESULT:    -4.285      0.000      0.000
REMARK INTER + INTRA:          -8.025
REMARK INTER:                  -4.878
REMARK INTRA:                  -3.147
REMARK UNBOUND:                -3.239
REMARK SMILES Cc1cn(Cc2ccccc2)nn1
REMARK SMILES IDX 5 1 4 2 1 3 2 4 3 5 13 6 12 7 6 8 7 9 11 10 8 11 10 12 9 13
REMARK H PARENT
REMARK Flexibility Score: inf
ROOT
ATOM      1  C   UNL     1      33.231  35.875  14.548  1.00  0.00     0.181 C 
ENDROOT
BRANCH   1   2
ATOM      2  N   UNL     1      32.573  34.897  15.398  1.00  0.00    -0.248 N 
ATOM      3  C   UNL     1      30.785  31.871  16.255  1.00  0.00     0.070 C 
ATOM      4  C   UNL     1      31.513  33.170  16.168  1.00  0.00     0.080 A 
ATOM      5  C   UNL     1      31.999  33.760  15.018  1.00  0.00     0.134 A 
ATOM      6  N   UNL     1      31.816  33.980  17.197  1.00  0.00    -0.136 NA
ATOM      7  N   UNL     1      32.459  35.020  16.703  1.00  0.00    -0.067 NA
ENDBRANCH   1   2
BRANCH   1   8
ATOM      8  C   UNL     1      34.640  35.426  14.335  1.00  0.00    -0.026 A 
ATOM      9  C   UNL     1      35.635  35.773  15.229  1.00  0.00     0.005 A 
ATOM     10  C   UNL     1      35.010  34.654  13.250  1.00  0.00     0.005 A 
ATOM     11  C   UNL     1      36.936  35.359  15.034  1.00  0.00     0.000 A 
ATOM     12  C   UNL     1      36.310  34.237  13.050  1.00  0.00     0.000 A 
ATOM     13  C   UNL     1      37.301  34.585  13.943  1.00  0.00     0.000 A 
ENDBRANCH   1   8
TORSDOF 2
BEGIN_RES LYS A 135
REMARK  4 active torsions:
REMARK  status: ('A' for Active; 'I' for Inactive)
REMARK    1  A    between atoms: CA   and  CB  
REMARK    2  A    between atoms: CB   and  CG  
REMARK    3  A    between atoms: CG   and  CD  
REMARK    4  A    between atoms: CD   and  CE  
ROOT
ATOM      1  CA  LYS A 135      33.193  34.663   9.290  1.00 25.02     0.186 C 
ENDROOT
BRANCH   1   2
ATOM      2  CB  LYS A 135      32.060  35.360  10.034  1.00 26.63     0.034 C 
BRANCH   2   3
ATOM      3  CG  LYS A 135      30.803  35.507   9.216  1.00 29.45     0.005 C 
BRANCH   3   4
ATOM      4  CD  LYS A 135      30.125  34.159   9.027  1.00 32.00     0.041 C 
BRANCH   4   5
ATOM      5  CE  LYS A 135      28.669  34.345   8.642  1.00 34.25     0.338 C 
ATOM      6  NZ  LYS A 135      27.767  33.674   9.618  1.00 35.99     0.618 N 
ENDBRANCH   4   5
ENDBRANCH   3   4
ENDBRANCH   2   3
ENDBRANCH   1   2
END_RES LYS A 135
BEGIN_RES TYR A 136
REMARK  2 active torsions:
REMARK  status: ('A' for Active; 'I' for Inactive)
REMARK    5  A    between atoms: CA   and  CB  
REMARK    6  A    between atoms: CB   and  CG  
ROOT
ATOM      7  CA  TYR A 136      36.583  36.399   8.994  1.00 26.14     0.191 C 
ENDROOT
BRANCH   7   8
ATOM      8  CB  TYR A 136      37.367  36.835  10.240  1.00 28.16     0.060 C 
BRANCH   8   9
ATOM      9  CG  TYR A 136      36.696  37.965  10.982  1.00 31.88    -0.020 A 
ATOM     10  CD2 TYR A 136      36.114  39.034  10.297  1.00 32.67    -0.002 A 
ATOM     11  CE2 TYR A 136      35.495  40.080  10.996  1.00 33.89     0.027 A 
ATOM     12  CZ  TYR A 136      35.458  40.055  12.392  1.00 34.34     0.131 A 
ATOM     13  OH  TYR A 136      34.844  41.076  13.104  1.00 35.14    -0.190 OA
ATOM     14  CE1 TYR A 136      36.032  39.001  13.088  1.00 35.01     0.027 A 
ATOM     15  CD1 TYR A 136      36.652  37.969  12.382  1.00 33.57    -0.002 A 
ENDBRANCH   8   9
ENDBRANCH   7   8
END_RES TYR A 136
BEGIN_RES ASN A 133
REMARK  2 active torsions:
REMARK  status: ('A' for Active; 'I' for Inactive)
REMARK    7  A    between atoms: CA   and  CB  
REMARK    8  A    between atoms: CB   and  CG  
ROOT
ATOM     16  CA  ASN A 133      31.225  30.257  11.749  1.00 18.15     0.196 C 
ENDROOT
BRANCH  16  17
ATOM     17  CB  ASN A 133      30.092  31.240  11.460  1.00 18.27     0.126 C 
BRANCH  17  18
ATOM     18  CG  ASN A 133      28.751  30.583  11.354  1.00 18.94     0.276 C 
ATOM     19  OD1 ASN A 133      28.569  29.620  10.607  1.00 18.09    -0.269 OA
ATOM     20  ND2 ASN A 133      27.785  31.104  12.110  1.00 18.93    -0.107 N 
ENDBRANCH  17  18
ENDBRANCH  16  17
END_RES ASN A 133
