REMARK VINA RESULT:    -3.134      5.414     11.518
REMARK INTER + INTRA:          -6.998
REMARK INTER:                  -3.843
REMARK INTRA:                  -3.155
REMARK UNBOUND:                -3.223
REMARK SMILES Cc1cn(CCC(=O)O)nn1
REMARK SMILES IDX 6 1 5 2 4 3 1 4 2 5 3 6 11 7 10 8 7 9 8 10 9 11
REMARK H PARENT 9 12
REMARK Flexibility Score: inf
ROOT
ATOM      1  C   UNL     1      30.349  31.217  16.527  1.00  0.00     0.146 C 
ENDROOT
BRANCH   1   2
ATOM      2  C   UNL     1      29.093  30.709  15.812  1.00  0.00     0.158 C 
BRANCH   2   3
ATOM      3  N   UNL     1      28.192  30.106  16.760  1.00  0.00    -0.252 N 
ATOM      4  C   UNL     1      25.320  28.128  17.869  1.00  0.00     0.070 C 
ATOM      5  C   UNL     1      26.533  28.974  17.692  1.00  0.00     0.080 A 
ATOM      6  C   UNL     1      27.106  29.357  16.467  1.00  0.00     0.134 A 
ATOM      7  N   UNL     1      27.289  29.500  18.639  1.00  0.00    -0.136 NA
ATOM      8  N   UNL     1      28.279  30.177  18.057  1.00  0.00    -0.067 NA
ENDBRANCH   2   3
ENDBRANCH   1   2
BRANCH   1   9
ATOM      9  C   UNL     1      30.953  32.220  15.637  1.00  0.00     0.305 C 
ATOM     10  O   UNL     1      31.789  33.013  16.107  1.00  0.00    -0.252 OA
BRANCH   9  11
ATOM     11  O   UNL     1      30.603  32.289  14.303  1.00  0.00    -0.481 OA
ATOM     12  H   UNL     1      29.832  31.771  13.897  1.00  0.00     0.296 HD
ENDBRANCH   9  11
ENDBRANCH   1   9
TORSDOF 4
BEGIN_RES LYS A 135
REMARK  4 active torsions:
REMARK  status: ('A' for Active; 'I' for Inactive)
REMARK    1  A    between atoms: CA   and  CB  
REMARK    2  A    between atoms: CB   and  CG  
REMARK    3  A    between atoms: CG   and  CD  
REMARK    4  A    between atoms: CD   and  CE  
ROOT
ATOM      1  CA  LYS A 135      33.193  34.663   9.290  1.00 25.02     0.186 C 
ENDROOT
BRANCH   1   2
ATOM      2  CB  LYS A 135      32.060  35.360  10.034  1.00 26.63     0.034 C 
BRANCH   2   3
ATOM      3  CG  LYS A 135      30.705  34.753   9.774  1.00 29.45     0.005 C 
BRANCH   3   4
ATOM      4  CD  LYS A 135      30.468  34.589   8.281  1.00 32.00     0.041 C 
BRANCH   4   5
ATOM      5  CE  LYS A 135      29.021  34.886   7.936  1.00 34.25     0.338 C 
ATOM      6  NZ  LYS A 135      28.913  35.568   6.617  1.00 35.99     0.618 N 
ENDBRANCH   4   5
ENDBRANCH   3   4
ENDBRANCH   2   3
ENDBRANCH   1   2
END_RES LYS A 135
BEGIN_RES TYR A 136
REMARK  2 active torsions:
REMARK  status: ('A' for Active; 'I' for Inactive)
REMARK    5  A    between atoms: CA   and  CB  
REMARK    6  A    between atoms: CB   and  CG  
ROOT
ATOM      7  CA  TYR A 136      36.583  36.399   8.994  1.00 26.14     0.191 C 
ENDROOT
BRANCH   7   8
ATOM      8  CB  TYR A 136      37.367  36.835  10.240  1.00 28.16     0.060 C 
BRANCH   8   9
ATOM      9  CG  TYR A 136      37.196  38.302  10.549  1.00 31.88    -0.020 A 
ATOM     10  CD2 TYR A 136      38.260  39.198  10.414  1.00 32.67    -0.002 A 
ATOM     11  CE2 TYR A 136      38.091  40.558  10.706  1.00 33.89     0.027 A 
ATOM     12  CZ  TYR A 136      36.847  41.027  11.136  1.00 34.34     0.131 A 
ATOM     13  OH  TYR A 136      36.655  42.371  11.423  1.00 35.14    -0.190 OA
ATOM     14  CE1 TYR A 136      35.780  40.151  11.276  1.00 35.01     0.027 A 
ATOM     15  CD1 TYR A 136      35.962  38.797  10.989  1.00 33.57    -0.002 A 
ENDBRANCH   8   9
ENDBRANCH   7   8
END_RES TYR A 136
BEGIN_RES ASN A 133
REMARK  2 active torsions:
REMARK  status: ('A' for Active; 'I' for Inactive)
REMARK    7  A    between atoms: CA   and  CB  
REMARK    8  A    between atoms: CB   and  CG  
ROOT
ATOM     16  CA  ASN A 133      31.225  30.257  11.749  1.00 18.15     0.196 C 
ENDROOT
BRANCH  16  17
ATOM     17  CB  ASN A 133      30.092  31.240  11.460  1.00 18.27     0.126 C 
BRANCH  17  18
ATOM     18  CG  ASN A 133      28.747  30.587  11.383  1.00 18.94     0.276 C 
ATOM     19  OD1 ASN A 133      28.549  29.618  10.647  1.00 18.09    -0.269 OA
ATOM     20  ND2 ASN A 133      27.796  31.118  12.151  1.00 18.93    -0.107 N 
ENDBRANCH  17  18
ENDBRANCH  16  17
END_RES ASN A 133
