REMARK VINA RESULT:    -5.171      2.277      3.319
REMARK INTER + INTRA:          -8.522
REMARK INTER:                  -5.019
REMARK INTRA:                  -3.504
REMARK UNBOUND:                -2.142
REMARK SMILES CC(=O)Oc1ccccc1Cn1cc(C)nn1
REMARK SMILES IDX 10 1 5 2 6 3 7 4 8 5 9 6 11 7 12 8 15 9 14 10 13 11 16 12
REMARK SMILES IDX 17 13 4 14 2 15 3 16 1 17
REMARK H PARENT
REMARK Flexibility Score: inf
ROOT
ATOM      1  C   UNL     1      35.868  36.142  14.951  1.00  0.00     0.016 A 
ATOM      2  C   UNL     1      35.953  35.046  14.132  1.00  0.00     0.135 A 
ATOM      3  C   UNL     1      34.920  34.603  13.317  1.00  0.00     0.047 A 
ATOM      4  C   UNL     1      33.728  35.293  13.320  1.00  0.00     0.004 A 
ATOM      5  C   UNL     1      33.609  36.390  14.126  1.00  0.00     0.001 A 
ATOM      6  C   UNL     1      34.659  36.821  14.938  1.00  0.00     0.009 A 
ENDROOT
BRANCH   1   7
ATOM      7  C   UNL     1      37.005  36.594  15.791  1.00  0.00     0.185 C 
BRANCH   7   8
ATOM      8  N   UNL     1      37.698  37.680  15.124  1.00  0.00    -0.248 N 
ATOM      9  C   UNL     1      40.080  39.267  12.847  1.00  0.00     0.070 C 
ATOM     10  C   UNL     1      39.035  38.916  13.834  1.00  0.00     0.080 A 
ATOM     11  C   UNL     1      38.680  37.619  14.214  1.00  0.00     0.134 A 
ATOM     12  N   UNL     1      38.225  39.706  14.556  1.00  0.00    -0.136 NA
ATOM     13  N   UNL     1      37.430  38.973  15.322  1.00  0.00    -0.067 NA
ENDBRANCH   7   8
ENDBRANCH   1   7
BRANCH   2  14
ATOM     14  O   UNL     1      37.139  34.295  14.084  1.00  0.00    -0.426 OA
BRANCH  14  15
ATOM     15  C   UNL     1      37.646  34.064  12.808  1.00  0.00     0.308 C 
ATOM     16  O   UNL     1      37.988  35.023  12.066  1.00  0.00    -0.252 OA
ATOM     17  C   UNL     1      37.786  32.687  12.307  1.00  0.00     0.139 C 
ENDBRANCH  14  15
ENDBRANCH   2  14
TORSDOF 4
BEGIN_RES LYS A 135
REMARK  4 active torsions:
REMARK  status: ('A' for Active; 'I' for Inactive)
REMARK    1  A    between atoms: CA   and  CB  
REMARK    2  A    between atoms: CB   and  CG  
REMARK    3  A    between atoms: CG   and  CD  
REMARK    4  A    between atoms: CD   and  CE  
ROOT
ATOM      1  CA  LYS A 135      33.193  34.663   9.290  1.00 25.02     0.186 C 
ENDROOT
BRANCH   1   2
ATOM      2  CB  LYS A 135      32.060  35.360  10.034  1.00 26.63     0.034 C 
BRANCH   2   3
ATOM      3  CG  LYS A 135      30.697  34.799   9.719  1.00 29.45     0.005 C 
BRANCH   3   4
ATOM      4  CD  LYS A 135      30.588  34.452   8.242  1.00 32.00     0.041 C 
BRANCH   4   5
ATOM      5  CE  LYS A 135      29.381  35.131   7.624  1.00 34.25     0.338 C 
ATOM      6  NZ  LYS A 135      28.118  34.661   8.258  1.00 35.99     0.618 N 
ENDBRANCH   4   5
ENDBRANCH   3   4
ENDBRANCH   2   3
ENDBRANCH   1   2
END_RES LYS A 135
BEGIN_RES TYR A 136
REMARK  2 active torsions:
REMARK  status: ('A' for Active; 'I' for Inactive)
REMARK    5  A    between atoms: CA   and  CB  
REMARK    6  A    between atoms: CB   and  CG  
ROOT
ATOM      7  CA  TYR A 136      36.583  36.399   8.994  1.00 26.14     0.191 C 
ENDROOT
BRANCH   7   8
ATOM      8  CB  TYR A 136      37.367  36.835  10.240  1.00 28.16     0.060 C 
BRANCH   8   9
ATOM      9  CG  TYR A 136      36.889  38.155  10.794  1.00 31.88    -0.020 A 
ATOM     10  CD2 TYR A 136      35.904  38.210  11.782  1.00 32.67    -0.002 A 
ATOM     11  CE2 TYR A 136      35.466  39.441  12.289  1.00 33.89     0.027 A 
ATOM     12  CZ  TYR A 136      36.018  40.628  11.801  1.00 34.34     0.131 A 
ATOM     13  OH  TYR A 136      35.605  41.858  12.293  1.00 35.14    -0.190 OA
ATOM     14  CE1 TYR A 136      36.997  40.592  10.818  1.00 35.01     0.027 A 
ATOM     15  CD1 TYR A 136      37.421  39.360  10.317  1.00 33.57    -0.002 A 
ENDBRANCH   8   9
ENDBRANCH   7   8
END_RES TYR A 136
BEGIN_RES ASN A 133
REMARK  2 active torsions:
REMARK  status: ('A' for Active; 'I' for Inactive)
REMARK    7  A    between atoms: CA   and  CB  
REMARK    8  A    between atoms: CB   and  CG  
ROOT
ATOM     16  CA  ASN A 133      31.225  30.257  11.749  1.00 18.15     0.196 C 
ENDROOT
BRANCH  16  17
ATOM     17  CB  ASN A 133      30.092  31.240  11.460  1.00 18.27     0.126 C 
BRANCH  17  18
ATOM     18  CG  ASN A 133      28.755  30.579  11.328  1.00 18.94     0.276 C 
ATOM     19  OD1 ASN A 133      28.588  29.623  10.569  1.00 18.09    -0.269 OA
ATOM     20  ND2 ASN A 133      27.776  31.091  12.074  1.00 18.93    -0.107 N 
ENDBRANCH  17  18
ENDBRANCH  16  17
END_RES ASN A 133
