REMARK VINA RESULT:    -4.939      2.457      4.303
REMARK INTER + INTRA:          -8.609
REMARK INTER:                  -5.292
REMARK INTRA:                  -3.317
REMARK UNBOUND:                -3.381
REMARK SMILES Cc1cn(C2c3ccccc3-c3ccccc32)nn1
REMARK SMILES IDX 5 1 6 2 7 3 8 4 9 5 10 6 11 7 12 8 13 9 14 10 15 11 16 12
REMARK SMILES IDX 17 13 4 14 1 15 2 16 3 17 19 18 18 19
REMARK H PARENT
REMARK Flexibility Score: inf
ROOT
ATOM      1  C   UNL     1      36.919  36.052  15.096  1.00  0.00     0.170 C 
ATOM      2  C   UNL     1      37.582  35.441  16.257  1.00  0.00    -0.011 A 
ATOM      3  C   UNL     1      37.734  35.943  17.540  1.00  0.00     0.007 A 
ATOM      4  C   UNL     1      38.397  35.199  18.493  1.00  0.00     0.000 A 
ATOM      5  C   UNL     1      38.901  33.954  18.142  1.00  0.00     0.001 A 
ATOM      6  C   UNL     1      38.749  33.451  16.859  1.00  0.00     0.009 A 
ATOM      7  C   UNL     1      38.080  34.213  15.918  1.00  0.00    -0.012 A 
ATOM      8  C   UNL     1      37.761  33.979  14.523  1.00  0.00    -0.012 A 
ATOM      9  C   UNL     1      38.061  32.867  13.725  1.00  0.00     0.009 A 
ATOM     10  C   UNL     1      37.650  32.877  12.421  1.00  0.00     0.001 A 
ATOM     11  C   UNL     1      36.954  33.934  11.859  1.00  0.00     0.000 A 
ATOM     12  C   UNL     1      36.689  34.994  12.683  1.00  0.00     0.007 A 
ATOM     13  C   UNL     1      37.074  35.056  14.022  1.00  0.00    -0.011 A 
ENDROOT
BRANCH   1  14
ATOM     14  N   UNL     1      37.455  37.334  14.779  1.00  0.00    -0.240 N 
ATOM     15  C   UNL     1      39.954  39.578  13.392  1.00  0.00     0.070 C 
ATOM     16  C   UNL     1      38.788  38.927  14.029  1.00  0.00     0.080 A 
ATOM     17  C   UNL     1      38.617  37.556  14.153  1.00  0.00     0.135 A 
ATOM     18  N   UNL     1      37.713  39.480  14.592  1.00  0.00    -0.136 NA
ATOM     19  N   UNL     1      36.912  38.503  15.042  1.00  0.00    -0.066 NA
ENDBRANCH   1  14
TORSDOF 1
BEGIN_RES LYS A 135
REMARK  4 active torsions:
REMARK  status: ('A' for Active; 'I' for Inactive)
REMARK    1  A    between atoms: CA   and  CB  
REMARK    2  A    between atoms: CB   and  CG  
REMARK    3  A    between atoms: CG   and  CD  
REMARK    4  A    between atoms: CD   and  CE  
ROOT
ATOM      1  CA  LYS A 135      33.193  34.663   9.290  1.00 25.02     0.186 C 
ENDROOT
BRANCH   1   2
ATOM      2  CB  LYS A 135      32.060  35.360  10.034  1.00 26.63     0.034 C 
BRANCH   2   3
ATOM      3  CG  LYS A 135      30.701  34.774   9.748  1.00 29.45     0.005 C 
BRANCH   3   4
ATOM      4  CD  LYS A 135      30.521  34.541   8.256  1.00 32.00     0.041 C 
BRANCH   4   5
ATOM      5  CE  LYS A 135      29.107  34.889   7.829  1.00 34.25     0.338 C 
ATOM      6  NZ  LYS A 135      28.108  34.345   8.790  1.00 35.99     0.618 N 
ENDBRANCH   4   5
ENDBRANCH   3   4
ENDBRANCH   2   3
ENDBRANCH   1   2
END_RES LYS A 135
BEGIN_RES TYR A 136
REMARK  2 active torsions:
REMARK  status: ('A' for Active; 'I' for Inactive)
REMARK    5  A    between atoms: CA   and  CB  
REMARK    6  A    between atoms: CB   and  CG  
ROOT
ATOM      7  CA  TYR A 136      36.583  36.399   8.994  1.00 26.14     0.191 C 
ENDROOT
BRANCH   7   8
ATOM      8  CB  TYR A 136      37.367  36.835  10.240  1.00 28.16     0.060 C 
BRANCH   8   9
ATOM      9  CG  TYR A 136      37.004  38.226  10.697  1.00 31.88    -0.020 A 
ATOM     10  CD2 TYR A 136      35.861  38.460  11.465  1.00 32.67    -0.002 A 
ATOM     11  CE2 TYR A 136      35.531  39.757  11.883  1.00 33.89     0.027 A 
ATOM     12  CZ  TYR A 136      36.352  40.830  11.528  1.00 34.34     0.131 A 
ATOM     13  OH  TYR A 136      36.049  42.121  11.936  1.00 35.14    -0.190 OA
ATOM     14  CE1 TYR A 136      37.491  40.616  10.764  1.00 35.01     0.027 A 
ATOM     15  CD1 TYR A 136      37.805  39.321  10.349  1.00 33.57    -0.002 A 
ENDBRANCH   8   9
ENDBRANCH   7   8
END_RES TYR A 136
BEGIN_RES ASN A 133
REMARK  2 active torsions:
REMARK  status: ('A' for Active; 'I' for Inactive)
REMARK    7  A    between atoms: CA   and  CB  
REMARK    8  A    between atoms: CB   and  CG  
ROOT
ATOM     16  CA  ASN A 133      31.225  30.257  11.749  1.00 18.15     0.196 C 
ENDROOT
BRANCH  16  17
ATOM     17  CB  ASN A 133      30.092  31.240  11.460  1.00 18.27     0.126 C 
BRANCH  17  18
ATOM     18  CG  ASN A 133      28.749  30.584  11.365  1.00 18.94     0.276 C 
ATOM     19  OD1 ASN A 133      28.565  29.611  10.632  1.00 18.09    -0.269 OA
ATOM     20  ND2 ASN A 133      27.785  31.118  12.114  1.00 18.93    -0.107 N 
ENDBRANCH  17  18
ENDBRANCH  16  17
END_RES ASN A 133
