REMARK VINA RESULT:    -4.901      2.704      4.603
REMARK INTER + INTRA:          -9.333
REMARK INTER:                  -6.014
REMARK INTRA:                  -3.319
REMARK UNBOUND:                -3.429
REMARK SMILES Cc1cn(-c2cccc(C=CC(=O)O)c2)nn1
REMARK SMILES IDX 10 1 11 2 9 3 5 4 15 5 6 6 7 7 8 8 4 9 1 10 2 11 3 12 17 13
REMARK SMILES IDX 16 14 12 15 13 16 14 17
REMARK H PARENT 14 18
REMARK Flexibility Score: inf
ROOT
ATOM      1  C   UNL     1      32.057  34.546  16.267  1.00  0.00     0.015 C 
ATOM      2  C   UNL     1      31.469  33.516  16.694  1.00  0.00     0.094 C 
ENDROOT
BRANCH   1   3
ATOM      3  C   UNL     1      32.607  34.931  15.007  1.00  0.00    -0.023 A 
ATOM      4  C   UNL     1      34.361  35.177  13.361  1.00  0.00     0.067 A 
ATOM      5  C   UNL     1      33.878  34.682  14.580  1.00  0.00     0.036 A 
ATOM      6  C   UNL     1      33.517  35.931  12.583  1.00  0.00     0.028 A 
ATOM      7  C   UNL     1      32.228  36.191  12.995  1.00  0.00     0.003 A 
ATOM      8  C   UNL     1      31.765  35.708  14.181  1.00  0.00     0.008 A 
BRANCH   4   9
ATOM      9  N   UNL     1      35.694  34.898  12.955  1.00  0.00    -0.220 N 
ATOM     10  C   UNL     1      39.267  35.645  12.423  1.00  0.00     0.070 C 
ATOM     11  C   UNL     1      37.881  35.109  12.538  1.00  0.00     0.080 A 
ATOM     12  C   UNL     1      36.756  35.739  13.028  1.00  0.00     0.140 A 
ATOM     13  N   UNL     1      37.452  33.878  12.176  1.00  0.00    -0.135 NA
ATOM     14  N   UNL     1      36.157  33.765  12.428  1.00  0.00    -0.062 NA
ENDBRANCH   4   9
ENDBRANCH   1   3
BRANCH   2  15
ATOM     15  C   UNL     1      31.072  32.260  16.175  1.00  0.00     0.328 C 
ATOM     16  O   UNL     1      30.481  31.328  16.754  1.00  0.00    -0.247 OA
BRANCH  15  17
ATOM     17  O   UNL     1      31.367  31.969  14.794  1.00  0.00    -0.478 OA
ATOM     18  H   UNL     1      32.183  32.452  14.415  1.00  0.00     0.297 HD
ENDBRANCH  15  17
ENDBRANCH   2  15
TORSDOF 4
BEGIN_RES LYS A 135
REMARK  4 active torsions:
REMARK  status: ('A' for Active; 'I' for Inactive)
REMARK    1  A    between atoms: CA   and  CB  
REMARK    2  A    between atoms: CB   and  CG  
REMARK    3  A    between atoms: CG   and  CD  
REMARK    4  A    between atoms: CD   and  CE  
ROOT
ATOM      1  CA  LYS A 135      33.193  34.663   9.290  1.00 25.02     0.186 C 
ENDROOT
BRANCH   1   2
ATOM      2  CB  LYS A 135      32.060  35.360  10.034  1.00 26.63     0.034 C 
BRANCH   2   3
ATOM      3  CG  LYS A 135      30.709  34.735   9.797  1.00 29.45     0.005 C 
BRANCH   3   4
ATOM      4  CD  LYS A 135      30.462  34.541   8.309  1.00 32.00     0.041 C 
BRANCH   4   5
ATOM      5  CE  LYS A 135      29.021  34.862   7.962  1.00 34.25     0.338 C 
ATOM      6  NZ  LYS A 135      28.930  35.591   6.667  1.00 35.99     0.618 N 
ENDBRANCH   4   5
ENDBRANCH   3   4
ENDBRANCH   2   3
ENDBRANCH   1   2
END_RES LYS A 135
BEGIN_RES TYR A 136
REMARK  2 active torsions:
REMARK  status: ('A' for Active; 'I' for Inactive)
REMARK    5  A    between atoms: CA   and  CB  
REMARK    6  A    between atoms: CB   and  CG  
ROOT
ATOM      7  CA  TYR A 136      36.583  36.399   8.994  1.00 26.14     0.191 C 
ENDROOT
BRANCH   7   8
ATOM      8  CB  TYR A 136      37.367  36.835  10.240  1.00 28.16     0.060 C 
BRANCH   8   9
ATOM      9  CG  TYR A 136      37.174  38.296  10.565  1.00 31.88    -0.020 A 
ATOM     10  CD2 TYR A 136      35.932  38.787  10.974  1.00 32.67    -0.002 A 
ATOM     11  CE2 TYR A 136      35.762  40.146  11.272  1.00 33.89     0.027 A 
ATOM     12  CZ  TYR A 136      36.846  41.021  11.160  1.00 34.34     0.131 A 
ATOM     13  OH  TYR A 136      36.703  42.370  11.457  1.00 35.14    -0.190 OA
ATOM     14  CE1 TYR A 136      38.086  40.550  10.755  1.00 35.01     0.027 A 
ATOM     15  CD1 TYR A 136      38.241  39.196  10.455  1.00 33.57    -0.002 A 
ENDBRANCH   8   9
ENDBRANCH   7   8
END_RES TYR A 136
BEGIN_RES ASN A 133
REMARK  2 active torsions:
REMARK  status: ('A' for Active; 'I' for Inactive)
REMARK    7  A    between atoms: CA   and  CB  
REMARK    8  A    between atoms: CB   and  CG  
ROOT
ATOM     16  CA  ASN A 133      31.225  30.257  11.749  1.00 18.15     0.196 C 
ENDROOT
BRANCH  16  17
ATOM     17  CB  ASN A 133      30.092  31.240  11.460  1.00 18.27     0.126 C 
BRANCH  17  18
ATOM     18  CG  ASN A 133      28.754  30.580  11.332  1.00 18.94     0.276 C 
ATOM     19  OD1 ASN A 133      28.600  29.581  10.627  1.00 18.09    -0.269 OA
ATOM     20  ND2 ASN A 133      27.760  31.140  12.020  1.00 18.93    -0.107 N 
ENDBRANCH  17  18
ENDBRANCH  16  17
END_RES ASN A 133
