REMARK VINA RESULT:    -3.847      4.307      4.923
REMARK INTER + INTRA:          -7.270
REMARK INTER:                  -4.018
REMARK INTRA:                  -3.253
REMARK UNBOUND:                -2.974
REMARK SMILES COc1ccc(-n2cc(C)nn2)cc1
REMARK SMILES IDX 6 1 5 2 4 3 3 4 14 5 13 6 7 7 10 8 9 9 8 10 11 11 12 12 2 13
REMARK SMILES IDX 1 14
REMARK H PARENT
REMARK Flexibility Score: inf
ROOT
ATOM      1  C   UNL     1      38.410  34.218  17.007  1.00  0.00     0.067 A 
ATOM      2  C   UNL     1      37.682  35.101  17.780  1.00  0.00     0.032 A 
ATOM      3  C   UNL     1      37.377  34.831  19.099  1.00  0.00     0.048 A 
ATOM      4  C   UNL     1      37.784  33.665  19.711  1.00  0.00     0.119 A 
ATOM      5  C   UNL     1      38.511  32.781  18.944  1.00  0.00     0.048 A 
ATOM      6  C   UNL     1      38.815  33.053  17.626  1.00  0.00     0.032 A 
ENDROOT
BRANCH   1   7
ATOM      7  N   UNL     1      38.725  34.497  15.646  1.00  0.00    -0.220 N 
ATOM      8  C   UNL     1      38.029  34.975  12.083  1.00  0.00     0.070 C 
ATOM      9  C   UNL     1      38.579  34.833  13.480  1.00  0.00     0.080 A 
ATOM     10  C   UNL     1      37.867  34.528  14.613  1.00  0.00     0.140 A 
ATOM     11  N   UNL     1      39.863  34.985  13.842  1.00  0.00    -0.135 NA
ATOM     12  N   UNL     1      39.916  34.778  15.140  1.00  0.00    -0.062 NA
ENDBRANCH   1   7
BRANCH   4  13
ATOM     13  O   UNL     1      37.475  33.390  21.048  1.00  0.00    -0.497 OA
ATOM     14  C   UNL     1      36.632  32.316  21.415  1.00  0.00     0.278 C 
ENDBRANCH   4  13
TORSDOF 2
BEGIN_RES LYS A 135
REMARK  4 active torsions:
REMARK  status: ('A' for Active; 'I' for Inactive)
REMARK    1  A    between atoms: CA   and  CB  
REMARK    2  A    between atoms: CB   and  CG  
REMARK    3  A    between atoms: CG   and  CD  
REMARK    4  A    between atoms: CD   and  CE  
ROOT
ATOM      1  CA  LYS A 135      33.193  34.663   9.290  1.00 25.02     0.186 C 
ENDROOT
BRANCH   1   2
ATOM      2  CB  LYS A 135      32.060  35.360  10.034  1.00 26.63     0.034 C 
BRANCH   2   3
ATOM      3  CG  LYS A 135      30.827  35.570   9.194  1.00 29.45     0.005 C 
BRANCH   3   4
ATOM      4  CD  LYS A 135      30.223  34.236   8.784  1.00 32.00     0.041 C 
BRANCH   4   5
ATOM      5  CE  LYS A 135      28.733  34.378   8.539  1.00 34.25     0.338 C 
ATOM      6  NZ  LYS A 135      27.946  33.719   9.617  1.00 35.99     0.618 N 
ENDBRANCH   4   5
ENDBRANCH   3   4
ENDBRANCH   2   3
ENDBRANCH   1   2
END_RES LYS A 135
BEGIN_RES TYR A 136
REMARK  2 active torsions:
REMARK  status: ('A' for Active; 'I' for Inactive)
REMARK    5  A    between atoms: CA   and  CB  
REMARK    6  A    between atoms: CB   and  CG  
ROOT
ATOM      7  CA  TYR A 136      36.583  36.399   8.994  1.00 26.14     0.191 C 
ENDROOT
BRANCH   7   8
ATOM      8  CB  TYR A 136      37.367  36.835  10.240  1.00 28.16     0.060 C 
BRANCH   8   9
ATOM      9  CG  TYR A 136      37.176  38.296  10.564  1.00 31.88    -0.020 A 
ATOM     10  CD2 TYR A 136      36.495  39.147   9.691  1.00 32.67    -0.002 A 
ATOM     11  CE2 TYR A 136      36.324  40.504  10.000  1.00 33.89     0.027 A 
ATOM     12  CZ  TYR A 136      36.839  41.013  11.195  1.00 34.34     0.131 A 
ATOM     13  OH  TYR A 136      36.676  42.351  11.525  1.00 35.14    -0.190 OA
ATOM     14  CE1 TYR A 136      37.519  40.182  12.073  1.00 35.01     0.027 A 
ATOM     15  CD1 TYR A 136      37.689  38.834  11.751  1.00 33.57    -0.002 A 
ENDBRANCH   8   9
ENDBRANCH   7   8
END_RES TYR A 136
BEGIN_RES ASN A 133
REMARK  2 active torsions:
REMARK  status: ('A' for Active; 'I' for Inactive)
REMARK    7  A    between atoms: CA   and  CB  
REMARK    8  A    between atoms: CB   and  CG  
ROOT
ATOM     16  CA  ASN A 133      31.225  30.257  11.749  1.00 18.15     0.196 C 
ENDROOT
BRANCH  16  17
ATOM     17  CB  ASN A 133      30.092  31.240  11.460  1.00 18.27     0.126 C 
BRANCH  17  18
ATOM     18  CG  ASN A 133      28.750  30.583  11.359  1.00 18.94     0.276 C 
ATOM     19  OD1 ASN A 133      28.567  29.615  10.619  1.00 18.09    -0.269 OA
ATOM     20  ND2 ASN A 133      27.785  31.111  12.112  1.00 18.93    -0.107 N 
ENDBRANCH  17  18
ENDBRANCH  16  17
END_RES ASN A 133
