REMARK VINA RESULT:    -5.816      3.817      6.723
REMARK INTER + INTRA:          -9.056
REMARK INTER:                  -5.632
REMARK INTRA:                  -3.424
REMARK UNBOUND:                -1.880
REMARK SMILES Cc1cn(C(C)CC(=O)c2ccccc2)nn1
REMARK SMILES IDX 7 1 5 2 6 3 4 4 1 5 2 6 3 7 17 8 16 9 8 10 9 11 10 12 11 13
REMARK SMILES IDX 15 14 12 15 14 16 13 17
REMARK H PARENT
REMARK Flexibility Score: inf
ROOT
ATOM      1  C   UNL     1      25.050  31.841  14.978  1.00  0.00     0.108 C 
ENDROOT
BRANCH   1   2
ATOM      2  C   UNL     1      26.225  30.950  15.152  1.00  0.00     0.114 C 
ATOM      3  C   UNL     1      26.142  29.962  16.245  1.00  0.00     0.034 C 
BRANCH   2   4
ATOM      4  N   UNL     1      27.408  31.779  15.291  1.00  0.00    -0.249 N 
ATOM      5  C   UNL     1      30.987  32.102  15.817  1.00  0.00     0.070 C 
ATOM      6  C   UNL     1      29.545  32.288  15.590  1.00  0.00     0.080 A 
ATOM      7  C   UNL     1      28.631  31.257  15.502  1.00  0.00     0.134 A 
ATOM      8  N   UNL     1      28.831  33.417  15.425  1.00  0.00    -0.136 NA
ATOM      9  N   UNL     1      27.557  33.077  15.249  1.00  0.00    -0.067 NA
ENDBRANCH   2   4
ENDBRANCH   1   2
BRANCH   1  10
ATOM     10  C   UNL     1      24.576  31.981  13.594  1.00  0.00     0.164 C 
ATOM     11  O   UNL     1      24.971  32.848  12.791  1.00  0.00    -0.294 OA
BRANCH  10  12
ATOM     12  C   UNL     1      23.569  31.035  13.127  1.00  0.00     0.018 A 
ATOM     13  C   UNL     1      23.855  29.687  12.931  1.00  0.00     0.012 A 
ATOM     14  C   UNL     1      22.261  31.410  12.846  1.00  0.00     0.012 A 
ATOM     15  C   UNL     1      22.909  28.785  12.489  1.00  0.00     0.001 A 
ATOM     16  C   UNL     1      21.300  30.554  12.409  1.00  0.00     0.001 A 
ATOM     17  C   UNL     1      21.620  29.230  12.228  1.00  0.00     0.000 A 
ENDBRANCH  10  12
ENDBRANCH   1  10
TORSDOF 4
BEGIN_RES LYS A 135
REMARK  4 active torsions:
REMARK  status: ('A' for Active; 'I' for Inactive)
REMARK    1  A    between atoms: CA   and  CB  
REMARK    2  A    between atoms: CB   and  CG  
REMARK    3  A    between atoms: CG   and  CD  
REMARK    4  A    between atoms: CD   and  CE  
ROOT
ATOM      1  CA  LYS A 135      33.193  34.663   9.290  1.00 25.02     0.186 C 
ENDROOT
BRANCH   1   2
ATOM      2  CB  LYS A 135      32.060  35.360  10.034  1.00 26.63     0.034 C 
BRANCH   2   3
ATOM      3  CG  LYS A 135      30.828  35.574   9.192  1.00 29.45     0.005 C 
BRANCH   3   4
ATOM      4  CD  LYS A 135      30.085  34.263   8.986  1.00 32.00     0.041 C 
BRANCH   4   5
ATOM      5  CE  LYS A 135      28.744  34.510   8.321  1.00 34.25     0.338 C 
ATOM      6  NZ  LYS A 135      28.899  35.343   7.096  1.00 35.99     0.618 N 
ENDBRANCH   4   5
ENDBRANCH   3   4
ENDBRANCH   2   3
ENDBRANCH   1   2
END_RES LYS A 135
BEGIN_RES TYR A 136
REMARK  2 active torsions:
REMARK  status: ('A' for Active; 'I' for Inactive)
REMARK    5  A    between atoms: CA   and  CB  
REMARK    6  A    between atoms: CB   and  CG  
ROOT
ATOM      7  CA  TYR A 136      36.583  36.399   8.994  1.00 26.14     0.191 C 
ENDROOT
BRANCH   7   8
ATOM      8  CB  TYR A 136      37.367  36.835  10.240  1.00 28.16     0.060 C 
BRANCH   8   9
ATOM      9  CG  TYR A 136      37.253  38.315  10.509  1.00 31.88    -0.020 A 
ATOM     10  CD2 TYR A 136      37.905  38.906  11.593  1.00 32.67    -0.002 A 
ATOM     11  CE2 TYR A 136      37.792  40.282  11.835  1.00 33.89     0.027 A 
ATOM     12  CZ  TYR A 136      37.017  41.074  10.984  1.00 34.34     0.131 A 
ATOM     13  OH  TYR A 136      36.896  42.440  11.200  1.00 35.14    -0.190 OA
ATOM     14  CE1 TYR A 136      36.361  40.504   9.903  1.00 35.01     0.027 A 
ATOM     15  CD1 TYR A 136      36.477  39.131   9.676  1.00 33.57    -0.002 A 
ENDBRANCH   8   9
ENDBRANCH   7   8
END_RES TYR A 136
BEGIN_RES ASN A 133
REMARK  2 active torsions:
REMARK  status: ('A' for Active; 'I' for Inactive)
REMARK    7  A    between atoms: CA   and  CB  
REMARK    8  A    between atoms: CB   and  CG  
ROOT
ATOM     16  CA  ASN A 133      31.225  30.257  11.749  1.00 18.15     0.196 C 
ENDROOT
BRANCH  16  17
ATOM     17  CB  ASN A 133      30.092  31.240  11.460  1.00 18.27     0.126 C 
BRANCH  17  18
ATOM     18  CG  ASN A 133      28.764  30.574  11.273  1.00 18.94     0.276 C 
ATOM     19  OD1 ASN A 133      28.650  29.561  10.580  1.00 18.09    -0.269 OA
ATOM     20  ND2 ASN A 133      27.733  31.144  11.896  1.00 18.93    -0.107 N 
ENDBRANCH  17  18
ENDBRANCH  16  17
END_RES ASN A 133
