REMARK VINA RESULT:    -5.341      3.608      7.601
REMARK INTER + INTRA:          -8.965
REMARK INTER:                  -6.278
REMARK INTRA:                  -2.688
REMARK UNBOUND:                -2.688
REMARK SMILES Cc1cn(C(c2ccccc2)c2ccccc2)nn1
REMARK SMILES IDX 5 1 4 2 1 3 2 4 3 5 19 6 18 7 6 8 7 9 11 10 8 11 10 12 9 13
REMARK SMILES IDX 12 14 13 15 17 16 14 17 16 18 15 19
REMARK H PARENT
REMARK Flexibility Score: inf
ROOT
ATOM      1  C   UNL     1      25.759  35.289   9.400  1.00  0.00     0.169 C 
ENDROOT
BRANCH   1   2
ATOM      2  N   UNL     1      26.573  35.218  10.611  1.00  0.00    -0.240 N 
ATOM      3  C   UNL     1      29.221  36.138  12.956  1.00  0.00     0.070 C 
ATOM      4  C   UNL     1      28.102  35.594  12.180  1.00  0.00     0.080 A 
ATOM      5  C   UNL     1      27.612  36.004  10.945  1.00  0.00     0.135 A 
ATOM      6  N   UNL     1      27.320  34.558  12.539  1.00  0.00    -0.136 NA
ATOM      7  N   UNL     1      26.423  34.353  11.596  1.00  0.00    -0.066 NA
ENDBRANCH   1   2
BRANCH   1   8
ATOM      8  C   UNL     1      26.495  35.823   8.235  1.00  0.00    -0.019 A 
ATOM      9  C   UNL     1      26.306  37.083   7.732  1.00  0.00     0.006 A 
ATOM     10  C   UNL     1      27.446  35.036   7.591  1.00  0.00     0.006 A 
ATOM     11  C   UNL     1      27.045  37.522   6.628  1.00  0.00     0.000 A 
ATOM     12  C   UNL     1      28.171  35.465   6.509  1.00  0.00     0.000 A 
ATOM     13  C   UNL     1      27.976  36.724   6.012  1.00  0.00     0.000 A 
ENDBRANCH   1   8
BRANCH   1  14
ATOM     14  C   UNL     1      24.463  35.924   9.648  1.00  0.00    -0.019 A 
ATOM     15  C   UNL     1      24.279  37.042  10.431  1.00  0.00     0.006 A 
ATOM     16  C   UNL     1      23.323  35.408   9.061  1.00  0.00     0.006 A 
ATOM     17  C   UNL     1      23.043  37.588  10.605  1.00  0.00     0.000 A 
ATOM     18  C   UNL     1      22.063  35.941   9.220  1.00  0.00     0.000 A 
ATOM     19  C   UNL     1      21.934  37.046  10.005  1.00  0.00     0.000 A 
ENDBRANCH   1  14
TORSDOF 3
BEGIN_RES LYS A 135
REMARK  4 active torsions:
REMARK  status: ('A' for Active; 'I' for Inactive)
REMARK    1  A    between atoms: CA   and  CB  
REMARK    2  A    between atoms: CB   and  CG  
REMARK    3  A    between atoms: CG   and  CD  
REMARK    4  A    between atoms: CD   and  CE  
ROOT
ATOM      1  CA  LYS A 135      33.193  34.663   9.290  1.00 25.02     0.186 C 
ENDROOT
BRANCH   1   2
ATOM      2  CB  LYS A 135      32.060  35.360  10.034  1.00 26.63     0.034 C 
BRANCH   2   3
ATOM      3  CG  LYS A 135      30.810  35.527   9.209  1.00 29.45     0.005 C 
BRANCH   3   4
ATOM      4  CD  LYS A 135      30.500  37.001   8.997  1.00 32.00     0.041 C 
BRANCH   4   5
ATOM      5  CE  LYS A 135      31.263  37.854   9.992  1.00 34.25     0.338 C 
ATOM      6  NZ  LYS A 135      30.350  38.783  10.713  1.00 35.99     0.618 N 
ENDBRANCH   4   5
ENDBRANCH   3   4
ENDBRANCH   2   3
ENDBRANCH   1   2
END_RES LYS A 135
BEGIN_RES TYR A 136
REMARK  2 active torsions:
REMARK  status: ('A' for Active; 'I' for Inactive)
REMARK    5  A    between atoms: CA   and  CB  
REMARK    6  A    between atoms: CB   and  CG  
ROOT
ATOM      7  CA  TYR A 136      36.583  36.399   8.994  1.00 26.14     0.191 C 
ENDROOT
BRANCH   7   8
ATOM      8  CB  TYR A 136      37.367  36.835  10.240  1.00 28.16     0.060 C 
BRANCH   8   9
ATOM      9  CG  TYR A 136      37.279  38.320  10.491  1.00 31.88    -0.020 A 
ATOM     10  CD2 TYR A 136      38.326  39.014  11.101  1.00 32.67    -0.002 A 
ATOM     11  CE2 TYR A 136      38.234  40.394  11.331  1.00 33.89     0.027 A 
ATOM     12  CZ  TYR A 136      37.083  41.085  10.946  1.00 34.34     0.131 A 
ATOM     13  OH  TYR A 136      36.972  42.453  11.158  1.00 35.14    -0.190 OA
ATOM     14  CE1 TYR A 136      36.032  40.412  10.340  1.00 35.01     0.027 A 
ATOM     15  CD1 TYR A 136      36.133  39.037  10.122  1.00 33.57    -0.002 A 
ENDBRANCH   8   9
ENDBRANCH   7   8
END_RES TYR A 136
BEGIN_RES ASN A 133
REMARK  2 active torsions:
REMARK  status: ('A' for Active; 'I' for Inactive)
REMARK    7  A    between atoms: CA   and  CB  
REMARK    8  A    between atoms: CB   and  CG  
ROOT
ATOM     16  CA  ASN A 133      31.225  30.257  11.749  1.00 18.15     0.196 C 
ENDROOT
BRANCH  16  17
ATOM     17  CB  ASN A 133      30.092  31.240  11.460  1.00 18.27     0.126 C 
BRANCH  17  18
ATOM     18  CG  ASN A 133      28.755  30.579  11.325  1.00 18.94     0.276 C 
ATOM     19  OD1 ASN A 133      28.589  29.626  10.562  1.00 18.09    -0.269 OA
ATOM     20  ND2 ASN A 133      27.776  31.086  12.073  1.00 18.93    -0.107 N 
ENDBRANCH  17  18
ENDBRANCH  16  17
END_RES ASN A 133
