REMARK VINA RESULT:    -5.765      1.620      2.193
REMARK INTER + INTRA:          -7.345
REMARK INTER:                  -4.096
REMARK INTRA:                  -3.249
REMARK UNBOUND:                -1.243
REMARK SMILES Cc1cn(-c2ccccc2Br)nn1
REMARK SMILES IDX 5 1 6 2 7 3 8 4 9 5 10 6 11 7 4 8 1 9 2 10 3 11 13 12 12 13
REMARK H PARENT
REMARK Flexibility Score: inf
ROOT
ATOM      1  C   UNL     1      36.293  35.224  14.457  1.00  0.00     0.081 A 
ATOM      2  C   UNL     1      36.474  35.775  15.708  1.00  0.00     0.029 A 
ATOM      3  C   UNL     1      37.579  35.426  16.457  1.00  0.00     0.002 A 
ATOM      4  C   UNL     1      38.498  34.530  15.951  1.00  0.00     0.001 A 
ATOM      5  C   UNL     1      38.298  33.993  14.701  1.00  0.00     0.018 A 
ATOM      6  C   UNL     1      37.203  34.320  13.924  1.00  0.00     0.043 A 
ATOM      7  Br  UNL     1      36.949  33.557  12.190  1.00  0.00    -0.048 Br
ENDROOT
BRANCH   1   8
ATOM      8  N   UNL     1      35.150  35.604  13.720  1.00  0.00    -0.219 N 
ATOM      9  C   UNL     1      33.410  37.987  11.588  1.00  0.00     0.070 C 
ATOM     10  C   UNL     1      33.858  36.852  12.429  1.00  0.00     0.080 A 
ATOM     11  C   UNL     1      35.075  36.776  13.030  1.00  0.00     0.140 A 
ATOM     12  N   UNL     1      33.199  35.732  12.753  1.00  0.00    -0.135 NA
ATOM     13  N   UNL     1      34.001  35.000  13.530  1.00  0.00    -0.062 NA
ENDBRANCH   1   8
TORSDOF 1
BEGIN_RES LYS A 135
REMARK  4 active torsions:
REMARK  status: ('A' for Active; 'I' for Inactive)
REMARK    1  A    between atoms: CA   and  CB  
REMARK    2  A    between atoms: CB   and  CG  
REMARK    3  A    between atoms: CG   and  CD  
REMARK    4  A    between atoms: CD   and  CE  
ROOT
ATOM      1  CA  LYS A 135      33.193  34.663   9.290  1.00 25.02     0.186 C 
ENDROOT
BRANCH   1   2
ATOM      2  CB  LYS A 135      32.060  35.360  10.034  1.00 26.63     0.034 C 
BRANCH   2   3
ATOM      3  CG  LYS A 135      30.833  35.586   9.189  1.00 29.45     0.005 C 
BRANCH   3   4
ATOM      4  CD  LYS A 135      30.222  34.259   8.764  1.00 32.00     0.041 C 
BRANCH   4   5
ATOM      5  CE  LYS A 135      28.730  34.407   8.541  1.00 34.25     0.338 C 
ATOM      6  NZ  LYS A 135      27.956  33.695   9.596  1.00 35.99     0.618 N 
ENDBRANCH   4   5
ENDBRANCH   3   4
ENDBRANCH   2   3
ENDBRANCH   1   2
END_RES LYS A 135
BEGIN_RES TYR A 136
REMARK  2 active torsions:
REMARK  status: ('A' for Active; 'I' for Inactive)
REMARK    5  A    between atoms: CA   and  CB  
REMARK    6  A    between atoms: CB   and  CG  
ROOT
ATOM      7  CA  TYR A 136      36.583  36.399   8.994  1.00 26.14     0.191 C 
ENDROOT
BRANCH   7   8
ATOM      8  CB  TYR A 136      37.367  36.835  10.240  1.00 28.16     0.060 C 
BRANCH   8   9
ATOM      9  CG  TYR A 136      37.227  38.310  10.527  1.00 31.88    -0.020 A 
ATOM     10  CD2 TYR A 136      37.866  38.897  11.621  1.00 32.67    -0.002 A 
ATOM     11  CE2 TYR A 136      37.727  40.268  11.880  1.00 33.89     0.027 A 
ATOM     12  CZ  TYR A 136      36.942  41.058  11.037  1.00 34.34     0.131 A 
ATOM     13  OH  TYR A 136      36.797  42.418  11.270  1.00 35.14    -0.190 OA
ATOM     14  CE1 TYR A 136      36.300  40.490   9.946  1.00 35.01     0.027 A 
ATOM     15  CD1 TYR A 136      36.440  39.123   9.702  1.00 33.57    -0.002 A 
ENDBRANCH   8   9
ENDBRANCH   7   8
END_RES TYR A 136
BEGIN_RES ASN A 133
REMARK  2 active torsions:
REMARK  status: ('A' for Active; 'I' for Inactive)
REMARK    7  A    between atoms: CA   and  CB  
REMARK    8  A    between atoms: CB   and  CG  
ROOT
ATOM     16  CA  ASN A 133      31.225  30.257  11.749  1.00 18.15     0.196 C 
ENDROOT
BRANCH  16  17
ATOM     17  CB  ASN A 133      30.092  31.240  11.460  1.00 18.27     0.126 C 
BRANCH  17  18
ATOM     18  CG  ASN A 133      28.750  30.583  11.360  1.00 18.94     0.276 C 
ATOM     19  OD1 ASN A 133      28.568  29.611  10.624  1.00 18.09    -0.269 OA
ATOM     20  ND2 ASN A 133      27.784  31.115  12.108  1.00 18.93    -0.107 N 
ENDBRANCH  17  18
ENDBRANCH  16  17
END_RES ASN A 133
