REMARK VINA RESULT:    -4.410      3.950      7.578
REMARK INTER + INTRA:         -10.154
REMARK INTER:                  -6.119
REMARK INTRA:                  -4.035
REMARK UNBOUND:                -4.068
REMARK SMILES CCOCCc1c(-c2ccccc2)nc(N)nc1-n1cc(C)nn1
REMARK SMILES IDX 5 1 6 2 18 3 17 4 15 5 7 6 14 7 19 8 22 9 21 10 20 11 23 12
REMARK SMILES IDX 24 13 16 14 8 17 9 18 13 19 10 20 12 21 11 22 4 23 3 24 2 25
REMARK SMILES IDX 1 26
REMARK H PARENT 16 15 16 16
REMARK Flexibility Score: inf
ROOT
ATOM      1  C   UNL     1      25.447  30.467  15.305  1.00  0.00     0.070 C 
ENDROOT
BRANCH   1   2
ATOM      2  C   UNL     1      25.461  31.709  14.544  1.00  0.00     0.026 A 
ATOM      3  C   UNL     1      26.428  32.669  14.836  1.00  0.00     0.164 A 
ATOM      4  N   UNL     1      26.431  33.795  14.072  1.00  0.00    -0.193 NA
ATOM      5  C   UNL     1      25.587  34.039  13.079  1.00  0.00     0.222 A 
ATOM      6  C   UNL     1      24.584  31.949  13.524  1.00  0.00     0.081 A 
ATOM      7  N   UNL     1      24.654  33.115  12.796  1.00  0.00    -0.213 NA
BRANCH   3   8
ATOM      8  N   UNL     1      27.370  32.497  15.882  1.00  0.00    -0.202 N 
ATOM      9  C   UNL     1      30.415  31.320  17.561  1.00  0.00     0.070 C 
ATOM     10  C   UNL     1      29.125  31.919  17.132  1.00  0.00     0.080 A 
ATOM     11  C   UNL     1      28.522  31.818  15.869  1.00  0.00     0.142 A 
ATOM     12  N   UNL     1      28.272  32.676  17.849  1.00  0.00    -0.135 NA
ATOM     13  N   UNL     1      27.238  33.008  17.088  1.00  0.00    -0.061 NA
ENDBRANCH   3   8
BRANCH   5  14
ATOM     14  N   UNL     1      25.660  35.262  12.315  1.00  0.00    -0.368 N 
ATOM     15  H   UNL     1      24.936  35.978  12.460  1.00  0.00     0.159 HD
ATOM     16  H   UNL     1      26.415  35.442  11.629  1.00  0.00     0.159 HD
ENDBRANCH   5  14
BRANCH   6  17
ATOM     17  C   UNL     1      23.532  31.040  13.091  1.00  0.00     0.001 A 
ATOM     18  C   UNL     1      23.672  29.720  12.821  1.00  0.00     0.010 A 
ATOM     19  C   UNL     1      22.274  31.618  12.911  1.00  0.00     0.010 A 
ATOM     20  C   UNL     1      22.600  28.940  12.372  1.00  0.00     0.001 A 
ATOM     21  C   UNL     1      21.220  30.853  12.470  1.00  0.00     0.001 A 
ATOM     22  C   UNL     1      21.360  29.510  12.194  1.00  0.00     0.000 A 
ENDBRANCH   6  17
ENDBRANCH   1   2
BRANCH   1  23
ATOM     23  C   UNL     1      24.616  30.560  16.575  1.00  0.00     0.165 C 
BRANCH  23  24
ATOM     24  O   UNL     1      25.360  30.244  17.696  1.00  0.00    -0.381 OA
BRANCH  24  25
ATOM     25  C   UNL     1      26.265  29.227  17.403  1.00  0.00     0.156 C 
ATOM     26  C   UNL     1      27.257  29.039  18.543  1.00  0.00     0.035 C 
ENDBRANCH  24  25
ENDBRANCH  23  24
ENDBRANCH   1  23
TORSDOF 7
BEGIN_RES LYS A 135
REMARK  4 active torsions:
REMARK  status: ('A' for Active; 'I' for Inactive)
REMARK    1  A    between atoms: CA   and  CB  
REMARK    2  A    between atoms: CB   and  CG  
REMARK    3  A    between atoms: CG   and  CD  
REMARK    4  A    between atoms: CD   and  CE  
ROOT
ATOM      1  CA  LYS A 135      33.193  34.663   9.290  1.00 25.02     0.186 C 
ENDROOT
BRANCH   1   2
ATOM      2  CB  LYS A 135      32.060  35.360  10.034  1.00 26.63     0.034 C 
BRANCH   2   3
ATOM      3  CG  LYS A 135      30.804  35.510   9.215  1.00 29.45     0.005 C 
BRANCH   3   4
ATOM      4  CD  LYS A 135      30.107  34.168   9.052  1.00 32.00     0.041 C 
BRANCH   4   5
ATOM      5  CE  LYS A 135      28.660  34.365   8.642  1.00 34.25     0.338 C 
ATOM      6  NZ  LYS A 135      27.735  33.709   9.606  1.00 35.99     0.618 N 
ENDBRANCH   4   5
ENDBRANCH   3   4
ENDBRANCH   2   3
ENDBRANCH   1   2
END_RES LYS A 135
BEGIN_RES TYR A 136
REMARK  2 active torsions:
REMARK  status: ('A' for Active; 'I' for Inactive)
REMARK    5  A    between atoms: CA   and  CB  
REMARK    6  A    between atoms: CB   and  CG  
ROOT
ATOM      7  CA  TYR A 136      36.583  36.399   8.994  1.00 26.14     0.191 C 
ENDROOT
BRANCH   7   8
ATOM      8  CB  TYR A 136      37.367  36.835  10.240  1.00 28.16     0.060 C 
BRANCH   8   9
ATOM      9  CG  TYR A 136      37.278  38.320  10.492  1.00 31.88    -0.020 A 
ATOM     10  CD2 TYR A 136      38.425  39.089  10.698  1.00 32.67    -0.002 A 
ATOM     11  CE2 TYR A 136      38.331  40.468  10.933  1.00 33.89     0.027 A 
ATOM     12  CZ  TYR A 136      37.077  41.082  10.961  1.00 34.34     0.131 A 
ATOM     13  OH  TYR A 136      36.960  42.447  11.185  1.00 35.14    -0.190 OA
ATOM     14  CE1 TYR A 136      35.926  40.334  10.759  1.00 35.01     0.027 A 
ATOM     15  CD1 TYR A 136      36.032  38.960  10.533  1.00 33.57    -0.002 A 
ENDBRANCH   8   9
ENDBRANCH   7   8
END_RES TYR A 136
BEGIN_RES ASN A 133
REMARK  2 active torsions:
REMARK  status: ('A' for Active; 'I' for Inactive)
REMARK    7  A    between atoms: CA   and  CB  
REMARK    8  A    between atoms: CB   and  CG  
ROOT
ATOM     16  CA  ASN A 133      31.225  30.257  11.749  1.00 18.15     0.196 C 
ENDROOT
BRANCH  16  17
ATOM     17  CB  ASN A 133      30.092  31.240  11.460  1.00 18.27     0.126 C 
BRANCH  17  18
ATOM     18  CG  ASN A 133      28.762  30.575  11.287  1.00 18.94     0.276 C 
ATOM     19  OD1 ASN A 133      28.630  29.592  10.554  1.00 18.09    -0.269 OA
ATOM     20  ND2 ASN A 133      27.749  31.112  11.966  1.00 18.93    -0.107 N 
ENDBRANCH  17  18
ENDBRANCH  16  17
END_RES ASN A 133
