REMARK VINA RESULT:    -5.257      2.213      5.096
REMARK INTER + INTRA:          -8.594
REMARK INTER:                  -5.738
REMARK INTRA:                  -2.856
REMARK UNBOUND:                -2.723
REMARK SMILES Cc1cn(-c2ncn3c2c(=O)n(C(C)C)c2ccccc23)nn1
REMARK SMILES IDX 5 1 6 2 7 3 8 4 21 5 20 6 19 7 18 8 17 9 16 10 12 11 10 12
REMARK SMILES IDX 11 13 9 14 4 15 1 16 2 17 3 18 23 19 22 20 13 21 14 22 15 23
REMARK H PARENT
REMARK Flexibility Score: inf
ROOT
ATOM      1  C   UNL     1      37.527  34.598  14.672  1.00  0.00     0.186 A 
ATOM      2  N   UNL     1      37.219  33.878  13.584  1.00  0.00    -0.216 NA
ATOM      3  C   UNL     1      36.122  34.364  12.981  1.00  0.00     0.207 A 
ATOM      4  N   UNL     1      35.716  35.433  13.713  1.00  0.00    -0.291 N 
ATOM      5  C   UNL     1      34.680  36.297  13.577  1.00  0.00     0.071 A 
ATOM      6  C   UNL     1      33.859  36.079  12.493  1.00  0.00     0.029 A 
ATOM      7  C   UNL     1      32.803  36.945  12.330  1.00  0.00     0.002 A 
ATOM      8  C   UNL     1      32.568  37.980  13.200  1.00  0.00     0.002 A 
ATOM      9  C   UNL     1      33.395  38.180  14.271  1.00  0.00     0.028 A 
ATOM     10  C   UNL     1      34.459  37.329  14.459  1.00  0.00     0.068 A 
ATOM     11  N   UNL     1      35.338  37.463  15.505  1.00  0.00    -0.302 N 
ATOM     12  C   UNL     1      36.370  36.615  15.653  1.00  0.00     0.279 A 
ATOM     13  O   UNL     1      37.214  36.679  16.584  1.00  0.00    -0.267 OA
ATOM     14  C   UNL     1      36.564  35.590  14.750  1.00  0.00     0.158 A 
ENDROOT
BRANCH   1  15
ATOM     15  N   UNL     1      38.628  34.392  15.581  1.00  0.00    -0.200 N 
ATOM     16  C   UNL     1      42.056  34.708  16.740  1.00  0.00     0.070 C 
ATOM     17  C   UNL     1      40.609  34.422  16.516  1.00  0.00     0.080 A 
ATOM     18  C   UNL     1      39.887  34.840  15.429  1.00  0.00     0.142 A 
ATOM     19  N   UNL     1      39.785  33.733  17.304  1.00  0.00    -0.135 NA
ATOM     20  N   UNL     1      38.594  33.727  16.721  1.00  0.00    -0.061 NA
ENDBRANCH   1  15
BRANCH  11  21
ATOM     21  C   UNL     1      35.100  38.526  16.418  1.00  0.00     0.085 C 
ATOM     22  C   UNL     1      34.810  38.003  17.805  1.00  0.00     0.031 C 
ATOM     23  C   UNL     1      36.258  39.495  16.538  1.00  0.00     0.031 C 
ENDBRANCH  11  21
TORSDOF 2
BEGIN_RES LYS A 135
REMARK  4 active torsions:
REMARK  status: ('A' for Active; 'I' for Inactive)
REMARK    1  A    between atoms: CA   and  CB  
REMARK    2  A    between atoms: CB   and  CG  
REMARK    3  A    between atoms: CG   and  CD  
REMARK    4  A    between atoms: CD   and  CE  
ROOT
ATOM      1  CA  LYS A 135      33.193  34.663   9.290  1.00 25.02     0.186 C 
ENDROOT
BRANCH   1   2
ATOM      2  CB  LYS A 135      32.060  35.360  10.034  1.00 26.63     0.034 C 
BRANCH   2   3
ATOM      3  CG  LYS A 135      30.842  35.607   9.182  1.00 29.45     0.005 C 
BRANCH   3   4
ATOM      4  CD  LYS A 135      30.253  34.292   8.693  1.00 32.00     0.041 C 
BRANCH   4   5
ATOM      5  CE  LYS A 135      28.755  34.421   8.493  1.00 34.25     0.338 C 
ATOM      6  NZ  LYS A 135      28.008  33.753   9.595  1.00 35.99     0.618 N 
ENDBRANCH   4   5
ENDBRANCH   3   4
ENDBRANCH   2   3
ENDBRANCH   1   2
END_RES LYS A 135
BEGIN_RES TYR A 136
REMARK  2 active torsions:
REMARK  status: ('A' for Active; 'I' for Inactive)
REMARK    5  A    between atoms: CA   and  CB  
REMARK    6  A    between atoms: CB   and  CG  
ROOT
ATOM      7  CA  TYR A 136      36.583  36.399   8.994  1.00 26.14     0.191 C 
ENDROOT
BRANCH   7   8
ATOM      8  CB  TYR A 136      37.367  36.835  10.240  1.00 28.16     0.060 C 
BRANCH   8   9
ATOM      9  CG  TYR A 136      36.749  38.028  10.926  1.00 31.88    -0.020 A 
ATOM     10  CD2 TYR A 136      35.678  38.718  10.353  1.00 32.67    -0.002 A 
ATOM     11  CE2 TYR A 136      35.112  39.826  10.998  1.00 33.89     0.027 A 
ATOM     12  CZ  TYR A 136      35.622  40.248  12.228  1.00 34.34     0.131 A 
ATOM     13  OH  TYR A 136      35.073  41.338  12.888  1.00 35.14    -0.190 OA
ATOM     14  CE1 TYR A 136      36.686  39.575  12.812  1.00 35.01     0.027 A 
ATOM     15  CD1 TYR A 136      37.246  38.477  12.157  1.00 33.57    -0.002 A 
ENDBRANCH   8   9
ENDBRANCH   7   8
END_RES TYR A 136
BEGIN_RES ASN A 133
REMARK  2 active torsions:
REMARK  status: ('A' for Active; 'I' for Inactive)
REMARK    7  A    between atoms: CA   and  CB  
REMARK    8  A    between atoms: CB   and  CG  
ROOT
ATOM     16  CA  ASN A 133      31.225  30.257  11.749  1.00 18.15     0.196 C 
ENDROOT
BRANCH  16  17
ATOM     17  CB  ASN A 133      30.092  31.240  11.460  1.00 18.27     0.126 C 
BRANCH  17  18
ATOM     18  CG  ASN A 133      28.751  30.582  11.351  1.00 18.94     0.276 C 
ATOM     19  OD1 ASN A 133      28.575  29.612  10.611  1.00 18.09    -0.269 OA
ATOM     20  ND2 ASN A 133      27.780  31.111  12.095  1.00 18.93    -0.107 N 
ENDBRANCH  17  18
ENDBRANCH  16  17
END_RES ASN A 133
