REMARK VINA RESULT:    -5.991      1.703      3.918
REMARK INTER + INTRA:         -11.053
REMARK INTER:                  -7.406
REMARK INTRA:                  -3.648
REMARK UNBOUND:                -3.836
REMARK SMILES Cc1cn(-c2ccc(-c3c4ccc(=O)cc-4oc4cc(O)ccc34)c(C(=O)[O-])c2)nn1
REMARK SMILES IDX 9 1 24 2 23 3 22 4 20 5 19 6 18 7 17 8 16 9 15 10 13 11
REMARK SMILES IDX 14 12 12 13 11 14 10 15 8 16 5 17 29 18 6 19 25 20 7 21 4 22
REMARK SMILES IDX 1 23 2 24 3 25 31 26 30 27 26 28 27 29 28 30 21 31
REMARK H PARENT 21 32
REMARK Flexibility Score: inf
ROOT
ATOM      1  C   UNL     1      31.241  34.787  14.246  1.00  0.00     0.004 A 
ATOM      2  C   UNL     1      30.688  33.644  14.780  1.00  0.00     0.026 A 
ATOM      3  C   UNL     1      31.453  32.818  15.575  1.00  0.00     0.016 A 
ATOM      4  C   UNL     1      30.936  31.658  16.132  1.00  0.00     0.047 A 
ATOM      5  C   UNL     1      29.620  31.345  15.870  1.00  0.00     0.119 A 
ATOM      6  C   UNL     1      28.853  32.170  15.074  1.00  0.00     0.093 A 
ATOM      7  C   UNL     1      29.361  33.341  14.508  1.00  0.00     0.139 A 
ATOM      8  O   UNL     1      28.602  34.104  13.755  1.00  0.00    -0.456 OA
ATOM      9  C   UNL     1      29.031  35.198  13.210  1.00  0.00     0.139 A 
ATOM     10  C   UNL     1      28.267  36.021  12.418  1.00  0.00     0.099 A 
ATOM     11  C   UNL     1      28.839  37.157  11.895  1.00  0.00     0.182 A 
ATOM     12  O   UNL     1      28.133  37.903  11.172  1.00  0.00    -0.290 OA
ATOM     13  C   UNL     1      30.156  37.505  12.136  1.00  0.00     0.053 A 
ATOM     14  C   UNL     1      30.979  36.727  12.920  1.00  0.00     0.016 A 
ATOM     15  C   UNL     1      30.429  35.576  13.460  1.00  0.00     0.026 A 
ENDROOT
BRANCH   1  16
ATOM     16  C   UNL     1      32.626  35.096  14.536  1.00  0.00    -0.008 A 
ATOM     17  C   UNL     1      35.276  35.730  15.154  1.00  0.00     0.067 A 
ATOM     18  C   UNL     1      34.253  36.192  15.956  1.00  0.00     0.039 A 
ATOM     19  C   UNL     1      34.988  34.952  14.043  1.00  0.00     0.029 A 
ATOM     20  C   UNL     1      32.948  35.867  15.633  1.00  0.00     0.007 A 
ATOM     21  C   UNL     1      33.670  34.646  13.749  1.00  0.00     0.012 A 
BRANCH  17  22
ATOM     22  N   UNL     1      36.636  36.032  15.437  1.00  0.00    -0.220 N 
ATOM     23  C   UNL     1      40.225  35.975  14.617  1.00  0.00     0.070 C 
ATOM     24  C   UNL     1      38.855  36.136  15.186  1.00  0.00     0.080 A 
ATOM     25  C   UNL     1      37.676  35.699  14.617  1.00  0.00     0.140 A 
ATOM     26  N   UNL     1      38.491  36.726  16.339  1.00  0.00    -0.135 NA
ATOM     27  N   UNL     1      37.167  36.646  16.457  1.00  0.00    -0.062 NA
ENDBRANCH  17  22
BRANCH  20  28
ATOM     28  C   UNL     1      31.876  36.362  16.490  1.00  0.00     0.072 C 
ATOM     29  O   UNL     1      31.316  37.462  16.279  1.00  0.00    -0.545 OA
ATOM     30  O   UNL     1      31.432  35.622  17.577  1.00  0.00    -0.545 OA
ENDBRANCH  20  28
ENDBRANCH   1  16
BRANCH   5  31
ATOM     31  O   UNL     1      29.087  30.172  16.430  1.00  0.00    -0.508 OA
ATOM     32  H   UNL     1      29.175  30.003  17.422  1.00  0.00     0.293 HD
ENDBRANCH   5  31
TORSDOF 4
BEGIN_RES LYS A 135
REMARK  4 active torsions:
REMARK  status: ('A' for Active; 'I' for Inactive)
REMARK    1  A    between atoms: CA   and  CB  
REMARK    2  A    between atoms: CB   and  CG  
REMARK    3  A    between atoms: CG   and  CD  
REMARK    4  A    between atoms: CD   and  CE  
ROOT
ATOM      1  CA  LYS A 135      33.193  34.663   9.290  1.00 25.02     0.186 C 
ENDROOT
BRANCH   1   2
ATOM      2  CB  LYS A 135      32.060  35.360  10.034  1.00 26.63     0.034 C 
BRANCH   2   3
ATOM      3  CG  LYS A 135      30.728  34.670   9.886  1.00 29.45     0.005 C 
BRANCH   3   4
ATOM      4  CD  LYS A 135      30.304  34.628   8.426  1.00 32.00     0.041 C 
BRANCH   4   5
ATOM      5  CE  LYS A 135      28.793  34.570   8.312  1.00 34.25     0.338 C 
ATOM      6  NZ  LYS A 135      28.196  33.835   9.461  1.00 35.99     0.618 N 
ENDBRANCH   4   5
ENDBRANCH   3   4
ENDBRANCH   2   3
ENDBRANCH   1   2
END_RES LYS A 135
BEGIN_RES TYR A 136
REMARK  2 active torsions:
REMARK  status: ('A' for Active; 'I' for Inactive)
REMARK    5  A    between atoms: CA   and  CB  
REMARK    6  A    between atoms: CB   and  CG  
ROOT
ATOM      7  CA  TYR A 136      36.583  36.399   8.994  1.00 26.14     0.191 C 
ENDROOT
BRANCH   7   8
ATOM      8  CB  TYR A 136      37.367  36.835  10.240  1.00 28.16     0.060 C 
BRANCH   8   9
ATOM      9  CG  TYR A 136      36.713  37.987  10.963  1.00 31.88    -0.020 A 
ATOM     10  CD2 TYR A 136      35.950  37.778  12.114  1.00 32.67    -0.002 A 
ATOM     11  CE2 TYR A 136      35.345  38.855  12.777  1.00 33.89     0.027 A 
ATOM     12  CZ  TYR A 136      35.506  40.152  12.284  1.00 34.34     0.131 A 
ATOM     13  OH  TYR A 136      34.923  41.234  12.929  1.00 35.14    -0.190 OA
ATOM     14  CE1 TYR A 136      36.260  40.377  11.142  1.00 35.01     0.027 A 
ATOM     15  CD1 TYR A 136      36.852  39.296  10.486  1.00 33.57    -0.002 A 
ENDBRANCH   8   9
ENDBRANCH   7   8
END_RES TYR A 136
BEGIN_RES ASN A 133
REMARK  2 active torsions:
REMARK  status: ('A' for Active; 'I' for Inactive)
REMARK    7  A    between atoms: CA   and  CB  
REMARK    8  A    between atoms: CB   and  CG  
ROOT
ATOM     16  CA  ASN A 133      31.225  30.257  11.749  1.00 18.15     0.196 C 
ENDROOT
BRANCH  16  17
ATOM     17  CB  ASN A 133      30.092  31.240  11.460  1.00 18.27     0.126 C 
BRANCH  17  18
ATOM     18  CG  ASN A 133      28.764  30.574  11.274  1.00 18.94     0.276 C 
ATOM     19  OD1 ASN A 133      28.646  29.572  10.567  1.00 18.09    -0.269 OA
ATOM     20  ND2 ASN A 133      27.737  31.133  11.914  1.00 18.93    -0.107 N 
ENDBRANCH  17  18
ENDBRANCH  16  17
END_RES ASN A 133
