REMARK VINA RESULT:    -3.184      8.008     11.885
REMARK INTER + INTRA:          -7.042
REMARK INTER:                  -3.839
REMARK INTRA:                  -3.202
REMARK UNBOUND:                -3.113
REMARK SMILES CC(=O)OCCn1cc(C)nn1
REMARK SMILES IDX 5 1 6 2 7 3 10 4 9 5 8 6 11 7 12 8 4 9 2 10 3 11 1 12
REMARK H PARENT
REMARK Flexibility Score: inf
ROOT
ATOM      1  C   UNL     1      25.637  30.544  15.637  1.00  0.00     0.256 C 
ENDROOT
BRANCH   1   2
ATOM      2  C   UNL     1      26.609  29.607  16.280  1.00  0.00     0.187 C 
BRANCH   2   3
ATOM      3  N   UNL     1      27.878  30.245  16.587  1.00  0.00    -0.249 N 
ATOM      4  C   UNL     1      30.983  32.007  15.843  1.00  0.00     0.070 C 
ATOM      5  C   UNL     1      29.812  31.304  16.415  1.00  0.00     0.080 A 
ATOM      6  C   UNL     1      28.719  30.811  15.718  1.00  0.00     0.134 A 
ATOM      7  N   UNL     1      29.552  30.993  17.713  1.00  0.00    -0.136 NA
ATOM      8  N   UNL     1      28.394  30.363  17.795  1.00  0.00    -0.067 NA
ENDBRANCH   2   3
ENDBRANCH   1   2
BRANCH   1   9
ATOM      9  O   UNL     1      24.706  29.818  14.889  1.00  0.00    -0.464 OA
BRANCH   9  10
ATOM     10  C   UNL     1      24.285  30.184  13.643  1.00  0.00     0.302 C 
ATOM     11  O   UNL     1      24.490  31.334  13.195  1.00  0.00    -0.253 OA
ATOM     12  C   UNL     1      23.552  29.235  12.728  1.00  0.00     0.139 C 
ENDBRANCH   9  10
ENDBRANCH   1   9
TORSDOF 4
BEGIN_RES LYS A 135
REMARK  4 active torsions:
REMARK  status: ('A' for Active; 'I' for Inactive)
REMARK    1  A    between atoms: CA   and  CB  
REMARK    2  A    between atoms: CB   and  CG  
REMARK    3  A    between atoms: CG   and  CD  
REMARK    4  A    between atoms: CD   and  CE  
ROOT
ATOM      1  CA  LYS A 135      33.193  34.663   9.290  1.00 25.02     0.186 C 
ENDROOT
BRANCH   1   2
ATOM      2  CB  LYS A 135      32.060  35.360  10.034  1.00 26.63     0.034 C 
BRANCH   2   3
ATOM      3  CG  LYS A 135      30.801  35.502   9.218  1.00 29.45     0.005 C 
BRANCH   3   4
ATOM      4  CD  LYS A 135      30.145  34.146   9.003  1.00 32.00     0.041 C 
BRANCH   4   5
ATOM      5  CE  LYS A 135      28.679  34.313   8.654  1.00 34.25     0.338 C 
ATOM      6  NZ  LYS A 135      27.808  33.659   9.669  1.00 35.99     0.618 N 
ENDBRANCH   4   5
ENDBRANCH   3   4
ENDBRANCH   2   3
ENDBRANCH   1   2
END_RES LYS A 135
BEGIN_RES TYR A 136
REMARK  2 active torsions:
REMARK  status: ('A' for Active; 'I' for Inactive)
REMARK    5  A    between atoms: CA   and  CB  
REMARK    6  A    between atoms: CB   and  CG  
ROOT
ATOM      7  CA  TYR A 136      36.583  36.399   8.994  1.00 26.14     0.191 C 
ENDROOT
BRANCH   7   8
ATOM      8  CB  TYR A 136      37.367  36.835  10.240  1.00 28.16     0.060 C 
BRANCH   8   9
ATOM      9  CG  TYR A 136      37.271  38.319  10.496  1.00 31.88    -0.020 A 
ATOM     10  CD2 TYR A 136      36.087  38.898  10.956  1.00 32.67    -0.002 A 
ATOM     11  CE2 TYR A 136      36.007  40.278  11.189  1.00 33.89     0.027 A 
ATOM     12  CZ  TYR A 136      37.124  41.086  10.959  1.00 34.34     0.131 A 
ATOM     13  OH  TYR A 136      37.071  42.453  11.190  1.00 35.14    -0.190 OA
ATOM     14  CE1 TYR A 136      38.308  40.527  10.501  1.00 35.01     0.027 A 
ATOM     15  CD1 TYR A 136      38.373  39.153  10.266  1.00 33.57    -0.002 A 
ENDBRANCH   8   9
ENDBRANCH   7   8
END_RES TYR A 136
BEGIN_RES ASN A 133
REMARK  2 active torsions:
REMARK  status: ('A' for Active; 'I' for Inactive)
REMARK    7  A    between atoms: CA   and  CB  
REMARK    8  A    between atoms: CB   and  CG  
ROOT
ATOM     16  CA  ASN A 133      31.225  30.257  11.749  1.00 18.15     0.196 C 
ENDROOT
BRANCH  16  17
ATOM     17  CB  ASN A 133      30.092  31.240  11.460  1.00 18.27     0.126 C 
BRANCH  17  18
ATOM     18  CG  ASN A 133      28.752  30.582  11.349  1.00 18.94     0.276 C 
ATOM     19  OD1 ASN A 133      28.560  29.654  10.561  1.00 18.09    -0.269 OA
ATOM     20  ND2 ASN A 133      27.798  31.063  12.146  1.00 18.93    -0.107 N 
ENDBRANCH  17  18
ENDBRANCH  16  17
END_RES ASN A 133
