REMARK VINA RESULT:    -5.890      3.671      6.352
REMARK INTER + INTRA:         -10.931
REMARK INTER:                  -7.330
REMARK INTRA:                  -3.602
REMARK UNBOUND:                -3.836
REMARK SMILES Cc1cn(-c2ccc(-c3c4ccc(=O)cc-4oc4cc(O)ccc34)c(C(=O)[O-])c2)nn1
REMARK SMILES IDX 9 1 24 2 23 3 22 4 20 5 19 6 18 7 17 8 16 9 15 10 13 11
REMARK SMILES IDX 14 12 12 13 11 14 10 15 8 16 5 17 29 18 6 19 25 20 7 21 4 22
REMARK SMILES IDX 1 23 2 24 3 25 31 26 30 27 26 28 27 29 28 30 21 31
REMARK H PARENT 21 32
REMARK Flexibility Score: inf
ROOT
ATOM      1  C   UNL     1      34.349  37.852  13.218  1.00  0.00     0.004 A 
ATOM      2  C   UNL     1      34.801  39.046  13.737  1.00  0.00     0.026 A 
ATOM      3  C   UNL     1      34.030  40.182  13.615  1.00  0.00     0.016 A 
ATOM      4  C   UNL     1      34.446  41.404  14.121  1.00  0.00     0.047 A 
ATOM      5  C   UNL     1      35.666  41.458  14.760  1.00  0.00     0.119 A 
ATOM      6  C   UNL     1      36.438  40.322  14.882  1.00  0.00     0.093 A 
ATOM      7  C   UNL     1      36.031  39.086  14.377  1.00  0.00     0.139 A 
ATOM      8  O   UNL     1      36.792  38.024  14.512  1.00  0.00    -0.456 OA
ATOM      9  C   UNL     1      36.454  36.858  14.059  1.00  0.00     0.139 A 
ATOM     10  C   UNL     1      37.224  35.726  14.182  1.00  0.00     0.099 A 
ATOM     11  C   UNL     1      36.754  34.545  13.657  1.00  0.00     0.182 A 
ATOM     12  O   UNL     1      37.464  33.516  13.774  1.00  0.00    -0.290 OA
ATOM     13  C   UNL     1      35.535  34.451  13.010  1.00  0.00     0.053 A 
ATOM     14  C   UNL     1      34.713  35.544  12.851  1.00  0.00     0.016 A 
ATOM     15  C   UNL     1      35.161  36.749  13.370  1.00  0.00     0.026 A 
ENDROOT
BRANCH   1  16
ATOM     16  C   UNL     1      33.064  37.819  12.552  1.00  0.00    -0.008 A 
ATOM     17  C   UNL     1      30.552  37.739  11.331  1.00  0.00     0.067 A 
ATOM     18  C   UNL     1      30.670  37.480  12.680  1.00  0.00     0.039 A 
ATOM     19  C   UNL     1      31.680  38.040  10.582  1.00  0.00     0.029 A 
ATOM     20  C   UNL     1      31.922  37.524  13.267  1.00  0.00     0.007 A 
ATOM     21  C   UNL     1      32.918  38.076  11.201  1.00  0.00     0.012 A 
BRANCH  17  22
ATOM     22  N   UNL     1      29.291  37.708  10.674  1.00  0.00    -0.220 N 
ATOM     23  C   UNL     1      27.167  38.008   7.683  1.00  0.00     0.070 C 
ATOM     24  C   UNL     1      27.781  37.831   9.031  1.00  0.00     0.080 A 
ATOM     25  C   UNL     1      29.122  37.936   9.339  1.00  0.00     0.140 A 
ATOM     26  N   UNL     1      27.175  37.538  10.196  1.00  0.00    -0.135 NA
ATOM     27  N   UNL     1      28.101  37.473  11.151  1.00  0.00    -0.062 NA
ENDBRANCH  17  22
BRANCH  20  28
ATOM     28  C   UNL     1      32.031  37.248  14.694  1.00  0.00     0.072 C 
ATOM     29  O   UNL     1      31.932  38.156  15.551  1.00  0.00    -0.545 OA
ATOM     30  O   UNL     1      32.248  35.959  15.158  1.00  0.00    -0.545 OA
ENDBRANCH  20  28
ENDBRANCH   1  16
BRANCH   5  31
ATOM     31  O   UNL     1      36.096  42.691  15.277  1.00  0.00    -0.508 OA
ATOM     32  H   UNL     1      36.470  42.741  16.214  1.00  0.00     0.293 HD
ENDBRANCH   5  31
TORSDOF 4
BEGIN_RES LYS A 135
REMARK  4 active torsions:
REMARK  status: ('A' for Active; 'I' for Inactive)
REMARK    1  A    between atoms: CA   and  CB  
REMARK    2  A    between atoms: CB   and  CG  
REMARK    3  A    between atoms: CG   and  CD  
REMARK    4  A    between atoms: CD   and  CE  
ROOT
ATOM      1  CA  LYS A 135      33.193  34.663   9.290  1.00 25.02     0.186 C 
ENDROOT
BRANCH   1   2
ATOM      2  CB  LYS A 135      32.060  35.360  10.034  1.00 26.63     0.034 C 
BRANCH   2   3
ATOM      3  CG  LYS A 135      30.766  34.588  10.021  1.00 29.45     0.005 C 
BRANCH   3   4
ATOM      4  CD  LYS A 135      30.211  34.494   8.608  1.00 32.00     0.041 C 
BRANCH   4   5
ATOM      5  CE  LYS A 135      28.707  34.301   8.639  1.00 34.25     0.338 C 
ATOM      6  NZ  LYS A 135      28.220  34.098  10.031  1.00 35.99     0.618 N 
ENDBRANCH   4   5
ENDBRANCH   3   4
ENDBRANCH   2   3
ENDBRANCH   1   2
END_RES LYS A 135
BEGIN_RES TYR A 136
REMARK  2 active torsions:
REMARK  status: ('A' for Active; 'I' for Inactive)
REMARK    5  A    between atoms: CA   and  CB  
REMARK    6  A    between atoms: CB   and  CG  
ROOT
ATOM      7  CA  TYR A 136      36.583  36.399   8.994  1.00 26.14     0.191 C 
ENDROOT
BRANCH   7   8
ATOM      8  CB  TYR A 136      37.367  36.835  10.240  1.00 28.16     0.060 C 
BRANCH   8   9
ATOM      9  CG  TYR A 136      37.179  38.297  10.562  1.00 31.88    -0.020 A 
ATOM     10  CD2 TYR A 136      38.109  38.992  11.337  1.00 32.67    -0.002 A 
ATOM     11  CE2 TYR A 136      37.925  40.350  11.632  1.00 33.89     0.027 A 
ATOM     12  CZ  TYR A 136      36.798  41.018  11.146  1.00 34.34     0.131 A 
ATOM     13  OH  TYR A 136      36.598  42.365  11.419  1.00 35.14    -0.190 OA
ATOM     14  CE1 TYR A 136      35.863  40.343  10.374  1.00 35.01     0.027 A 
ATOM     15  CD1 TYR A 136      36.055  38.989  10.093  1.00 33.57    -0.002 A 
ENDBRANCH   8   9
ENDBRANCH   7   8
END_RES TYR A 136
BEGIN_RES ASN A 133
REMARK  2 active torsions:
REMARK  status: ('A' for Active; 'I' for Inactive)
REMARK    7  A    between atoms: CA   and  CB  
REMARK    8  A    between atoms: CB   and  CG  
ROOT
ATOM     16  CA  ASN A 133      31.225  30.257  11.749  1.00 18.15     0.196 C 
ENDROOT
BRANCH  16  17
ATOM     17  CB  ASN A 133      30.092  31.240  11.460  1.00 18.27     0.126 C 
BRANCH  17  18
ATOM     18  CG  ASN A 133      28.756  30.579  11.321  1.00 18.94     0.276 C 
ATOM     19  OD1 ASN A 133      28.595  29.616  10.568  1.00 18.09    -0.269 OA
ATOM     20  ND2 ASN A 133      27.771  31.096  12.054  1.00 18.93    -0.107 N 
ENDBRANCH  17  18
ENDBRANCH  16  17
END_RES ASN A 133
