REMARK VINA RESULT:    -5.715      4.007      8.731
REMARK INTER + INTRA:          -8.420
REMARK INTER:                  -6.647
REMARK INTRA:                  -1.772
REMARK UNBOUND:                -1.368
REMARK SMILES Cc1cn(COCc2ccccc2)nn1
REMARK SMILES IDX 6 1 5 2 4 3 1 4 2 5 3 6 15 7 14 8 7 9 8 10 9 11 13 12 10 13
REMARK SMILES IDX 12 14 11 15
REMARK H PARENT
REMARK Flexibility Score: inf
ROOT
ATOM      1  O   UNL     1      26.890  36.909   6.608  1.00  0.00    -0.355 OA
ENDROOT
BRANCH   1   2
ATOM      2  C   UNL     1      27.540  38.135   6.736  1.00  0.00     0.307 C 
BRANCH   2   3
ATOM      3  N   UNL     1      27.198  39.066   5.709  1.00  0.00    -0.226 N 
ATOM      4  C   UNL     1      25.481  41.925   4.282  1.00  0.00     0.070 C 
ATOM      5  C   UNL     1      26.289  40.742   4.617  1.00  0.00     0.080 A 
ATOM      6  C   UNL     1      26.340  40.090   5.822  1.00  0.00     0.137 A 
ATOM      7  N   UNL     1      27.127  40.089   3.796  1.00  0.00    -0.136 NA
ATOM      8  N   UNL     1      27.655  39.094   4.472  1.00  0.00    -0.065 NA
ENDBRANCH   2   3
ENDBRANCH   1   2
BRANCH   1   9
ATOM      9  C   UNL     1      27.847  35.964   6.268  1.00  0.00     0.198 C 
BRANCH   9  10
ATOM     10  C   UNL     1      28.291  35.188   7.466  1.00  0.00    -0.022 A 
ATOM     11  C   UNL     1      27.421  34.649   8.372  1.00  0.00     0.006 A 
ATOM     12  C   UNL     1      29.644  35.027   7.639  1.00  0.00     0.006 A 
ATOM     13  C   UNL     1      27.925  33.950   9.449  1.00  0.00     0.000 A 
ATOM     14  C   UNL     1      30.153  34.322   8.724  1.00  0.00     0.000 A 
ATOM     15  C   UNL     1      29.284  33.772   9.646  1.00  0.00     0.000 A 
ENDBRANCH   9  10
ENDBRANCH   1   9
TORSDOF 4
BEGIN_RES LYS A 135
REMARK  4 active torsions:
REMARK  status: ('A' for Active; 'I' for Inactive)
REMARK    1  A    between atoms: CA   and  CB  
REMARK    2  A    between atoms: CB   and  CG  
REMARK    3  A    between atoms: CG   and  CD  
REMARK    4  A    between atoms: CD   and  CE  
ROOT
ATOM      1  CA  LYS A 135      33.193  34.663   9.290  1.00 25.02     0.186 C 
ENDROOT
BRANCH   1   2
ATOM      2  CB  LYS A 135      32.060  35.360  10.034  1.00 26.63     0.034 C 
BRANCH   2   3
ATOM      3  CG  LYS A 135      32.505  36.057  11.294  1.00 29.45     0.005 C 
BRANCH   3   4
ATOM      4  CD  LYS A 135      31.854  35.426  12.515  1.00 32.00     0.041 C 
BRANCH   4   5
ATOM      5  CE  LYS A 135      32.801  35.456  13.699  1.00 34.25     0.338 C 
ATOM      6  NZ  LYS A 135      34.152  34.960  13.318  1.00 35.99     0.618 N 
ENDBRANCH   4   5
ENDBRANCH   3   4
ENDBRANCH   2   3
ENDBRANCH   1   2
END_RES LYS A 135
BEGIN_RES TYR A 136
REMARK  2 active torsions:
REMARK  status: ('A' for Active; 'I' for Inactive)
REMARK    5  A    between atoms: CA   and  CB  
REMARK    6  A    between atoms: CB   and  CG  
ROOT
ATOM      7  CA  TYR A 136      36.583  36.399   8.994  1.00 26.14     0.191 C 
ENDROOT
BRANCH   7   8
ATOM      8  CB  TYR A 136      37.367  36.835  10.240  1.00 28.16     0.060 C 
BRANCH   8   9
ATOM      9  CG  TYR A 136      36.768  38.049  10.907  1.00 31.88    -0.020 A 
ATOM     10  CD2 TYR A 136      37.038  39.337  10.439  1.00 32.67    -0.002 A 
ATOM     11  CE2 TYR A 136      36.478  40.459  11.067  1.00 33.89     0.027 A 
ATOM     12  CZ  TYR A 136      35.641  40.289  12.173  1.00 34.34     0.131 A 
ATOM     13  OH  TYR A 136      35.070  41.385  12.806  1.00 35.14    -0.190 OA
ATOM     14  CE1 TYR A 136      35.364  39.017  12.651  1.00 35.01     0.027 A 
ATOM     15  CD1 TYR A 136      35.933  37.908  12.022  1.00 33.57    -0.002 A 
ENDBRANCH   8   9
ENDBRANCH   7   8
END_RES TYR A 136
BEGIN_RES ASN A 133
REMARK  2 active torsions:
REMARK  status: ('A' for Active; 'I' for Inactive)
REMARK    7  A    between atoms: CA   and  CB  
REMARK    8  A    between atoms: CB   and  CG  
ROOT
ATOM     16  CA  ASN A 133      31.225  30.257  11.749  1.00 18.15     0.196 C 
ENDROOT
BRANCH  16  17
ATOM     17  CB  ASN A 133      30.092  31.240  11.460  1.00 18.27     0.126 C 
BRANCH  17  18
ATOM     18  CG  ASN A 133      28.757  30.578  11.317  1.00 18.94     0.276 C 
ATOM     19  OD1 ASN A 133      28.602  29.608  10.572  1.00 18.09    -0.269 OA
ATOM     20  ND2 ASN A 133      27.766  31.103  12.036  1.00 18.93    -0.107 N 
ENDBRANCH  17  18
ENDBRANCH  16  17
END_RES ASN A 133
