REMARK VINA RESULT:    -3.276      6.876      9.843
REMARK INTER + INTRA:          -6.842
REMARK INTER:                  -3.708
REMARK INTRA:                  -3.135
REMARK UNBOUND:                -3.088
REMARK SMILES Cc1cn(CCO)nn1
REMARK SMILES IDX 5 1 4 2 1 3 2 4 3 5 9 6 8 7 6 8 7 9
REMARK H PARENT 7 10
REMARK Flexibility Score: inf
ROOT
ATOM      1  C   UNL     1      36.080  38.558   1.625  1.00  0.00     0.174 C 
ENDROOT
BRANCH   1   2
ATOM      2  N   UNL     1      35.917  38.427   3.058  1.00  0.00    -0.250 N 
ATOM      3  C   UNL     1      34.272  39.420   6.174  1.00  0.00     0.070 C 
ATOM      4  C   UNL     1      35.086  38.838   5.074  1.00  0.00     0.080 A 
ATOM      5  C   UNL     1      35.026  39.172   3.737  1.00  0.00     0.134 A 
ATOM      6  N   UNL     1      36.035  37.883   5.130  1.00  0.00    -0.136 NA
ATOM      7  N   UNL     1      36.514  37.658   3.919  1.00  0.00    -0.067 NA
ENDBRANCH   1   2
BRANCH   1   8
ATOM      8  C   UNL     1      37.330  37.869   1.133  1.00  0.00     0.179 C 
BRANCH   8   9
ATOM      9  O   UNL     1      37.024  36.571   0.685  1.00  0.00    -0.394 OA
ATOM     10  H   UNL     1      37.841  36.204   0.262  1.00  0.00     0.210 HD
ENDBRANCH   8   9
ENDBRANCH   1   8
TORSDOF 3
BEGIN_RES LYS A 135
REMARK  4 active torsions:
REMARK  status: ('A' for Active; 'I' for Inactive)
REMARK    1  A    between atoms: CA   and  CB  
REMARK    2  A    between atoms: CB   and  CG  
REMARK    3  A    between atoms: CG   and  CD  
REMARK    4  A    between atoms: CD   and  CE  
ROOT
ATOM      1  CA  LYS A 135      33.193  34.663   9.290  1.00 25.02     0.186 C 
ENDROOT
BRANCH   1   2
ATOM      2  CB  LYS A 135      32.060  35.360  10.034  1.00 26.63     0.034 C 
BRANCH   2   3
ATOM      3  CG  LYS A 135      30.700  34.784   9.736  1.00 29.45     0.005 C 
BRANCH   3   4
ATOM      4  CD  LYS A 135      30.486  34.660   8.235  1.00 32.00     0.041 C 
BRANCH   4   5
ATOM      5  CE  LYS A 135      29.020  34.834   7.890  1.00 34.25     0.338 C 
ATOM      6  NZ  LYS A 135      28.147  34.225   8.932  1.00 35.99     0.618 N 
ENDBRANCH   4   5
ENDBRANCH   3   4
ENDBRANCH   2   3
ENDBRANCH   1   2
END_RES LYS A 135
BEGIN_RES TYR A 136
REMARK  2 active torsions:
REMARK  status: ('A' for Active; 'I' for Inactive)
REMARK    5  A    between atoms: CA   and  CB  
REMARK    6  A    between atoms: CB   and  CG  
ROOT
ATOM      7  CA  TYR A 136      36.583  36.399   8.994  1.00 26.14     0.191 C 
ENDROOT
BRANCH   7   8
ATOM      8  CB  TYR A 136      37.367  36.835  10.240  1.00 28.16     0.060 C 
BRANCH   8   9
ATOM      9  CG  TYR A 136      37.248  38.314  10.512  1.00 31.88    -0.020 A 
ATOM     10  CD2 TYR A 136      37.889  38.903  11.605  1.00 32.67    -0.002 A 
ATOM     11  CE2 TYR A 136      37.771  40.277  11.850  1.00 33.89     0.027 A 
ATOM     12  CZ  TYR A 136      37.002  41.071  10.994  1.00 34.34     0.131 A 
ATOM     13  OH  TYR A 136      36.876  42.436  11.214  1.00 35.14    -0.190 OA
ATOM     14  CE1 TYR A 136      36.357  40.503   9.905  1.00 35.01     0.027 A 
ATOM     15  CD1 TYR A 136      36.477  39.131   9.675  1.00 33.57    -0.002 A 
ENDBRANCH   8   9
ENDBRANCH   7   8
END_RES TYR A 136
BEGIN_RES ASN A 133
REMARK  2 active torsions:
REMARK  status: ('A' for Active; 'I' for Inactive)
REMARK    7  A    between atoms: CA   and  CB  
REMARK    8  A    between atoms: CB   and  CG  
ROOT
ATOM     16  CA  ASN A 133      31.225  30.257  11.749  1.00 18.15     0.196 C 
ENDROOT
BRANCH  16  17
ATOM     17  CB  ASN A 133      30.092  31.240  11.460  1.00 18.27     0.126 C 
BRANCH  17  18
ATOM     18  CG  ASN A 133      28.752  30.581  11.345  1.00 18.94     0.276 C 
ATOM     19  OD1 ASN A 133      28.584  29.601  10.617  1.00 18.09    -0.269 OA
ATOM     20  ND2 ASN A 133      27.773  31.122  12.069  1.00 18.93    -0.107 N 
ENDBRANCH  17  18
ENDBRANCH  16  17
END_RES ASN A 133
