REMARK VINA RESULT:    -4.392      0.000      0.000
REMARK INTER + INTRA:          -9.417
REMARK INTER:                  -5.612
REMARK INTRA:                  -3.805
REMARK UNBOUND:                -3.485
REMARK SMILES Cc1cn([C@@H](CCC(=O)O)C(=O)O)nn1
REMARK SMILES IDX 6 1 5 2 4 3 1 4 2 5 3 6 15 7 14 8 11 9 12 10 13 11 7 13 8 14
REMARK SMILES IDX 9 15 10 16
REMARK H PARENT 13 12 10 17
REMARK Flexibility Score: inf
ROOT
ATOM      1  C   UNL     1      37.184  35.431  12.765  1.00  0.00     0.051 C 
ENDROOT
BRANCH   1   2
ATOM      2  C   UNL     1      38.360  35.075  13.637  1.00  0.00     0.219 C 
BRANCH   2   3
ATOM      3  N   UNL     1      39.583  34.945  12.881  1.00  0.00    -0.238 N 
ATOM      4  C   UNL     1      42.196  36.054  10.582  1.00  0.00     0.070 C 
ATOM      5  C   UNL     1      41.287  35.360  11.534  1.00  0.00     0.080 A 
ATOM      6  C   UNL     1      40.136  35.874  12.050  1.00  0.00     0.135 A 
ATOM      7  N   UNL     1      41.427  34.127  12.053  1.00  0.00    -0.136 NA
ATOM      8  N   UNL     1      40.411  33.892  12.849  1.00  0.00    -0.066 NA
ENDBRANCH   2   3
BRANCH   2   9
ATOM      9  C   UNL     1      38.132  33.905  14.478  1.00  0.00     0.328 C 
ATOM     10  O   UNL     1      38.311  33.988  15.713  1.00  0.00    -0.250 OA
BRANCH   9  11
ATOM     11  O   UNL     1      37.723  32.689  13.969  1.00  0.00    -0.480 OA
ATOM     12  H   UNL     1      37.403  31.921  14.576  1.00  0.00     0.296 HD
ENDBRANCH   9  11
ENDBRANCH   2   9
ENDBRANCH   1   2
BRANCH   1  13
ATOM     13  C   UNL     1      35.967  35.818  13.576  1.00  0.00     0.125 C 
BRANCH  13  14
ATOM     14  C   UNL     1      34.826  34.930  13.234  1.00  0.00     0.303 C 
ATOM     15  O   UNL     1      33.639  35.341  13.219  1.00  0.00    -0.252 OA
BRANCH  14  16
ATOM     16  O   UNL     1      35.030  33.595  12.916  1.00  0.00    -0.481 OA
ATOM     17  H   UNL     1      35.769  33.045  13.369  1.00  0.00     0.296 HD
ENDBRANCH  14  16
ENDBRANCH  13  14
ENDBRANCH   1  13
TORSDOF 7
BEGIN_RES LYS A 135
REMARK  4 active torsions:
REMARK  status: ('A' for Active; 'I' for Inactive)
REMARK    1  A    between atoms: CA   and  CB  
REMARK    2  A    between atoms: CB   and  CG  
REMARK    3  A    between atoms: CG   and  CD  
REMARK    4  A    between atoms: CD   and  CE  
ROOT
ATOM      1  CA  LYS A 135      33.193  34.663   9.290  1.00 25.02     0.186 C 
ENDROOT
BRANCH   1   2
ATOM      2  CB  LYS A 135      32.060  35.360  10.034  1.00 26.63     0.034 C 
BRANCH   2   3
ATOM      3  CG  LYS A 135      30.881  35.697   9.158  1.00 29.45     0.005 C 
BRANCH   3   4
ATOM      4  CD  LYS A 135      30.335  34.445   8.489  1.00 32.00     0.041 C 
BRANCH   4   5
ATOM      5  CE  LYS A 135      28.828  34.536   8.339  1.00 34.25     0.338 C 
ATOM      6  NZ  LYS A 135      28.456  35.281   7.104  1.00 35.99     0.618 N 
ENDBRANCH   4   5
ENDBRANCH   3   4
ENDBRANCH   2   3
ENDBRANCH   1   2
END_RES LYS A 135
BEGIN_RES TYR A 136
REMARK  2 active torsions:
REMARK  status: ('A' for Active; 'I' for Inactive)
REMARK    5  A    between atoms: CA   and  CB  
REMARK    6  A    between atoms: CB   and  CG  
ROOT
ATOM      7  CA  TYR A 136      36.583  36.399   8.994  1.00 26.14     0.191 C 
ENDROOT
BRANCH   7   8
ATOM      8  CB  TYR A 136      37.367  36.835  10.240  1.00 28.16     0.060 C 
BRANCH   8   9
ATOM      9  CG  TYR A 136      37.268  38.318  10.498  1.00 31.88    -0.020 A 
ATOM     10  CD2 TYR A 136      37.981  38.921  11.537  1.00 32.67    -0.002 A 
ATOM     11  CE2 TYR A 136      37.881  40.299  11.770  1.00 33.89     0.027 A 
ATOM     12  CZ  TYR A 136      37.059  41.082  10.955  1.00 34.34     0.131 A 
ATOM     13  OH  TYR A 136      36.950  42.450  11.163  1.00 35.14    -0.190 OA
ATOM     14  CE1 TYR A 136      36.342  40.500   9.919  1.00 35.01     0.027 A 
ATOM     15  CD1 TYR A 136      36.445  39.125   9.702  1.00 33.57    -0.002 A 
ENDBRANCH   8   9
ENDBRANCH   7   8
END_RES TYR A 136
BEGIN_RES ASN A 133
REMARK  2 active torsions:
REMARK  status: ('A' for Active; 'I' for Inactive)
REMARK    7  A    between atoms: CA   and  CB  
REMARK    8  A    between atoms: CB   and  CG  
ROOT
ATOM     16  CA  ASN A 133      31.225  30.257  11.749  1.00 18.15     0.196 C 
ENDROOT
BRANCH  16  17
ATOM     17  CB  ASN A 133      30.092  31.240  11.460  1.00 18.27     0.126 C 
BRANCH  17  18
ATOM     18  CG  ASN A 133      28.751  30.582  11.353  1.00 18.94     0.276 C 
ATOM     19  OD1 ASN A 133      28.576  29.604  10.624  1.00 18.09    -0.269 OA
ATOM     20  ND2 ASN A 133      27.778  31.121  12.086  1.00 18.93    -0.107 N 
ENDBRANCH  17  18
ENDBRANCH  16  17
END_RES ASN A 133
