REMARK VINA RESULT:    -8.954      6.011      9.895
REMARK INTER + INTRA:          -6.228
REMARK INTER:                  -3.726
REMARK INTRA:                  -2.502
REMARK UNBOUND:                 6.391
REMARK SMILES Cc1cn(C2CC(O)C=C[C@@H](O)C2)nn1
REMARK SMILES IDX 7 1 6 2 5 3 4 5 1 6 2 7 3 8 15 9 14 10 8 11 9 13 10 14 11 15
REMARK SMILES IDX 12 16 13 18
REMARK H PARENT 8 12 12 17
REMARK Flexibility Score: 80.00
ROOT
ATOM      1  C   UNL     1      28.881  30.422  18.856  1.00  0.00     0.139 C 
ENDROOT
BRANCH   1   2
ATOM      2  C   UNL     1      28.011  30.035  17.792  1.00  0.00     0.063 C 
BRANCH   2   3
ATOM      3  C   UNL     1      27.441  29.681  16.548  1.00  0.00     0.115 CG0
ATOM      4  G   UNL     1      28.394  30.189  15.418  1.00  0.00     0.000 G0
BRANCH   3   5
ATOM      5  N   UNL     1      26.121  30.290  16.304  1.00  0.00    -0.249 N 
ATOM      6  C   UNL     1      23.294  32.490  17.165  1.00  0.00     0.070 C 
ATOM      7  C   UNL     1      24.293  31.531  16.579  1.00  0.00     0.080 A 
ATOM      8  C   UNL     1      25.519  31.171  17.125  1.00  0.00     0.134 A 
ATOM      9  N   UNL     1      24.206  30.838  15.431  1.00  0.00    -0.136 NA
ATOM     10  N   UNL     1      25.312  30.111  15.299  1.00  0.00    -0.067 NA
ENDBRANCH   3   5
ENDBRANCH   2   3
ENDBRANCH   1   2
BRANCH   1  11
ATOM     11  O   UNL     1      29.390  29.409  19.696  1.00  0.00    -0.389 OA
ATOM     12  H   UNL     1      28.907  29.466  20.553  1.00  0.00     0.211 HD
ENDBRANCH   1  11
BRANCH   1  13
ATOM     13  C   UNL     1      30.140  31.052  18.226  1.00  0.00     0.002 C 
ATOM     14  C   UNL     1      30.143  31.408  16.927  1.00  0.00     0.002 C 
BRANCH  14  15
ATOM     15  C   UNL     1      29.225  31.383  15.801  1.00  0.00     0.139 C 
BRANCH  15  16
ATOM     16  O   UNL     1      29.767  32.026  14.653  1.00  0.00    -0.389 OA
ATOM     17  H   UNL     1      29.267  31.653  13.886  1.00  0.00     0.211 HD
ENDBRANCH  15  16
BRANCH  15  18
ATOM     18  C   UNL     1      28.429  30.174  15.418  1.00  0.00     0.063 CG0
ATOM     19  G   UNL     1      27.450  29.684  16.535  1.00  0.00     0.000 G0
ENDBRANCH  15  18
ENDBRANCH  14  15
ENDBRANCH   1  13
TORSDOF 3
BEGIN_RES LYS A 135
REMARK  4 active torsions:
REMARK  status: ('A' for Active; 'I' for Inactive)
REMARK    1  A    between atoms: CA   and  CB  
REMARK    2  A    between atoms: CB   and  CG  
REMARK    3  A    between atoms: CG   and  CD  
REMARK    4  A    between atoms: CD   and  CE  
ROOT
ATOM      1  CA  LYS A 135      33.193  34.663   9.290  1.00 25.02     0.186 C 
ENDROOT
BRANCH   1   2
ATOM      2  CB  LYS A 135      32.060  35.360  10.034  1.00 26.63     0.034 C 
BRANCH   2   3
ATOM      3  CG  LYS A 135      30.859  35.647   9.170  1.00 29.45     0.005 C 
BRANCH   3   4
ATOM      4  CD  LYS A 135      30.159  34.355   8.779  1.00 32.00     0.041 C 
BRANCH   4   5
ATOM      5  CE  LYS A 135      28.776  34.645   8.226  1.00 34.25     0.338 C 
ATOM      6  NZ  LYS A 135      28.102  35.721   9.004  1.00 35.99     0.618 N 
ENDBRANCH   4   5
ENDBRANCH   3   4
ENDBRANCH   2   3
ENDBRANCH   1   2
END_RES LYS A 135
BEGIN_RES TYR A 136
REMARK  2 active torsions:
REMARK  status: ('A' for Active; 'I' for Inactive)
REMARK    5  A    between atoms: CA   and  CB  
REMARK    6  A    between atoms: CB   and  CG  
ROOT
ATOM      7  CA  TYR A 136      36.583  36.399   8.994  1.00 26.14     0.191 C 
ENDROOT
BRANCH   7   8
ATOM      8  CB  TYR A 136      37.367  36.835  10.240  1.00 28.16     0.060 C 
BRANCH   8   9
ATOM      9  CG  TYR A 136      37.252  38.315  10.509  1.00 31.88    -0.020 A 
ATOM     10  CD2 TYR A 136      37.945  38.914  11.563  1.00 32.67    -0.002 A 
ATOM     11  CE2 TYR A 136      37.831  40.290  11.806  1.00 33.89     0.027 A 
ATOM     12  CZ  TYR A 136      37.014  41.073  10.986  1.00 34.34     0.131 A 
ATOM     13  OH  TYR A 136      36.891  42.439  11.204  1.00 35.14    -0.190 OA
ATOM     14  CE1 TYR A 136      36.317  40.494   9.935  1.00 35.01     0.027 A 
ATOM     15  CD1 TYR A 136      36.435  39.122   9.708  1.00 33.57    -0.002 A 
ENDBRANCH   8   9
ENDBRANCH   7   8
END_RES TYR A 136
BEGIN_RES ASN A 133
REMARK  2 active torsions:
REMARK  status: ('A' for Active; 'I' for Inactive)
REMARK    7  A    between atoms: CA   and  CB  
REMARK    8  A    between atoms: CB   and  CG  
ROOT
ATOM     16  CA  ASN A 133      31.225  30.257  11.749  1.00 18.15     0.196 C 
ENDROOT
BRANCH  16  17
ATOM     17  CB  ASN A 133      30.092  31.240  11.460  1.00 18.27     0.126 C 
BRANCH  17  18
ATOM     18  CG  ASN A 133      28.747  30.586  11.383  1.00 18.94     0.276 C 
ATOM     19  OD1 ASN A 133      28.572  29.562  10.721  1.00 18.09    -0.269 OA
ATOM     20  ND2 ASN A 133      27.770  31.182  12.066  1.00 18.93    -0.107 N 
ENDBRANCH  17  18
ENDBRANCH  16  17
END_RES ASN A 133
