REMARK VINA RESULT:    -5.700      5.749     10.255
REMARK INTER + INTRA:         -10.703
REMARK INTER:                  -6.866
REMARK INTRA:                  -3.836
REMARK UNBOUND:                -3.836
REMARK SMILES Cc1cn(-c2ccc(-c3c4ccc(=O)cc-4oc4cc(O)ccc34)c(C(=O)[O-])c2)nn1
REMARK SMILES IDX 9 1 24 2 23 3 22 4 20 5 19 6 18 7 17 8 16 9 15 10 13 11
REMARK SMILES IDX 14 12 12 13 11 14 10 15 8 16 5 17 29 18 6 19 25 20 7 21 4 22
REMARK SMILES IDX 1 23 2 24 3 25 31 26 30 27 26 28 27 29 28 30 21 31
REMARK H PARENT 21 32
REMARK Flexibility Score: inf
ROOT
ATOM      1  C   UNL     1      37.052  39.467   5.184  1.00  0.00     0.004 A 
ATOM      2  C   UNL     1      37.084  38.754   4.005  1.00  0.00     0.026 A 
ATOM      3  C   UNL     1      35.928  38.582   3.276  1.00  0.00     0.016 A 
ATOM      4  C   UNL     1      35.914  37.871   2.086  1.00  0.00     0.047 A 
ATOM      5  C   UNL     1      37.102  37.333   1.640  1.00  0.00     0.119 A 
ATOM      6  C   UNL     1      38.261  37.505   2.369  1.00  0.00     0.093 A 
ATOM      7  C   UNL     1      38.288  38.219   3.568  1.00  0.00     0.139 A 
ATOM      8  O   UNL     1      39.409  38.363   4.237  1.00  0.00    -0.456 OA
ATOM      9  C   UNL     1      39.480  39.016   5.353  1.00  0.00     0.139 A 
ATOM     10  C   UNL     1      40.634  39.188   6.078  1.00  0.00     0.099 A 
ATOM     11  C   UNL     1      40.580  39.903   7.252  1.00  0.00     0.182 A 
ATOM     12  O   UNL     1      41.640  40.054   7.908  1.00  0.00    -0.290 OA
ATOM     13  C   UNL     1      39.407  40.458   7.732  1.00  0.00     0.053 A 
ATOM     14  C   UNL     1      38.214  40.325   7.057  1.00  0.00     0.016 A 
ATOM     15  C   UNL     1      38.239  39.609   5.870  1.00  0.00     0.026 A 
ENDROOT
BRANCH   1  16
ATOM     16  C   UNL     1      35.793  40.023   5.632  1.00  0.00    -0.008 A 
ATOM     17  C   UNL     1      33.377  41.158   6.459  1.00  0.00     0.067 A 
ATOM     18  C   UNL     1      34.234  41.877   5.653  1.00  0.00     0.039 A 
ATOM     19  C   UNL     1      33.714  39.874   6.857  1.00  0.00     0.029 A 
ATOM     20  C   UNL     1      35.426  41.298   5.254  1.00  0.00     0.007 A 
ATOM     21  C   UNL     1      34.915  39.324   6.440  1.00  0.00     0.012 A 
BRANCH  17  22
ATOM     22  N   UNL     1      32.140  41.702   6.900  1.00  0.00    -0.220 N 
ATOM     23  C   UNL     1      29.038  41.559   8.879  1.00  0.00     0.070 C 
ATOM     24  C   UNL     1      30.196  41.872   7.990  1.00  0.00     0.080 A 
ATOM     25  C   UNL     1      31.302  41.075   7.777  1.00  0.00     0.140 A 
ATOM     26  N   UNL     1      30.398  42.964   7.232  1.00  0.00    -0.135 NA
ATOM     27  N   UNL     1      31.562  42.831   6.598  1.00  0.00    -0.062 NA
ENDBRANCH  17  22
BRANCH  20  28
ATOM     28  C   UNL     1      36.323  42.070   4.402  1.00  0.00     0.072 C 
ATOM     29  O   UNL     1      37.208  42.816   4.879  1.00  0.00    -0.545 OA
ATOM     30  O   UNL     1      36.228  42.002   3.019  1.00  0.00    -0.545 OA
ENDBRANCH  20  28
ENDBRANCH   1  16
BRANCH   5  31
ATOM     31  O   UNL     1      37.100  36.613   0.435  1.00  0.00    -0.508 OA
ATOM     32  H   UNL     1      36.286  36.634  -0.164  1.00  0.00     0.293 HD
ENDBRANCH   5  31
TORSDOF 4
BEGIN_RES LYS A 135
REMARK  4 active torsions:
REMARK  status: ('A' for Active; 'I' for Inactive)
REMARK    1  A    between atoms: CA   and  CB  
REMARK    2  A    between atoms: CB   and  CG  
REMARK    3  A    between atoms: CG   and  CD  
REMARK    4  A    between atoms: CD   and  CE  
ROOT
ATOM      1  CA  LYS A 135      33.193  34.663   9.290  1.00 25.02     0.186 C 
ENDROOT
BRANCH   1   2
ATOM      2  CB  LYS A 135      32.060  35.360  10.034  1.00 26.63     0.034 C 
BRANCH   2   3
ATOM      3  CG  LYS A 135      30.707  34.744   9.785  1.00 29.45     0.005 C 
BRANCH   3   4
ATOM      4  CD  LYS A 135      30.492  34.505   8.299  1.00 32.00     0.041 C 
BRANCH   4   5
ATOM      5  CE  LYS A 135      29.049  34.780   7.919  1.00 34.25     0.338 C 
ATOM      6  NZ  LYS A 135      28.968  35.610   6.686  1.00 35.99     0.618 N 
ENDBRANCH   4   5
ENDBRANCH   3   4
ENDBRANCH   2   3
ENDBRANCH   1   2
END_RES LYS A 135
BEGIN_RES TYR A 136
REMARK  2 active torsions:
REMARK  status: ('A' for Active; 'I' for Inactive)
REMARK    5  A    between atoms: CA   and  CB  
REMARK    6  A    between atoms: CB   and  CG  
ROOT
ATOM      7  CA  TYR A 136      36.583  36.399   8.994  1.00 26.14     0.191 C 
ENDROOT
BRANCH   7   8
ATOM      8  CB  TYR A 136      37.367  36.835  10.240  1.00 28.16     0.060 C 
BRANCH   8   9
ATOM      9  CG  TYR A 136      37.346  38.330  10.445  1.00 31.88    -0.020 A 
ATOM     10  CD2 TYR A 136      38.370  38.979  11.138  1.00 32.67    -0.002 A 
ATOM     11  CE2 TYR A 136      38.341  40.368  11.324  1.00 33.89     0.027 A 
ATOM     12  CZ  TYR A 136      37.276  41.114  10.813  1.00 34.34     0.131 A 
ATOM     13  OH  TYR A 136      37.229  42.491  10.980  1.00 35.14    -0.190 OA
ATOM     14  CE1 TYR A 136      36.249  40.485  10.123  1.00 35.01     0.027 A 
ATOM     15  CD1 TYR A 136      36.287  39.101   9.949  1.00 33.57    -0.002 A 
ENDBRANCH   8   9
ENDBRANCH   7   8
END_RES TYR A 136
BEGIN_RES ASN A 133
REMARK  2 active torsions:
REMARK  status: ('A' for Active; 'I' for Inactive)
REMARK    7  A    between atoms: CA   and  CB  
REMARK    8  A    between atoms: CB   and  CG  
ROOT
ATOM     16  CA  ASN A 133      31.225  30.257  11.749  1.00 18.15     0.196 C 
ENDROOT
BRANCH  16  17
ATOM     17  CB  ASN A 133      30.092  31.240  11.460  1.00 18.27     0.126 C 
BRANCH  17  18
ATOM     18  CG  ASN A 133      28.756  30.579  11.322  1.00 18.94     0.276 C 
ATOM     19  OD1 ASN A 133      28.594  29.617  10.569  1.00 18.09    -0.269 OA
ATOM     20  ND2 ASN A 133      27.771  31.095  12.057  1.00 18.93    -0.107 N 
ENDBRANCH  17  18
ENDBRANCH  16  17
END_RES ASN A 133
