REMARK VINA RESULT:    -4.997      2.137      4.888
REMARK INTER + INTRA:          -8.402
REMARK INTER:                  -5.136
REMARK INTRA:                  -3.266
REMARK UNBOUND:                -2.529
REMARK SMILES Cc1cn(Cc2cccc(C#N)c2)nn1
REMARK SMILES IDX 6 1 7 2 8 3 9 4 10 5 13 6 5 7 4 8 1 9 2 10 3 11 15 12 14 13
REMARK SMILES IDX 11 14 12 15
REMARK H PARENT
REMARK Flexibility Score: inf
ROOT
ATOM      1  C   UNL     1      36.657  34.545  13.926  1.00  0.00    -0.025 A 
ATOM      2  C   UNL     1      36.826  35.370  15.010  1.00  0.00     0.006 A 
ATOM      3  C   UNL     1      35.825  36.185  15.501  1.00  0.00     0.002 A 
ATOM      4  C   UNL     1      34.601  36.161  14.864  1.00  0.00     0.019 A 
ATOM      5  C   UNL     1      34.383  35.348  13.770  1.00  0.00     0.052 A 
ATOM      6  C   UNL     1      35.423  34.540  13.307  1.00  0.00     0.025 A 
ENDROOT
BRANCH   1   7
ATOM      7  C   UNL     1      37.724  33.673  13.400  1.00  0.00     0.181 C 
BRANCH   7   8
ATOM      8  N   UNL     1      38.864  34.389  12.924  1.00  0.00    -0.248 N 
ATOM      9  C   UNL     1      40.475  36.729  10.640  1.00  0.00     0.070 C 
ATOM     10  C   UNL     1      40.083  35.745  11.700  1.00  0.00     0.080 A 
ATOM     11  C   UNL     1      38.830  35.238  11.882  1.00  0.00     0.134 A 
ATOM     12  N   UNL     1      40.870  35.195  12.643  1.00  0.00    -0.136 NA
ATOM     13  N   UNL     1      40.121  34.386  13.366  1.00  0.00    -0.067 NA
ENDBRANCH   7   8
ENDBRANCH   1   7
BRANCH   5  14
ATOM     14  C   UNL     1      33.088  35.372  13.156  1.00  0.00     0.099 C 
ATOM     15  N   UNL     1      32.051  35.377  12.650  1.00  0.00    -0.192 NA
ENDBRANCH   5  14
TORSDOF 3
BEGIN_RES LYS A 135
REMARK  4 active torsions:
REMARK  status: ('A' for Active; 'I' for Inactive)
REMARK    1  A    between atoms: CA   and  CB  
REMARK    2  A    between atoms: CB   and  CG  
REMARK    3  A    between atoms: CG   and  CD  
REMARK    4  A    between atoms: CD   and  CE  
ROOT
ATOM      1  CA  LYS A 135      33.193  34.663   9.290  1.00 25.02     0.186 C 
ENDROOT
BRANCH   1   2
ATOM      2  CB  LYS A 135      32.060  35.360  10.034  1.00 26.63     0.034 C 
BRANCH   2   3
ATOM      3  CG  LYS A 135      30.802  35.504   9.217  1.00 29.45     0.005 C 
BRANCH   3   4
ATOM      4  CD  LYS A 135      30.156  34.148   8.982  1.00 32.00     0.041 C 
BRANCH   4   5
ATOM      5  CE  LYS A 135      28.691  34.310   8.625  1.00 34.25     0.338 C 
ATOM      6  NZ  LYS A 135      27.816  33.689   9.657  1.00 35.99     0.618 N 
ENDBRANCH   4   5
ENDBRANCH   3   4
ENDBRANCH   2   3
ENDBRANCH   1   2
END_RES LYS A 135
BEGIN_RES TYR A 136
REMARK  2 active torsions:
REMARK  status: ('A' for Active; 'I' for Inactive)
REMARK    5  A    between atoms: CA   and  CB  
REMARK    6  A    between atoms: CB   and  CG  
ROOT
ATOM      7  CA  TYR A 136      36.583  36.399   8.994  1.00 26.14     0.191 C 
ENDROOT
BRANCH   7   8
ATOM      8  CB  TYR A 136      37.367  36.835  10.240  1.00 28.16     0.060 C 
BRANCH   8   9
ATOM      9  CG  TYR A 136      36.755  38.035  10.920  1.00 31.88    -0.020 A 
ATOM     10  CD2 TYR A 136      36.331  39.144  10.185  1.00 32.67    -0.002 A 
ATOM     11  CE2 TYR A 136      35.765  40.255  10.826  1.00 33.89     0.027 A 
ATOM     12  CZ  TYR A 136      35.624  40.256  12.216  1.00 34.34     0.131 A 
ATOM     13  OH  TYR A 136      35.060  41.341  12.872  1.00 35.14    -0.190 OA
ATOM     14  CE1 TYR A 136      36.041  39.163  12.962  1.00 35.01     0.027 A 
ATOM     15  CD1 TYR A 136      36.608  38.065  12.313  1.00 33.57    -0.002 A 
ENDBRANCH   8   9
ENDBRANCH   7   8
END_RES TYR A 136
BEGIN_RES ASN A 133
REMARK  2 active torsions:
REMARK  status: ('A' for Active; 'I' for Inactive)
REMARK    7  A    between atoms: CA   and  CB  
REMARK    8  A    between atoms: CB   and  CG  
ROOT
ATOM     16  CA  ASN A 133      31.225  30.257  11.749  1.00 18.15     0.196 C 
ENDROOT
BRANCH  16  17
ATOM     17  CB  ASN A 133      30.092  31.240  11.460  1.00 18.27     0.126 C 
BRANCH  17  18
ATOM     18  CG  ASN A 133      28.749  30.585  11.371  1.00 18.94     0.276 C 
ATOM     19  OD1 ASN A 133      28.558  29.617  10.631  1.00 18.09    -0.269 OA
ATOM     20  ND2 ASN A 133      27.791  31.113  12.132  1.00 18.93    -0.107 N 
ENDBRANCH  17  18
ENDBRANCH  16  17
END_RES ASN A 133
