REMARK VINA RESULT:    -3.911      6.258      9.850
REMARK INTER + INTRA:          -8.096
REMARK INTER:                  -4.685
REMARK INTRA:                  -3.412
REMARK UNBOUND:                -3.500
REMARK SMILES Cc1cn(CS(=O)(=O)c2ccccc2)nn1
REMARK SMILES IDX 5 1 4 2 1 3 2 4 3 5 16 6 15 7 6 8 7 9 8 10 9 11 10 12 14 13
REMARK SMILES IDX 11 14 13 15 12 16
REMARK H PARENT
REMARK Flexibility Score: inf
ROOT
ATOM      1  C   UNL     1      26.182  31.088  16.948  1.00  0.00     0.287 C 
ENDROOT
BRANCH   1   2
ATOM      2  N   UNL     1      25.264  30.444  16.029  1.00  0.00    -0.237 N 
ATOM      3  C   UNL     1      23.620  29.790  12.814  1.00  0.00     0.070 C 
ATOM      4  C   UNL     1      24.101  29.833  14.220  1.00  0.00     0.080 A 
ATOM      5  C   UNL     1      25.085  30.682  14.716  1.00  0.00     0.135 A 
ATOM      6  N   UNL     1      23.718  29.101  15.281  1.00  0.00    -0.136 NA
ATOM      7  N   UNL     1      24.411  29.469  16.348  1.00  0.00    -0.066 NA
ENDBRANCH   1   2
BRANCH   1   8
ATOM      8  S   UNL     1      27.796  30.365  16.883  1.00  0.00     0.198 S 
ATOM      9  O   UNL     1      27.799  29.053  16.161  1.00  0.00    -0.222 OA
ATOM     10  O   UNL     1      28.295  30.101  18.276  1.00  0.00    -0.222 OA
BRANCH   8  11
ATOM     11  C   UNL     1      28.943  31.413  16.106  1.00  0.00     0.069 A 
ATOM     12  C   UNL     1      30.304  31.337  16.366  1.00  0.00     0.020 A 
ATOM     13  C   UNL     1      28.506  32.346  15.211  1.00  0.00     0.020 A 
ATOM     14  C   UNL     1      31.198  32.173  15.743  1.00  0.00     0.001 A 
ATOM     15  C   UNL     1      29.370  33.216  14.553  1.00  0.00     0.001 A 
ATOM     16  C   UNL     1      30.716  33.118  14.830  1.00  0.00     0.000 A 
ENDBRANCH   8  11
ENDBRANCH   1   8
TORSDOF 3
BEGIN_RES LYS A 135
REMARK  4 active torsions:
REMARK  status: ('A' for Active; 'I' for Inactive)
REMARK    1  A    between atoms: CA   and  CB  
REMARK    2  A    between atoms: CB   and  CG  
REMARK    3  A    between atoms: CG   and  CD  
REMARK    4  A    between atoms: CD   and  CE  
ROOT
ATOM      1  CA  LYS A 135      33.193  34.663   9.290  1.00 25.02     0.186 C 
ENDROOT
BRANCH   1   2
ATOM      2  CB  LYS A 135      32.060  35.360  10.034  1.00 26.63     0.034 C 
BRANCH   2   3
ATOM      3  CG  LYS A 135      30.732  34.661   9.900  1.00 29.45     0.005 C 
BRANCH   3   4
ATOM      4  CD  LYS A 135      30.329  34.549   8.438  1.00 32.00     0.041 C 
BRANCH   4   5
ATOM      5  CE  LYS A 135      28.818  34.527   8.302  1.00 34.25     0.338 C 
ATOM      6  NZ  LYS A 135      28.186  33.831   9.457  1.00 35.99     0.618 N 
ENDBRANCH   4   5
ENDBRANCH   3   4
ENDBRANCH   2   3
ENDBRANCH   1   2
END_RES LYS A 135
BEGIN_RES TYR A 136
REMARK  2 active torsions:
REMARK  status: ('A' for Active; 'I' for Inactive)
REMARK    5  A    between atoms: CA   and  CB  
REMARK    6  A    between atoms: CB   and  CG  
ROOT
ATOM      7  CA  TYR A 136      36.583  36.399   8.994  1.00 26.14     0.191 C 
ENDROOT
BRANCH   7   8
ATOM      8  CB  TYR A 136      37.367  36.835  10.240  1.00 28.16     0.060 C 
BRANCH   8   9
ATOM      9  CG  TYR A 136      37.205  38.304  10.543  1.00 31.88    -0.020 A 
ATOM     10  CD2 TYR A 136      37.756  38.870  11.694  1.00 32.67    -0.002 A 
ATOM     11  CE2 TYR A 136      37.598  40.236  11.968  1.00 33.89     0.027 A 
ATOM     12  CZ  TYR A 136      36.881  41.042  11.080  1.00 34.34     0.131 A 
ATOM     13  OH  TYR A 136      36.718  42.399  11.327  1.00 35.14    -0.190 OA
ATOM     14  CE1 TYR A 136      36.325  40.496   9.932  1.00 35.01     0.027 A 
ATOM     15  CD1 TYR A 136      36.484  39.134   9.674  1.00 33.57    -0.002 A 
ENDBRANCH   8   9
ENDBRANCH   7   8
END_RES TYR A 136
BEGIN_RES ASN A 133
REMARK  2 active torsions:
REMARK  status: ('A' for Active; 'I' for Inactive)
REMARK    7  A    between atoms: CA   and  CB  
REMARK    8  A    between atoms: CB   and  CG  
ROOT
ATOM     16  CA  ASN A 133      31.225  30.257  11.749  1.00 18.15     0.196 C 
ENDROOT
BRANCH  16  17
ATOM     17  CB  ASN A 133      30.092  31.240  11.460  1.00 18.27     0.126 C 
BRANCH  17  18
ATOM     18  CG  ASN A 133      28.761  30.575  11.288  1.00 18.94     0.276 C 
ATOM     19  OD1 ASN A 133      28.630  29.588  10.563  1.00 18.09    -0.269 OA
ATOM     20  ND2 ASN A 133      27.748  31.118  11.961  1.00 18.93    -0.107 N 
ENDBRANCH  17  18
ENDBRANCH  16  17
END_RES ASN A 133
