REMARK VINA RESULT:    -3.072      8.063     14.473
REMARK INTER + INTRA:          -7.017
REMARK INTER:                  -3.684
REMARK INTRA:                  -3.333
REMARK UNBOUND:                -3.227
REMARK SMILES CCOC(=O)Cn1cc(C)nn1
REMARK SMILES IDX 4 1 5 2 6 3 7 4 10 5 9 6 8 7 11 8 12 9 3 10 2 11 1 12
REMARK H PARENT
REMARK Flexibility Score: inf
ROOT
ATOM      1  C   UNL     1      36.960  33.908  12.270  1.00  0.00     0.327 C 
ATOM      2  O   UNL     1      37.267  32.698  12.026  1.00  0.00    -0.250 OA
ENDROOT
BRANCH   1   3
ATOM      3  C   UNL     1      37.985  34.938  12.024  1.00  0.00     0.268 C 
BRANCH   3   4
ATOM      4  N   UNL     1      39.115  34.809  12.907  1.00  0.00    -0.241 N 
ATOM      5  C   UNL     1      42.556  34.210  13.942  1.00  0.00     0.070 C 
ATOM      6  C   UNL     1      41.108  34.485  13.752  1.00  0.00     0.080 A 
ATOM      7  C   UNL     1      40.374  34.524  12.599  1.00  0.00     0.134 A 
ATOM      8  N   UNL     1      40.253  34.758  14.775  1.00  0.00    -0.136 NA
ATOM      9  N   UNL     1      39.077  34.945  14.225  1.00  0.00    -0.067 NA
ENDBRANCH   3   4
ENDBRANCH   1   3
BRANCH   1  10
ATOM     10  O   UNL     1      35.689  34.120  12.741  1.00  0.00    -0.465 OA
BRANCH  10  11
ATOM     11  C   UNL     1      35.233  35.427  13.092  1.00  0.00     0.229 C 
ATOM     12  C   UNL     1      35.367  35.695  14.550  1.00  0.00     0.049 C 
ENDBRANCH  10  11
ENDBRANCH   1  10
TORSDOF 4
BEGIN_RES LYS A 135
REMARK  4 active torsions:
REMARK  status: ('A' for Active; 'I' for Inactive)
REMARK    1  A    between atoms: CA   and  CB  
REMARK    2  A    between atoms: CB   and  CG  
REMARK    3  A    between atoms: CG   and  CD  
REMARK    4  A    between atoms: CD   and  CE  
ROOT
ATOM      1  CA  LYS A 135      33.193  34.663   9.290  1.00 25.02     0.186 C 
ENDROOT
BRANCH   1   2
ATOM      2  CB  LYS A 135      32.060  35.360  10.034  1.00 26.63     0.034 C 
BRANCH   2   3
ATOM      3  CG  LYS A 135      30.730  34.665   9.894  1.00 29.45     0.005 C 
BRANCH   3   4
ATOM      4  CD  LYS A 135      30.330  34.561   8.430  1.00 32.00     0.041 C 
BRANCH   4   5
ATOM      5  CE  LYS A 135      28.820  34.540   8.291  1.00 34.25     0.338 C 
ATOM      6  NZ  LYS A 135      28.187  33.818   9.429  1.00 35.99     0.618 N 
ENDBRANCH   4   5
ENDBRANCH   3   4
ENDBRANCH   2   3
ENDBRANCH   1   2
END_RES LYS A 135
BEGIN_RES TYR A 136
REMARK  2 active torsions:
REMARK  status: ('A' for Active; 'I' for Inactive)
REMARK    5  A    between atoms: CA   and  CB  
REMARK    6  A    between atoms: CB   and  CG  
ROOT
ATOM      7  CA  TYR A 136      36.583  36.399   8.994  1.00 26.14     0.191 C 
ENDROOT
BRANCH   7   8
ATOM      8  CB  TYR A 136      37.367  36.835  10.240  1.00 28.16     0.060 C 
BRANCH   8   9
ATOM      9  CG  TYR A 136      37.156  38.290  10.578  1.00 31.88    -0.020 A 
ATOM     10  CD2 TYR A 136      37.999  39.281  10.069  1.00 32.67    -0.002 A 
ATOM     11  CE2 TYR A 136      37.795  40.630  10.391  1.00 33.89     0.027 A 
ATOM     12  CZ  TYR A 136      36.739  40.991  11.231  1.00 34.34     0.131 A 
ATOM     13  OH  TYR A 136      36.514  42.321  11.557  1.00 35.14    -0.190 OA
ATOM     14  CE1 TYR A 136      35.892  40.020  11.746  1.00 35.01     0.027 A 
ATOM     15  CD1 TYR A 136      36.109  38.679  11.424  1.00 33.57    -0.002 A 
ENDBRANCH   8   9
ENDBRANCH   7   8
END_RES TYR A 136
BEGIN_RES ASN A 133
REMARK  2 active torsions:
REMARK  status: ('A' for Active; 'I' for Inactive)
REMARK    7  A    between atoms: CA   and  CB  
REMARK    8  A    between atoms: CB   and  CG  
ROOT
ATOM     16  CA  ASN A 133      31.225  30.257  11.749  1.00 18.15     0.196 C 
ENDROOT
BRANCH  16  17
ATOM     17  CB  ASN A 133      30.092  31.240  11.460  1.00 18.27     0.126 C 
BRANCH  17  18
ATOM     18  CG  ASN A 133      28.752  30.582  11.347  1.00 18.94     0.276 C 
ATOM     19  OD1 ASN A 133      28.582  29.600  10.621  1.00 18.09    -0.269 OA
ATOM     20  ND2 ASN A 133      27.774  31.123  12.071  1.00 18.93    -0.107 N 
ENDBRANCH  17  18
ENDBRANCH  16  17
END_RES ASN A 133
