REMARK VINA RESULT:    -2.966      7.691     15.265
REMARK INTER + INTRA:          -6.686
REMARK INTER:                  -3.481
REMARK INTRA:                  -3.205
REMARK UNBOUND:                -3.286
REMARK SMILES Cc1cn(C(C)(C)CO)nn1
REMARK SMILES IDX 5 1 6 2 7 3 4 4 1 5 2 6 3 7 11 8 10 9 8 10 9 11
REMARK H PARENT 9 12
REMARK Flexibility Score: inf
ROOT
ATOM      1  C   UNL     1      30.976  28.569  21.244  1.00  0.00     0.082 C 
ATOM      2  C   UNL     1      32.028  29.585  20.942  1.00  0.00     0.039 C 
ATOM      3  C   UNL     1      30.693  28.583  22.740  1.00  0.00     0.039 C 
ENDROOT
BRANCH   1   4
ATOM      4  N   UNL     1      29.760  28.816  20.499  1.00  0.00    -0.244 N 
ATOM      5  C   UNL     1      26.397  27.902  19.252  1.00  0.00     0.070 C 
ATOM      6  C   UNL     1      27.723  28.494  19.625  1.00  0.00     0.080 A 
ATOM      7  C   UNL     1      28.723  27.955  20.410  1.00  0.00     0.135 A 
ATOM      8  N   UNL     1      28.200  29.695  19.256  1.00  0.00    -0.136 NA
ATOM      9  N   UNL     1      29.412  29.878  19.780  1.00  0.00    -0.067 NA
ENDBRANCH   1   4
BRANCH   1  10
ATOM     10  C   UNL     1      31.467  27.175  20.880  1.00  0.00     0.186 C 
BRANCH  10  11
ATOM     11  O   UNL     1      32.178  27.177  19.695  1.00  0.00    -0.394 OA
ATOM     12  H   UNL     1      32.007  26.309  19.252  1.00  0.00     0.210 HD
ENDBRANCH  10  11
ENDBRANCH   1  10
TORSDOF 3
BEGIN_RES LYS A 135
REMARK  4 active torsions:
REMARK  status: ('A' for Active; 'I' for Inactive)
REMARK    1  A    between atoms: CA   and  CB  
REMARK    2  A    between atoms: CB   and  CG  
REMARK    3  A    between atoms: CG   and  CD  
REMARK    4  A    between atoms: CD   and  CE  
ROOT
ATOM      1  CA  LYS A 135      33.193  34.663   9.290  1.00 25.02     0.186 C 
ENDROOT
BRANCH   1   2
ATOM      2  CB  LYS A 135      32.060  35.360  10.034  1.00 26.63     0.034 C 
BRANCH   2   3
ATOM      3  CG  LYS A 135      30.727  34.673   9.882  1.00 29.45     0.005 C 
BRANCH   3   4
ATOM      4  CD  LYS A 135      30.377  34.501   8.412  1.00 32.00     0.041 C 
BRANCH   4   5
ATOM      5  CE  LYS A 135      28.875  34.568   8.212  1.00 34.25     0.338 C 
ATOM      6  NZ  LYS A 135      28.153  33.919   9.341  1.00 35.99     0.618 N 
ENDBRANCH   4   5
ENDBRANCH   3   4
ENDBRANCH   2   3
ENDBRANCH   1   2
END_RES LYS A 135
BEGIN_RES TYR A 136
REMARK  2 active torsions:
REMARK  status: ('A' for Active; 'I' for Inactive)
REMARK    5  A    between atoms: CA   and  CB  
REMARK    6  A    between atoms: CB   and  CG  
ROOT
ATOM      7  CA  TYR A 136      36.583  36.399   8.994  1.00 26.14     0.191 C 
ENDROOT
BRANCH   7   8
ATOM      8  CB  TYR A 136      37.367  36.835  10.240  1.00 28.16     0.060 C 
BRANCH   8   9
ATOM      9  CG  TYR A 136      37.224  38.309  10.529  1.00 31.88    -0.020 A 
ATOM     10  CD2 TYR A 136      36.372  39.115   9.771  1.00 32.67    -0.002 A 
ATOM     11  CE2 TYR A 136      36.248  40.484  10.046  1.00 33.89     0.027 A 
ATOM     12  CZ  TYR A 136      36.984  41.051  11.089  1.00 34.34     0.131 A 
ATOM     13  OH  TYR A 136      36.872  42.403  11.385  1.00 35.14    -0.190 OA
ATOM     14  CE1 TYR A 136      37.836  40.265  11.852  1.00 35.01     0.027 A 
ATOM     15  CD1 TYR A 136      37.956  38.905  11.564  1.00 33.57    -0.002 A 
ENDBRANCH   8   9
ENDBRANCH   7   8
END_RES TYR A 136
BEGIN_RES ASN A 133
REMARK  2 active torsions:
REMARK  status: ('A' for Active; 'I' for Inactive)
REMARK    7  A    between atoms: CA   and  CB  
REMARK    8  A    between atoms: CB   and  CG  
ROOT
ATOM     16  CA  ASN A 133      31.225  30.257  11.749  1.00 18.15     0.196 C 
ENDROOT
BRANCH  16  17
ATOM     17  CB  ASN A 133      30.092  31.240  11.460  1.00 18.27     0.126 C 
BRANCH  17  18
ATOM     18  CG  ASN A 133      28.753  30.581  11.340  1.00 18.94     0.276 C 
ATOM     19  OD1 ASN A 133      28.589  29.594  10.621  1.00 18.09    -0.269 OA
ATOM     20  ND2 ASN A 133      27.768  31.128  12.053  1.00 18.93    -0.107 N 
ENDBRANCH  17  18
ENDBRANCH  16  17
END_RES ASN A 133
