REMARK VINA RESULT:    -4.078      7.315     10.865
REMARK INTER + INTRA:          -7.694
REMARK INTER:                  -4.469
REMARK INTRA:                  -3.225
REMARK UNBOUND:                -3.139
REMARK SMILES Cc1cn(-c2cc(Cl)ccc2C(=O)N(C)C)nn1
REMARK SMILES IDX 5 1 6 2 7 3 8 4 9 5 10 6 11 7 4 8 1 9 2 10 3 11 18 12 17 13
REMARK SMILES IDX 12 14 13 15 14 16 15 17 16 18
REMARK H PARENT
REMARK Flexibility Score: inf
ROOT
ATOM      1  C   UNL     1      36.876  39.014   3.154  1.00  0.00     0.081 A 
ATOM      2  C   UNL     1      35.581  39.553   3.143  1.00  0.00     0.049 A 
ATOM      3  C   UNL     1      34.733  39.361   4.212  1.00  0.00     0.043 A 
ATOM      4  Cl  UNL     1      33.109  40.042   4.181  1.00  0.00    -0.084 Cl
ATOM      5  C   UNL     1      35.137  38.636   5.313  1.00  0.00     0.021 A 
ATOM      6  C   UNL     1      36.408  38.111   5.319  1.00  0.00     0.017 A 
ATOM      7  C   UNL     1      37.249  38.301   4.260  1.00  0.00     0.065 A 
ENDROOT
BRANCH   1   8
ATOM      8  N   UNL     1      37.741  39.221   2.045  1.00  0.00    -0.220 N 
ATOM      9  C   UNL     1      39.132  38.576  -1.286  1.00  0.00     0.070 C 
ATOM     10  C   UNL     1      38.762  39.050   0.081  1.00  0.00     0.080 A 
ATOM     11  C   UNL     1      37.761  38.525   0.906  1.00  0.00     0.140 A 
ATOM     12  N   UNL     1      39.300  40.056   0.785  1.00  0.00    -0.135 NA
ATOM     13  N   UNL     1      38.672  40.127   1.941  1.00  0.00    -0.062 NA
ENDBRANCH   1   8
BRANCH   7  14
ATOM     14  C   UNL     1      38.597  37.728   4.298  1.00  0.00     0.255 C 
ATOM     15  O   UNL     1      38.845  36.608   3.791  1.00  0.00    -0.269 OA
ATOM     16  N   UNL     1      39.624  38.482   4.933  1.00  0.00    -0.345 N 
ATOM     17  C   UNL     1      40.983  37.925   4.983  1.00  0.00     0.146 C 
ATOM     18  C   UNL     1      39.379  39.763   5.523  1.00  0.00     0.146 C 
ENDBRANCH   7  14
TORSDOF 2
BEGIN_RES LYS A 135
REMARK  4 active torsions:
REMARK  status: ('A' for Active; 'I' for Inactive)
REMARK    1  A    between atoms: CA   and  CB  
REMARK    2  A    between atoms: CB   and  CG  
REMARK    3  A    between atoms: CG   and  CD  
REMARK    4  A    between atoms: CD   and  CE  
ROOT
ATOM      1  CA  LYS A 135      33.193  34.663   9.290  1.00 25.02     0.186 C 
ENDROOT
BRANCH   1   2
ATOM      2  CB  LYS A 135      32.060  35.360  10.034  1.00 26.63     0.034 C 
BRANCH   2   3
ATOM      3  CG  LYS A 135      30.702  34.768   9.756  1.00 29.45     0.005 C 
BRANCH   3   4
ATOM      4  CD  LYS A 135      30.478  34.621   8.259  1.00 32.00     0.041 C 
BRANCH   4   5
ATOM      5  CE  LYS A 135      29.078  35.068   7.884  1.00 34.25     0.338 C 
ATOM      6  NZ  LYS A 135      29.022  35.527   6.468  1.00 35.99     0.618 N 
ENDBRANCH   4   5
ENDBRANCH   3   4
ENDBRANCH   2   3
ENDBRANCH   1   2
END_RES LYS A 135
BEGIN_RES TYR A 136
REMARK  2 active torsions:
REMARK  status: ('A' for Active; 'I' for Inactive)
REMARK    5  A    between atoms: CA   and  CB  
REMARK    6  A    between atoms: CB   and  CG  
ROOT
ATOM      7  CA  TYR A 136      36.583  36.399   8.994  1.00 26.14     0.191 C 
ENDROOT
BRANCH   7   8
ATOM      8  CB  TYR A 136      37.367  36.835  10.240  1.00 28.16     0.060 C 
BRANCH   8   9
ATOM      9  CG  TYR A 136      37.328  38.328  10.457  1.00 31.88    -0.020 A 
ATOM     10  CD2 TYR A 136      36.656  39.170   9.569  1.00 32.67    -0.002 A 
ATOM     11  CE2 TYR A 136      36.627  40.556   9.779  1.00 33.89     0.027 A 
ATOM     12  CZ  TYR A 136      37.277  41.103  10.888  1.00 34.34     0.131 A 
ATOM     13  OH  TYR A 136      37.256  42.472  11.119  1.00 35.14    -0.190 OA
ATOM     14  CE1 TYR A 136      37.950  40.281  11.780  1.00 35.01     0.027 A 
ATOM     15  CD1 TYR A 136      37.978  38.903  11.557  1.00 33.57    -0.002 A 
ENDBRANCH   8   9
ENDBRANCH   7   8
END_RES TYR A 136
BEGIN_RES ASN A 133
REMARK  2 active torsions:
REMARK  status: ('A' for Active; 'I' for Inactive)
REMARK    7  A    between atoms: CA   and  CB  
REMARK    8  A    between atoms: CB   and  CG  
ROOT
ATOM     16  CA  ASN A 133      31.225  30.257  11.749  1.00 18.15     0.196 C 
ENDROOT
BRANCH  16  17
ATOM     17  CB  ASN A 133      30.092  31.240  11.460  1.00 18.27     0.126 C 
BRANCH  17  18
ATOM     18  CG  ASN A 133      28.751  30.583  11.354  1.00 18.94     0.276 C 
ATOM     19  OD1 ASN A 133      28.575  29.604  10.625  1.00 18.09    -0.269 OA
ATOM     20  ND2 ASN A 133      27.778  31.121  12.089  1.00 18.93    -0.107 N 
ENDBRANCH  17  18
ENDBRANCH  16  17
END_RES ASN A 133
