REMARK VINA RESULT:    -4.115      8.168     12.903
REMARK INTER + INTRA:          -7.437
REMARK INTER:                  -4.544
REMARK INTRA:                  -2.893
REMARK UNBOUND:                -3.081
REMARK SMILES Cc1cn(-c2cccc(Cl)c2)nn1
REMARK SMILES IDX 5 1 6 2 7 3 8 4 9 5 10 6 11 7 4 8 1 9 2 10 3 11 13 12 12 13
REMARK H PARENT
REMARK Flexibility Score: inf
ROOT
ATOM      1  C   UNL     1      32.162  34.349  15.638  1.00  0.00     0.068 A 
ATOM      2  C   UNL     1      32.221  34.889  16.896  1.00  0.00     0.028 A 
ATOM      3  C   UNL     1      31.658  34.246  17.973  1.00  0.00     0.004 A 
ATOM      4  C   UNL     1      31.023  33.036  17.763  1.00  0.00     0.020 A 
ATOM      5  C   UNL     1      30.939  32.456  16.514  1.00  0.00     0.043 A 
ATOM      6  Cl  UNL     1      30.124  30.907  16.266  1.00  0.00    -0.084 Cl
ATOM      7  C   UNL     1      31.521  33.140  15.467  1.00  0.00     0.049 A 
ENDROOT
BRANCH   1   8
ATOM      8  N   UNL     1      32.748  35.009  14.497  1.00  0.00    -0.220 N 
ATOM      9  C   UNL     1      33.080  37.284  11.711  1.00  0.00     0.070 C 
ATOM     10  C   UNL     1      33.161  36.283  12.783  1.00  0.00     0.080 A 
ATOM     11  C   UNL     1      32.238  35.982  13.749  1.00  0.00     0.140 A 
ATOM     12  N   UNL     1      34.200  35.458  13.005  1.00  0.00    -0.135 NA
ATOM     13  N   UNL     1      33.948  34.689  14.041  1.00  0.00    -0.062 NA
ENDBRANCH   1   8
TORSDOF 1
BEGIN_RES LYS A 135
REMARK  4 active torsions:
REMARK  status: ('A' for Active; 'I' for Inactive)
REMARK    1  A    between atoms: CA   and  CB  
REMARK    2  A    between atoms: CB   and  CG  
REMARK    3  A    between atoms: CG   and  CD  
REMARK    4  A    between atoms: CD   and  CE  
ROOT
ATOM      1  CA  LYS A 135      33.193  34.663   9.290  1.00 25.02     0.186 C 
ENDROOT
BRANCH   1   2
ATOM      2  CB  LYS A 135      32.060  35.360  10.034  1.00 26.63     0.034 C 
BRANCH   2   3
ATOM      3  CG  LYS A 135      30.703  34.768   9.756  1.00 29.45     0.005 C 
BRANCH   3   4
ATOM      4  CD  LYS A 135      30.520  34.519   8.267  1.00 32.00     0.041 C 
BRANCH   4   5
ATOM      5  CE  LYS A 135      29.136  34.949   7.820  1.00 34.25     0.338 C 
ATOM      6  NZ  LYS A 135      28.528  35.896   8.796  1.00 35.99     0.618 N 
ENDBRANCH   4   5
ENDBRANCH   3   4
ENDBRANCH   2   3
ENDBRANCH   1   2
END_RES LYS A 135
BEGIN_RES TYR A 136
REMARK  2 active torsions:
REMARK  status: ('A' for Active; 'I' for Inactive)
REMARK    5  A    between atoms: CA   and  CB  
REMARK    6  A    between atoms: CB   and  CG  
ROOT
ATOM      7  CA  TYR A 136      36.583  36.399   8.994  1.00 26.14     0.191 C 
ENDROOT
BRANCH   7   8
ATOM      8  CB  TYR A 136      37.367  36.835  10.240  1.00 28.16     0.060 C 
BRANCH   8   9
ATOM      9  CG  TYR A 136      36.723  37.998  10.953  1.00 31.88    -0.020 A 
ATOM     10  CD2 TYR A 136      36.137  39.048  10.242  1.00 32.67    -0.002 A 
ATOM     11  CE2 TYR A 136      35.543  40.125  10.915  1.00 33.89     0.027 A 
ATOM     12  CZ  TYR A 136      35.534  40.151  12.311  1.00 34.34     0.131 A 
ATOM     13  OH  TYR A 136      34.945  41.203  12.998  1.00 35.14    -0.190 OA
ATOM     14  CE1 TYR A 136      36.112  39.117  13.034  1.00 35.01     0.027 A 
ATOM     15  CD1 TYR A 136      36.707  38.053  12.353  1.00 33.57    -0.002 A 
ENDBRANCH   8   9
ENDBRANCH   7   8
END_RES TYR A 136
BEGIN_RES ASN A 133
REMARK  2 active torsions:
REMARK  status: ('A' for Active; 'I' for Inactive)
REMARK    7  A    between atoms: CA   and  CB  
REMARK    8  A    between atoms: CB   and  CG  
ROOT
ATOM     16  CA  ASN A 133      31.225  30.257  11.749  1.00 18.15     0.196 C 
ENDROOT
BRANCH  16  17
ATOM     17  CB  ASN A 133      30.092  31.240  11.460  1.00 18.27     0.126 C 
BRANCH  17  18
ATOM     18  CG  ASN A 133      28.751  30.582  11.352  1.00 18.94     0.276 C 
ATOM     19  OD1 ASN A 133      28.577  29.604  10.624  1.00 18.09    -0.269 OA
ATOM     20  ND2 ASN A 133      27.777  31.121  12.085  1.00 18.93    -0.107 N 
ENDBRANCH  17  18
ENDBRANCH  16  17
END_RES ASN A 133
