REMARK VINA RESULT:    -5.982      3.224      6.335
REMARK INTER + INTRA:         -11.043
REMARK INTER:                  -7.687
REMARK INTRA:                  -3.355
REMARK UNBOUND:                -3.836
REMARK SMILES Cc1cn(-c2ccc(-c3c4ccc(=O)cc-4oc4cc(O)ccc34)c(C(=O)[O-])c2)nn1
REMARK SMILES IDX 9 1 24 2 23 3 22 4 20 5 19 6 18 7 17 8 16 9 15 10 13 11
REMARK SMILES IDX 14 12 12 13 11 14 10 15 8 16 5 17 29 18 6 19 25 20 7 21 4 22
REMARK SMILES IDX 1 23 2 24 3 25 31 26 30 27 26 28 27 29 28 30 21 31
REMARK H PARENT 21 32
REMARK Flexibility Score: inf
ROOT
ATOM      1  C   UNL     1      34.563  35.772  15.028  1.00  0.00     0.004 A 
ATOM      2  C   UNL     1      35.584  35.217  14.287  1.00  0.00     0.026 A 
ATOM      3  C   UNL     1      35.294  34.303  13.297  1.00  0.00     0.016 A 
ATOM      4  C   UNL     1      36.289  33.720  12.528  1.00  0.00     0.047 A 
ATOM      5  C   UNL     1      37.595  34.081  12.778  1.00  0.00     0.119 A 
ATOM      6  C   UNL     1      37.887  34.996  13.768  1.00  0.00     0.093 A 
ATOM      7  C   UNL     1      36.894  35.591  14.550  1.00  0.00     0.139 A 
ATOM      8  O   UNL     1      37.208  36.459  15.484  1.00  0.00    -0.456 OA
ATOM      9  C   UNL     1      36.320  37.034  16.232  1.00  0.00     0.139 A 
ATOM     10  C   UNL     1      36.610  37.946  17.218  1.00  0.00     0.099 A 
ATOM     11  C   UNL     1      35.577  38.487  17.946  1.00  0.00     0.182 A 
ATOM     12  O   UNL     1      35.852  39.320  18.845  1.00  0.00    -0.290 OA
ATOM     13  C   UNL     1      34.254  38.150  17.724  1.00  0.00     0.053 A 
ATOM     14  C   UNL     1      33.890  37.243  16.753  1.00  0.00     0.016 A 
ATOM     15  C   UNL     1      34.911  36.681  16.004  1.00  0.00     0.026 A 
ENDROOT
BRANCH   1  16
ATOM     16  C   UNL     1      33.199  35.377  14.747  1.00  0.00    -0.008 A 
ATOM     17  C   UNL     1      30.561  34.671  14.155  1.00  0.00     0.067 A 
ATOM     18  C   UNL     1      31.146  35.744  13.516  1.00  0.00     0.039 A 
ATOM     19  C   UNL     1      31.282  33.944  15.090  1.00  0.00     0.029 A 
ATOM     20  C   UNL     1      32.452  36.078  13.823  1.00  0.00     0.007 A 
ATOM     21  C   UNL     1      32.589  34.306  15.374  1.00  0.00     0.012 A 
BRANCH  17  22
ATOM     22  N   UNL     1      29.222  34.281  13.881  1.00  0.00    -0.220 N 
ATOM     23  C   UNL     1      26.193  34.273  11.787  1.00  0.00     0.070 C 
ATOM     24  C   UNL     1      27.267  34.109  12.811  1.00  0.00     0.080 A 
ATOM     25  C   UNL     1      28.532  34.658  12.765  1.00  0.00     0.140 A 
ATOM     26  N   UNL     1      27.228  33.412  13.961  1.00  0.00    -0.135 NA
ATOM     27  N   UNL     1      28.405  33.536  14.572  1.00  0.00    -0.062 NA
ENDBRANCH  17  22
BRANCH  20  28
ATOM     28  C   UNL     1      33.058  37.215  13.139  1.00  0.00     0.072 C 
ATOM     29  O   UNL     1      33.634  37.089  12.033  1.00  0.00    -0.545 OA
ATOM     30  O   UNL     1      33.016  38.487  13.691  1.00  0.00    -0.545 OA
ENDBRANCH  20  28
ENDBRANCH   1  16
BRANCH   5  31
ATOM     31  O   UNL     1      38.611  33.497  12.004  1.00  0.00    -0.508 OA
ATOM     32  H   UNL     1      38.373  32.843  11.272  1.00  0.00     0.293 HD
ENDBRANCH   5  31
TORSDOF 4
BEGIN_RES LYS A 135
REMARK  4 active torsions:
REMARK  status: ('A' for Active; 'I' for Inactive)
REMARK    1  A    between atoms: CA   and  CB  
REMARK    2  A    between atoms: CB   and  CG  
REMARK    3  A    between atoms: CG   and  CD  
REMARK    4  A    between atoms: CD   and  CE  
ROOT
ATOM      1  CA  LYS A 135      33.193  34.663   9.290  1.00 25.02     0.186 C 
ENDROOT
BRANCH   1   2
ATOM      2  CB  LYS A 135      32.060  35.360  10.034  1.00 26.63     0.034 C 
BRANCH   2   3
ATOM      3  CG  LYS A 135      30.703  34.766   9.758  1.00 29.45     0.005 C 
BRANCH   3   4
ATOM      4  CD  LYS A 135      30.509  34.542   8.266  1.00 32.00     0.041 C 
BRANCH   4   5
ATOM      5  CE  LYS A 135      29.104  34.931   7.847  1.00 34.25     0.338 C 
ATOM      6  NZ  LYS A 135      28.085  34.278   8.714  1.00 35.99     0.618 N 
ENDBRANCH   4   5
ENDBRANCH   3   4
ENDBRANCH   2   3
ENDBRANCH   1   2
END_RES LYS A 135
BEGIN_RES TYR A 136
REMARK  2 active torsions:
REMARK  status: ('A' for Active; 'I' for Inactive)
REMARK    5  A    between atoms: CA   and  CB  
REMARK    6  A    between atoms: CB   and  CG  
ROOT
ATOM      7  CA  TYR A 136      36.583  36.399   8.994  1.00 26.14     0.191 C 
ENDROOT
BRANCH   7   8
ATOM      8  CB  TYR A 136      37.367  36.835  10.240  1.00 28.16     0.060 C 
BRANCH   8   9
ATOM      9  CG  TYR A 136      36.748  38.027  10.927  1.00 31.88    -0.020 A 
ATOM     10  CD2 TYR A 136      36.011  38.973  10.210  1.00 32.67    -0.002 A 
ATOM     11  CE2 TYR A 136      35.442  40.078  10.858  1.00 33.89     0.027 A 
ATOM     12  CZ  TYR A 136      35.612  40.238  12.235  1.00 34.34     0.131 A 
ATOM     13  OH  TYR A 136      35.051  41.321  12.899  1.00 35.14    -0.190 OA
ATOM     14  CE1 TYR A 136      36.342  39.309  12.963  1.00 35.01     0.027 A 
ATOM     15  CD1 TYR A 136      36.909  38.216  12.306  1.00 33.57    -0.002 A 
ENDBRANCH   8   9
ENDBRANCH   7   8
END_RES TYR A 136
BEGIN_RES ASN A 133
REMARK  2 active torsions:
REMARK  status: ('A' for Active; 'I' for Inactive)
REMARK    7  A    between atoms: CA   and  CB  
REMARK    8  A    between atoms: CB   and  CG  
ROOT
ATOM     16  CA  ASN A 133      31.225  30.257  11.749  1.00 18.15     0.196 C 
ENDROOT
BRANCH  16  17
ATOM     17  CB  ASN A 133      30.092  31.240  11.460  1.00 18.27     0.126 C 
BRANCH  17  18
ATOM     18  CG  ASN A 133      28.754  30.580  11.330  1.00 18.94     0.276 C 
ATOM     19  OD1 ASN A 133      27.803  30.920  12.036  1.00 18.09    -0.269 OA
ATOM     20  ND2 ASN A 133      28.668  29.614  10.416  1.00 18.93    -0.107 N 
ENDBRANCH  17  18
ENDBRANCH  16  17
END_RES ASN A 133
