REMARK VINA RESULT:    -4.014      3.173      4.473
REMARK INTER + INTRA:          -8.907
REMARK INTER:                  -5.466
REMARK INTRA:                  -3.441
REMARK UNBOUND:                -3.485
REMARK SMILES Cc1cn([C@@H](CCC(=O)O)C(=O)O)nn1
REMARK SMILES IDX 6 1 5 2 4 3 1 4 2 5 3 6 15 7 14 8 11 9 12 10 13 11 7 13 8 14
REMARK SMILES IDX 9 15 10 16
REMARK H PARENT 13 12 10 17
REMARK Flexibility Score: inf
ROOT
ATOM      1  C   UNL     1      32.706  34.705  14.182  1.00  0.00     0.051 C 
ENDROOT
BRANCH   1   2
ATOM      2  C   UNL     1      33.971  35.522  14.132  1.00  0.00     0.219 C 
BRANCH   2   3
ATOM      3  N   UNL     1      33.802  36.749  13.390  1.00  0.00    -0.238 N 
ATOM      4  C   UNL     1      32.830  38.779  10.513  1.00  0.00     0.070 C 
ATOM      5  C   UNL     1      33.303  38.204  11.801  1.00  0.00     0.080 A 
ATOM      6  C   UNL     1      33.291  36.884  12.133  1.00  0.00     0.135 A 
ATOM      7  N   UNL     1      33.817  38.863  12.855  1.00  0.00    -0.136 NA
ATOM      8  N   UNL     1      34.109  37.990  13.790  1.00  0.00    -0.066 NA
ENDBRANCH   2   3
BRANCH   2   9
ATOM      9  C   UNL     1      35.132  34.775  13.658  1.00  0.00     0.328 C 
ATOM     10  O   UNL     1      36.281  35.159  13.967  1.00  0.00    -0.250 OA
BRANCH   9  11
ATOM     11  O   UNL     1      35.022  33.647  12.870  1.00  0.00    -0.480 OA
ATOM     12  H   UNL     1      34.288  32.941  13.025  1.00  0.00     0.296 HD
ENDBRANCH   9  11
ENDBRANCH   2   9
ENDBRANCH   1   2
BRANCH   1  13
ATOM     13  C   UNL     1      32.362  34.270  15.590  1.00  0.00     0.125 C 
BRANCH  13  14
ATOM     14  C   UNL     1      31.509  33.054  15.550  1.00  0.00     0.303 C 
ATOM     15  O   UNL     1      31.265  32.374  16.577  1.00  0.00    -0.252 OA
BRANCH  14  16
ATOM     16  O   UNL     1      30.941  32.618  14.361  1.00  0.00    -0.481 OA
ATOM     17  H   UNL     1      30.002  32.206  14.337  1.00  0.00     0.296 HD
ENDBRANCH  14  16
ENDBRANCH  13  14
ENDBRANCH   1  13
TORSDOF 7
BEGIN_RES LYS A 135
REMARK  4 active torsions:
REMARK  status: ('A' for Active; 'I' for Inactive)
REMARK    1  A    between atoms: CA   and  CB  
REMARK    2  A    between atoms: CB   and  CG  
REMARK    3  A    between atoms: CG   and  CD  
REMARK    4  A    between atoms: CD   and  CE  
ROOT
ATOM      1  CA  LYS A 135      33.193  34.663   9.290  1.00 25.02     0.186 C 
ENDROOT
BRANCH   1   2
ATOM      2  CB  LYS A 135      32.060  35.360  10.034  1.00 26.63     0.034 C 
BRANCH   2   3
ATOM      3  CG  LYS A 135      30.833  35.586   9.189  1.00 29.45     0.005 C 
BRANCH   3   4
ATOM      4  CD  LYS A 135      30.235  34.259   8.745  1.00 32.00     0.041 C 
BRANCH   4   5
ATOM      5  CE  LYS A 135      28.740  34.395   8.528  1.00 34.25     0.338 C 
ATOM      6  NZ  LYS A 135      27.977  33.702   9.602  1.00 35.99     0.618 N 
ENDBRANCH   4   5
ENDBRANCH   3   4
ENDBRANCH   2   3
ENDBRANCH   1   2
END_RES LYS A 135
BEGIN_RES TYR A 136
REMARK  2 active torsions:
REMARK  status: ('A' for Active; 'I' for Inactive)
REMARK    5  A    between atoms: CA   and  CB  
REMARK    6  A    between atoms: CB   and  CG  
ROOT
ATOM      7  CA  TYR A 136      36.583  36.399   8.994  1.00 26.14     0.191 C 
ENDROOT
BRANCH   7   8
ATOM      8  CB  TYR A 136      37.367  36.835  10.240  1.00 28.16     0.060 C 
BRANCH   8   9
ATOM      9  CG  TYR A 136      37.061  38.254  10.651  1.00 31.88    -0.020 A 
ATOM     10  CD2 TYR A 136      36.467  39.152   9.761  1.00 32.67    -0.002 A 
ATOM     11  CE2 TYR A 136      36.188  40.469  10.152  1.00 33.89     0.027 A 
ATOM     12  CZ  TYR A 136      36.508  40.891  11.445  1.00 34.34     0.131 A 
ATOM     13  OH  TYR A 136      36.235  42.189  11.856  1.00 35.14    -0.190 OA
ATOM     14  CE1 TYR A 136      37.100  40.013  12.341  1.00 35.01     0.027 A 
ATOM     15  CD1 TYR A 136      37.378  38.706  11.938  1.00 33.57    -0.002 A 
ENDBRANCH   8   9
ENDBRANCH   7   8
END_RES TYR A 136
BEGIN_RES ASN A 133
REMARK  2 active torsions:
REMARK  status: ('A' for Active; 'I' for Inactive)
REMARK    7  A    between atoms: CA   and  CB  
REMARK    8  A    between atoms: CB   and  CG  
ROOT
ATOM     16  CA  ASN A 133      31.225  30.257  11.749  1.00 18.15     0.196 C 
ENDROOT
BRANCH  16  17
ATOM     17  CB  ASN A 133      30.092  31.240  11.460  1.00 18.27     0.126 C 
BRANCH  17  18
ATOM     18  CG  ASN A 133      28.748  30.585  11.375  1.00 18.94     0.276 C 
ATOM     19  OD1 ASN A 133      28.563  29.599  10.659  1.00 18.09    -0.269 OA
ATOM     20  ND2 ASN A 133      27.784  31.136  12.112  1.00 18.93    -0.107 N 
ENDBRANCH  17  18
ENDBRANCH  16  17
END_RES ASN A 133
