REMARK VINA RESULT:    -3.191      5.314      6.681
REMARK INTER + INTRA:          -7.067
REMARK INTER:                  -4.065
REMARK INTRA:                  -3.003
REMARK UNBOUND:                -3.223
REMARK SMILES Cc1cn(CCC(=O)O)nn1
REMARK SMILES IDX 6 1 5 2 4 3 1 4 2 5 3 6 11 7 10 8 7 9 8 10 9 11
REMARK H PARENT 9 12
REMARK Flexibility Score: inf
ROOT
ATOM      1  C   UNL     1      36.652  34.074  13.018  1.00  0.00     0.146 C 
ENDROOT
BRANCH   1   2
ATOM      2  C   UNL     1      37.594  34.240  14.215  1.00  0.00     0.158 C 
BRANCH   2   3
ATOM      3  N   UNL     1      38.441  35.389  14.025  1.00  0.00    -0.252 N 
ATOM      4  C   UNL     1      39.239  38.932  13.591  1.00  0.00     0.070 C 
ATOM      5  C   UNL     1      39.192  37.452  13.748  1.00  0.00     0.080 A 
ATOM      6  C   UNL     1      38.035  36.672  13.910  1.00  0.00     0.134 A 
ATOM      7  N   UNL     1      40.214  36.616  13.774  1.00  0.00    -0.136 NA
ATOM      8  N   UNL     1      39.741  35.381  13.941  1.00  0.00    -0.067 NA
ENDBRANCH   2   3
ENDBRANCH   1   2
BRANCH   1   9
ATOM      9  C   UNL     1      37.408  33.336  11.996  1.00  0.00     0.305 C 
ATOM     10  O   UNL     1      38.187  32.435  12.358  1.00  0.00    -0.252 OA
BRANCH   9  11
ATOM     11  O   UNL     1      37.266  33.634  10.654  1.00  0.00    -0.481 OA
ATOM     12  H   UNL     1      36.530  34.225  10.286  1.00  0.00     0.296 HD
ENDBRANCH   9  11
ENDBRANCH   1   9
TORSDOF 4
BEGIN_RES LYS A 135
REMARK  4 active torsions:
REMARK  status: ('A' for Active; 'I' for Inactive)
REMARK    1  A    between atoms: CA   and  CB  
REMARK    2  A    between atoms: CB   and  CG  
REMARK    3  A    between atoms: CG   and  CD  
REMARK    4  A    between atoms: CD   and  CE  
ROOT
ATOM      1  CA  LYS A 135      33.193  34.663   9.290  1.00 25.02     0.186 C 
ENDROOT
BRANCH   1   2
ATOM      2  CB  LYS A 135      32.060  35.360  10.034  1.00 26.63     0.034 C 
BRANCH   2   3
ATOM      3  CG  LYS A 135      30.809  35.524   9.210  1.00 29.45     0.005 C 
BRANCH   3   4
ATOM      4  CD  LYS A 135      30.003  34.235   9.195  1.00 32.00     0.041 C 
BRANCH   4   5
ATOM      5  CE  LYS A 135      28.789  34.355  10.095  1.00 34.25     0.338 C 
ATOM      6  NZ  LYS A 135      27.573  33.809   9.432  1.00 35.99     0.618 N 
ENDBRANCH   4   5
ENDBRANCH   3   4
ENDBRANCH   2   3
ENDBRANCH   1   2
END_RES LYS A 135
BEGIN_RES TYR A 136
REMARK  2 active torsions:
REMARK  status: ('A' for Active; 'I' for Inactive)
REMARK    5  A    between atoms: CA   and  CB  
REMARK    6  A    between atoms: CB   and  CG  
ROOT
ATOM      7  CA  TYR A 136      36.583  36.399   8.994  1.00 26.14     0.191 C 
ENDROOT
BRANCH   7   8
ATOM      8  CB  TYR A 136      37.367  36.835  10.240  1.00 28.16     0.060 C 
BRANCH   8   9
ATOM      9  CG  TYR A 136      37.193  38.301  10.551  1.00 31.88    -0.020 A 
ATOM     10  CD2 TYR A 136      36.181  38.744  11.406  1.00 32.67    -0.002 A 
ATOM     11  CE2 TYR A 136      36.027  40.108  11.688  1.00 33.89     0.027 A 
ATOM     12  CZ  TYR A 136      36.893  41.038  11.108  1.00 34.34     0.131 A 
ATOM     13  OH  TYR A 136      36.763  42.393  11.378  1.00 35.14    -0.190 OA
ATOM     14  CE1 TYR A 136      37.903  40.616  10.256  1.00 35.01     0.027 A 
ATOM     15  CD1 TYR A 136      38.043  39.256   9.978  1.00 33.57    -0.002 A 
ENDBRANCH   8   9
ENDBRANCH   7   8
END_RES TYR A 136
BEGIN_RES ASN A 133
REMARK  2 active torsions:
REMARK  status: ('A' for Active; 'I' for Inactive)
REMARK    7  A    between atoms: CA   and  CB  
REMARK    8  A    between atoms: CB   and  CG  
ROOT
ATOM     16  CA  ASN A 133      31.225  30.257  11.749  1.00 18.15     0.196 C 
ENDROOT
BRANCH  16  17
ATOM     17  CB  ASN A 133      30.092  31.240  11.460  1.00 18.27     0.126 C 
BRANCH  17  18
ATOM     18  CG  ASN A 133      28.757  30.578  11.313  1.00 18.94     0.276 C 
ATOM     19  OD1 ASN A 133      28.605  29.605  10.571  1.00 18.09    -0.269 OA
ATOM     20  ND2 ASN A 133      27.763  31.105  12.027  1.00 18.93    -0.107 N 
ENDBRANCH  17  18
ENDBRANCH  16  17
END_RES ASN A 133
