REMARK VINA RESULT:    -5.435      4.304      7.334
REMARK INTER + INTRA:          -9.690
REMARK INTER:                  -5.963
REMARK INTRA:                  -3.727
REMARK UNBOUND:                -2.666
REMARK SMILES Cc1cn(C[C@@H](C)CN2CCN(c3ccc(Cl)cc3)CC2)nn1
REMARK SMILES IDX 6 1 7 2 5 3 4 4 1 5 2 6 3 7 23 8 22 9 8 10 9 11 10 12 21 13
REMARK SMILES IDX 11 14 20 15 12 16 13 17 14 18 19 19 15 20 18 21 16 22 17 23
REMARK H PARENT
REMARK Flexibility Score: inf
ROOT
ATOM      1  C   UNL     1      26.120  33.694  13.922  1.00  0.00     0.022 C 
ATOM      2  C   UNL     1      24.790  33.460  13.268  1.00  0.00     0.011 C 
ENDROOT
BRANCH   1   3
ATOM      3  C   UNL     1      26.168  33.068  15.273  1.00  0.00     0.150 C 
BRANCH   3   4
ATOM      4  N   UNL     1      27.332  32.226  15.432  1.00  0.00    -0.252 N 
ATOM      5  C   UNL     1      30.916  31.763  15.926  1.00  0.00     0.070 C 
ATOM      6  C   UNL     1      29.435  31.654  15.721  1.00  0.00     0.080 A 
ATOM      7  C   UNL     1      28.584  32.731  15.605  1.00  0.00     0.134 A 
ATOM      8  N   UNL     1      28.675  30.549  15.616  1.00  0.00    -0.136 NA
ATOM      9  N   UNL     1      27.396  30.921  15.440  1.00  0.00    -0.067 NA
ENDBRANCH   3   4
ENDBRANCH   1   3
BRANCH   1  10
ATOM     10  C   UNL     1      26.405  35.195  14.072  1.00  0.00     0.089 C 
BRANCH  10  11
ATOM     11  N   UNL     1      27.541  35.488  13.302  1.00  0.00    -0.299 NA
ATOM     12  C   UNL     1      27.957  34.616  12.290  1.00  0.00     0.106 C 
ATOM     13  C   UNL     1      28.263  36.668  13.521  1.00  0.00     0.106 C 
ATOM     14  C   UNL     1      29.444  34.292  12.363  1.00  0.00     0.132 C 
ATOM     15  C   UNL     1      29.362  36.744  12.450  1.00  0.00     0.132 C 
ATOM     16  N   UNL     1      30.138  35.538  12.632  1.00  0.00    -0.369 N 
BRANCH  16  17
ATOM     17  C   UNL     1      31.496  35.535  13.044  1.00  0.00     0.037 A 
ATOM     18  C   UNL     1      32.522  36.151  12.375  1.00  0.00     0.027 A 
ATOM     19  C   UNL     1      31.829  34.855  14.212  1.00  0.00     0.027 A 
ATOM     20  C   UNL     1      33.839  36.132  12.791  1.00  0.00     0.022 A 
ATOM     21  C   UNL     1      33.132  34.816  14.656  1.00  0.00     0.022 A 
ATOM     22  C   UNL     1      34.144  35.455  13.948  1.00  0.00     0.041 A 
ATOM     23  Cl  UNL     1      35.779  35.373  14.556  1.00  0.00    -0.084 Cl
ENDBRANCH  16  17
ENDBRANCH  10  11
ENDBRANCH   1  10
TORSDOF 5
BEGIN_RES LYS A 135
REMARK  4 active torsions:
REMARK  status: ('A' for Active; 'I' for Inactive)
REMARK    1  A    between atoms: CA   and  CB  
REMARK    2  A    between atoms: CB   and  CG  
REMARK    3  A    between atoms: CG   and  CD  
REMARK    4  A    between atoms: CD   and  CE  
ROOT
ATOM      1  CA  LYS A 135      33.193  34.663   9.290  1.00 25.02     0.186 C 
ENDROOT
BRANCH   1   2
ATOM      2  CB  LYS A 135      32.060  35.360  10.034  1.00 26.63     0.034 C 
BRANCH   2   3
ATOM      3  CG  LYS A 135      30.860  35.648   9.170  1.00 29.45     0.005 C 
BRANCH   3   4
ATOM      4  CD  LYS A 135      30.307  34.364   8.572  1.00 32.00     0.041 C 
BRANCH   4   5
ATOM      5  CE  LYS A 135      28.793  34.350   8.646  1.00 34.25     0.338 C 
ATOM      6  NZ  LYS A 135      28.194  35.152   7.543  1.00 35.99     0.618 N 
ENDBRANCH   4   5
ENDBRANCH   3   4
ENDBRANCH   2   3
ENDBRANCH   1   2
END_RES LYS A 135
BEGIN_RES TYR A 136
REMARK  2 active torsions:
REMARK  status: ('A' for Active; 'I' for Inactive)
REMARK    5  A    between atoms: CA   and  CB  
REMARK    6  A    between atoms: CB   and  CG  
ROOT
ATOM      7  CA  TYR A 136      36.583  36.399   8.994  1.00 26.14     0.191 C 
ENDROOT
BRANCH   7   8
ATOM      8  CB  TYR A 136      37.367  36.835  10.240  1.00 28.16     0.060 C 
BRANCH   8   9
ATOM      9  CG  TYR A 136      36.670  37.930  11.010  1.00 31.88    -0.020 A 
ATOM     10  CD2 TYR A 136      35.773  38.797  10.383  1.00 32.67    -0.002 A 
ATOM     11  CE2 TYR A 136      35.133  39.812  11.107  1.00 33.89     0.027 A 
ATOM     12  CZ  TYR A 136      35.393  39.961  12.471  1.00 34.34     0.131 A 
ATOM     13  OH  TYR A 136      34.765  40.954  13.210  1.00 35.14    -0.190 OA
ATOM     14  CE1 TYR A 136      36.282  39.109  13.110  1.00 35.01     0.027 A 
ATOM     15  CD1 TYR A 136      36.919  38.106  12.377  1.00 33.57    -0.002 A 
ENDBRANCH   8   9
ENDBRANCH   7   8
END_RES TYR A 136
BEGIN_RES ASN A 133
REMARK  2 active torsions:
REMARK  status: ('A' for Active; 'I' for Inactive)
REMARK    7  A    between atoms: CA   and  CB  
REMARK    8  A    between atoms: CB   and  CG  
ROOT
ATOM     16  CA  ASN A 133      31.225  30.257  11.749  1.00 18.15     0.196 C 
ENDROOT
BRANCH  16  17
ATOM     17  CB  ASN A 133      30.092  31.240  11.460  1.00 18.27     0.126 C 
BRANCH  17  18
ATOM     18  CG  ASN A 133      28.760  30.576  11.294  1.00 18.94     0.276 C 
ATOM     19  OD1 ASN A 133      28.619  29.608  10.544  1.00 18.09    -0.269 OA
ATOM     20  ND2 ASN A 133      27.757  31.097  12.000  1.00 18.93    -0.107 N 
ENDBRANCH  17  18
ENDBRANCH  16  17
END_RES ASN A 133
