REMARK VINA RESULT:    -5.618      3.972      7.712
REMARK INTER + INTRA:         -10.604
REMARK INTER:                  -7.254
REMARK INTRA:                  -3.350
REMARK UNBOUND:                -3.836
REMARK SMILES Cc1cn(-c2ccc(-c3c4ccc(=O)cc-4oc4cc(O)ccc34)c(C(=O)[O-])c2)nn1
REMARK SMILES IDX 9 1 24 2 23 3 22 4 20 5 19 6 18 7 17 8 16 9 15 10 13 11
REMARK SMILES IDX 14 12 12 13 11 14 10 15 8 16 5 17 29 18 6 19 25 20 7 21 4 22
REMARK SMILES IDX 1 23 2 24 3 25 31 26 30 27 26 28 27 29 28 30 21 31
REMARK H PARENT 21 32
REMARK Flexibility Score: inf
ROOT
ATOM      1  C   UNL     1      30.334  34.431  13.636  1.00  0.00     0.004 A 
ATOM      2  C   UNL     1      30.131  33.446  14.578  1.00  0.00     0.026 A 
ATOM      3  C   UNL     1      28.894  32.850  14.692  1.00  0.00     0.016 A 
ATOM      4  C   UNL     1      28.646  31.856  15.626  1.00  0.00     0.047 A 
ATOM      5  C   UNL     1      29.681  31.470  16.451  1.00  0.00     0.119 A 
ATOM      6  C   UNL     1      30.920  32.066  16.338  1.00  0.00     0.093 A 
ATOM      7  C   UNL     1      31.183  33.067  15.401  1.00  0.00     0.139 A 
ATOM      8  O   UNL     1      32.375  33.613  15.321  1.00  0.00    -0.456 OA
ATOM      9  C   UNL     1      32.662  34.544  14.468  1.00  0.00     0.139 A 
ATOM     10  C   UNL     1      33.897  35.137  14.355  1.00  0.00     0.099 A 
ATOM     11  C   UNL     1      34.077  36.118  13.408  1.00  0.00     0.182 A 
ATOM     12  O   UNL     1      35.209  36.655  13.312  1.00  0.00    -0.290 OA
ATOM     13  C   UNL     1      33.064  36.532  12.563  1.00  0.00     0.053 A 
ATOM     14  C   UNL     1      31.802  35.982  12.621  1.00  0.00     0.016 A 
ATOM     15  C   UNL     1      31.591  34.991  13.566  1.00  0.00     0.026 A 
ENDROOT
BRANCH   1  16
ATOM     16  C   UNL     1      29.232  34.819  12.781  1.00  0.00    -0.008 A 
ATOM     17  C   UNL     1      27.088  35.621  11.179  1.00  0.00     0.067 A 
ATOM     18  C   UNL     1      27.340  36.273  12.367  1.00  0.00     0.039 A 
ATOM     19  C   UNL     1      27.898  34.569  10.779  1.00  0.00     0.029 A 
ATOM     20  C   UNL     1      28.406  35.861  13.147  1.00  0.00     0.007 A 
ATOM     21  C   UNL     1      28.958  34.182  11.584  1.00  0.00     0.012 A 
BRANCH  17  22
ATOM     22  N   UNL     1      26.007  36.000  10.337  1.00  0.00    -0.220 N 
ATOM     23  C   UNL     1      22.562  35.632   9.091  1.00  0.00     0.070 C 
ATOM     24  C   UNL     1      23.974  35.997   9.407  1.00  0.00     0.080 A 
ATOM     25  C   UNL     1      24.788  35.385  10.339  1.00  0.00     0.140 A 
ATOM     26  N   UNL     1      24.729  36.971   8.867  1.00  0.00    -0.135 NA
ATOM     27  N   UNL     1      25.930  36.944   9.441  1.00  0.00    -0.062 NA
ENDBRANCH  17  22
BRANCH  20  28
ATOM     28  C   UNL     1      28.661  36.560  14.401  1.00  0.00     0.072 C 
ATOM     29  O   UNL     1      29.379  37.585  14.452  1.00  0.00    -0.545 OA
ATOM     30  O   UNL     1      28.111  36.111  15.594  1.00  0.00    -0.545 OA
ENDBRANCH  20  28
ENDBRANCH   1  16
BRANCH   5  31
ATOM     31  O   UNL     1      29.440  30.463  17.400  1.00  0.00    -0.508 OA
ATOM     32  H   UNL     1      30.131  30.265  18.110  1.00  0.00     0.293 HD
ENDBRANCH   5  31
TORSDOF 4
BEGIN_RES LYS A 135
REMARK  4 active torsions:
REMARK  status: ('A' for Active; 'I' for Inactive)
REMARK    1  A    between atoms: CA   and  CB  
REMARK    2  A    between atoms: CB   and  CG  
REMARK    3  A    between atoms: CG   and  CD  
REMARK    4  A    between atoms: CD   and  CE  
ROOT
ATOM      1  CA  LYS A 135      33.193  34.663   9.290  1.00 25.02     0.186 C 
ENDROOT
BRANCH   1   2
ATOM      2  CB  LYS A 135      32.060  35.360  10.034  1.00 26.63     0.034 C 
BRANCH   2   3
ATOM      3  CG  LYS A 135      30.930  35.798   9.138  1.00 29.45     0.005 C 
BRANCH   3   4
ATOM      4  CD  LYS A 135      30.508  34.666   8.215  1.00 32.00     0.041 C 
BRANCH   4   5
ATOM      5  CE  LYS A 135      29.263  35.048   7.437  1.00 34.25     0.338 C 
ATOM      6  NZ  LYS A 135      28.946  36.493   7.610  1.00 35.99     0.618 N 
ENDBRANCH   4   5
ENDBRANCH   3   4
ENDBRANCH   2   3
ENDBRANCH   1   2
END_RES LYS A 135
BEGIN_RES TYR A 136
REMARK  2 active torsions:
REMARK  status: ('A' for Active; 'I' for Inactive)
REMARK    5  A    between atoms: CA   and  CB  
REMARK    6  A    between atoms: CB   and  CG  
ROOT
ATOM      7  CA  TYR A 136      36.583  36.399   8.994  1.00 26.14     0.191 C 
ENDROOT
BRANCH   7   8
ATOM      8  CB  TYR A 136      37.367  36.835  10.240  1.00 28.16     0.060 C 
BRANCH   8   9
ATOM      9  CG  TYR A 136      36.944  38.192  10.746  1.00 31.88    -0.020 A 
ATOM     10  CD2 TYR A 136      35.849  38.861  10.194  1.00 32.67    -0.002 A 
ATOM     11  CE2 TYR A 136      35.466  40.122  10.670  1.00 33.89     0.027 A 
ATOM     12  CZ  TYR A 136      36.184  40.719  11.709  1.00 34.34     0.131 A 
ATOM     13  OH  TYR A 136      35.818  41.964  12.201  1.00 35.14    -0.190 OA
ATOM     14  CE1 TYR A 136      37.275  40.070  12.268  1.00 35.01     0.027 A 
ATOM     15  CD1 TYR A 136      37.651  38.817  11.781  1.00 33.57    -0.002 A 
ENDBRANCH   8   9
ENDBRANCH   7   8
END_RES TYR A 136
BEGIN_RES ASN A 133
REMARK  2 active torsions:
REMARK  status: ('A' for Active; 'I' for Inactive)
REMARK    7  A    between atoms: CA   and  CB  
REMARK    8  A    between atoms: CB   and  CG  
ROOT
ATOM     16  CA  ASN A 133      31.225  30.257  11.749  1.00 18.15     0.196 C 
ENDROOT
BRANCH  16  17
ATOM     17  CB  ASN A 133      30.092  31.240  11.460  1.00 18.27     0.126 C 
BRANCH  17  18
ATOM     18  CG  ASN A 133      28.766  30.573  11.263  1.00 18.94     0.276 C 
ATOM     19  OD1 ASN A 133      28.636  29.631  10.479  1.00 18.09    -0.269 OA
ATOM     20  ND2 ASN A 133      27.755  31.063  11.979  1.00 18.93    -0.107 N 
ENDBRANCH  17  18
ENDBRANCH  16  17
END_RES ASN A 133
