REMARK VINA RESULT:    -3.598      7.701     10.124
REMARK INTER + INTRA:          -7.557
REMARK INTER:                  -4.360
REMARK INTRA:                  -3.198
REMARK UNBOUND:                -3.223
REMARK SMILES Cc1cn(CCC(=O)O)nn1
REMARK SMILES IDX 6 1 5 2 4 3 1 4 2 5 3 6 11 7 10 8 7 9 8 10 9 11
REMARK H PARENT 9 12
REMARK Flexibility Score: inf
ROOT
ATOM      1  C   UNL     1      23.001  33.794   0.654  1.00  0.00     0.146 C 
ENDROOT
BRANCH   1   2
ATOM      2  C   UNL     1      22.196  34.516  -0.431  1.00  0.00     0.158 C 
BRANCH   2   3
ATOM      3  N   UNL     1      22.989  35.563  -1.023  1.00  0.00    -0.252 N 
ATOM      4  C   UNL     1      24.218  38.975  -1.506  1.00  0.00     0.070 C 
ATOM      5  C   UNL     1      23.895  37.521  -1.517  1.00  0.00     0.080 A 
ATOM      6  C   UNL     1      22.958  36.873  -0.695  1.00  0.00     0.134 A 
ATOM      7  N   UNL     1      24.432  36.587  -2.281  1.00  0.00    -0.136 NA
ATOM      8  N   UNL     1      23.872  35.417  -1.969  1.00  0.00    -0.067 NA
ENDBRANCH   2   3
ENDBRANCH   1   2
BRANCH   1   9
ATOM      9  C   UNL     1      22.650  32.369   0.549  1.00  0.00     0.305 C 
ATOM     10  O   UNL     1      21.997  31.983  -0.437  1.00  0.00    -0.252 OA
BRANCH   9  11
ATOM     11  O   UNL     1      23.032  31.470   1.526  1.00  0.00    -0.481 OA
ATOM     12  H   UNL     1      23.301  30.513   1.333  1.00  0.00     0.296 HD
ENDBRANCH   9  11
ENDBRANCH   1   9
TORSDOF 4
BEGIN_RES LYS A 135
REMARK  4 active torsions:
REMARK  status: ('A' for Active; 'I' for Inactive)
REMARK    1  A    between atoms: CA   and  CB  
REMARK    2  A    between atoms: CB   and  CG  
REMARK    3  A    between atoms: CG   and  CD  
REMARK    4  A    between atoms: CD   and  CE  
ROOT
ATOM      1  CA  LYS A 135      33.193  34.663   9.290  1.00 25.02     0.186 C 
ENDROOT
BRANCH   1   2
ATOM      2  CB  LYS A 135      32.060  35.360  10.034  1.00 26.63     0.034 C 
BRANCH   2   3
ATOM      3  CG  LYS A 135      30.706  34.751   9.776  1.00 29.45     0.005 C 
BRANCH   3   4
ATOM      4  CD  LYS A 135      30.471  34.576   8.284  1.00 32.00     0.041 C 
BRANCH   4   5
ATOM      5  CE  LYS A 135      29.027  34.878   7.933  1.00 34.25     0.338 C 
ATOM      6  NZ  LYS A 135      28.929  35.595   6.632  1.00 35.99     0.618 N 
ENDBRANCH   4   5
ENDBRANCH   3   4
ENDBRANCH   2   3
ENDBRANCH   1   2
END_RES LYS A 135
BEGIN_RES TYR A 136
REMARK  2 active torsions:
REMARK  status: ('A' for Active; 'I' for Inactive)
REMARK    5  A    between atoms: CA   and  CB  
REMARK    6  A    between atoms: CB   and  CG  
ROOT
ATOM      7  CA  TYR A 136      36.583  36.399   8.994  1.00 26.14     0.191 C 
ENDROOT
BRANCH   7   8
ATOM      8  CB  TYR A 136      37.367  36.835  10.240  1.00 28.16     0.060 C 
BRANCH   8   9
ATOM      9  CG  TYR A 136      37.201  38.303  10.545  1.00 31.88    -0.020 A 
ATOM     10  CD2 TYR A 136      36.548  39.158   9.654  1.00 32.67    -0.002 A 
ATOM     11  CE2 TYR A 136      36.401  40.521   9.947  1.00 33.89     0.027 A 
ATOM     12  CZ  TYR A 136      36.912  41.033  11.142  1.00 34.34     0.131 A 
ATOM     13  OH  TYR A 136      36.772  42.378  11.455  1.00 35.14    -0.190 OA
ATOM     14  CE1 TYR A 136      37.565  40.199  12.038  1.00 35.01     0.027 A 
ATOM     15  CD1 TYR A 136      37.711  38.844  11.733  1.00 33.57    -0.002 A 
ENDBRANCH   8   9
ENDBRANCH   7   8
END_RES TYR A 136
BEGIN_RES ASN A 133
REMARK  2 active torsions:
REMARK  status: ('A' for Active; 'I' for Inactive)
REMARK    7  A    between atoms: CA   and  CB  
REMARK    8  A    between atoms: CB   and  CG  
ROOT
ATOM     16  CA  ASN A 133      31.225  30.257  11.749  1.00 18.15     0.196 C 
ENDROOT
BRANCH  16  17
ATOM     17  CB  ASN A 133      30.092  31.240  11.460  1.00 18.27     0.126 C 
BRANCH  17  18
ATOM     18  CG  ASN A 133      28.751  30.583  11.356  1.00 18.94     0.276 C 
ATOM     19  OD1 ASN A 133      28.574  29.605  10.626  1.00 18.09    -0.269 OA
ATOM     20  ND2 ASN A 133      27.779  31.121  12.093  1.00 18.93    -0.107 N 
ENDBRANCH  17  18
ENDBRANCH  16  17
END_RES ASN A 133
