REMARK VINA RESULT:    -6.277      0.000      0.000
REMARK INTER + INTRA:          -9.113
REMARK INTER:                  -5.988
REMARK INTRA:                  -3.125
REMARK UNBOUND:                -1.368
REMARK SMILES Cc1cn(COCc2ccccc2)nn1
REMARK SMILES IDX 6 1 5 2 4 3 1 4 2 5 3 6 15 7 14 8 7 9 8 10 9 11 13 12 10 13
REMARK SMILES IDX 12 14 11 15
REMARK H PARENT
REMARK Flexibility Score: inf
ROOT
ATOM      1  O   UNL     1      33.349  35.190  15.627  1.00  0.00    -0.355 OA
ENDROOT
BRANCH   1   2
ATOM      2  C   UNL     1      34.014  35.902  14.632  1.00  0.00     0.307 C 
BRANCH   2   3
ATOM      3  N   UNL     1      35.217  35.270  14.193  1.00  0.00    -0.226 N 
ATOM      4  C   UNL     1      37.270  33.251  11.987  1.00  0.00     0.070 C 
ATOM      5  C   UNL     1      36.663  34.096  13.026  1.00  0.00     0.080 A 
ATOM      6  C   UNL     1      35.359  34.518  13.092  1.00  0.00     0.137 A 
ATOM      7  N   UNL     1      37.282  34.611  14.100  1.00  0.00    -0.136 NA
ATOM      8  N   UNL     1      36.398  35.305  14.779  1.00  0.00    -0.065 NA
ENDBRANCH   2   3
ENDBRANCH   1   2
BRANCH   1   9
ATOM      9  C   UNL     1      32.376  34.417  15.008  1.00  0.00     0.198 C 
BRANCH   9  10
ATOM     10  C   UNL     1      31.681  33.532  15.992  1.00  0.00    -0.022 A 
ATOM     11  C   UNL     1      31.490  33.875  17.301  1.00  0.00     0.006 A 
ATOM     12  C   UNL     1      31.225  32.322  15.529  1.00  0.00     0.006 A 
ATOM     13  C   UNL     1      30.837  32.992  18.135  1.00  0.00     0.000 A 
ATOM     14  C   UNL     1      30.567  31.431  16.369  1.00  0.00     0.000 A 
ATOM     15  C   UNL     1      30.367  31.767  17.694  1.00  0.00     0.000 A 
ENDBRANCH   9  10
ENDBRANCH   1   9
TORSDOF 4
BEGIN_RES LYS A 135
REMARK  4 active torsions:
REMARK  status: ('A' for Active; 'I' for Inactive)
REMARK    1  A    between atoms: CA   and  CB  
REMARK    2  A    between atoms: CB   and  CG  
REMARK    3  A    between atoms: CG   and  CD  
REMARK    4  A    between atoms: CD   and  CE  
ROOT
ATOM      1  CA  LYS A 135      33.193  34.663   9.290  1.00 25.02     0.186 C 
ENDROOT
BRANCH   1   2
ATOM      2  CB  LYS A 135      32.060  35.360  10.034  1.00 26.63     0.034 C 
BRANCH   2   3
ATOM      3  CG  LYS A 135      30.712  34.724   9.811  1.00 29.45     0.005 C 
BRANCH   3   4
ATOM      4  CD  LYS A 135      30.407  34.619   8.325  1.00 32.00     0.041 C 
BRANCH   4   5
ATOM      5  CE  LYS A 135      28.910  34.554   8.091  1.00 34.25     0.338 C 
ATOM      6  NZ  LYS A 135      28.211  33.946   9.257  1.00 35.99     0.618 N 
ENDBRANCH   4   5
ENDBRANCH   3   4
ENDBRANCH   2   3
ENDBRANCH   1   2
END_RES LYS A 135
BEGIN_RES TYR A 136
REMARK  2 active torsions:
REMARK  status: ('A' for Active; 'I' for Inactive)
REMARK    5  A    between atoms: CA   and  CB  
REMARK    6  A    between atoms: CB   and  CG  
ROOT
ATOM      7  CA  TYR A 136      36.583  36.399   8.994  1.00 26.14     0.191 C 
ENDROOT
BRANCH   7   8
ATOM      8  CB  TYR A 136      37.367  36.835  10.240  1.00 28.16     0.060 C 
BRANCH   8   9
ATOM      9  CG  TYR A 136      36.783  38.064  10.893  1.00 31.88    -0.020 A 
ATOM     10  CD2 TYR A 136      36.402  38.057  12.236  1.00 32.67    -0.002 A 
ATOM     11  CE2 TYR A 136      35.858  39.203  12.833  1.00 33.89     0.027 A 
ATOM     12  CZ  TYR A 136      35.694  40.366  12.077  1.00 34.34     0.131 A 
ATOM     13  OH  TYR A 136      35.165  41.515  12.649  1.00 35.14    -0.190 OA
ATOM     14  CE1 TYR A 136      36.066  40.391  10.741  1.00 35.01     0.027 A 
ATOM     15  CD1 TYR A 136      36.600  39.241  10.156  1.00 33.57    -0.002 A 
ENDBRANCH   8   9
ENDBRANCH   7   8
END_RES TYR A 136
BEGIN_RES ASN A 133
REMARK  2 active torsions:
REMARK  status: ('A' for Active; 'I' for Inactive)
REMARK    7  A    between atoms: CA   and  CB  
REMARK    8  A    between atoms: CB   and  CG  
ROOT
ATOM     16  CA  ASN A 133      31.225  30.257  11.749  1.00 18.15     0.196 C 
ENDROOT
BRANCH  16  17
ATOM     17  CB  ASN A 133      30.092  31.240  11.460  1.00 18.27     0.126 C 
BRANCH  17  18
ATOM     18  CG  ASN A 133      28.747  30.586  11.381  1.00 18.94     0.276 C 
ATOM     19  OD1 ASN A 133      28.560  29.596  10.672  1.00 18.09    -0.269 OA
ATOM     20  ND2 ASN A 133      27.785  31.142  12.117  1.00 18.93    -0.107 N 
ENDBRANCH  17  18
ENDBRANCH  16  17
END_RES ASN A 133
