REMARK VINA RESULT:    -5.463      4.246      7.623
REMARK INTER + INTRA:          -7.544
REMARK INTER:                  -6.102
REMARK INTRA:                  -1.442
REMARK UNBOUND:                -1.442
REMARK SMILES Cc1cn(Cc2ccccc2Br)nn1
REMARK SMILES IDX 5 1 4 2 1 3 2 4 3 5 14 6 13 7 6 8 7 9 11 10 8 11 10 12 12 13
REMARK SMILES IDX 9 14
REMARK H PARENT
REMARK Flexibility Score: inf
ROOT
ATOM      1  C   UNL     1      26.391  34.806   8.378  1.00  0.00     0.182 C 
ENDROOT
BRANCH   1   2
ATOM      2  N   UNL     1      25.890  35.812   9.289  1.00  0.00    -0.248 N 
ATOM      3  C   UNL     1      23.858  36.935  12.140  1.00  0.00     0.070 C 
ATOM      4  C   UNL     1      24.765  36.742  10.956  1.00  0.00     0.080 A 
ATOM      5  C   UNL     1      25.020  35.568  10.298  1.00  0.00     0.134 A 
ATOM      6  N   UNL     1      25.503  37.696  10.318  1.00  0.00    -0.136 NA
ATOM      7  N   UNL     1      26.144  37.080   9.344  1.00  0.00    -0.067 NA
ENDBRANCH   1   2
BRANCH   1   8
ATOM      8  C   UNL     1      27.847  34.588   8.492  1.00  0.00    -0.012 A 
ATOM      9  C   UNL     1      28.317  33.826   9.533  1.00  0.00     0.007 A 
ATOM     10  C   UNL     1      28.716  35.156   7.556  1.00  0.00     0.023 A 
ATOM     11  C   UNL     1      29.670  33.613   9.663  1.00  0.00     0.000 A 
ATOM     12  C   UNL     1      30.069  34.938   7.693  1.00  0.00     0.016 A 
ATOM     13  Br  UNL     1      27.956  36.193   6.155  1.00  0.00    -0.050 Br
ATOM     14  C   UNL     1      30.516  34.180   8.731  1.00  0.00     0.001 A 
ENDBRANCH   1   8
TORSDOF 2
BEGIN_RES LYS A 135
REMARK  4 active torsions:
REMARK  status: ('A' for Active; 'I' for Inactive)
REMARK    1  A    between atoms: CA   and  CB  
REMARK    2  A    between atoms: CB   and  CG  
REMARK    3  A    between atoms: CG   and  CD  
REMARK    4  A    between atoms: CD   and  CE  
ROOT
ATOM      1  CA  LYS A 135      33.193  34.663   9.290  1.00 25.02     0.186 C 
ENDROOT
BRANCH   1   2
ATOM      2  CB  LYS A 135      32.060  35.360  10.034  1.00 26.63     0.034 C 
BRANCH   2   3
ATOM      3  CG  LYS A 135      32.388  35.677  11.470  1.00 29.45     0.005 C 
BRANCH   3   4
ATOM      4  CD  LYS A 135      31.170  36.241  12.187  1.00 32.00     0.041 C 
BRANCH   4   5
ATOM      5  CE  LYS A 135      30.310  37.039  11.226  1.00 34.25     0.338 C 
ATOM      6  NZ  LYS A 135      28.862  36.790  11.470  1.00 35.99     0.618 N 
ENDBRANCH   4   5
ENDBRANCH   3   4
ENDBRANCH   2   3
ENDBRANCH   1   2
END_RES LYS A 135
BEGIN_RES TYR A 136
REMARK  2 active torsions:
REMARK  status: ('A' for Active; 'I' for Inactive)
REMARK    5  A    between atoms: CA   and  CB  
REMARK    6  A    between atoms: CB   and  CG  
ROOT
ATOM      7  CA  TYR A 136      36.583  36.399   8.994  1.00 26.14     0.191 C 
ENDROOT
BRANCH   7   8
ATOM      8  CB  TYR A 136      37.367  36.835  10.240  1.00 28.16     0.060 C 
BRANCH   8   9
ATOM      9  CG  TYR A 136      37.253  38.315  10.509  1.00 31.88    -0.020 A 
ATOM     10  CD2 TYR A 136      38.319  39.036  11.051  1.00 32.67    -0.002 A 
ATOM     11  CE2 TYR A 136      38.202  40.411  11.298  1.00 33.89     0.027 A 
ATOM     12  CZ  TYR A 136      37.007  41.070  11.001  1.00 34.34     0.131 A 
ATOM     13  OH  TYR A 136      36.871  42.432  11.231  1.00 35.14    -0.190 OA
ATOM     14  CE1 TYR A 136      35.937  40.369  10.463  1.00 35.01     0.027 A 
ATOM     15  CD1 TYR A 136      36.063  38.999  10.227  1.00 33.57    -0.002 A 
ENDBRANCH   8   9
ENDBRANCH   7   8
END_RES TYR A 136
BEGIN_RES ASN A 133
REMARK  2 active torsions:
REMARK  status: ('A' for Active; 'I' for Inactive)
REMARK    7  A    between atoms: CA   and  CB  
REMARK    8  A    between atoms: CB   and  CG  
ROOT
ATOM     16  CA  ASN A 133      31.225  30.257  11.749  1.00 18.15     0.196 C 
ENDROOT
BRANCH  16  17
ATOM     17  CB  ASN A 133      30.092  31.240  11.460  1.00 18.27     0.126 C 
BRANCH  17  18
ATOM     18  CG  ASN A 133      28.754  30.580  11.333  1.00 18.94     0.276 C 
ATOM     19  OD1 ASN A 133      28.580  29.632  10.565  1.00 18.09    -0.269 OA
ATOM     20  ND2 ASN A 133      27.782  31.082  12.094  1.00 18.93    -0.107 N 
ENDBRANCH  17  18
ENDBRANCH  16  17
END_RES ASN A 133
