REMARK VINA RESULT:    -8.926      1.363      2.592
REMARK INTER + INTRA:          -6.188
REMARK INTER:                  -4.299
REMARK INTRA:                  -1.889
REMARK UNBOUND:                 6.391
REMARK SMILES Cc1cn(C2CC(O)C=C[C@@H](O)C2)nn1
REMARK SMILES IDX 7 1 6 2 5 3 4 5 1 6 2 7 3 8 15 9 14 10 8 11 9 13 10 14 11 15
REMARK SMILES IDX 12 16 13 18
REMARK H PARENT 8 12 12 17
REMARK Flexibility Score: 80.00
ROOT
ATOM      1  C   UNL     1      39.332  34.634  15.352  1.00  0.00     0.139 C 
ENDROOT
BRANCH   1   2
ATOM      2  C   UNL     1      39.929  35.122  14.150  1.00  0.00     0.063 C 
BRANCH   2   3
ATOM      3  C   UNL     1      40.189  35.601  12.847  1.00  0.00     0.115 CG0
ATOM      4  G   UNL     1      38.874  35.467  12.011  1.00  0.00     0.000 G0
BRANCH   3   5
ATOM      5  N   UNL     1      41.232  34.842  12.131  1.00  0.00    -0.249 N 
ATOM      6  C   UNL     1      44.005  34.511   9.730  1.00  0.00     0.070 C 
ATOM      7  C   UNL     1      42.916  34.366  10.755  1.00  0.00     0.080 A 
ATOM      8  C   UNL     1      42.071  35.367  11.219  1.00  0.00     0.134 A 
ATOM      9  N   UNL     1      42.542  33.259  11.421  1.00  0.00    -0.136 NA
ATOM     10  N   UNL     1      41.537  33.580  12.231  1.00  0.00    -0.067 NA
ENDBRANCH   3   5
ENDBRANCH   2   3
ENDBRANCH   1   2
BRANCH   1  11
ATOM     11  O   UNL     1      39.274  35.502  16.462  1.00  0.00    -0.389 OA
ATOM     12  H   UNL     1      38.706  35.072  17.144  1.00  0.00     0.211 HD
ENDBRANCH   1  11
BRANCH   1  13
ATOM     13  C   UNL     1      37.853  34.319  15.047  1.00  0.00     0.002 C 
ATOM     14  C   UNL     1      37.431  34.218  13.771  1.00  0.00     0.002 C 
BRANCH  14  15
ATOM     15  C   UNL     1      37.996  34.322  12.438  1.00  0.00     0.139 C 
BRANCH  15  16
ATOM     16  O   UNL     1      37.055  33.978  11.427  1.00  0.00    -0.389 OA
ATOM     17  H   UNL     1      36.352  34.671  11.480  1.00  0.00     0.211 HD
ENDBRANCH  15  16
BRANCH  15  18
ATOM     18  C   UNL     1      38.865  35.460  12.002  1.00  0.00     0.063 CG0
ATOM     19  G   UNL     1      40.189  35.594  12.823  1.00  0.00     0.000 G0
ENDBRANCH  15  18
ENDBRANCH  14  15
ENDBRANCH   1  13
TORSDOF 3
BEGIN_RES LYS A 135
REMARK  4 active torsions:
REMARK  status: ('A' for Active; 'I' for Inactive)
REMARK    1  A    between atoms: CA   and  CB  
REMARK    2  A    between atoms: CB   and  CG  
REMARK    3  A    between atoms: CG   and  CD  
REMARK    4  A    between atoms: CD   and  CE  
ROOT
ATOM      1  CA  LYS A 135      33.193  34.663   9.290  1.00 25.02     0.186 C 
ENDROOT
BRANCH   1   2
ATOM      2  CB  LYS A 135      32.060  35.360  10.034  1.00 26.63     0.034 C 
BRANCH   2   3
ATOM      3  CG  LYS A 135      30.695  34.820   9.695  1.00 29.45     0.005 C 
BRANCH   3   4
ATOM      4  CD  LYS A 135      29.864  35.871   8.976  1.00 32.00     0.041 C 
BRANCH   4   5
ATOM      5  CE  LYS A 135      28.384  35.575   9.125  1.00 34.25     0.338 C 
ATOM      6  NZ  LYS A 135      28.082  34.161   8.768  1.00 35.99     0.618 N 
ENDBRANCH   4   5
ENDBRANCH   3   4
ENDBRANCH   2   3
ENDBRANCH   1   2
END_RES LYS A 135
BEGIN_RES TYR A 136
REMARK  2 active torsions:
REMARK  status: ('A' for Active; 'I' for Inactive)
REMARK    5  A    between atoms: CA   and  CB  
REMARK    6  A    between atoms: CB   and  CG  
ROOT
ATOM      7  CA  TYR A 136      36.583  36.399   8.994  1.00 26.14     0.191 C 
ENDROOT
BRANCH   7   8
ATOM      8  CB  TYR A 136      37.367  36.835  10.240  1.00 28.16     0.060 C 
BRANCH   8   9
ATOM      9  CG  TYR A 136      37.009  38.229  10.692  1.00 31.88    -0.020 A 
ATOM     10  CD2 TYR A 136      36.296  38.446  11.873  1.00 32.67    -0.002 A 
ATOM     11  CE2 TYR A 136      35.967  39.745  12.283  1.00 33.89     0.027 A 
ATOM     12  CZ  TYR A 136      36.356  40.838  11.504  1.00 34.34     0.131 A 
ATOM     13  OH  TYR A 136      36.047  42.134  11.894  1.00 35.14    -0.190 OA
ATOM     14  CE1 TYR A 136      37.064  40.641  10.327  1.00 35.01     0.027 A 
ATOM     15  CD1 TYR A 136      37.380  39.342   9.926  1.00 33.57    -0.002 A 
ENDBRANCH   8   9
ENDBRANCH   7   8
END_RES TYR A 136
BEGIN_RES ASN A 133
REMARK  2 active torsions:
REMARK  status: ('A' for Active; 'I' for Inactive)
REMARK    7  A    between atoms: CA   and  CB  
REMARK    8  A    between atoms: CB   and  CG  
ROOT
ATOM     16  CA  ASN A 133      31.225  30.257  11.749  1.00 18.15     0.196 C 
ENDROOT
BRANCH  16  17
ATOM     17  CB  ASN A 133      30.092  31.240  11.460  1.00 18.27     0.126 C 
BRANCH  17  18
ATOM     18  CG  ASN A 133      28.757  30.578  11.313  1.00 18.94     0.276 C 
ATOM     19  OD1 ASN A 133      28.602  29.614  10.561  1.00 18.09    -0.269 OA
ATOM     20  ND2 ASN A 133      27.766  31.096  12.038  1.00 18.93    -0.107 N 
ENDBRANCH  17  18
ENDBRANCH  16  17
END_RES ASN A 133
