REMARK VINA RESULT:    -5.091      9.018     14.280
REMARK INTER + INTRA:          -9.562
REMARK INTER:                  -6.178
REMARK INTRA:                  -3.383
REMARK UNBOUND:                -3.429
REMARK SMILES Cc1cn(-c2cccc(C=CC(=O)O)c2)nn1
REMARK SMILES IDX 10 1 11 2 9 3 5 4 15 5 6 6 7 7 8 8 4 9 1 10 2 11 3 12 17 13
REMARK SMILES IDX 16 14 12 15 13 16 14 17
REMARK H PARENT 14 18
REMARK Flexibility Score: inf
ROOT
ATOM      1  C   UNL     1      21.894  29.574  -1.125  1.00  0.00     0.015 C 
ATOM      2  C   UNL     1      22.328  29.009  -0.086  1.00  0.00     0.094 C 
ENDROOT
BRANCH   1   3
ATOM      3  C   UNL     1      22.229  30.774  -1.823  1.00  0.00    -0.023 A 
ATOM      4  C   UNL     1      22.537  33.159  -2.065  1.00  0.00     0.067 A 
ATOM      5  C   UNL     1      22.286  32.025  -1.283  1.00  0.00     0.036 A 
ATOM      6  C   UNL     1      22.732  32.993  -3.414  1.00  0.00     0.028 A 
ATOM      7  C   UNL     1      22.682  31.737  -3.979  1.00  0.00     0.003 A 
ATOM      8  C   UNL     1      22.437  30.638  -3.213  1.00  0.00     0.008 A 
BRANCH   4   9
ATOM      9  N   UNL     1      22.584  34.446  -1.462  1.00  0.00    -0.220 N 
ATOM     10  C   UNL     1      23.651  37.962  -1.135  1.00  0.00     0.070 C 
ATOM     11  C   UNL     1      23.082  36.587  -1.050  1.00  0.00     0.080 A 
ATOM     12  C   UNL     1      23.291  35.519  -1.899  1.00  0.00     0.140 A 
ATOM     13  N   UNL     1      22.237  36.114  -0.107  1.00  0.00    -0.135 NA
ATOM     14  N   UNL     1      21.949  34.846  -0.361  1.00  0.00    -0.062 NA
ENDBRANCH   4   9
ENDBRANCH   1   3
BRANCH   2  15
ATOM     15  C   UNL     1      23.323  29.259   0.890  1.00  0.00     0.328 C 
ATOM     16  O   UNL     1      23.427  30.228   1.669  1.00  0.00    -0.247 OA
BRANCH  15  17
ATOM     17  O   UNL     1      24.384  28.296   1.046  1.00  0.00    -0.478 OA
ATOM     18  H   UNL     1      24.979  28.438   1.863  1.00  0.00     0.297 HD
ENDBRANCH  15  17
ENDBRANCH   2  15
TORSDOF 4
BEGIN_RES LYS A 135
REMARK  4 active torsions:
REMARK  status: ('A' for Active; 'I' for Inactive)
REMARK    1  A    between atoms: CA   and  CB  
REMARK    2  A    between atoms: CB   and  CG  
REMARK    3  A    between atoms: CG   and  CD  
REMARK    4  A    between atoms: CD   and  CE  
ROOT
ATOM      1  CA  LYS A 135      33.193  34.663   9.290  1.00 25.02     0.186 C 
ENDROOT
BRANCH   1   2
ATOM      2  CB  LYS A 135      32.060  35.360  10.034  1.00 26.63     0.034 C 
BRANCH   2   3
ATOM      3  CG  LYS A 135      30.858  35.646   9.171  1.00 29.45     0.005 C 
BRANCH   3   4
ATOM      4  CD  LYS A 135      30.205  34.350   8.714  1.00 32.00     0.041 C 
BRANCH   4   5
ATOM      5  CE  LYS A 135      28.833  34.623   8.129  1.00 34.25     0.338 C 
ATOM      6  NZ  LYS A 135      28.928  35.479   6.914  1.00 35.99     0.618 N 
ENDBRANCH   4   5
ENDBRANCH   3   4
ENDBRANCH   2   3
ENDBRANCH   1   2
END_RES LYS A 135
BEGIN_RES TYR A 136
REMARK  2 active torsions:
REMARK  status: ('A' for Active; 'I' for Inactive)
REMARK    5  A    between atoms: CA   and  CB  
REMARK    6  A    between atoms: CB   and  CG  
ROOT
ATOM      7  CA  TYR A 136      36.583  36.399   8.994  1.00 26.14     0.191 C 
ENDROOT
BRANCH   7   8
ATOM      8  CB  TYR A 136      37.367  36.835  10.240  1.00 28.16     0.060 C 
BRANCH   8   9
ATOM      9  CG  TYR A 136      37.139  38.285  10.591  1.00 31.88    -0.020 A 
ATOM     10  CD2 TYR A 136      37.617  38.822  11.788  1.00 32.67    -0.002 A 
ATOM     11  CE2 TYR A 136      37.398  40.170  12.106  1.00 33.89     0.027 A 
ATOM     12  CZ  TYR A 136      36.693  40.986  11.218  1.00 34.34     0.131 A 
ATOM     13  OH  TYR A 136      36.471  42.325  11.509  1.00 35.14    -0.190 OA
ATOM     14  CE1 TYR A 136      36.210  40.468  10.025  1.00 35.01     0.027 A 
ATOM     15  CD1 TYR A 136      36.429  39.123   9.723  1.00 33.57    -0.002 A 
ENDBRANCH   8   9
ENDBRANCH   7   8
END_RES TYR A 136
BEGIN_RES ASN A 133
REMARK  2 active torsions:
REMARK  status: ('A' for Active; 'I' for Inactive)
REMARK    7  A    between atoms: CA   and  CB  
REMARK    8  A    between atoms: CB   and  CG  
ROOT
ATOM     16  CA  ASN A 133      31.225  30.257  11.749  1.00 18.15     0.196 C 
ENDROOT
BRANCH  16  17
ATOM     17  CB  ASN A 133      30.092  31.240  11.460  1.00 18.27     0.126 C 
BRANCH  17  18
ATOM     18  CG  ASN A 133      28.753  30.581  11.342  1.00 18.94     0.276 C 
ATOM     19  OD1 ASN A 133      28.583  29.609  10.604  1.00 18.09    -0.269 OA
ATOM     20  ND2 ASN A 133      27.775  31.112  12.076  1.00 18.93    -0.107 N 
ENDBRANCH  17  18
ENDBRANCH  16  17
END_RES ASN A 133
