REMARK VINA RESULT:    -4.128      2.011      2.761
REMARK INTER + INTRA:          -9.122
REMARK INTER:                  -5.886
REMARK INTRA:                  -3.236
REMARK UNBOUND:                -3.788
REMARK SMILES Cc1cn(CCNC(=O)NCc2ccco2)nn1
REMARK SMILES IDX 7 1 8 2 9 3 10 4 6 7 5 8 4 9 1 10 2 11 3 12 18 13 17 14
REMARK SMILES IDX 11 15 12 16 13 17 16 18 14 19 15 20
REMARK H PARENT 7 5 10 6
REMARK Flexibility Score: inf
ROOT
ATOM      1  N   UNL     1      31.237  32.231  15.046  1.00  0.00    -0.336 N 
ATOM      2  C   UNL     1      32.014  33.395  15.301  1.00  0.00     0.315 C 
ATOM      3  O   UNL     1      31.978  33.882  16.442  1.00  0.00    -0.249 OA
ATOM      4  N   UNL     1      32.817  33.995  14.277  1.00  0.00    -0.331 N 
ATOM      5  H   UNL     1      31.282  31.837  14.083  1.00  0.00     0.165 HD
ATOM      6  H   UNL     1      32.807  33.540  13.339  1.00  0.00     0.165 HD
ENDROOT
BRANCH   1   7
ATOM      7  C   UNL     1      30.427  31.605  16.041  1.00  0.00     0.141 C 
BRANCH   7   8
ATOM      8  C   UNL     1      29.033  31.269  15.576  1.00  0.00     0.167 C 
BRANCH   8   9
ATOM      9  N   UNL     1      28.425  30.443  16.600  1.00  0.00    -0.251 N 
ATOM     10  C   UNL     1      27.670  29.210  19.921  1.00  0.00     0.070 C 
ATOM     11  C   UNL     1      27.803  29.514  18.490  1.00  0.00     0.080 A 
ATOM     12  C   UNL     1      28.586  30.499  17.935  1.00  0.00     0.134 A 
ATOM     13  N   UNL     1      27.184  28.881  17.488  1.00  0.00    -0.136 NA
ATOM     14  N   UNL     1      27.576  29.458  16.371  1.00  0.00    -0.067 NA
ENDBRANCH   8   9
ENDBRANCH   7   8
ENDBRANCH   1   7
BRANCH   4  15
ATOM     15  C   UNL     1      33.586  35.173  14.583  1.00  0.00     0.193 C 
BRANCH  15  16
ATOM     16  C   UNL     1      34.907  35.138  13.910  1.00  0.00     0.122 A 
ATOM     17  C   UNL     1      35.901  36.087  13.972  1.00  0.00     0.047 A 
ATOM     18  O   UNL     1      35.355  34.164  13.122  1.00  0.00    -0.467 OA
ATOM     19  C   UNL     1      36.970  35.638  13.183  1.00  0.00     0.042 A 
ATOM     20  C   UNL     1      36.544  34.432  12.691  1.00  0.00     0.195 A 
ENDBRANCH  15  16
ENDBRANCH   4  15
TORSDOF 5
BEGIN_RES LYS A 135
REMARK  4 active torsions:
REMARK  status: ('A' for Active; 'I' for Inactive)
REMARK    1  A    between atoms: CA   and  CB  
REMARK    2  A    between atoms: CB   and  CG  
REMARK    3  A    between atoms: CG   and  CD  
REMARK    4  A    between atoms: CD   and  CE  
ROOT
ATOM      1  CA  LYS A 135      33.193  34.663   9.290  1.00 25.02     0.186 C 
ENDROOT
BRANCH   1   2
ATOM      2  CB  LYS A 135      32.060  35.360  10.034  1.00 26.63     0.034 C 
BRANCH   2   3
ATOM      3  CG  LYS A 135      30.870  35.673   9.163  1.00 29.45     0.005 C 
BRANCH   3   4
ATOM      4  CD  LYS A 135      30.326  34.406   8.522  1.00 32.00     0.041 C 
BRANCH   4   5
ATOM      5  CE  LYS A 135      29.094  33.922   9.262  1.00 34.25     0.338 C 
ATOM      6  NZ  LYS A 135      27.849  34.431   8.622  1.00 35.99     0.618 N 
ENDBRANCH   4   5
ENDBRANCH   3   4
ENDBRANCH   2   3
ENDBRANCH   1   2
END_RES LYS A 135
BEGIN_RES TYR A 136
REMARK  2 active torsions:
REMARK  status: ('A' for Active; 'I' for Inactive)
REMARK    5  A    between atoms: CA   and  CB  
REMARK    6  A    between atoms: CB   and  CG  
ROOT
ATOM      7  CA  TYR A 136      36.583  36.399   8.994  1.00 26.14     0.191 C 
ENDROOT
BRANCH   7   8
ATOM      8  CB  TYR A 136      37.367  36.835  10.240  1.00 28.16     0.060 C 
BRANCH   8   9
ATOM      9  CG  TYR A 136      37.219  38.308  10.532  1.00 31.88    -0.020 A 
ATOM     10  CD2 TYR A 136      36.308  39.097   9.828  1.00 32.67    -0.002 A 
ATOM     11  CE2 TYR A 136      36.180  40.465  10.106  1.00 33.89     0.027 A 
ATOM     12  CZ  TYR A 136      36.971  41.048  11.098  1.00 34.34     0.131 A 
ATOM     13  OH  TYR A 136      36.856  42.399  11.396  1.00 35.14    -0.190 OA
ATOM     14  CE1 TYR A 136      37.882  40.279  11.808  1.00 35.01     0.027 A 
ATOM     15  CD1 TYR A 136      38.006  38.920  11.517  1.00 33.57    -0.002 A 
ENDBRANCH   8   9
ENDBRANCH   7   8
END_RES TYR A 136
BEGIN_RES ASN A 133
REMARK  2 active torsions:
REMARK  status: ('A' for Active; 'I' for Inactive)
REMARK    7  A    between atoms: CA   and  CB  
REMARK    8  A    between atoms: CB   and  CG  
ROOT
ATOM     16  CA  ASN A 133      31.225  30.257  11.749  1.00 18.15     0.196 C 
ENDROOT
BRANCH  16  17
ATOM     17  CB  ASN A 133      30.092  31.240  11.460  1.00 18.27     0.126 C 
BRANCH  17  18
ATOM     18  CG  ASN A 133      28.747  30.587  11.384  1.00 18.94     0.276 C 
ATOM     19  OD1 ASN A 133      28.560  29.589  10.685  1.00 18.09    -0.269 OA
ATOM     20  ND2 ASN A 133      27.783  31.151  12.112  1.00 18.93    -0.107 N 
ENDBRANCH  17  18
ENDBRANCH  16  17
END_RES ASN A 133
