REMARK VINA RESULT:    -4.223      9.018     14.211
REMARK INTER + INTRA:          -8.319
REMARK INTER:                  -4.790
REMARK INTRA:                  -3.529
REMARK UNBOUND:                -3.355
REMARK SMILES Cc1cn(CC(=O)Nc2ncccn2)nn1
REMARK SMILES IDX 6 1 7 2 8 3 5 5 4 6 1 7 2 8 3 9 16 10 15 11 9 12 10 13 14 14
REMARK SMILES IDX 11 15 13 16 12 17
REMARK H PARENT 8 4
REMARK Flexibility Score: inf
ROOT
ATOM      1  C   UNL     1      23.026  35.442  -0.332  1.00  0.00     0.248 C 
ATOM      2  O   UNL     1      22.432  36.543  -0.218  1.00  0.00    -0.272 OA
ATOM      3  N   UNL     1      23.935  35.313  -1.435  1.00  0.00    -0.293 N 
ATOM      4  H   UNL     1      24.436  34.409  -1.549  1.00  0.00     0.173 HD
ENDROOT
BRANCH   1   5
ATOM      5  C   UNL     1      22.854  34.305   0.571  1.00  0.00     0.246 C 
BRANCH   5   6
ATOM      6  N   UNL     1      22.574  33.082  -0.156  1.00  0.00    -0.243 N 
ATOM      7  C   UNL     1      22.258  29.445  -0.596  1.00  0.00     0.070 C 
ATOM      8  C   UNL     1      22.308  30.937  -0.682  1.00  0.00     0.080 A 
ATOM      9  C   UNL     1      22.653  31.831   0.318  1.00  0.00     0.134 A 
ATOM     10  N   UNL     1      22.024  31.709  -1.754  1.00  0.00    -0.136 NA
ATOM     11  N   UNL     1      22.189  32.965  -1.418  1.00  0.00    -0.067 NA
ENDBRANCH   5   6
ENDBRANCH   1   5
BRANCH   3  12
ATOM     12  C   UNL     1      24.160  36.360  -2.354  1.00  0.00     0.229 A 
ATOM     13  N   UNL     1      23.368  36.553  -3.417  1.00  0.00    -0.221 NA
ATOM     14  N   UNL     1      25.193  37.188  -2.162  1.00  0.00    -0.221 NA
ATOM     15  C   UNL     1      23.567  37.547  -4.306  1.00  0.00     0.117 A 
ATOM     16  C   UNL     1      25.469  38.211  -2.997  1.00  0.00     0.117 A 
ATOM     17  C   UNL     1      24.650  38.394  -4.081  1.00  0.00     0.040 A 
ENDBRANCH   3  12
TORSDOF 3
BEGIN_RES LYS A 135
REMARK  4 active torsions:
REMARK  status: ('A' for Active; 'I' for Inactive)
REMARK    1  A    between atoms: CA   and  CB  
REMARK    2  A    between atoms: CB   and  CG  
REMARK    3  A    between atoms: CG   and  CD  
REMARK    4  A    between atoms: CD   and  CE  
ROOT
ATOM      1  CA  LYS A 135      33.193  34.663   9.290  1.00 25.02     0.186 C 
ENDROOT
BRANCH   1   2
ATOM      2  CB  LYS A 135      32.060  35.360  10.034  1.00 26.63     0.034 C 
BRANCH   2   3
ATOM      3  CG  LYS A 135      30.704  34.759   9.767  1.00 29.45     0.005 C 
BRANCH   3   4
ATOM      4  CD  LYS A 135      30.457  34.635   8.271  1.00 32.00     0.041 C 
BRANCH   4   5
ATOM      5  CE  LYS A 135      29.022  34.995   7.937  1.00 34.25     0.338 C 
ATOM      6  NZ  LYS A 135      28.909  35.513   6.545  1.00 35.99     0.618 N 
ENDBRANCH   4   5
ENDBRANCH   3   4
ENDBRANCH   2   3
ENDBRANCH   1   2
END_RES LYS A 135
BEGIN_RES TYR A 136
REMARK  2 active torsions:
REMARK  status: ('A' for Active; 'I' for Inactive)
REMARK    5  A    between atoms: CA   and  CB  
REMARK    6  A    between atoms: CB   and  CG  
ROOT
ATOM      7  CA  TYR A 136      36.583  36.399   8.994  1.00 26.14     0.191 C 
ENDROOT
BRANCH   7   8
ATOM      8  CB  TYR A 136      37.367  36.835  10.240  1.00 28.16     0.060 C 
BRANCH   8   9
ATOM      9  CG  TYR A 136      37.223  38.309  10.530  1.00 31.88    -0.020 A 
ATOM     10  CD2 TYR A 136      36.126  38.803  11.238  1.00 32.67    -0.002 A 
ATOM     11  CE2 TYR A 136      36.001  40.174  11.501  1.00 33.89     0.027 A 
ATOM     12  CZ  TYR A 136      36.983  41.059  11.049  1.00 34.34     0.131 A 
ATOM     13  OH  TYR A 136      36.883  42.420  11.304  1.00 35.14    -0.190 OA
ATOM     14  CE1 TYR A 136      38.079  40.586  10.343  1.00 35.01     0.027 A 
ATOM     15  CD1 TYR A 136      38.189  39.219  10.082  1.00 33.57    -0.002 A 
ENDBRANCH   8   9
ENDBRANCH   7   8
END_RES TYR A 136
BEGIN_RES ASN A 133
REMARK  2 active torsions:
REMARK  status: ('A' for Active; 'I' for Inactive)
REMARK    7  A    between atoms: CA   and  CB  
REMARK    8  A    between atoms: CB   and  CG  
ROOT
ATOM     16  CA  ASN A 133      31.225  30.257  11.749  1.00 18.15     0.196 C 
ENDROOT
BRANCH  16  17
ATOM     17  CB  ASN A 133      30.092  31.240  11.460  1.00 18.27     0.126 C 
BRANCH  17  18
ATOM     18  CG  ASN A 133      28.756  30.578  11.319  1.00 18.94     0.276 C 
ATOM     19  OD1 ASN A 133      28.596  29.617  10.564  1.00 18.09    -0.269 OA
ATOM     20  ND2 ASN A 133      27.770  31.094  12.053  1.00 18.93    -0.107 N 
ENDBRANCH  17  18
ENDBRANCH  16  17
END_RES ASN A 133
