REMARK VINA RESULT:    -3.821      7.776     13.745
REMARK INTER + INTRA:          -7.094
REMARK INTER:                  -4.002
REMARK INTRA:                  -3.092
REMARK UNBOUND:                -3.050
REMARK SMILES Cc1cn(-c2cccnc2)nn1
REMARK SMILES IDX 1 1 2 2 3 3 4 4 11 5 12 6 5 7 6 8 10 9 7 10 9 11 8 12
REMARK H PARENT
REMARK Flexibility Score: inf
ROOT
ATOM      1  C   UNL     1      34.227  39.198  14.589  1.00  0.00     0.070 C 
ATOM      2  C   UNL     1      34.541  37.915  13.906  1.00  0.00     0.080 A 
ATOM      3  C   UNL     1      35.715  37.196  13.985  1.00  0.00     0.140 A 
ATOM      4  N   UNL     1      35.622  36.086  13.226  1.00  0.00    -0.219 N 
ATOM      5  N   UNL     1      34.413  36.119  12.690  1.00  0.00    -0.062 NA
ATOM      6  N   UNL     1      33.751  37.194  13.076  1.00  0.00    -0.135 NA
ENDROOT
BRANCH   4   7
ATOM      7  C   UNL     1      36.635  35.103  13.060  1.00  0.00     0.085 A 
ATOM      8  C   UNL     1      36.378  33.887  12.468  1.00  0.00     0.031 A 
ATOM      9  C   UNL     1      37.912  35.374  13.502  1.00  0.00     0.139 A 
ATOM     10  C   UNL     1      37.374  32.945  12.315  1.00  0.00     0.022 A 
ATOM     11  N   UNL     1      38.901  34.444  13.353  1.00  0.00    -0.262 NA
ATOM     12  C   UNL     1      38.634  33.261  12.774  1.00  0.00     0.111 A 
ENDBRANCH   4   7
TORSDOF 1
BEGIN_RES LYS A 135
REMARK  4 active torsions:
REMARK  status: ('A' for Active; 'I' for Inactive)
REMARK    1  A    between atoms: CA   and  CB  
REMARK    2  A    between atoms: CB   and  CG  
REMARK    3  A    between atoms: CG   and  CD  
REMARK    4  A    between atoms: CD   and  CE  
ROOT
ATOM      1  CA  LYS A 135      33.193  34.663   9.290  1.00 25.02     0.186 C 
ENDROOT
BRANCH   1   2
ATOM      2  CB  LYS A 135      32.060  35.360  10.034  1.00 26.63     0.034 C 
BRANCH   2   3
ATOM      3  CG  LYS A 135      30.809  35.524   9.210  1.00 29.45     0.005 C 
BRANCH   3   4
ATOM      4  CD  LYS A 135      30.142  34.177   8.973  1.00 32.00     0.041 C 
BRANCH   4   5
ATOM      5  CE  LYS A 135      28.679  34.362   8.618  1.00 34.25     0.338 C 
ATOM      6  NZ  LYS A 135      27.797  33.686   9.609  1.00 35.99     0.618 N 
ENDBRANCH   4   5
ENDBRANCH   3   4
ENDBRANCH   2   3
ENDBRANCH   1   2
END_RES LYS A 135
BEGIN_RES TYR A 136
REMARK  2 active torsions:
REMARK  status: ('A' for Active; 'I' for Inactive)
REMARK    5  A    between atoms: CA   and  CB  
REMARK    6  A    between atoms: CB   and  CG  
ROOT
ATOM      7  CA  TYR A 136      36.583  36.399   8.994  1.00 26.14     0.191 C 
ENDROOT
BRANCH   7   8
ATOM      8  CB  TYR A 136      37.367  36.835  10.240  1.00 28.16     0.060 C 
BRANCH   8   9
ATOM      9  CG  TYR A 136      36.953  38.198  10.739  1.00 31.88    -0.020 A 
ATOM     10  CD2 TYR A 136      37.794  38.954  11.558  1.00 32.67    -0.002 A 
ATOM     11  CE2 TYR A 136      37.399  40.218  12.017  1.00 33.89     0.027 A 
ATOM     12  CZ  TYR A 136      36.150  40.729  11.654  1.00 34.34     0.131 A 
ATOM     13  OH  TYR A 136      35.741  41.981  12.091  1.00 35.14    -0.190 OA
ATOM     14  CE1 TYR A 136      35.302  39.991  10.842  1.00 35.01     0.027 A 
ATOM     15  CD1 TYR A 136      35.703  38.730  10.396  1.00 33.57    -0.002 A 
ENDBRANCH   8   9
ENDBRANCH   7   8
END_RES TYR A 136
BEGIN_RES ASN A 133
REMARK  2 active torsions:
REMARK  status: ('A' for Active; 'I' for Inactive)
REMARK    7  A    between atoms: CA   and  CB  
REMARK    8  A    between atoms: CB   and  CG  
ROOT
ATOM     16  CA  ASN A 133      31.225  30.257  11.749  1.00 18.15     0.196 C 
ENDROOT
BRANCH  16  17
ATOM     17  CB  ASN A 133      30.092  31.240  11.460  1.00 18.27     0.126 C 
BRANCH  17  18
ATOM     18  CG  ASN A 133      28.755  30.579  11.329  1.00 18.94     0.276 C 
ATOM     19  OD1 ASN A 133      28.586  29.625  10.568  1.00 18.09    -0.269 OA
ATOM     20  ND2 ASN A 133      27.778  31.088  12.079  1.00 18.93    -0.107 N 
ENDBRANCH  17  18
ENDBRANCH  16  17
END_RES ASN A 133
