REMARK VINA RESULT:    -3.183      8.279     14.421
REMARK INTER + INTRA:          -6.516
REMARK INTER:                  -3.588
REMARK INTRA:                  -2.928
REMARK UNBOUND:                -3.147
REMARK SMILES Cc1cn(-c2ccncc2)nn1
REMARK SMILES IDX 1 1 2 2 3 3 4 4 11 5 12 6 5 7 6 8 10 9 7 10 9 11 8 12
REMARK H PARENT
REMARK Flexibility Score: inf
ROOT
ATOM      1  C   UNL     1      34.747  35.567  14.440  1.00  0.00     0.070 C 
ATOM      2  C   UNL     1      35.856  35.033  13.625  1.00  0.00     0.080 A 
ATOM      3  C   UNL     1      37.179  35.451  13.590  1.00  0.00     0.140 A 
ATOM      4  N   UNL     1      37.851  34.692  12.711  1.00  0.00    -0.220 N 
ATOM      5  N   UNL     1      36.982  33.828  12.214  1.00  0.00    -0.062 NA
ATOM      6  N   UNL     1      35.784  34.017  12.748  1.00  0.00    -0.135 NA
ENDROOT
BRANCH   4   7
ATOM      7  C   UNL     1      39.234  34.811  12.393  1.00  0.00     0.069 A 
ATOM      8  C   UNL     1      40.127  33.822  12.770  1.00  0.00     0.048 A 
ATOM      9  C   UNL     1      39.754  35.886  11.711  1.00  0.00     0.048 A 
ATOM     10  C   UNL     1      41.453  33.944  12.460  1.00  0.00     0.113 A 
ATOM     11  C   UNL     1      41.090  36.006  11.401  1.00  0.00     0.113 A 
ATOM     12  N   UNL     1      41.903  35.013  11.794  1.00  0.00    -0.265 NA
ENDBRANCH   4   7
TORSDOF 1
BEGIN_RES LYS A 135
REMARK  4 active torsions:
REMARK  status: ('A' for Active; 'I' for Inactive)
REMARK    1  A    between atoms: CA   and  CB  
REMARK    2  A    between atoms: CB   and  CG  
REMARK    3  A    between atoms: CG   and  CD  
REMARK    4  A    between atoms: CD   and  CE  
ROOT
ATOM      1  CA  LYS A 135      33.193  34.663   9.290  1.00 25.02     0.186 C 
ENDROOT
BRANCH   1   2
ATOM      2  CB  LYS A 135      32.060  35.360  10.034  1.00 26.63     0.034 C 
BRANCH   2   3
ATOM      3  CG  LYS A 135      30.812  35.530   9.207  1.00 29.45     0.005 C 
BRANCH   3   4
ATOM      4  CD  LYS A 135      29.976  34.260   9.229  1.00 32.00     0.041 C 
BRANCH   4   5
ATOM      5  CE  LYS A 135      28.758  34.438  10.114  1.00 34.25     0.338 C 
ATOM      6  NZ  LYS A 135      27.598  33.662   9.594  1.00 35.99     0.618 N 
ENDBRANCH   4   5
ENDBRANCH   3   4
ENDBRANCH   2   3
ENDBRANCH   1   2
END_RES LYS A 135
BEGIN_RES TYR A 136
REMARK  2 active torsions:
REMARK  status: ('A' for Active; 'I' for Inactive)
REMARK    5  A    between atoms: CA   and  CB  
REMARK    6  A    between atoms: CB   and  CG  
ROOT
ATOM      7  CA  TYR A 136      36.583  36.399   8.994  1.00 26.14     0.191 C 
ENDROOT
BRANCH   7   8
ATOM      8  CB  TYR A 136      37.367  36.835  10.240  1.00 28.16     0.060 C 
BRANCH   8   9
ATOM      9  CG  TYR A 136      37.144  38.286  10.587  1.00 31.88    -0.020 A 
ATOM     10  CD2 TYR A 136      37.439  38.779  11.860  1.00 32.67    -0.002 A 
ATOM     11  CE2 TYR A 136      37.227  40.129  12.173  1.00 33.89     0.027 A 
ATOM     12  CZ  TYR A 136      36.715  40.993  11.203  1.00 34.34     0.131 A 
ATOM     13  OH  TYR A 136      36.503  42.335  11.488  1.00 35.14    -0.190 OA
ATOM     14  CE1 TYR A 136      36.415  40.521   9.933  1.00 35.01     0.027 A 
ATOM     15  CD1 TYR A 136      36.624  39.173   9.636  1.00 33.57    -0.002 A 
ENDBRANCH   8   9
ENDBRANCH   7   8
END_RES TYR A 136
BEGIN_RES ASN A 133
REMARK  2 active torsions:
REMARK  status: ('A' for Active; 'I' for Inactive)
REMARK    7  A    between atoms: CA   and  CB  
REMARK    8  A    between atoms: CB   and  CG  
ROOT
ATOM     16  CA  ASN A 133      31.225  30.257  11.749  1.00 18.15     0.196 C 
ENDROOT
BRANCH  16  17
ATOM     17  CB  ASN A 133      30.092  31.240  11.460  1.00 18.27     0.126 C 
BRANCH  17  18
ATOM     18  CG  ASN A 133      28.754  30.580  11.331  1.00 18.94     0.276 C 
ATOM     19  OD1 ASN A 133      28.584  29.627  10.568  1.00 18.09    -0.269 OA
ATOM     20  ND2 ASN A 133      27.779  31.087  12.083  1.00 18.93    -0.107 N 
ENDBRANCH  17  18
ENDBRANCH  16  17
END_RES ASN A 133
