REMARK VINA RESULT:    -4.360      5.213      6.936
REMARK INTER + INTRA:          -7.846
REMARK INTER:                  -4.596
REMARK INTRA:                  -3.250
REMARK UNBOUND:                -2.722
REMARK SMILES Cc1cn(Cc2ccc(C#N)cc2)nn1
REMARK SMILES IDX 6 1 7 2 8 3 9 4 12 5 13 6 5 7 4 8 1 9 2 10 3 11 15 12 14 13
REMARK SMILES IDX 10 14 11 15
REMARK H PARENT
REMARK Flexibility Score: inf
ROOT
ATOM      1  C   UNL     1      30.127  31.570  17.992  1.00  0.00    -0.026 A 
ATOM      2  C   UNL     1      30.676  32.773  18.381  1.00  0.00     0.007 A 
ATOM      3  C   UNL     1      31.373  33.562  17.489  1.00  0.00     0.020 A 
ATOM      4  C   UNL     1      31.555  33.189  16.167  1.00  0.00     0.052 A 
ATOM      5  C   UNL     1      31.001  31.982  15.789  1.00  0.00     0.020 A 
ATOM      6  C   UNL     1      30.303  31.190  16.679  1.00  0.00     0.007 A 
ENDROOT
BRANCH   1   7
ATOM      7  C   UNL     1      29.369  30.711  18.957  1.00  0.00     0.181 C 
BRANCH   7   8
ATOM      8  N   UNL     1      30.173  30.459  20.155  1.00  0.00    -0.248 N 
ATOM      9  C   UNL     1      32.951  29.094  22.148  1.00  0.00     0.070 C 
ATOM     10  C   UNL     1      31.731  29.763  21.579  1.00  0.00     0.080 A 
ATOM     11  C   UNL     1      31.307  29.742  20.265  1.00  0.00     0.134 A 
ATOM     12  N   UNL     1      30.823  30.507  22.235  1.00  0.00    -0.136 NA
ATOM     13  N   UNL     1      29.908  30.907  21.361  1.00  0.00    -0.067 NA
ENDBRANCH   7   8
ENDBRANCH   1   7
BRANCH   4  14
ATOM     14  C   UNL     1      32.283  34.018  15.249  1.00  0.00     0.099 C 
ATOM     15  N   UNL     1      32.875  34.671  14.499  1.00  0.00    -0.192 NA
ENDBRANCH   4  14
TORSDOF 3
BEGIN_RES LYS A 135
REMARK  4 active torsions:
REMARK  status: ('A' for Active; 'I' for Inactive)
REMARK    1  A    between atoms: CA   and  CB  
REMARK    2  A    between atoms: CB   and  CG  
REMARK    3  A    between atoms: CG   and  CD  
REMARK    4  A    between atoms: CD   and  CE  
ROOT
ATOM      1  CA  LYS A 135      33.193  34.663   9.290  1.00 25.02     0.186 C 
ENDROOT
BRANCH   1   2
ATOM      2  CB  LYS A 135      32.060  35.360  10.034  1.00 26.63     0.034 C 
BRANCH   2   3
ATOM      3  CG  LYS A 135      30.697  34.800   9.717  1.00 29.45     0.005 C 
BRANCH   3   4
ATOM      4  CD  LYS A 135      30.593  34.443   8.243  1.00 32.00     0.041 C 
BRANCH   4   5
ATOM      5  CE  LYS A 135      29.376  35.101   7.620  1.00 34.25     0.338 C 
ATOM      6  NZ  LYS A 135      28.122  34.639   8.277  1.00 35.99     0.618 N 
ENDBRANCH   4   5
ENDBRANCH   3   4
ENDBRANCH   2   3
ENDBRANCH   1   2
END_RES LYS A 135
BEGIN_RES TYR A 136
REMARK  2 active torsions:
REMARK  status: ('A' for Active; 'I' for Inactive)
REMARK    5  A    between atoms: CA   and  CB  
REMARK    6  A    between atoms: CB   and  CG  
ROOT
ATOM      7  CA  TYR A 136      36.583  36.399   8.994  1.00 26.14     0.191 C 
ENDROOT
BRANCH   7   8
ATOM      8  CB  TYR A 136      37.367  36.835  10.240  1.00 28.16     0.060 C 
BRANCH   8   9
ATOM      9  CG  TYR A 136      37.186  38.299  10.556  1.00 31.88    -0.020 A 
ATOM     10  CD2 TYR A 136      36.271  38.722  11.523  1.00 32.67    -0.002 A 
ATOM     11  CE2 TYR A 136      36.109  40.085  11.809  1.00 33.89     0.027 A 
ATOM     12  CZ  TYR A 136      36.870  41.033  11.120  1.00 34.34     0.131 A 
ATOM     13  OH  TYR A 136      36.731  42.387  11.391  1.00 35.14    -0.190 OA
ATOM     14  CE1 TYR A 136      37.782  40.631  10.155  1.00 35.01     0.027 A 
ATOM     15  CD1 TYR A 136      37.930  39.271   9.875  1.00 33.57    -0.002 A 
ENDBRANCH   8   9
ENDBRANCH   7   8
END_RES TYR A 136
BEGIN_RES ASN A 133
REMARK  2 active torsions:
REMARK  status: ('A' for Active; 'I' for Inactive)
REMARK    7  A    between atoms: CA   and  CB  
REMARK    8  A    between atoms: CB   and  CG  
ROOT
ATOM     16  CA  ASN A 133      31.225  30.257  11.749  1.00 18.15     0.196 C 
ENDROOT
BRANCH  16  17
ATOM     17  CB  ASN A 133      30.092  31.240  11.460  1.00 18.27     0.126 C 
BRANCH  17  18
ATOM     18  CG  ASN A 133      28.750  30.583  11.359  1.00 18.94     0.276 C 
ATOM     19  OD1 ASN A 133      28.572  29.605  10.631  1.00 18.09    -0.269 OA
ATOM     20  ND2 ASN A 133      27.780  31.122  12.097  1.00 18.93    -0.107 N 
ENDBRANCH  17  18
ENDBRANCH  16  17
END_RES ASN A 133
