REMARK VINA RESULT:    -4.113      0.000      0.000
REMARK INTER + INTRA:          -7.568
REMARK INTER:                  -4.288
REMARK INTRA:                  -3.280
REMARK UNBOUND:                -3.214
REMARK SMILES Cc1cn(C2CCN(C)CC2)nn1
REMARK SMILES IDX 5 1 6 2 7 3 8 4 9 5 10 6 11 7 4 8 1 9 2 10 3 11 13 12 12 13
REMARK H PARENT
REMARK Flexibility Score: inf
ROOT
ATOM      1  C   UNL     1      21.749  33.139  -0.745  1.00  0.00     0.111 C 
ATOM      2  C   UNL     1      22.650  34.136  -0.078  1.00  0.00     0.043 C 
ATOM      3  C   UNL     1      23.222  35.028  -1.181  1.00  0.00     0.086 C 
ATOM      4  N   UNL     1      22.125  35.572  -1.889  1.00  0.00    -0.306 NA
ATOM      5  C   UNL     1      22.262  36.882  -2.385  1.00  0.00     0.105 C 
ATOM      6  C   UNL     1      21.343  34.668  -2.637  1.00  0.00     0.086 C 
ATOM      7  C   UNL     1      21.753  33.242  -2.247  1.00  0.00     0.043 C 
ENDROOT
BRANCH   1   8
ATOM      8  N   UNL     1      22.195  31.816  -0.357  1.00  0.00    -0.249 N 
ATOM      9  C   UNL     1      23.649  29.392   1.880  1.00  0.00     0.070 C 
ATOM     10  C   UNL     1      23.024  30.148   0.771  1.00  0.00     0.080 A 
ATOM     11  C   UNL     1      22.750  31.493   0.809  1.00  0.00     0.134 A 
ATOM     12  N   UNL     1      22.624  29.690  -0.424  1.00  0.00    -0.136 NA
ATOM     13  N   UNL     1      22.131  30.722  -1.077  1.00  0.00    -0.067 NA
ENDBRANCH   1   8
TORSDOF 1
BEGIN_RES LYS A 135
REMARK  4 active torsions:
REMARK  status: ('A' for Active; 'I' for Inactive)
REMARK    1  A    between atoms: CA   and  CB  
REMARK    2  A    between atoms: CB   and  CG  
REMARK    3  A    between atoms: CG   and  CD  
REMARK    4  A    between atoms: CD   and  CE  
ROOT
ATOM      1  CA  LYS A 135      33.193  34.663   9.290  1.00 25.02     0.186 C 
ENDROOT
BRANCH   1   2
ATOM      2  CB  LYS A 135      32.060  35.360  10.034  1.00 26.63     0.034 C 
BRANCH   2   3
ATOM      3  CG  LYS A 135      30.809  35.523   9.210  1.00 29.45     0.005 C 
BRANCH   3   4
ATOM      4  CD  LYS A 135      30.144  34.176   8.972  1.00 32.00     0.041 C 
BRANCH   4   5
ATOM      5  CE  LYS A 135      28.680  34.359   8.620  1.00 34.25     0.338 C 
ATOM      6  NZ  LYS A 135      27.801  33.689   9.617  1.00 35.99     0.618 N 
ENDBRANCH   4   5
ENDBRANCH   3   4
ENDBRANCH   2   3
ENDBRANCH   1   2
END_RES LYS A 135
BEGIN_RES TYR A 136
REMARK  2 active torsions:
REMARK  status: ('A' for Active; 'I' for Inactive)
REMARK    5  A    between atoms: CA   and  CB  
REMARK    6  A    between atoms: CB   and  CG  
ROOT
ATOM      7  CA  TYR A 136      36.583  36.399   8.994  1.00 26.14     0.191 C 
ENDROOT
BRANCH   7   8
ATOM      8  CB  TYR A 136      37.367  36.835  10.240  1.00 28.16     0.060 C 
BRANCH   8   9
ATOM      9  CG  TYR A 136      37.203  38.304  10.544  1.00 31.88    -0.020 A 
ATOM     10  CD2 TYR A 136      37.747  38.868  11.700  1.00 32.67    -0.002 A 
ATOM     11  CE2 TYR A 136      37.588  40.234  11.974  1.00 33.89     0.027 A 
ATOM     12  CZ  TYR A 136      36.878  41.042  11.083  1.00 34.34     0.131 A 
ATOM     13  OH  TYR A 136      36.714  42.398  11.330  1.00 35.14    -0.190 OA
ATOM     14  CE1 TYR A 136      36.330  40.498   9.930  1.00 35.01     0.027 A 
ATOM     15  CD1 TYR A 136      36.490  39.135   9.671  1.00 33.57    -0.002 A 
ENDBRANCH   8   9
ENDBRANCH   7   8
END_RES TYR A 136
BEGIN_RES ASN A 133
REMARK  2 active torsions:
REMARK  status: ('A' for Active; 'I' for Inactive)
REMARK    7  A    between atoms: CA   and  CB  
REMARK    8  A    between atoms: CB   and  CG  
ROOT
ATOM     16  CA  ASN A 133      31.225  30.257  11.749  1.00 18.15     0.196 C 
ENDROOT
BRANCH  16  17
ATOM     17  CB  ASN A 133      30.092  31.240  11.460  1.00 18.27     0.126 C 
BRANCH  17  18
ATOM     18  CG  ASN A 133      28.750  30.583  11.360  1.00 18.94     0.276 C 
ATOM     19  OD1 ASN A 133      28.568  29.613  10.623  1.00 18.09    -0.269 OA
ATOM     20  ND2 ASN A 133      27.784  31.114  12.110  1.00 18.93    -0.107 N 
ENDBRANCH  17  18
ENDBRANCH  16  17
END_RES ASN A 133
