REMARK VINA RESULT:    -3.396      7.498     12.324
REMARK INTER + INTRA:          -7.118
REMARK INTER:                  -3.735
REMARK INTRA:                  -3.382
REMARK UNBOUND:                -3.226
REMARK SMILES Cc1cn(CC(=O)O)nn1
REMARK SMILES IDX 5 1 4 2 1 3 2 4 3 5 10 6 9 7 6 8 7 9 8 10
REMARK H PARENT 8 11
REMARK Flexibility Score: inf
ROOT
ATOM      1  C   UNL     1      22.175  34.007  -0.689  1.00  0.00     0.268 C 
ENDROOT
BRANCH   1   2
ATOM      2  N   UNL     1      22.848  35.219  -1.046  1.00  0.00    -0.241 N 
ATOM      3  C   UNL     1      25.096  37.513  -2.827  1.00  0.00     0.070 C 
ATOM      4  C   UNL     1      24.144  36.761  -2.000  1.00  0.00     0.080 A 
ATOM      5  C   UNL     1      23.769  35.442  -2.016  1.00  0.00     0.134 A 
ATOM      6  N   UNL     1      23.419  37.316  -0.993  1.00  0.00    -0.136 NA
ATOM      7  N   UNL     1      22.669  36.384  -0.453  1.00  0.00    -0.067 NA
ENDBRANCH   1   2
BRANCH   1   8
ATOM      8  C   UNL     1      22.777  33.432   0.551  1.00  0.00     0.325 C 
ATOM      9  O   UNL     1      22.752  32.189   0.782  1.00  0.00    -0.250 OA
BRANCH   8  10
ATOM     10  O   UNL     1      23.387  34.227   1.500  1.00  0.00    -0.480 OA
ATOM     11  H   UNL     1      24.370  34.376   1.569  1.00  0.00     0.296 HD
ENDBRANCH   8  10
ENDBRANCH   1   8
TORSDOF 3
BEGIN_RES LYS A 135
REMARK  4 active torsions:
REMARK  status: ('A' for Active; 'I' for Inactive)
REMARK    1  A    between atoms: CA   and  CB  
REMARK    2  A    between atoms: CB   and  CG  
REMARK    3  A    between atoms: CG   and  CD  
REMARK    4  A    between atoms: CD   and  CE  
ROOT
ATOM      1  CA  LYS A 135      33.193  34.663   9.290  1.00 25.02     0.186 C 
ENDROOT
BRANCH   1   2
ATOM      2  CB  LYS A 135      32.060  35.360  10.034  1.00 26.63     0.034 C 
BRANCH   2   3
ATOM      3  CG  LYS A 135      30.704  34.758   9.768  1.00 29.45     0.005 C 
BRANCH   3   4
ATOM      4  CD  LYS A 135      30.498  34.537   8.278  1.00 32.00     0.041 C 
BRANCH   4   5
ATOM      5  CE  LYS A 135      29.047  34.766   7.902  1.00 34.25     0.338 C 
ATOM      6  NZ  LYS A 135      28.935  35.627   6.692  1.00 35.99     0.618 N 
ENDBRANCH   4   5
ENDBRANCH   3   4
ENDBRANCH   2   3
ENDBRANCH   1   2
END_RES LYS A 135
BEGIN_RES TYR A 136
REMARK  2 active torsions:
REMARK  status: ('A' for Active; 'I' for Inactive)
REMARK    5  A    between atoms: CA   and  CB  
REMARK    6  A    between atoms: CB   and  CG  
ROOT
ATOM      7  CA  TYR A 136      36.583  36.399   8.994  1.00 26.14     0.191 C 
ENDROOT
BRANCH   7   8
ATOM      8  CB  TYR A 136      37.367  36.835  10.240  1.00 28.16     0.060 C 
BRANCH   8   9
ATOM      9  CG  TYR A 136      37.167  38.294  10.570  1.00 31.88    -0.020 A 
ATOM     10  CD2 TYR A 136      37.634  38.834  11.770  1.00 32.67    -0.002 A 
ATOM     11  CE2 TYR A 136      37.442  40.190  12.069  1.00 33.89     0.027 A 
ATOM     12  CZ  TYR A 136      36.775  41.013  11.158  1.00 34.34     0.131 A 
ATOM     13  OH  TYR A 136      36.579  42.360  11.429  1.00 35.14    -0.190 OA
ATOM     14  CE1 TYR A 136      36.303  40.492   9.961  1.00 35.01     0.027 A 
ATOM     15  CD1 TYR A 136      36.495  39.139   9.678  1.00 33.57    -0.002 A 
ENDBRANCH   8   9
ENDBRANCH   7   8
END_RES TYR A 136
BEGIN_RES ASN A 133
REMARK  2 active torsions:
REMARK  status: ('A' for Active; 'I' for Inactive)
REMARK    7  A    between atoms: CA   and  CB  
REMARK    8  A    between atoms: CB   and  CG  
ROOT
ATOM     16  CA  ASN A 133      31.225  30.257  11.749  1.00 18.15     0.196 C 
ENDROOT
BRANCH  16  17
ATOM     17  CB  ASN A 133      30.092  31.240  11.460  1.00 18.27     0.126 C 
BRANCH  17  18
ATOM     18  CG  ASN A 133      28.749  30.585  11.371  1.00 18.94     0.276 C 
ATOM     19  OD1 ASN A 133      28.566  29.597  10.658  1.00 18.09    -0.269 OA
ATOM     20  ND2 ASN A 133      27.781  31.137  12.103  1.00 18.93    -0.107 N 
ENDBRANCH  17  18
ENDBRANCH  16  17
END_RES ASN A 133
