REMARK VINA RESULT:    -4.858      6.074      9.392
REMARK INTER + INTRA:          -9.329
REMARK INTER:                  -5.966
REMARK INTRA:                  -3.363
REMARK UNBOUND:                -3.335
REMARK SMILES Cc1cn(-c2ccc(S(=O)(=O)Nc3nccs3)cc2)nn1
REMARK SMILES IDX 9 1 10 2 11 3 8 4 5 5 6 6 19 7 7 8 18 9 4 10 1 11 2 12 3 13
REMARK SMILES IDX 21 14 20 15 12 16 13 18 14 19 17 20 15 21 16 22
REMARK H PARENT 12 17
REMARK Flexibility Score: inf
ROOT
ATOM      1  S   UNL     1      37.710  37.757   2.620  1.00  0.00     0.263 S 
ATOM      2  O   UNL     1      37.141  37.279   1.325  1.00  0.00    -0.201 OA
ATOM      3  O   UNL     1      38.652  38.911   2.339  1.00  0.00    -0.201 OA
ENDROOT
BRANCH   1   4
ATOM      4  C   UNL     1      36.382  38.373   3.580  1.00  0.00     0.088 A 
ATOM      5  C   UNL     1      34.356  39.281   5.176  1.00  0.00     0.066 A 
ATOM      6  C   UNL     1      35.365  38.532   5.715  1.00  0.00     0.030 A 
ATOM      7  C   UNL     1      34.360  39.576   3.843  1.00  0.00     0.030 A 
ATOM      8  C   UNL     1      36.389  38.067   4.938  1.00  0.00     0.024 A 
ATOM      9  C   UNL     1      35.374  39.120   3.046  1.00  0.00     0.024 A 
BRANCH   5  10
ATOM     10  N   UNL     1      33.319  39.729   6.076  1.00  0.00    -0.220 N 
ATOM     11  C   UNL     1      31.909  40.743   9.309  1.00  0.00     0.070 C 
ATOM     12  C   UNL     1      32.245  40.374   7.911  1.00  0.00     0.080 A 
ATOM     13  C   UNL     1      33.454  39.959   7.394  1.00  0.00     0.140 A 
ATOM     14  N   UNL     1      31.408  40.377   6.859  1.00  0.00    -0.135 NA
ATOM     15  N   UNL     1      32.066  39.990   5.781  1.00  0.00    -0.062 NA
ENDBRANCH   5  10
ENDBRANCH   1   4
BRANCH   1  16
ATOM     16  N   UNL     1      38.546  36.517   3.434  1.00  0.00    -0.255 N 
ATOM     17  H   UNL     1      38.180  35.530   3.335  1.00  0.00     0.182 HD
BRANCH  16  18
ATOM     18  C   UNL     1      39.706  36.814   4.226  1.00  0.00     0.196 A 
ATOM     19  N   UNL     1      40.221  37.677   4.743  1.00  0.00    -0.228 NA
ATOM     20  S   UNL     1      40.874  35.376   4.630  1.00  0.00    -0.105 S 
ATOM     21  C   UNL     1      41.331  37.713   5.444  1.00  0.00     0.125 A 
ATOM     22  C   UNL     1      41.980  36.530   5.581  1.00  0.00     0.089 A 
ENDBRANCH  16  18
ENDBRANCH   1  16
TORSDOF 4
BEGIN_RES LYS A 135
REMARK  4 active torsions:
REMARK  status: ('A' for Active; 'I' for Inactive)
REMARK    1  A    between atoms: CA   and  CB  
REMARK    2  A    between atoms: CB   and  CG  
REMARK    3  A    between atoms: CG   and  CD  
REMARK    4  A    between atoms: CD   and  CE  
ROOT
ATOM      1  CA  LYS A 135      33.193  34.663   9.290  1.00 25.02     0.186 C 
ENDROOT
BRANCH   1   2
ATOM      2  CB  LYS A 135      32.060  35.360  10.034  1.00 26.63     0.034 C 
BRANCH   2   3
ATOM      3  CG  LYS A 135      30.699  34.788   9.732  1.00 29.45     0.005 C 
BRANCH   3   4
ATOM      4  CD  LYS A 135      30.575  34.449   8.255  1.00 32.00     0.041 C 
BRANCH   4   5
ATOM      5  CE  LYS A 135      29.402  35.185   7.636  1.00 34.25     0.338 C 
ATOM      6  NZ  LYS A 135      28.108  34.677   8.170  1.00 35.99     0.618 N 
ENDBRANCH   4   5
ENDBRANCH   3   4
ENDBRANCH   2   3
ENDBRANCH   1   2
END_RES LYS A 135
BEGIN_RES TYR A 136
REMARK  2 active torsions:
REMARK  status: ('A' for Active; 'I' for Inactive)
REMARK    5  A    between atoms: CA   and  CB  
REMARK    6  A    between atoms: CB   and  CG  
ROOT
ATOM      7  CA  TYR A 136      36.583  36.399   8.994  1.00 26.14     0.191 C 
ENDROOT
BRANCH   7   8
ATOM      8  CB  TYR A 136      37.367  36.835  10.240  1.00 28.16     0.060 C 
BRANCH   8   9
ATOM      9  CG  TYR A 136      37.196  38.302  10.549  1.00 31.88    -0.020 A 
ATOM     10  CD2 TYR A 136      37.784  38.876  11.678  1.00 32.67    -0.002 A 
ATOM     11  CE2 TYR A 136      37.618  40.240  11.957  1.00 33.89     0.027 A 
ATOM     12  CZ  TYR A 136      36.857  41.036  11.098  1.00 34.34     0.131 A 
ATOM     13  OH  TYR A 136      36.685  42.390  11.351  1.00 35.14    -0.190 OA
ATOM     14  CE1 TYR A 136      36.264  40.482   9.973  1.00 35.01     0.027 A 
ATOM     15  CD1 TYR A 136      36.431  39.121   9.709  1.00 33.57    -0.002 A 
ENDBRANCH   8   9
ENDBRANCH   7   8
END_RES TYR A 136
BEGIN_RES ASN A 133
REMARK  2 active torsions:
REMARK  status: ('A' for Active; 'I' for Inactive)
REMARK    7  A    between atoms: CA   and  CB  
REMARK    8  A    between atoms: CB   and  CG  
ROOT
ATOM     16  CA  ASN A 133      31.225  30.257  11.749  1.00 18.15     0.196 C 
ENDROOT
BRANCH  16  17
ATOM     17  CB  ASN A 133      30.092  31.240  11.460  1.00 18.27     0.126 C 
BRANCH  17  18
ATOM     18  CG  ASN A 133      28.749  30.584  11.366  1.00 18.94     0.276 C 
ATOM     19  OD1 ASN A 133      28.566  29.607  10.638  1.00 18.09    -0.269 OA
ATOM     20  ND2 ASN A 133      27.784  31.123  12.110  1.00 18.93    -0.107 N 
ENDBRANCH  17  18
ENDBRANCH  16  17
END_RES ASN A 133
