REMARK VINA RESULT:    -4.529      5.792      7.754
REMARK INTER + INTRA:          -6.789
REMARK INTER:                  -3.789
REMARK INTRA:                  -3.000
REMARK UNBOUND:                -1.996
REMARK SMILES Cc1cn(-c2ccccc2I)nn1
REMARK SMILES IDX 5 1 6 2 7 3 8 4 9 5 10 6 11 7 4 8 1 9 2 10 3 11 13 12 12 13
REMARK H PARENT
REMARK Flexibility Score: inf
ROOT
ATOM      1  C   UNL     1      36.723  38.931   4.821  1.00  0.00     0.080 A 
ATOM      2  C   UNL     1      35.362  38.758   4.955  1.00  0.00     0.029 A 
ATOM      3  C   UNL     1      34.679  39.130   6.104  1.00  0.00     0.002 A 
ATOM      4  C   UNL     1      35.374  39.696   7.168  1.00  0.00     0.001 A 
ATOM      5  C   UNL     1      36.739  39.876   7.053  1.00  0.00     0.017 A 
ATOM      6  C   UNL     1      37.393  39.498   5.900  1.00  0.00     0.039 A 
ATOM      7  I   UNL     1      39.478  39.788   5.757  1.00  0.00    -0.042 I 
ENDROOT
BRANCH   1   8
ATOM      8  N   UNL     1      37.410  38.541   3.628  1.00  0.00    -0.219 N 
ATOM      9  C   UNL     1      38.718  38.723   0.246  1.00  0.00     0.070 C 
ATOM     10  C   UNL     1      38.294  38.413   1.648  1.00  0.00     0.080 A 
ATOM     11  C   UNL     1      37.552  39.207   2.486  1.00  0.00     0.140 A 
ATOM     12  N   UNL     1      38.572  37.289   2.329  1.00  0.00    -0.135 NA
ATOM     13  N   UNL     1      38.037  37.381   3.513  1.00  0.00    -0.062 NA
ENDBRANCH   1   8
TORSDOF 1
BEGIN_RES LYS A 135
REMARK  4 active torsions:
REMARK  status: ('A' for Active; 'I' for Inactive)
REMARK    1  A    between atoms: CA   and  CB  
REMARK    2  A    between atoms: CB   and  CG  
REMARK    3  A    between atoms: CG   and  CD  
REMARK    4  A    between atoms: CD   and  CE  
ROOT
ATOM      1  CA  LYS A 135      33.193  34.663   9.290  1.00 25.02     0.186 C 
ENDROOT
BRANCH   1   2
ATOM      2  CB  LYS A 135      32.060  35.360  10.034  1.00 26.63     0.034 C 
BRANCH   2   3
ATOM      3  CG  LYS A 135      30.726  34.677   9.877  1.00 29.45     0.005 C 
BRANCH   3   4
ATOM      4  CD  LYS A 135      30.351  34.562   8.408  1.00 32.00     0.041 C 
BRANCH   4   5
ATOM      5  CE  LYS A 135      28.844  34.545   8.242  1.00 34.25     0.338 C 
ATOM      6  NZ  LYS A 135      28.188  33.836   9.376  1.00 35.99     0.618 N 
ENDBRANCH   4   5
ENDBRANCH   3   4
ENDBRANCH   2   3
ENDBRANCH   1   2
END_RES LYS A 135
BEGIN_RES TYR A 136
REMARK  2 active torsions:
REMARK  status: ('A' for Active; 'I' for Inactive)
REMARK    5  A    between atoms: CA   and  CB  
REMARK    6  A    between atoms: CB   and  CG  
ROOT
ATOM      7  CA  TYR A 136      36.583  36.399   8.994  1.00 26.14     0.191 C 
ENDROOT
BRANCH   7   8
ATOM      8  CB  TYR A 136      37.367  36.835  10.240  1.00 28.16     0.060 C 
BRANCH   8   9
ATOM      9  CG  TYR A 136      37.400  38.334  10.410  1.00 31.88    -0.020 A 
ATOM     10  CD2 TYR A 136      36.256  39.045  10.778  1.00 32.67    -0.002 A 
ATOM     11  CE2 TYR A 136      36.297  40.438  10.932  1.00 33.89     0.027 A 
ATOM     12  CZ  TYR A 136      37.494  41.125  10.713  1.00 34.34     0.131 A 
ATOM     13  OH  TYR A 136      37.560  42.503  10.866  1.00 35.14    -0.190 OA
ATOM     14  CE1 TYR A 136      38.640  40.434  10.345  1.00 35.01     0.027 A 
ATOM     15  CD1 TYR A 136      38.585  39.048  10.189  1.00 33.57    -0.002 A 
ENDBRANCH   8   9
ENDBRANCH   7   8
END_RES TYR A 136
BEGIN_RES ASN A 133
REMARK  2 active torsions:
REMARK  status: ('A' for Active; 'I' for Inactive)
REMARK    7  A    between atoms: CA   and  CB  
REMARK    8  A    between atoms: CB   and  CG  
ROOT
ATOM     16  CA  ASN A 133      31.225  30.257  11.749  1.00 18.15     0.196 C 
ENDROOT
BRANCH  16  17
ATOM     17  CB  ASN A 133      30.092  31.240  11.460  1.00 18.27     0.126 C 
BRANCH  17  18
ATOM     18  CG  ASN A 133      28.757  30.578  11.312  1.00 18.94     0.276 C 
ATOM     19  OD1 ASN A 133      28.604  29.611  10.563  1.00 18.09    -0.269 OA
ATOM     20  ND2 ASN A 133      27.765  31.099  12.032  1.00 18.93    -0.107 N 
ENDBRANCH  17  18
ENDBRANCH  16  17
END_RES ASN A 133
