REMARK VINA RESULT:    -3.513      1.765      2.243
REMARK INTER + INTRA:          -7.561
REMARK INTER:                  -4.339
REMARK INTRA:                  -3.222
REMARK UNBOUND:                -3.227
REMARK SMILES CCOC(=O)Cn1cc(C)nn1
REMARK SMILES IDX 4 1 5 2 6 3 7 4 10 5 9 6 8 7 11 8 12 9 3 10 2 11 1 12
REMARK H PARENT
REMARK Flexibility Score: inf
ROOT
ATOM      1  C   UNL     1      22.595  31.021  -3.530  1.00  0.00     0.327 C 
ATOM      2  O   UNL     1      23.776  30.552  -3.565  1.00  0.00    -0.250 OA
ENDROOT
BRANCH   1   3
ATOM      3  C   UNL     1      21.665  30.462  -2.532  1.00  0.00     0.268 C 
BRANCH   3   4
ATOM      4  N   UNL     1      22.182  30.552  -1.192  1.00  0.00    -0.241 N 
ATOM      5  C   UNL     1      23.608  29.444   1.972  1.00  0.00     0.070 C 
ATOM      6  C   UNL     1      23.024  30.113   0.781  1.00  0.00     0.080 A 
ATOM      7  C   UNL     1      22.658  29.580  -0.424  1.00  0.00     0.134 A 
ATOM      8  N   UNL     1      22.755  31.446   0.721  1.00  0.00    -0.136 NA
ATOM      9  N   UNL     1      22.256  31.663  -0.471  1.00  0.00    -0.067 NA
ENDBRANCH   3   4
ENDBRANCH   1   3
BRANCH   1  10
ATOM     10  O   UNL     1      22.316  32.009  -4.439  1.00  0.00    -0.465 OA
BRANCH  10  11
ATOM     11  C   UNL     1      21.885  33.306  -4.022  1.00  0.00     0.229 C 
ATOM     12  C   UNL     1      22.894  33.982  -3.162  1.00  0.00     0.049 C 
ENDBRANCH  10  11
ENDBRANCH   1  10
TORSDOF 4
BEGIN_RES LYS A 135
REMARK  4 active torsions:
REMARK  status: ('A' for Active; 'I' for Inactive)
REMARK    1  A    between atoms: CA   and  CB  
REMARK    2  A    between atoms: CB   and  CG  
REMARK    3  A    between atoms: CG   and  CD  
REMARK    4  A    between atoms: CD   and  CE  
ROOT
ATOM      1  CA  LYS A 135      33.193  34.663   9.290  1.00 25.02     0.186 C 
ENDROOT
BRANCH   1   2
ATOM      2  CB  LYS A 135      32.060  35.360  10.034  1.00 26.63     0.034 C 
BRANCH   2   3
ATOM      3  CG  LYS A 135      30.812  35.531   9.207  1.00 29.45     0.005 C 
BRANCH   3   4
ATOM      4  CD  LYS A 135      30.282  34.181   8.749  1.00 32.00     0.041 C 
BRANCH   4   5
ATOM      5  CE  LYS A 135      28.783  34.096   8.964  1.00 34.25     0.338 C 
ATOM      6  NZ  LYS A 135      28.105  35.342   8.508  1.00 35.99     0.618 N 
ENDBRANCH   4   5
ENDBRANCH   3   4
ENDBRANCH   2   3
ENDBRANCH   1   2
END_RES LYS A 135
BEGIN_RES TYR A 136
REMARK  2 active torsions:
REMARK  status: ('A' for Active; 'I' for Inactive)
REMARK    5  A    between atoms: CA   and  CB  
REMARK    6  A    between atoms: CB   and  CG  
ROOT
ATOM      7  CA  TYR A 136      36.583  36.399   8.994  1.00 26.14     0.191 C 
ENDROOT
BRANCH   7   8
ATOM      8  CB  TYR A 136      37.367  36.835  10.240  1.00 28.16     0.060 C 
BRANCH   8   9
ATOM      9  CG  TYR A 136      37.200  38.303  10.546  1.00 31.88    -0.020 A 
ATOM     10  CD2 TYR A 136      37.748  38.868  11.700  1.00 32.67    -0.002 A 
ATOM     11  CE2 TYR A 136      37.586  40.233  11.976  1.00 33.89     0.027 A 
ATOM     12  CZ  TYR A 136      36.869  41.039  11.089  1.00 34.34     0.131 A 
ATOM     13  OH  TYR A 136      36.702  42.394  11.338  1.00 35.14    -0.190 OA
ATOM     14  CE1 TYR A 136      36.317  40.495   9.938  1.00 35.01     0.027 A 
ATOM     15  CD1 TYR A 136      36.480  39.133   9.678  1.00 33.57    -0.002 A 
ENDBRANCH   8   9
ENDBRANCH   7   8
END_RES TYR A 136
BEGIN_RES ASN A 133
REMARK  2 active torsions:
REMARK  status: ('A' for Active; 'I' for Inactive)
REMARK    7  A    between atoms: CA   and  CB  
REMARK    8  A    between atoms: CB   and  CG  
ROOT
ATOM     16  CA  ASN A 133      31.225  30.257  11.749  1.00 18.15     0.196 C 
ENDROOT
BRANCH  16  17
ATOM     17  CB  ASN A 133      30.092  31.240  11.460  1.00 18.27     0.126 C 
BRANCH  17  18
ATOM     18  CG  ASN A 133      28.750  30.584  11.364  1.00 18.94     0.276 C 
ATOM     19  OD1 ASN A 133      28.568  29.604  10.638  1.00 18.09    -0.269 OA
ATOM     20  ND2 ASN A 133      27.782  31.125  12.104  1.00 18.93    -0.107 N 
ENDBRANCH  17  18
ENDBRANCH  16  17
END_RES ASN A 133
