REMARK VINA RESULT:    -4.059      8.186     14.168
REMARK INTER + INTRA:          -7.643
REMARK INTER:                  -4.446
REMARK INTRA:                  -3.196
REMARK UNBOUND:                -3.228
REMARK SMILES Cc1cn(-c2nc(C)nc(N)n2)nn1
REMARK SMILES IDX 5 1 12 2 10 3 9 4 7 5 8 6 6 7 4 8 1 9 2 10 3 11 14 12 13 13
REMARK SMILES IDX 11 14
REMARK H PARENT 11 15 11 16
REMARK Flexibility Score: inf
ROOT
ATOM      1  C   UNL     1      36.221  35.491  13.508  1.00  0.00     0.257 A 
ATOM      2  N   UNL     1      36.475  34.694  12.470  1.00  0.00    -0.175 NA
ATOM      3  C   UNL     1      37.383  33.719  12.583  1.00  0.00     0.225 A 
ATOM      4  N   UNL     1      38.036  33.547  13.746  1.00  0.00    -0.198 NA
ATOM      5  C   UNL     1      37.790  34.344  14.806  1.00  0.00     0.133 A 
ATOM      6  C   UNL     1      38.515  34.155  16.098  1.00  0.00     0.090 C 
ATOM      7  N   UNL     1      36.875  35.308  14.653  1.00  0.00    -0.196 NA
ENDROOT
BRANCH   1   8
ATOM      8  N   UNL     1      35.254  36.524  13.375  1.00  0.00    -0.185 N 
ATOM      9  C   UNL     1      33.627  39.720  14.067  1.00  0.00     0.070 C 
ATOM     10  C   UNL     1      34.088  38.396  13.608  1.00  0.00     0.080 A 
ATOM     11  C   UNL     1      35.180  37.692  14.049  1.00  0.00     0.144 A 
ATOM     12  N   UNL     1      33.515  37.638  12.671  1.00  0.00    -0.135 NA
ATOM     13  N   UNL     1      34.229  36.532  12.554  1.00  0.00    -0.059 NA
ENDBRANCH   1   8
BRANCH   3  14
ATOM     14  N   UNL     1      37.611  32.903  11.444  1.00  0.00    -0.368 N 
ATOM     15  H   UNL     1      38.380  33.131  10.780  1.00  0.00     0.159 HD
ATOM     16  H   UNL     1      37.023  32.068  11.250  1.00  0.00     0.159 HD
ENDBRANCH   3  14
TORSDOF 2
BEGIN_RES LYS A 135
REMARK  4 active torsions:
REMARK  status: ('A' for Active; 'I' for Inactive)
REMARK    1  A    between atoms: CA   and  CB  
REMARK    2  A    between atoms: CB   and  CG  
REMARK    3  A    between atoms: CG   and  CD  
REMARK    4  A    between atoms: CD   and  CE  
ROOT
ATOM      1  CA  LYS A 135      33.193  34.663   9.290  1.00 25.02     0.186 C 
ENDROOT
BRANCH   1   2
ATOM      2  CB  LYS A 135      32.060  35.360  10.034  1.00 26.63     0.034 C 
BRANCH   2   3
ATOM      3  CG  LYS A 135      30.804  35.509   9.215  1.00 29.45     0.005 C 
BRANCH   3   4
ATOM      4  CD  LYS A 135      30.125  34.162   9.023  1.00 32.00     0.041 C 
BRANCH   4   5
ATOM      5  CE  LYS A 135      28.665  34.349   8.656  1.00 34.25     0.338 C 
ATOM      6  NZ  LYS A 135      27.774  33.673   9.640  1.00 35.99     0.618 N 
ENDBRANCH   4   5
ENDBRANCH   3   4
ENDBRANCH   2   3
ENDBRANCH   1   2
END_RES LYS A 135
BEGIN_RES TYR A 136
REMARK  2 active torsions:
REMARK  status: ('A' for Active; 'I' for Inactive)
REMARK    5  A    between atoms: CA   and  CB  
REMARK    6  A    between atoms: CB   and  CG  
ROOT
ATOM      7  CA  TYR A 136      36.583  36.399   8.994  1.00 26.14     0.191 C 
ENDROOT
BRANCH   7   8
ATOM      8  CB  TYR A 136      37.367  36.835  10.240  1.00 28.16     0.060 C 
BRANCH   8   9
ATOM      9  CG  TYR A 136      36.977  38.212  10.719  1.00 31.88    -0.020 A 
ATOM     10  CD2 TYR A 136      35.874  38.879  10.181  1.00 32.67    -0.002 A 
ATOM     11  CE2 TYR A 136      35.521  40.158  10.631  1.00 33.89     0.027 A 
ATOM     12  CZ  TYR A 136      36.278  40.776  11.630  1.00 34.34     0.131 A 
ATOM     13  OH  TYR A 136      35.943  42.039  12.096  1.00 35.14    -0.190 OA
ATOM     14  CE1 TYR A 136      37.377  40.128  12.175  1.00 35.01     0.027 A 
ATOM     15  CD1 TYR A 136      37.723  38.857  11.713  1.00 33.57    -0.002 A 
ENDBRANCH   8   9
ENDBRANCH   7   8
END_RES TYR A 136
BEGIN_RES ASN A 133
REMARK  2 active torsions:
REMARK  status: ('A' for Active; 'I' for Inactive)
REMARK    7  A    between atoms: CA   and  CB  
REMARK    8  A    between atoms: CB   and  CG  
ROOT
ATOM     16  CA  ASN A 133      31.225  30.257  11.749  1.00 18.15     0.196 C 
ENDROOT
BRANCH  16  17
ATOM     17  CB  ASN A 133      30.092  31.240  11.460  1.00 18.27     0.126 C 
BRANCH  17  18
ATOM     18  CG  ASN A 133      28.749  30.584  11.369  1.00 18.94     0.276 C 
ATOM     19  OD1 ASN A 133      28.560  29.617  10.629  1.00 18.09    -0.269 OA
ATOM     20  ND2 ASN A 133      27.790  31.113  12.128  1.00 18.93    -0.107 N 
ENDBRANCH  17  18
ENDBRANCH  16  17
END_RES ASN A 133
