REMARK VINA RESULT:    -3.734      6.196      8.025
REMARK INTER + INTRA:          -8.036
REMARK INTER:                  -4.464
REMARK INTRA:                  -3.572
REMARK UNBOUND:                -3.429
REMARK SMILES COCC(C(N)=O)n1cc(C)nn1
REMARK SMILES IDX 3 1 4 2 8 3 11 4 10 5 9 6 12 7 13 8 5 9 7 10 6 11 2 14 1 15
REMARK H PARENT 6 12 6 13
REMARK Flexibility Score: inf
ROOT
ATOM      1  C   UNL     1      36.412  37.784   3.056  1.00  0.00     0.197 C 
ENDROOT
BRANCH   1   2
ATOM      2  C   UNL     1      37.693  38.327   2.434  1.00  0.00     0.223 C 
BRANCH   2   3
ATOM      3  N   UNL     1      38.843  38.018   3.250  1.00  0.00    -0.237 N 
ATOM      4  C   UNL     1      41.166  36.096   5.298  1.00  0.00     0.070 C 
ATOM      5  C   UNL     1      40.386  37.095   4.502  1.00  0.00     0.080 A 
ATOM      6  C   UNL     1      39.209  36.868   3.834  1.00  0.00     0.135 A 
ATOM      7  N   UNL     1      40.687  38.393   4.292  1.00  0.00    -0.136 NA
ATOM      8  N   UNL     1      39.766  38.937   3.546  1.00  0.00    -0.066 NA
ENDBRANCH   2   3
BRANCH   2   9
ATOM      9  C   UNL     1      37.799  37.806   1.069  1.00  0.00     0.244 C 
ATOM     10  O   UNL     1      38.609  38.340   0.269  1.00  0.00    -0.273 OA
ATOM     11  N   UNL     1      37.013  36.713   0.627  1.00  0.00    -0.368 N 
ATOM     12  H   UNL     1      36.561  36.023   1.271  1.00  0.00     0.159 HD
ATOM     13  H   UNL     1      36.834  36.527  -0.401  1.00  0.00     0.159 HD
ENDBRANCH   2   9
ENDBRANCH   1   2
BRANCH   1  14
ATOM     14  O   UNL     1      35.334  38.373   2.402  1.00  0.00    -0.382 OA
ATOM     15  C   UNL     1      35.113  39.650   2.941  1.00  0.00     0.195 C 
ENDBRANCH   1  14
TORSDOF 4
BEGIN_RES LYS A 135
REMARK  4 active torsions:
REMARK  status: ('A' for Active; 'I' for Inactive)
REMARK    1  A    between atoms: CA   and  CB  
REMARK    2  A    between atoms: CB   and  CG  
REMARK    3  A    between atoms: CG   and  CD  
REMARK    4  A    between atoms: CD   and  CE  
ROOT
ATOM      1  CA  LYS A 135      33.193  34.663   9.290  1.00 25.02     0.186 C 
ENDROOT
BRANCH   1   2
ATOM      2  CB  LYS A 135      32.060  35.360  10.034  1.00 26.63     0.034 C 
BRANCH   2   3
ATOM      3  CG  LYS A 135      30.705  34.755   9.772  1.00 29.45     0.005 C 
BRANCH   3   4
ATOM      4  CD  LYS A 135      30.477  34.576   8.279  1.00 32.00     0.041 C 
BRANCH   4   5
ATOM      5  CE  LYS A 135      29.026  34.842   7.927  1.00 34.25     0.338 C 
ATOM      6  NZ  LYS A 135      28.913  35.578   6.637  1.00 35.99     0.618 N 
ENDBRANCH   4   5
ENDBRANCH   3   4
ENDBRANCH   2   3
ENDBRANCH   1   2
END_RES LYS A 135
BEGIN_RES TYR A 136
REMARK  2 active torsions:
REMARK  status: ('A' for Active; 'I' for Inactive)
REMARK    5  A    between atoms: CA   and  CB  
REMARK    6  A    between atoms: CB   and  CG  
ROOT
ATOM      7  CA  TYR A 136      36.583  36.399   8.994  1.00 26.14     0.191 C 
ENDROOT
BRANCH   7   8
ATOM      8  CB  TYR A 136      37.367  36.835  10.240  1.00 28.16     0.060 C 
BRANCH   8   9
ATOM      9  CG  TYR A 136      37.245  38.314  10.514  1.00 31.88    -0.020 A 
ATOM     10  CD2 TYR A 136      36.519  39.150   9.663  1.00 32.67    -0.002 A 
ATOM     11  CE2 TYR A 136      36.413  40.522   9.926  1.00 33.89     0.027 A 
ATOM     12  CZ  TYR A 136      37.039  41.063  11.051  1.00 34.34     0.131 A 
ATOM     13  OH  TYR A 136      36.942  42.418  11.335  1.00 35.14    -0.190 OA
ATOM     14  CE1 TYR A 136      37.765  40.248  11.907  1.00 35.01     0.027 A 
ATOM     15  CD1 TYR A 136      37.869  38.883  11.632  1.00 33.57    -0.002 A 
ENDBRANCH   8   9
ENDBRANCH   7   8
END_RES TYR A 136
BEGIN_RES ASN A 133
REMARK  2 active torsions:
REMARK  status: ('A' for Active; 'I' for Inactive)
REMARK    7  A    between atoms: CA   and  CB  
REMARK    8  A    between atoms: CB   and  CG  
ROOT
ATOM     16  CA  ASN A 133      31.225  30.257  11.749  1.00 18.15     0.196 C 
ENDROOT
BRANCH  16  17
ATOM     17  CB  ASN A 133      30.092  31.240  11.460  1.00 18.27     0.126 C 
BRANCH  17  18
ATOM     18  CG  ASN A 133      28.751  30.582  11.351  1.00 18.94     0.276 C 
ATOM     19  OD1 ASN A 133      28.577  29.605  10.622  1.00 18.09    -0.269 OA
ATOM     20  ND2 ASN A 133      27.777  31.120  12.085  1.00 18.93    -0.107 N 
ENDBRANCH  17  18
ENDBRANCH  16  17
END_RES ASN A 133
