REMARK VINA RESULT:    -3.631      8.042     12.389
REMARK INTER + INTRA:          -6.966
REMARK INTER:                  -3.855
REMARK INTRA:                  -3.111
REMARK UNBOUND:                -3.123
REMARK SMILES Cc1cn(C2CCCCC2)nn1
REMARK SMILES IDX 5 1 6 2 7 3 8 4 9 5 10 6 4 7 1 8 2 9 3 10 12 11 11 12
REMARK H PARENT
REMARK Flexibility Score: inf
ROOT
ATOM      1  C   UNL     1      38.115  38.662   4.388  1.00  0.00     0.109 C 
ATOM      2  C   UNL     1      38.008  39.449   5.653  1.00  0.00     0.027 C 
ATOM      3  C   UNL     1      36.694  40.185   5.788  1.00  0.00     0.002 C 
ATOM      4  C   UNL     1      35.556  39.196   5.860  1.00  0.00     0.000 C 
ATOM      5  C   UNL     1      35.910  37.880   5.247  1.00  0.00     0.002 C 
ATOM      6  C   UNL     1      36.803  38.012   4.029  1.00  0.00     0.027 C 
ENDROOT
BRANCH   1   7
ATOM      7  N   UNL     1      39.182  37.683   4.512  1.00  0.00    -0.249 N 
ATOM      8  C   UNL     1      40.909  34.493   4.187  1.00  0.00     0.070 C 
ATOM      9  C   UNL     1      40.468  35.894   4.461  1.00  0.00     0.080 A 
ATOM     10  C   UNL     1      39.244  36.419   4.125  1.00  0.00     0.134 A 
ATOM     11  N   UNL     1      41.136  36.892   5.062  1.00  0.00    -0.136 NA
ATOM     12  N   UNL     1      40.359  37.957   5.088  1.00  0.00    -0.067 NA
ENDBRANCH   1   7
TORSDOF 1
BEGIN_RES LYS A 135
REMARK  4 active torsions:
REMARK  status: ('A' for Active; 'I' for Inactive)
REMARK    1  A    between atoms: CA   and  CB  
REMARK    2  A    between atoms: CB   and  CG  
REMARK    3  A    between atoms: CG   and  CD  
REMARK    4  A    between atoms: CD   and  CE  
ROOT
ATOM      1  CA  LYS A 135      33.193  34.663   9.290  1.00 25.02     0.186 C 
ENDROOT
BRANCH   1   2
ATOM      2  CB  LYS A 135      32.060  35.360  10.034  1.00 26.63     0.034 C 
BRANCH   2   3
ATOM      3  CG  LYS A 135      30.717  34.706   9.836  1.00 29.45     0.005 C 
BRANCH   3   4
ATOM      4  CD  LYS A 135      30.289  34.788   8.379  1.00 32.00     0.041 C 
BRANCH   4   5
ATOM      5  CE  LYS A 135      28.804  34.509   8.244  1.00 34.25     0.338 C 
ATOM      6  NZ  LYS A 135      28.267  33.858   9.470  1.00 35.99     0.618 N 
ENDBRANCH   4   5
ENDBRANCH   3   4
ENDBRANCH   2   3
ENDBRANCH   1   2
END_RES LYS A 135
BEGIN_RES TYR A 136
REMARK  2 active torsions:
REMARK  status: ('A' for Active; 'I' for Inactive)
REMARK    5  A    between atoms: CA   and  CB  
REMARK    6  A    between atoms: CB   and  CG  
ROOT
ATOM      7  CA  TYR A 136      36.583  36.399   8.994  1.00 26.14     0.191 C 
ENDROOT
BRANCH   7   8
ATOM      8  CB  TYR A 136      37.367  36.835  10.240  1.00 28.16     0.060 C 
BRANCH   8   9
ATOM      9  CG  TYR A 136      37.458  38.335  10.372  1.00 31.88    -0.020 A 
ATOM     10  CD2 TYR A 136      38.228  38.927  11.376  1.00 32.67    -0.002 A 
ATOM     11  CE2 TYR A 136      38.305  40.322  11.492  1.00 33.89     0.027 A 
ATOM     12  CZ  TYR A 136      37.605  41.132  10.595  1.00 34.34     0.131 A 
ATOM     13  OH  TYR A 136      37.672  42.515  10.686  1.00 35.14    -0.190 OA
ATOM     14  CE1 TYR A 136      36.834  40.561   9.592  1.00 35.01     0.027 A 
ATOM     15  CD1 TYR A 136      36.760  39.171   9.491  1.00 33.57    -0.002 A 
ENDBRANCH   8   9
ENDBRANCH   7   8
END_RES TYR A 136
BEGIN_RES ASN A 133
REMARK  2 active torsions:
REMARK  status: ('A' for Active; 'I' for Inactive)
REMARK    7  A    between atoms: CA   and  CB  
REMARK    8  A    between atoms: CB   and  CG  
ROOT
ATOM     16  CA  ASN A 133      31.225  30.257  11.749  1.00 18.15     0.196 C 
ENDROOT
BRANCH  16  17
ATOM     17  CB  ASN A 133      30.092  31.240  11.460  1.00 18.27     0.126 C 
BRANCH  17  18
ATOM     18  CG  ASN A 133      28.753  30.581  11.339  1.00 18.94     0.276 C 
ATOM     19  OD1 ASN A 133      28.587  29.603  10.608  1.00 18.09    -0.269 OA
ATOM     20  ND2 ASN A 133      27.772  31.117  12.063  1.00 18.93    -0.107 N 
ENDBRANCH  17  18
ENDBRANCH  16  17
END_RES ASN A 133
