REMARK VINA RESULT:    -4.197      4.220      6.187
REMARK INTER + INTRA:          -7.857
REMARK INTER:                  -4.695
REMARK INTRA:                  -3.161
REMARK UNBOUND:                -3.168
REMARK SMILES Cc1cn(-c2ccccc2C(N)=O)nn1
REMARK SMILES IDX 5 1 10 2 9 3 8 4 7 5 6 6 4 7 1 8 2 9 3 10 15 11 14 12 11 13
REMARK SMILES IDX 13 14 12 15
REMARK H PARENT 12 16 12 17
REMARK Flexibility Score: inf
ROOT
ATOM      1  C   UNL     1      31.700  35.300  13.607  1.00  0.00     0.079 A 
ATOM      2  C   UNL     1      32.546  34.573  14.399  1.00  0.00     0.065 A 
ATOM      3  C   UNL     1      33.910  34.768  14.251  1.00  0.00     0.016 A 
ATOM      4  C   UNL     1      34.422  35.663  13.342  1.00  0.00     0.001 A 
ATOM      5  C   UNL     1      33.551  36.391  12.548  1.00  0.00     0.002 A 
ATOM      6  C   UNL     1      32.197  36.201  12.690  1.00  0.00     0.029 A 
ENDROOT
BRANCH   1   7
ATOM      7  N   UNL     1      30.276  35.103  13.753  1.00  0.00    -0.220 N 
ATOM      8  C   UNL     1      26.866  35.785  14.968  1.00  0.00     0.070 C 
ATOM      9  C   UNL     1      28.137  35.321  14.357  1.00  0.00     0.080 A 
ATOM     10  C   UNL     1      29.411  35.835  14.481  1.00  0.00     0.140 A 
ATOM     11  N   UNL     1      28.269  34.266  13.537  1.00  0.00    -0.135 NA
ATOM     12  N   UNL     1      29.541  34.157  13.193  1.00  0.00    -0.062 NA
ENDBRANCH   1   7
BRANCH   2  13
ATOM     13  C   UNL     1      32.002  33.627  15.361  1.00  0.00     0.250 C 
ATOM     14  O   UNL     1      31.938  33.970  16.567  1.00  0.00    -0.269 OA
ATOM     15  N   UNL     1      31.544  32.327  14.964  1.00  0.00    -0.366 N 
ATOM     16  H   UNL     1      32.051  31.498  15.287  1.00  0.00     0.159 HD
ATOM     17  H   UNL     1      30.709  32.291  14.360  1.00  0.00     0.159 HD
ENDBRANCH   2  13
TORSDOF 2
BEGIN_RES LYS A 135
REMARK  4 active torsions:
REMARK  status: ('A' for Active; 'I' for Inactive)
REMARK    1  A    between atoms: CA   and  CB  
REMARK    2  A    between atoms: CB   and  CG  
REMARK    3  A    between atoms: CG   and  CD  
REMARK    4  A    between atoms: CD   and  CE  
ROOT
ATOM      1  CA  LYS A 135      33.193  34.663   9.290  1.00 25.02     0.186 C 
ENDROOT
BRANCH   1   2
ATOM      2  CB  LYS A 135      32.060  35.360  10.034  1.00 26.63     0.034 C 
BRANCH   2   3
ATOM      3  CG  LYS A 135      30.704  34.758   9.768  1.00 29.45     0.005 C 
BRANCH   3   4
ATOM      4  CD  LYS A 135      30.472  34.598   8.274  1.00 32.00     0.041 C 
BRANCH   4   5
ATOM      5  CE  LYS A 135      29.023  34.885   7.927  1.00 34.25     0.338 C 
ATOM      6  NZ  LYS A 135      28.912  35.561   6.605  1.00 35.99     0.618 N 
ENDBRANCH   4   5
ENDBRANCH   3   4
ENDBRANCH   2   3
ENDBRANCH   1   2
END_RES LYS A 135
BEGIN_RES TYR A 136
REMARK  2 active torsions:
REMARK  status: ('A' for Active; 'I' for Inactive)
REMARK    5  A    between atoms: CA   and  CB  
REMARK    6  A    between atoms: CB   and  CG  
ROOT
ATOM      7  CA  TYR A 136      36.583  36.399   8.994  1.00 26.14     0.191 C 
ENDROOT
BRANCH   7   8
ATOM      8  CB  TYR A 136      37.367  36.835  10.240  1.00 28.16     0.060 C 
BRANCH   8   9
ATOM      9  CG  TYR A 136      36.672  37.932  11.009  1.00 31.88    -0.020 A 
ATOM     10  CD2 TYR A 136      36.912  38.124  12.371  1.00 32.67    -0.002 A 
ATOM     11  CE2 TYR A 136      36.260  39.145  13.076  1.00 33.89     0.027 A 
ATOM     12  CZ  TYR A 136      35.359  39.981  12.412  1.00 34.34     0.131 A 
ATOM     13  OH  TYR A 136      34.707  41.002  13.088  1.00 35.14    -0.190 OA
ATOM     14  CE1 TYR A 136      35.107  39.803  11.059  1.00 35.01     0.027 A 
ATOM     15  CD1 TYR A 136      35.758  38.779  10.369  1.00 33.57    -0.002 A 
ENDBRANCH   8   9
ENDBRANCH   7   8
END_RES TYR A 136
BEGIN_RES ASN A 133
REMARK  2 active torsions:
REMARK  status: ('A' for Active; 'I' for Inactive)
REMARK    7  A    between atoms: CA   and  CB  
REMARK    8  A    between atoms: CB   and  CG  
ROOT
ATOM     16  CA  ASN A 133      31.225  30.257  11.749  1.00 18.15     0.196 C 
ENDROOT
BRANCH  16  17
ATOM     17  CB  ASN A 133      30.092  31.240  11.460  1.00 18.27     0.126 C 
BRANCH  17  18
ATOM     18  CG  ASN A 133      28.756  30.579  11.321  1.00 18.94     0.276 C 
ATOM     19  OD1 ASN A 133      28.596  29.615  10.569  1.00 18.09    -0.269 OA
ATOM     20  ND2 ASN A 133      27.770  31.097  12.051  1.00 18.93    -0.107 N 
ENDBRANCH  17  18
ENDBRANCH  16  17
END_RES ASN A 133
