REMARK VINA RESULT:    -5.724      2.550      3.460
REMARK INTER + INTRA:         -10.064
REMARK INTER:                  -6.196
REMARK INTRA:                  -3.868
REMARK UNBOUND:                -2.666
REMARK SMILES Cc1cn(C[C@@H](C)CN2CCN(c3ccc(Cl)cc3)CC2)nn1
REMARK SMILES IDX 6 1 7 2 5 3 4 4 1 5 2 6 3 7 23 8 22 9 8 10 9 11 10 12 21 13
REMARK SMILES IDX 11 14 20 15 12 16 13 17 14 18 19 19 15 20 18 21 16 22 17 23
REMARK H PARENT
REMARK Flexibility Score: inf
ROOT
ATOM      1  C   UNL     1      36.456  36.005  15.992  1.00  0.00     0.022 C 
ATOM      2  C   UNL     1      36.020  36.122  17.423  1.00  0.00     0.011 C 
ENDROOT
BRANCH   1   3
ATOM      3  C   UNL     1      37.941  35.923  15.893  1.00  0.00     0.150 C 
BRANCH   3   4
ATOM      4  N   UNL     1      38.359  35.218  14.703  1.00  0.00    -0.252 N 
ATOM      5  C   UNL     1      38.141  32.399  12.397  1.00  0.00     0.070 C 
ATOM      6  C   UNL     1      38.444  33.655  13.159  1.00  0.00     0.080 A 
ATOM      7  C   UNL     1      37.812  34.031  14.323  1.00  0.00     0.134 A 
ATOM      8  N   UNL     1      39.342  34.618  12.879  1.00  0.00    -0.136 NA
ATOM      9  N   UNL     1      39.273  35.561  13.834  1.00  0.00    -0.067 NA
ENDBRANCH   3   4
ENDBRANCH   1   3
BRANCH   1  10
ATOM     10  C   UNL     1      35.979  37.209  15.170  1.00  0.00     0.089 C 
BRANCH  10  11
ATOM     11  N   UNL     1      34.748  36.864  14.591  1.00  0.00    -0.299 NA
ATOM     12  C   UNL     1      33.601  37.615  14.865  1.00  0.00     0.106 C 
ATOM     13  C   UNL     1      34.655  35.776  13.714  1.00  0.00     0.106 C 
ATOM     14  C   UNL     1      32.408  36.751  15.258  1.00  0.00     0.132 C 
ATOM     15  C   UNL     1      33.218  35.740  13.172  1.00  0.00     0.132 C 
ATOM     16  N   UNL     1      32.384  35.622  14.348  1.00  0.00    -0.369 N 
BRANCH  16  17
ATOM     17  C   UNL     1      31.577  34.487  14.624  1.00  0.00     0.037 A 
ATOM     18  C   UNL     1      30.386  34.201  14.009  1.00  0.00     0.027 A 
ATOM     19  C   UNL     1      32.011  33.590  15.595  1.00  0.00     0.027 A 
ATOM     20  C   UNL     1      29.612  33.092  14.297  1.00  0.00     0.022 A 
ATOM     21  C   UNL     1      31.267  32.475  15.907  1.00  0.00     0.022 A 
ATOM     22  C   UNL     1      30.063  32.220  15.259  1.00  0.00     0.041 A 
ATOM     23  Cl  UNL     1      29.157  30.791  15.694  1.00  0.00    -0.084 Cl
ENDBRANCH  16  17
ENDBRANCH  10  11
ENDBRANCH   1  10
TORSDOF 5
BEGIN_RES LYS A 135
REMARK  4 active torsions:
REMARK  status: ('A' for Active; 'I' for Inactive)
REMARK    1  A    between atoms: CA   and  CB  
REMARK    2  A    between atoms: CB   and  CG  
REMARK    3  A    between atoms: CG   and  CD  
REMARK    4  A    between atoms: CD   and  CE  
ROOT
ATOM      1  CA  LYS A 135      33.193  34.663   9.290  1.00 25.02     0.186 C 
ENDROOT
BRANCH   1   2
ATOM      2  CB  LYS A 135      32.060  35.360  10.034  1.00 26.63     0.034 C 
BRANCH   2   3
ATOM      3  CG  LYS A 135      30.813  35.533   9.206  1.00 29.45     0.005 C 
BRANCH   3   4
ATOM      4  CD  LYS A 135      30.056  34.219   9.095  1.00 32.00     0.041 C 
BRANCH   4   5
ATOM      5  CE  LYS A 135      28.607  34.469   8.723  1.00 34.25     0.338 C 
ATOM      6  NZ  LYS A 135      27.686  33.707   9.612  1.00 35.99     0.618 N 
ENDBRANCH   4   5
ENDBRANCH   3   4
ENDBRANCH   2   3
ENDBRANCH   1   2
END_RES LYS A 135
BEGIN_RES TYR A 136
REMARK  2 active torsions:
REMARK  status: ('A' for Active; 'I' for Inactive)
REMARK    5  A    between atoms: CA   and  CB  
REMARK    6  A    between atoms: CB   and  CG  
ROOT
ATOM      7  CA  TYR A 136      36.583  36.399   8.994  1.00 26.14     0.191 C 
ENDROOT
BRANCH   7   8
ATOM      8  CB  TYR A 136      37.367  36.835  10.240  1.00 28.16     0.060 C 
BRANCH   8   9
ATOM      9  CG  TYR A 136      36.997  38.223  10.702  1.00 31.88    -0.020 A 
ATOM     10  CD2 TYR A 136      36.393  39.136   9.835  1.00 32.67    -0.002 A 
ATOM     11  CE2 TYR A 136      36.055  40.424  10.274  1.00 33.89     0.027 A 
ATOM     12  CZ  TYR A 136      36.325  40.802  11.591  1.00 34.34     0.131 A 
ATOM     13  OH  TYR A 136      35.993  42.069  12.049  1.00 35.14    -0.190 OA
ATOM     14  CE1 TYR A 136      36.926  39.907  12.465  1.00 35.01     0.027 A 
ATOM     15  CD1 TYR A 136      37.264  38.630  12.015  1.00 33.57    -0.002 A 
ENDBRANCH   8   9
ENDBRANCH   7   8
END_RES TYR A 136
BEGIN_RES ASN A 133
REMARK  2 active torsions:
REMARK  status: ('A' for Active; 'I' for Inactive)
REMARK    7  A    between atoms: CA   and  CB  
REMARK    8  A    between atoms: CB   and  CG  
ROOT
ATOM     16  CA  ASN A 133      31.225  30.257  11.749  1.00 18.15     0.196 C 
ENDROOT
BRANCH  16  17
ATOM     17  CB  ASN A 133      30.092  31.240  11.460  1.00 18.27     0.126 C 
BRANCH  17  18
ATOM     18  CG  ASN A 133      28.753  30.581  11.341  1.00 18.94     0.276 C 
ATOM     19  OD1 ASN A 133      28.572  29.637  10.569  1.00 18.09    -0.269 OA
ATOM     20  ND2 ASN A 133      27.787  31.079  12.113  1.00 18.93    -0.107 N 
ENDBRANCH  17  18
ENDBRANCH  16  17
END_RES ASN A 133
