REMARK VINA RESULT:    -3.611      2.271      3.132
REMARK INTER + INTRA:          -7.854
REMARK INTER:                  -4.551
REMARK INTRA:                  -3.303
REMARK UNBOUND:                -3.398
REMARK SMILES Cc1cn(CC(O)CO)nn1
REMARK SMILES IDX 6 1 5 2 4 3 1 4 2 5 3 6 11 7 10 8 7 9 8 11 9 12
REMARK H PARENT 7 10 9 13
REMARK Flexibility Score: inf
ROOT
ATOM      1  C   UNL     1      23.020  30.905   0.445  1.00  0.00     0.161 C 
ENDROOT
BRANCH   1   2
ATOM      2  C   UNL     1      22.223  30.512  -0.776  1.00  0.00     0.180 C 
BRANCH   2   3
ATOM      3  N   UNL     1      22.283  31.525  -1.808  1.00  0.00    -0.250 N 
ATOM      4  C   UNL     1      22.524  32.873  -5.205  1.00  0.00     0.070 C 
ATOM      5  C   UNL     1      22.415  32.574  -3.755  1.00  0.00     0.080 A 
ATOM      6  C   UNL     1      22.392  31.348  -3.136  1.00  0.00     0.134 A 
ATOM      7  N   UNL     1      22.316  33.480  -2.763  1.00  0.00    -0.136 NA
ATOM      8  N   UNL     1      22.240  32.833  -1.625  1.00  0.00    -0.067 NA
ENDBRANCH   2   3
ENDBRANCH   1   2
BRANCH   1   9
ATOM      9  O   UNL     1      22.280  31.828   1.170  1.00  0.00    -0.389 OA
ATOM     10  H   UNL     1      22.805  32.451   1.694  1.00  0.00     0.211 HD
ENDBRANCH   1   9
BRANCH   1  11
ATOM     11  C   UNL     1      23.261  29.711   1.315  1.00  0.00     0.189 C 
BRANCH  11  12
ATOM     12  O   UNL     1      23.847  30.138   2.496  1.00  0.00    -0.394 OA
ATOM     13  H   UNL     1      23.207  30.128   3.253  1.00  0.00     0.210 HD
ENDBRANCH  11  12
ENDBRANCH   1  11
TORSDOF 5
BEGIN_RES LYS A 135
REMARK  4 active torsions:
REMARK  status: ('A' for Active; 'I' for Inactive)
REMARK    1  A    between atoms: CA   and  CB  
REMARK    2  A    between atoms: CB   and  CG  
REMARK    3  A    between atoms: CG   and  CD  
REMARK    4  A    between atoms: CD   and  CE  
ROOT
ATOM      1  CA  LYS A 135      33.193  34.663   9.290  1.00 25.02     0.186 C 
ENDROOT
BRANCH   1   2
ATOM      2  CB  LYS A 135      32.060  35.360  10.034  1.00 26.63     0.034 C 
BRANCH   2   3
ATOM      3  CG  LYS A 135      30.843  35.609   9.181  1.00 29.45     0.005 C 
BRANCH   3   4
ATOM      4  CD  LYS A 135      30.276  34.298   8.658  1.00 32.00     0.041 C 
BRANCH   4   5
ATOM      5  CE  LYS A 135      28.760  34.317   8.705  1.00 34.25     0.338 C 
ATOM      6  NZ  LYS A 135      28.200  35.130   7.590  1.00 35.99     0.618 N 
ENDBRANCH   4   5
ENDBRANCH   3   4
ENDBRANCH   2   3
ENDBRANCH   1   2
END_RES LYS A 135
BEGIN_RES TYR A 136
REMARK  2 active torsions:
REMARK  status: ('A' for Active; 'I' for Inactive)
REMARK    5  A    between atoms: CA   and  CB  
REMARK    6  A    between atoms: CB   and  CG  
ROOT
ATOM      7  CA  TYR A 136      36.583  36.399   8.994  1.00 26.14     0.191 C 
ENDROOT
BRANCH   7   8
ATOM      8  CB  TYR A 136      37.367  36.835  10.240  1.00 28.16     0.060 C 
BRANCH   8   9
ATOM      9  CG  TYR A 136      37.229  38.310  10.525  1.00 31.88    -0.020 A 
ATOM     10  CD2 TYR A 136      36.441  39.133   9.717  1.00 32.67    -0.002 A 
ATOM     11  CE2 TYR A 136      36.321  40.502   9.990  1.00 33.89     0.027 A 
ATOM     12  CZ  TYR A 136      36.996  41.054  11.081  1.00 34.34     0.131 A 
ATOM     13  OH  TYR A 136      36.886  42.406  11.375  1.00 35.14    -0.190 OA
ATOM     14  CE1 TYR A 136      37.784  40.252  11.894  1.00 35.01     0.027 A 
ATOM     15  CD1 TYR A 136      37.901  38.890  11.609  1.00 33.57    -0.002 A 
ENDBRANCH   8   9
ENDBRANCH   7   8
END_RES TYR A 136
BEGIN_RES ASN A 133
REMARK  2 active torsions:
REMARK  status: ('A' for Active; 'I' for Inactive)
REMARK    7  A    between atoms: CA   and  CB  
REMARK    8  A    between atoms: CB   and  CG  
ROOT
ATOM     16  CA  ASN A 133      31.225  30.257  11.749  1.00 18.15     0.196 C 
ENDROOT
BRANCH  16  17
ATOM     17  CB  ASN A 133      30.092  31.240  11.460  1.00 18.27     0.126 C 
BRANCH  17  18
ATOM     18  CG  ASN A 133      28.751  30.583  11.357  1.00 18.94     0.276 C 
ATOM     19  OD1 ASN A 133      28.574  29.602  10.632  1.00 18.09    -0.269 OA
ATOM     20  ND2 ASN A 133      27.778  31.125  12.089  1.00 18.93    -0.107 N 
ENDBRANCH  17  18
ENDBRANCH  16  17
END_RES ASN A 133
