REMARK VINA RESULT:    -3.901      8.762     14.082
REMARK INTER + INTRA:          -7.781
REMARK INTER:                  -4.357
REMARK INTRA:                  -3.423
REMARK UNBOUND:                -3.423
REMARK SMILES Cc1cn(-c2ccccc2C(C)C)nn1
REMARK SMILES IDX 5 1 10 2 9 3 8 4 7 5 6 6 4 7 1 8 2 9 3 10 15 11 14 12 11 13
REMARK SMILES IDX 12 14 13 15
REMARK H PARENT
REMARK Flexibility Score: inf
ROOT
ATOM      1  C   UNL     1      22.828  34.504  -0.916  1.00  0.00     0.070 A 
ATOM      2  C   UNL     1      22.316  33.453  -1.641  1.00  0.00    -0.020 A 
ATOM      3  C   UNL     1      22.092  32.231  -1.017  1.00  0.00     0.006 A 
ATOM      4  C   UNL     1      22.362  32.009   0.310  1.00  0.00     0.000 A 
ATOM      5  C   UNL     1      22.876  33.063   1.040  1.00  0.00     0.002 A 
ATOM      6  C   UNL     1      23.099  34.272   0.432  1.00  0.00     0.029 A 
ENDROOT
BRANCH   1   7
ATOM      7  N   UNL     1      23.078  35.792  -1.496  1.00  0.00    -0.220 N 
ATOM      8  C   UNL     1      24.967  38.380  -3.279  1.00  0.00     0.070 C 
ATOM      9  C   UNL     1      24.001  37.545  -2.541  1.00  0.00     0.080 A 
ATOM     10  C   UNL     1      24.173  36.214  -2.150  1.00  0.00     0.140 A 
ATOM     11  N   UNL     1      22.760  37.868  -2.084  1.00  0.00    -0.135 NA
ATOM     12  N   UNL     1      22.250  36.823  -1.480  1.00  0.00    -0.062 NA
ENDBRANCH   1   7
BRANCH   2  13
ATOM     13  C   UNL     1      22.018  33.657  -3.079  1.00  0.00     0.015 C 
ATOM     14  C   UNL     1      20.508  33.675  -3.295  1.00  0.00     0.012 C 
ATOM     15  C   UNL     1      22.582  32.499  -3.906  1.00  0.00     0.012 C 
ENDBRANCH   2  13
TORSDOF 2
BEGIN_RES LYS A 135
REMARK  4 active torsions:
REMARK  status: ('A' for Active; 'I' for Inactive)
REMARK    1  A    between atoms: CA   and  CB  
REMARK    2  A    between atoms: CB   and  CG  
REMARK    3  A    between atoms: CG   and  CD  
REMARK    4  A    between atoms: CD   and  CE  
ROOT
ATOM      1  CA  LYS A 135      33.193  34.663   9.290  1.00 25.02     0.186 C 
ENDROOT
BRANCH   1   2
ATOM      2  CB  LYS A 135      32.060  35.360  10.034  1.00 26.63     0.034 C 
BRANCH   2   3
ATOM      3  CG  LYS A 135      30.804  35.509   9.215  1.00 29.45     0.005 C 
BRANCH   3   4
ATOM      4  CD  LYS A 135      30.119  34.163   9.032  1.00 32.00     0.041 C 
BRANCH   4   5
ATOM      5  CE  LYS A 135      28.665  34.353   8.645  1.00 34.25     0.338 C 
ATOM      6  NZ  LYS A 135      27.759  33.686   9.620  1.00 35.99     0.618 N 
ENDBRANCH   4   5
ENDBRANCH   3   4
ENDBRANCH   2   3
ENDBRANCH   1   2
END_RES LYS A 135
BEGIN_RES TYR A 136
REMARK  2 active torsions:
REMARK  status: ('A' for Active; 'I' for Inactive)
REMARK    5  A    between atoms: CA   and  CB  
REMARK    6  A    between atoms: CB   and  CG  
ROOT
ATOM      7  CA  TYR A 136      36.583  36.399   8.994  1.00 26.14     0.191 C 
ENDROOT
BRANCH   7   8
ATOM      8  CB  TYR A 136      37.367  36.835  10.240  1.00 28.16     0.060 C 
BRANCH   8   9
ATOM      9  CG  TYR A 136      37.188  38.300  10.555  1.00 31.88    -0.020 A 
ATOM     10  CD2 TYR A 136      36.000  38.780  11.111  1.00 32.67    -0.002 A 
ATOM     11  CE2 TYR A 136      35.843  40.143  11.398  1.00 33.89     0.027 A 
ATOM     12  CZ  TYR A 136      36.885  41.033  11.126  1.00 34.34     0.131 A 
ATOM     13  OH  TYR A 136      36.754  42.386  11.409  1.00 35.14    -0.190 OA
ATOM     14  CE1 TYR A 136      38.071  40.574  10.573  1.00 35.01     0.027 A 
ATOM     15  CD1 TYR A 136      38.213  39.215  10.286  1.00 33.57    -0.002 A 
ENDBRANCH   8   9
ENDBRANCH   7   8
END_RES TYR A 136
BEGIN_RES ASN A 133
REMARK  2 active torsions:
REMARK  status: ('A' for Active; 'I' for Inactive)
REMARK    7  A    between atoms: CA   and  CB  
REMARK    8  A    between atoms: CB   and  CG  
ROOT
ATOM     16  CA  ASN A 133      31.225  30.257  11.749  1.00 18.15     0.196 C 
ENDROOT
BRANCH  16  17
ATOM     17  CB  ASN A 133      30.092  31.240  11.460  1.00 18.27     0.126 C 
BRANCH  17  18
ATOM     18  CG  ASN A 133      28.750  30.583  11.359  1.00 18.94     0.276 C 
ATOM     19  OD1 ASN A 133      28.566  29.619  10.613  1.00 18.09    -0.269 OA
ATOM     20  ND2 ASN A 133      27.787  31.106  12.116  1.00 18.93    -0.107 N 
ENDBRANCH  17  18
ENDBRANCH  16  17
END_RES ASN A 133
