REMARK VINA RESULT:    -4.290      3.530      4.396
REMARK INTER + INTRA:          -7.620
REMARK INTER:                  -4.539
REMARK INTRA:                  -3.082
REMARK UNBOUND:                -3.079
REMARK SMILES Cc1cn(-c2ccc(Br)cc2)nn1
REMARK SMILES IDX 5 1 6 2 7 3 8 4 9 5 10 6 11 7 4 8 1 9 2 10 3 11 13 12 12 13
REMARK H PARENT
REMARK Flexibility Score: inf
ROOT
ATOM      1  C   UNL     1      35.163  36.298  13.408  1.00  0.00     0.066 A 
ATOM      2  C   UNL     1      34.065  36.187  12.554  1.00  0.00     0.029 A 
ATOM      3  C   UNL     1      33.129  37.173  12.461  1.00  0.00     0.018 A 
ATOM      4  C   UNL     1      33.283  38.298  13.232  1.00  0.00     0.018 A 
ATOM      5  Br  UNL     1      31.973  39.681  13.105  1.00  0.00    -0.051 Br
ATOM      6  C   UNL     1      34.355  38.455  14.095  1.00  0.00     0.018 A 
ATOM      7  C   UNL     1      35.288  37.442  14.171  1.00  0.00     0.029 A 
ENDROOT
BRANCH   1   8
ATOM      8  N   UNL     1      36.127  35.269  13.495  1.00  0.00    -0.220 N 
ATOM      9  C   UNL     1      38.192  32.403  12.531  1.00  0.00     0.070 C 
ATOM     10  C   UNL     1      37.481  33.551  13.144  1.00  0.00     0.080 A 
ATOM     11  C   UNL     1      36.500  34.337  12.605  1.00  0.00     0.140 A 
ATOM     12  N   UNL     1      37.688  34.038  14.386  1.00  0.00    -0.135 NA
ATOM     13  N   UNL     1      36.869  35.062  14.575  1.00  0.00    -0.062 NA
ENDBRANCH   1   8
TORSDOF 1
BEGIN_RES LYS A 135
REMARK  4 active torsions:
REMARK  status: ('A' for Active; 'I' for Inactive)
REMARK    1  A    between atoms: CA   and  CB  
REMARK    2  A    between atoms: CB   and  CG  
REMARK    3  A    between atoms: CG   and  CD  
REMARK    4  A    between atoms: CD   and  CE  
ROOT
ATOM      1  CA  LYS A 135      33.193  34.663   9.290  1.00 25.02     0.186 C 
ENDROOT
BRANCH   1   2
ATOM      2  CB  LYS A 135      32.060  35.360  10.034  1.00 26.63     0.034 C 
BRANCH   2   3
ATOM      3  CG  LYS A 135      30.706  34.750   9.778  1.00 29.45     0.005 C 
BRANCH   3   4
ATOM      4  CD  LYS A 135      30.470  34.574   8.286  1.00 32.00     0.041 C 
BRANCH   4   5
ATOM      5  CE  LYS A 135      29.017  34.837   7.942  1.00 34.25     0.338 C 
ATOM      6  NZ  LYS A 135      28.895  35.579   6.656  1.00 35.99     0.618 N 
ENDBRANCH   4   5
ENDBRANCH   3   4
ENDBRANCH   2   3
ENDBRANCH   1   2
END_RES LYS A 135
BEGIN_RES TYR A 136
REMARK  2 active torsions:
REMARK  status: ('A' for Active; 'I' for Inactive)
REMARK    5  A    between atoms: CA   and  CB  
REMARK    6  A    between atoms: CB   and  CG  
ROOT
ATOM      7  CA  TYR A 136      36.583  36.399   8.994  1.00 26.14     0.191 C 
ENDROOT
BRANCH   7   8
ATOM      8  CB  TYR A 136      37.367  36.835  10.240  1.00 28.16     0.060 C 
BRANCH   8   9
ATOM      9  CG  TYR A 136      36.926  38.181  10.761  1.00 31.88    -0.020 A 
ATOM     10  CD2 TYR A 136      37.652  38.845  11.753  1.00 32.67    -0.002 A 
ATOM     11  CE2 TYR A 136      37.233  40.094  12.232  1.00 33.89     0.027 A 
ATOM     12  CZ  TYR A 136      36.077  40.684  11.713  1.00 34.34     0.131 A 
ATOM     13  OH  TYR A 136      35.648  41.923  12.167  1.00 35.14    -0.190 OA
ATOM     14  CE1 TYR A 136      35.344  40.037  10.728  1.00 35.01     0.027 A 
ATOM     15  CD1 TYR A 136      35.768  38.791  10.264  1.00 33.57    -0.002 A 
ENDBRANCH   8   9
ENDBRANCH   7   8
END_RES TYR A 136
BEGIN_RES ASN A 133
REMARK  2 active torsions:
REMARK  status: ('A' for Active; 'I' for Inactive)
REMARK    7  A    between atoms: CA   and  CB  
REMARK    8  A    between atoms: CB   and  CG  
ROOT
ATOM     16  CA  ASN A 133      31.225  30.257  11.749  1.00 18.15     0.196 C 
ENDROOT
BRANCH  16  17
ATOM     17  CB  ASN A 133      30.092  31.240  11.460  1.00 18.27     0.126 C 
BRANCH  17  18
ATOM     18  CG  ASN A 133      28.751  30.582  11.352  1.00 18.94     0.276 C 
ATOM     19  OD1 ASN A 133      28.576  29.606  10.621  1.00 18.09    -0.269 OA
ATOM     20  ND2 ASN A 133      27.778  31.119  12.087  1.00 18.93    -0.107 N 
ENDBRANCH  17  18
ENDBRANCH  16  17
END_RES ASN A 133
