REMARK VINA RESULT:    -3.860      5.300      7.817
REMARK INTER + INTRA:          -7.673
REMARK INTER:                  -4.607
REMARK INTRA:                  -3.066
REMARK UNBOUND:                -3.249
REMARK SMILES Cc1cn(-c2ccc(S(N)(=O)=O)cc2)nn1
REMARK SMILES IDX 5 1 6 2 7 3 8 4 13 5 14 6 4 7 1 8 2 9 3 10 16 11 15 12 9 13
REMARK SMILES IDX 11 14 12 15 10 16
REMARK H PARENT 10 17 10 18
REMARK Flexibility Score: inf
ROOT
ATOM      1  C   UNL     1      35.721  36.598  13.645  1.00  0.00     0.066 A 
ATOM      2  C   UNL     1      35.925  37.795  14.299  1.00  0.00     0.030 A 
ATOM      3  C   UNL     1      35.080  38.892  14.098  1.00  0.00     0.024 A 
ATOM      4  C   UNL     1      34.013  38.803  13.232  1.00  0.00     0.082 A 
ATOM      5  C   UNL     1      33.804  37.619  12.579  1.00  0.00     0.024 A 
ATOM      6  C   UNL     1      34.632  36.546  12.777  1.00  0.00     0.030 A 
ENDROOT
BRANCH   1   7
ATOM      7  N   UNL     1      36.546  35.457  13.811  1.00  0.00    -0.220 N 
ATOM      8  C   UNL     1      38.140  32.460  12.521  1.00  0.00     0.070 C 
ATOM      9  C   UNL     1      37.653  33.581  13.332  1.00  0.00     0.080 A 
ATOM     10  C   UNL     1      36.815  34.580  12.835  1.00  0.00     0.140 A 
ATOM     11  N   UNL     1      37.853  33.914  14.613  1.00  0.00    -0.135 NA
ATOM     12  N   UNL     1      37.184  35.039  14.885  1.00  0.00    -0.062 NA
ENDBRANCH   1   7
BRANCH   4  13
ATOM     13  S   UNL     1      32.957  40.175  12.982  1.00  0.00     0.238 S 
ATOM     14  O   UNL     1      31.783  40.078  13.915  1.00  0.00    -0.207 OA
ATOM     15  O   UNL     1      33.670  41.455  13.231  1.00  0.00    -0.207 OA
BRANCH  13  16
ATOM     16  N   UNL     1      32.327  40.104  11.373  1.00  0.00    -0.225 NA
ATOM     17  H   UNL     1      32.954  39.504  10.787  1.00  0.00     0.137 HD
ATOM     18  H   UNL     1      31.388  39.623  11.453  1.00  0.00     0.137 HD
ENDBRANCH  13  16
ENDBRANCH   4  13
TORSDOF 3
BEGIN_RES LYS A 135
REMARK  4 active torsions:
REMARK  status: ('A' for Active; 'I' for Inactive)
REMARK    1  A    between atoms: CA   and  CB  
REMARK    2  A    between atoms: CB   and  CG  
REMARK    3  A    between atoms: CG   and  CD  
REMARK    4  A    between atoms: CD   and  CE  
ROOT
ATOM      1  CA  LYS A 135      33.193  34.663   9.290  1.00 25.02     0.186 C 
ENDROOT
BRANCH   1   2
ATOM      2  CB  LYS A 135      32.060  35.360  10.034  1.00 26.63     0.034 C 
BRANCH   2   3
ATOM      3  CG  LYS A 135      30.708  34.741   9.789  1.00 29.45     0.005 C 
BRANCH   3   4
ATOM      4  CD  LYS A 135      30.410  34.675   8.300  1.00 32.00     0.041 C 
BRANCH   4   5
ATOM      5  CE  LYS A 135      29.389  35.728   7.914  1.00 34.25     0.338 C 
ATOM      6  NZ  LYS A 135      28.905  35.522   6.520  1.00 35.99     0.618 N 
ENDBRANCH   4   5
ENDBRANCH   3   4
ENDBRANCH   2   3
ENDBRANCH   1   2
END_RES LYS A 135
BEGIN_RES TYR A 136
REMARK  2 active torsions:
REMARK  status: ('A' for Active; 'I' for Inactive)
REMARK    5  A    between atoms: CA   and  CB  
REMARK    6  A    between atoms: CB   and  CG  
ROOT
ATOM      7  CA  TYR A 136      36.583  36.399   8.994  1.00 26.14     0.191 C 
ENDROOT
BRANCH   7   8
ATOM      8  CB  TYR A 136      37.367  36.835  10.240  1.00 28.16     0.060 C 
BRANCH   8   9
ATOM      9  CG  TYR A 136      37.121  38.278  10.605  1.00 31.88    -0.020 A 
ATOM     10  CD2 TYR A 136      36.068  38.999  10.036  1.00 32.67    -0.002 A 
ATOM     11  CE2 TYR A 136      35.850  40.340  10.380  1.00 33.89     0.027 A 
ATOM     12  CZ  TYR A 136      36.692  40.966  11.301  1.00 34.34     0.131 A 
ATOM     13  OH  TYR A 136      36.490  42.291  11.662  1.00 35.14    -0.190 OA
ATOM     14  CE1 TYR A 136      37.744  40.266  11.875  1.00 35.01     0.027 A 
ATOM     15  CD1 TYR A 136      37.956  38.933  11.520  1.00 33.57    -0.002 A 
ENDBRANCH   8   9
ENDBRANCH   7   8
END_RES TYR A 136
BEGIN_RES ASN A 133
REMARK  2 active torsions:
REMARK  status: ('A' for Active; 'I' for Inactive)
REMARK    7  A    between atoms: CA   and  CB  
REMARK    8  A    between atoms: CB   and  CG  
ROOT
ATOM     16  CA  ASN A 133      31.225  30.257  11.749  1.00 18.15     0.196 C 
ENDROOT
BRANCH  16  17
ATOM     17  CB  ASN A 133      30.092  31.240  11.460  1.00 18.27     0.126 C 
BRANCH  17  18
ATOM     18  CG  ASN A 133      28.750  30.583  11.360  1.00 18.94     0.276 C 
ATOM     19  OD1 ASN A 133      28.566  29.617  10.617  1.00 18.09    -0.269 OA
ATOM     20  ND2 ASN A 133      27.786  31.109  12.115  1.00 18.93    -0.107 N 
ENDBRANCH  17  18
ENDBRANCH  16  17
END_RES ASN A 133
