REMARK VINA RESULT:    -4.169      2.191      3.031
REMARK INTER + INTRA:          -8.400
REMARK INTER:                  -5.101
REMARK INTRA:                  -3.298
REMARK UNBOUND:                -3.500
REMARK SMILES Cc1cn(CS(=O)(=O)c2ccccc2)nn1
REMARK SMILES IDX 5 1 4 2 1 3 2 4 3 5 16 6 15 7 6 8 7 9 8 10 9 11 10 12 14 13
REMARK SMILES IDX 11 14 13 15 12 16
REMARK H PARENT
REMARK Flexibility Score: inf
ROOT
ATOM      1  C   UNL     1      35.694  34.257  12.795  1.00  0.00     0.287 C 
ENDROOT
BRANCH   1   2
ATOM      2  N   UNL     1      37.142  34.308  12.726  1.00  0.00    -0.237 N 
ATOM      3  C   UNL     1      40.431  35.787  12.050  1.00  0.00     0.070 C 
ATOM      4  C   UNL     1      39.262  34.943  12.412  1.00  0.00     0.080 A 
ATOM      5  C   UNL     1      37.926  35.320  12.312  1.00  0.00     0.135 A 
ATOM      6  N   UNL     1      39.224  33.688  12.894  1.00  0.00    -0.136 NA
ATOM      7  N   UNL     1      37.965  33.320  13.077  1.00  0.00    -0.066 NA
ENDBRANCH   1   2
BRANCH   1   8
ATOM      8  S   UNL     1      35.053  35.352  14.027  1.00  0.00     0.198 S 
ATOM      9  O   UNL     1      35.989  35.511  15.185  1.00  0.00    -0.222 OA
ATOM     10  O   UNL     1      33.764  34.807  14.577  1.00  0.00    -0.222 OA
BRANCH   8  11
ATOM     11  C   UNL     1      34.720  36.930  13.380  1.00  0.00     0.069 A 
ATOM     12  C   UNL     1      35.192  38.087  13.982  1.00  0.00     0.020 A 
ATOM     13  C   UNL     1      33.970  37.049  12.246  1.00  0.00     0.020 A 
ATOM     14  C   UNL     1      34.920  39.328  13.457  1.00  0.00     0.001 A 
ATOM     15  C   UNL     1      33.666  38.281  11.675  1.00  0.00     0.001 A 
ATOM     16  C   UNL     1      34.149  39.414  12.293  1.00  0.00     0.000 A 
ENDBRANCH   8  11
ENDBRANCH   1   8
TORSDOF 3
BEGIN_RES LYS A 135
REMARK  4 active torsions:
REMARK  status: ('A' for Active; 'I' for Inactive)
REMARK    1  A    between atoms: CA   and  CB  
REMARK    2  A    between atoms: CB   and  CG  
REMARK    3  A    between atoms: CG   and  CD  
REMARK    4  A    between atoms: CD   and  CE  
ROOT
ATOM      1  CA  LYS A 135      33.193  34.663   9.290  1.00 25.02     0.186 C 
ENDROOT
BRANCH   1   2
ATOM      2  CB  LYS A 135      32.060  35.360  10.034  1.00 26.63     0.034 C 
BRANCH   2   3
ATOM      3  CG  LYS A 135      30.896  35.728   9.151  1.00 29.45     0.005 C 
BRANCH   3   4
ATOM      4  CD  LYS A 135      30.355  34.499   8.437  1.00 32.00     0.041 C 
BRANCH   4   5
ATOM      5  CE  LYS A 135      28.910  34.714   8.027  1.00 34.25     0.338 C 
ATOM      6  NZ  LYS A 135      28.822  35.507   6.770  1.00 35.99     0.618 N 
ENDBRANCH   4   5
ENDBRANCH   3   4
ENDBRANCH   2   3
ENDBRANCH   1   2
END_RES LYS A 135
BEGIN_RES TYR A 136
REMARK  2 active torsions:
REMARK  status: ('A' for Active; 'I' for Inactive)
REMARK    5  A    between atoms: CA   and  CB  
REMARK    6  A    between atoms: CB   and  CG  
ROOT
ATOM      7  CA  TYR A 136      36.583  36.399   8.994  1.00 26.14     0.191 C 
ENDROOT
BRANCH   7   8
ATOM      8  CB  TYR A 136      37.367  36.835  10.240  1.00 28.16     0.060 C 
BRANCH   8   9
ATOM      9  CG  TYR A 136      37.338  38.329  10.451  1.00 31.88    -0.020 A 
ATOM     10  CD2 TYR A 136      36.624  39.167   9.590  1.00 32.67    -0.002 A 
ATOM     11  CE2 TYR A 136      36.605  40.553   9.794  1.00 33.89     0.027 A 
ATOM     12  CZ  TYR A 136      37.306  41.107  10.868  1.00 34.34     0.131 A 
ATOM     13  OH  TYR A 136      37.295  42.476  11.093  1.00 35.14    -0.190 OA
ATOM     14  CE1 TYR A 136      38.020  40.289  11.732  1.00 35.01     0.027 A 
ATOM     15  CD1 TYR A 136      38.038  38.911  11.515  1.00 33.57    -0.002 A 
ENDBRANCH   8   9
ENDBRANCH   7   8
END_RES TYR A 136
BEGIN_RES ASN A 133
REMARK  2 active torsions:
REMARK  status: ('A' for Active; 'I' for Inactive)
REMARK    7  A    between atoms: CA   and  CB  
REMARK    8  A    between atoms: CB   and  CG  
ROOT
ATOM     16  CA  ASN A 133      31.225  30.257  11.749  1.00 18.15     0.196 C 
ENDROOT
BRANCH  16  17
ATOM     17  CB  ASN A 133      30.092  31.240  11.460  1.00 18.27     0.126 C 
BRANCH  17  18
ATOM     18  CG  ASN A 133      28.756  30.579  11.321  1.00 18.94     0.276 C 
ATOM     19  OD1 ASN A 133      28.596  29.615  10.569  1.00 18.09    -0.269 OA
ATOM     20  ND2 ASN A 133      27.770  31.097  12.052  1.00 18.93    -0.107 N 
ENDBRANCH  17  18
ENDBRANCH  16  17
END_RES ASN A 133
