REMARK VINA RESULT:    -4.629      2.355      3.861
REMARK INTER + INTRA:          -7.969
REMARK INTER:                  -4.787
REMARK INTRA:                  -3.182
REMARK UNBOUND:                -2.529
REMARK SMILES Cc1cn(Cc2cccc(C#N)c2)nn1
REMARK SMILES IDX 6 1 7 2 8 3 9 4 10 5 13 6 5 7 4 8 1 9 2 10 3 11 15 12 14 13
REMARK SMILES IDX 11 14 12 15
REMARK H PARENT
REMARK Flexibility Score: inf
ROOT
ATOM      1  C   UNL     1      30.769  32.177  16.482  1.00  0.00    -0.025 A 
ATOM      2  C   UNL     1      30.717  32.818  17.695  1.00  0.00     0.006 A 
ATOM      3  C   UNL     1      31.356  34.018  17.942  1.00  0.00     0.002 A 
ATOM      4  C   UNL     1      32.078  34.589  16.914  1.00  0.00     0.019 A 
ATOM      5  C   UNL     1      32.160  33.982  15.678  1.00  0.00     0.052 A 
ATOM      6  C   UNL     1      31.498  32.770  15.471  1.00  0.00     0.025 A 
ENDROOT
BRANCH   1   7
ATOM      7  C   UNL     1      30.088  30.896  16.215  1.00  0.00     0.181 C 
BRANCH   7   8
ATOM      8  N   UNL     1      28.689  31.035  15.965  1.00  0.00    -0.248 N 
ATOM      9  C   UNL     1      25.266  29.782  16.023  1.00  0.00     0.070 C 
ATOM     10  C   UNL     1      26.551  30.541  15.881  1.00  0.00     0.080 A 
ATOM     11  C   UNL     1      27.783  30.080  16.243  1.00  0.00     0.134 A 
ATOM     12  N   UNL     1      26.723  31.780  15.386  1.00  0.00    -0.136 NA
ATOM     13  N   UNL     1      28.011  32.057  15.445  1.00  0.00    -0.067 NA
ENDBRANCH   7   8
ENDBRANCH   1   7
BRANCH   5  14
ATOM     14  C   UNL     1      32.927  34.630  14.654  1.00  0.00     0.099 C 
ATOM     15  N   UNL     1      33.537  35.139  13.817  1.00  0.00    -0.192 NA
ENDBRANCH   5  14
TORSDOF 3
BEGIN_RES LYS A 135
REMARK  4 active torsions:
REMARK  status: ('A' for Active; 'I' for Inactive)
REMARK    1  A    between atoms: CA   and  CB  
REMARK    2  A    between atoms: CB   and  CG  
REMARK    3  A    between atoms: CG   and  CD  
REMARK    4  A    between atoms: CD   and  CE  
ROOT
ATOM      1  CA  LYS A 135      33.193  34.663   9.290  1.00 25.02     0.186 C 
ENDROOT
BRANCH   1   2
ATOM      2  CB  LYS A 135      32.060  35.360  10.034  1.00 26.63     0.034 C 
BRANCH   2   3
ATOM      3  CG  LYS A 135      30.786  35.459   9.235  1.00 29.45     0.005 C 
BRANCH   3   4
ATOM      4  CD  LYS A 135      30.234  34.075   8.931  1.00 32.00     0.041 C 
BRANCH   4   5
ATOM      5  CE  LYS A 135      28.749  34.016   9.236  1.00 34.25     0.338 C 
ATOM      6  NZ  LYS A 135      28.474  34.415  10.644  1.00 35.99     0.618 N 
ENDBRANCH   4   5
ENDBRANCH   3   4
ENDBRANCH   2   3
ENDBRANCH   1   2
END_RES LYS A 135
BEGIN_RES TYR A 136
REMARK  2 active torsions:
REMARK  status: ('A' for Active; 'I' for Inactive)
REMARK    5  A    between atoms: CA   and  CB  
REMARK    6  A    between atoms: CB   and  CG  
ROOT
ATOM      7  CA  TYR A 136      36.583  36.399   8.994  1.00 26.14     0.191 C 
ENDROOT
BRANCH   7   8
ATOM      8  CB  TYR A 136      37.367  36.835  10.240  1.00 28.16     0.060 C 
BRANCH   8   9
ATOM      9  CG  TYR A 136      37.202  38.304  10.545  1.00 31.88    -0.020 A 
ATOM     10  CD2 TYR A 136      37.748  38.868  11.700  1.00 32.67    -0.002 A 
ATOM     11  CE2 TYR A 136      37.587  40.233  11.975  1.00 33.89     0.027 A 
ATOM     12  CZ  TYR A 136      36.874  41.041  11.085  1.00 34.34     0.131 A 
ATOM     13  OH  TYR A 136      36.709  42.396  11.333  1.00 35.14    -0.190 OA
ATOM     14  CE1 TYR A 136      36.325  40.496   9.934  1.00 35.01     0.027 A 
ATOM     15  CD1 TYR A 136      36.485  39.134   9.674  1.00 33.57    -0.002 A 
ENDBRANCH   8   9
ENDBRANCH   7   8
END_RES TYR A 136
BEGIN_RES ASN A 133
REMARK  2 active torsions:
REMARK  status: ('A' for Active; 'I' for Inactive)
REMARK    7  A    between atoms: CA   and  CB  
REMARK    8  A    between atoms: CB   and  CG  
ROOT
ATOM     16  CA  ASN A 133      31.225  30.257  11.749  1.00 18.15     0.196 C 
ENDROOT
BRANCH  16  17
ATOM     17  CB  ASN A 133      30.092  31.240  11.460  1.00 18.27     0.126 C 
BRANCH  17  18
ATOM     18  CG  ASN A 133      28.754  30.580  11.330  1.00 18.94     0.276 C 
ATOM     19  OD1 ASN A 133      28.601  29.582  10.623  1.00 18.09    -0.269 OA
ATOM     20  ND2 ASN A 133      27.760  31.137  12.019  1.00 18.93    -0.107 N 
ENDBRANCH  17  18
ENDBRANCH  16  17
END_RES ASN A 133
