REMARK VINA RESULT:    -5.282      3.049      4.278
REMARK INTER + INTRA:          -9.705
REMARK INTER:                  -6.145
REMARK INTRA:                  -3.560
REMARK UNBOUND:                -3.343
REMARK SMILES Cc1cn(-c2ccc(S(=O)(=O)c3ccc(N)cc3)cc2)nn1
REMARK SMILES IDX 9 1 10 2 11 3 8 4 5 5 6 6 20 7 7 8 19 9 4 10 1 11 2 12 3 13
REMARK SMILES IDX 22 14 21 15 12 16 13 17 18 18 14 19 17 20 15 21 16 22
REMARK H PARENT 16 23 16 24
REMARK Flexibility Score: inf
ROOT
ATOM      1  S   UNL     1      38.822  35.245  15.054  1.00  0.00     0.206 S 
ATOM      2  O   UNL     1      39.320  36.675  14.948  1.00  0.00    -0.219 OA
ATOM      3  O   UNL     1      39.691  34.423  14.143  1.00  0.00    -0.219 OA
ENDROOT
BRANCH   1   4
ATOM      4  C   UNL     1      37.139  35.157  14.620  1.00  0.00     0.072 A 
ATOM      5  C   UNL     1      34.403  35.077  14.004  1.00  0.00     0.066 A 
ATOM      6  C   UNL     1      34.887  35.783  15.111  1.00  0.00     0.030 A 
ATOM      7  C   UNL     1      35.305  34.422  13.224  1.00  0.00     0.030 A 
ATOM      8  C   UNL     1      36.233  35.821  15.412  1.00  0.00     0.023 A 
ATOM      9  C   UNL     1      36.668  34.459  13.527  1.00  0.00     0.023 A 
BRANCH   5  10
ATOM     10  N   UNL     1      32.998  35.083  13.757  1.00  0.00    -0.220 N 
ATOM     11  C   UNL     1      29.426  34.582  14.268  1.00  0.00     0.070 C 
ATOM     12  C   UNL     1      30.812  34.868  13.865  1.00  0.00     0.080 A 
ATOM     13  C   UNL     1      32.003  34.660  14.526  1.00  0.00     0.140 A 
ATOM     14  N   UNL     1      31.144  35.431  12.676  1.00  0.00    -0.135 NA
ATOM     15  N   UNL     1      32.445  35.541  12.651  1.00  0.00    -0.062 NA
ENDBRANCH   5  10
ENDBRANCH   1   4
BRANCH   1  16
ATOM     16  C   UNL     1      39.090  34.668  16.693  1.00  0.00     0.072 A 
ATOM     17  C   UNL     1      39.781  35.409  17.628  1.00  0.00     0.023 A 
ATOM     18  C   UNL     1      38.604  33.433  17.093  1.00  0.00     0.023 A 
ATOM     19  C   UNL     1      39.990  34.947  18.924  1.00  0.00     0.027 A 
ATOM     20  C   UNL     1      38.815  32.974  18.389  1.00  0.00     0.027 A 
ATOM     21  C   UNL     1      39.508  33.724  19.315  1.00  0.00     0.031 A 
BRANCH  21  22
ATOM     22  N   UNL     1      39.734  33.272  20.648  1.00  0.00    -0.399 N 
ATOM     23  H   UNL     1      39.380  32.362  20.970  1.00  0.00     0.156 HD
ATOM     24  H   UNL     1      40.268  33.874  21.311  1.00  0.00     0.156 HD
ENDBRANCH  21  22
ENDBRANCH   1  16
TORSDOF 4
BEGIN_RES LYS A 135
REMARK  4 active torsions:
REMARK  status: ('A' for Active; 'I' for Inactive)
REMARK    1  A    between atoms: CA   and  CB  
REMARK    2  A    between atoms: CB   and  CG  
REMARK    3  A    between atoms: CG   and  CD  
REMARK    4  A    between atoms: CD   and  CE  
ROOT
ATOM      1  CA  LYS A 135      33.193  34.663   9.290  1.00 25.02     0.186 C 
ENDROOT
BRANCH   1   2
ATOM      2  CB  LYS A 135      32.060  35.360  10.034  1.00 26.63     0.034 C 
BRANCH   2   3
ATOM      3  CG  LYS A 135      30.846  35.618   9.179  1.00 29.45     0.005 C 
BRANCH   3   4
ATOM      4  CD  LYS A 135      30.233  34.307   8.709  1.00 32.00     0.041 C 
BRANCH   4   5
ATOM      5  CE  LYS A 135      28.739  34.464   8.497  1.00 34.25     0.338 C 
ATOM      6  NZ  LYS A 135      27.969  33.738   9.545  1.00 35.99     0.618 N 
ENDBRANCH   4   5
ENDBRANCH   3   4
ENDBRANCH   2   3
ENDBRANCH   1   2
END_RES LYS A 135
BEGIN_RES TYR A 136
REMARK  2 active torsions:
REMARK  status: ('A' for Active; 'I' for Inactive)
REMARK    5  A    between atoms: CA   and  CB  
REMARK    6  A    between atoms: CB   and  CG  
ROOT
ATOM      7  CA  TYR A 136      36.583  36.399   8.994  1.00 26.14     0.191 C 
ENDROOT
BRANCH   7   8
ATOM      8  CB  TYR A 136      37.367  36.835  10.240  1.00 28.16     0.060 C 
BRANCH   8   9
ATOM      9  CG  TYR A 136      36.710  37.983  10.966  1.00 31.88    -0.020 A 
ATOM     10  CD2 TYR A 136      36.169  39.065  10.269  1.00 32.67    -0.002 A 
ATOM     11  CE2 TYR A 136      35.563  40.128  10.953  1.00 33.89     0.027 A 
ATOM     12  CZ  TYR A 136      35.498  40.107  12.349  1.00 34.34     0.131 A 
ATOM     13  OH  TYR A 136      34.896  41.144  13.047  1.00 35.14    -0.190 OA
ATOM     14  CE1 TYR A 136      36.031  39.040  13.058  1.00 35.01     0.027 A 
ATOM     15  CD1 TYR A 136      36.638  37.991  12.365  1.00 33.57    -0.002 A 
ENDBRANCH   8   9
ENDBRANCH   7   8
END_RES TYR A 136
BEGIN_RES ASN A 133
REMARK  2 active torsions:
REMARK  status: ('A' for Active; 'I' for Inactive)
REMARK    7  A    between atoms: CA   and  CB  
REMARK    8  A    between atoms: CB   and  CG  
ROOT
ATOM     16  CA  ASN A 133      31.225  30.257  11.749  1.00 18.15     0.196 C 
ENDROOT
BRANCH  16  17
ATOM     17  CB  ASN A 133      30.092  31.240  11.460  1.00 18.27     0.126 C 
BRANCH  17  18
ATOM     18  CG  ASN A 133      28.749  30.584  11.366  1.00 18.94     0.276 C 
ATOM     19  OD1 ASN A 133      28.567  29.604  10.641  1.00 18.09    -0.269 OA
ATOM     20  ND2 ASN A 133      27.783  31.126  12.107  1.00 18.93    -0.107 N 
ENDBRANCH  17  18
ENDBRANCH  16  17
END_RES ASN A 133
