REMARK VINA RESULT:    -5.025      2.218      4.284
REMARK INTER + INTRA:          -8.304
REMARK INTER:                  -5.319
REMARK INTRA:                  -2.985
REMARK UNBOUND:                -2.985
REMARK SMILES Cc1cn(-c2c3ccccc3nc3ccccc23)nn1
REMARK SMILES IDX 5 1 6 2 7 3 8 4 9 5 10 6 11 7 12 8 13 9 14 10 15 11 16 12
REMARK SMILES IDX 17 13 18 14 4 15 1 16 2 17 3 18 20 19 19 20
REMARK H PARENT
REMARK Flexibility Score: inf
ROOT
ATOM      1  C   UNL     1      38.678  35.265  14.986  1.00  0.00     0.085 A 
ATOM      2  C   UNL     1      37.414  35.111  14.444  1.00  0.00     0.027 A 
ATOM      3  C   UNL     1      36.305  35.604  15.099  1.00  0.00     0.012 A 
ATOM      4  C   UNL     1      35.057  35.438  14.536  1.00  0.00     0.001 A 
ATOM      5  C   UNL     1      34.973  34.779  13.329  1.00  0.00     0.002 A 
ATOM      6  C   UNL     1      36.077  34.293  12.683  1.00  0.00     0.029 A 
ATOM      7  C   UNL     1      37.349  34.450  13.235  1.00  0.00     0.073 A 
ATOM      8  N   UNL     1      38.417  33.965  12.585  1.00  0.00    -0.248 NA
ATOM      9  C   UNL     1      39.668  34.112  13.115  1.00  0.00     0.073 A 
ATOM     10  C   UNL     1      40.774  33.617  12.452  1.00  0.00     0.029 A 
ATOM     11  C   UNL     1      42.007  33.797  13.038  1.00  0.00     0.002 A 
ATOM     12  C   UNL     1      42.148  34.451  14.248  1.00  0.00     0.001 A 
ATOM     13  C   UNL     1      41.049  34.932  14.884  1.00  0.00     0.012 A 
ATOM     14  C   UNL     1      39.806  34.763  14.318  1.00  0.00     0.027 A 
ENDROOT
BRANCH   1  15
ATOM     15  N   UNL     1      38.856  35.931  16.226  1.00  0.00    -0.219 N 
ATOM     16  C   UNL     1      39.434  38.806  18.431  1.00  0.00     0.070 C 
ATOM     17  C   UNL     1      39.188  37.477  17.764  1.00  0.00     0.080 A 
ATOM     18  C   UNL     1      39.070  37.238  16.414  1.00  0.00     0.140 A 
ATOM     19  N   UNL     1      39.043  36.296  18.378  1.00  0.00    -0.135 NA
ATOM     20  N   UNL     1      38.847  35.407  17.428  1.00  0.00    -0.062 NA
ENDBRANCH   1  15
TORSDOF 1
BEGIN_RES LYS A 135
REMARK  4 active torsions:
REMARK  status: ('A' for Active; 'I' for Inactive)
REMARK    1  A    between atoms: CA   and  CB  
REMARK    2  A    between atoms: CB   and  CG  
REMARK    3  A    between atoms: CG   and  CD  
REMARK    4  A    between atoms: CD   and  CE  
ROOT
ATOM      1  CA  LYS A 135      33.193  34.663   9.290  1.00 25.02     0.186 C 
ENDROOT
BRANCH   1   2
ATOM      2  CB  LYS A 135      32.060  35.360  10.034  1.00 26.63     0.034 C 
BRANCH   2   3
ATOM      3  CG  LYS A 135      30.836  35.593   9.186  1.00 29.45     0.005 C 
BRANCH   3   4
ATOM      4  CD  LYS A 135      30.237  34.270   8.734  1.00 32.00     0.041 C 
BRANCH   4   5
ATOM      5  CE  LYS A 135      28.744  34.412   8.507  1.00 34.25     0.338 C 
ATOM      6  NZ  LYS A 135      27.971  33.712   9.570  1.00 35.99     0.618 N 
ENDBRANCH   4   5
ENDBRANCH   3   4
ENDBRANCH   2   3
ENDBRANCH   1   2
END_RES LYS A 135
BEGIN_RES TYR A 136
REMARK  2 active torsions:
REMARK  status: ('A' for Active; 'I' for Inactive)
REMARK    5  A    between atoms: CA   and  CB  
REMARK    6  A    between atoms: CB   and  CG  
ROOT
ATOM      7  CA  TYR A 136      36.583  36.399   8.994  1.00 26.14     0.191 C 
ENDROOT
BRANCH   7   8
ATOM      8  CB  TYR A 136      37.367  36.835  10.240  1.00 28.16     0.060 C 
BRANCH   8   9
ATOM      9  CG  TYR A 136      36.686  37.951  10.993  1.00 31.88    -0.020 A 
ATOM     10  CD2 TYR A 136      35.884  38.885  10.333  1.00 32.67    -0.002 A 
ATOM     11  CE2 TYR A 136      35.257  39.919  11.042  1.00 33.89     0.027 A 
ATOM     12  CZ  TYR A 136      35.434  40.019  12.424  1.00 34.34     0.131 A 
ATOM     13  OH  TYR A 136      34.816  41.030  13.147  1.00 35.14    -0.190 OA
ATOM     14  CE1 TYR A 136      36.227  39.100  13.096  1.00 35.01     0.027 A 
ATOM     15  CD1 TYR A 136      36.852  38.079  12.378  1.00 33.57    -0.002 A 
ENDBRANCH   8   9
ENDBRANCH   7   8
END_RES TYR A 136
BEGIN_RES ASN A 133
REMARK  2 active torsions:
REMARK  status: ('A' for Active; 'I' for Inactive)
REMARK    7  A    between atoms: CA   and  CB  
REMARK    8  A    between atoms: CB   and  CG  
ROOT
ATOM     16  CA  ASN A 133      31.225  30.257  11.749  1.00 18.15     0.196 C 
ENDROOT
BRANCH  16  17
ATOM     17  CB  ASN A 133      30.092  31.240  11.460  1.00 18.27     0.126 C 
BRANCH  17  18
ATOM     18  CG  ASN A 133      28.750  30.584  11.363  1.00 18.94     0.276 C 
ATOM     19  OD1 ASN A 133      28.566  29.611  10.629  1.00 18.09    -0.269 OA
ATOM     20  ND2 ASN A 133      27.785  31.117  12.111  1.00 18.93    -0.107 N 
ENDBRANCH  17  18
ENDBRANCH  16  17
END_RES ASN A 133
