REMARK VINA RESULT:    -4.097      5.720     10.368
REMARK INTER + INTRA:          -7.745
REMARK INTER:                  -5.523
REMARK INTRA:                  -2.222
REMARK UNBOUND:                -3.168
REMARK SMILES Cc1cn(-c2ccccc2C(N)=O)nn1
REMARK SMILES IDX 5 1 10 2 9 3 8 4 7 5 6 6 4 7 1 8 2 9 3 10 15 11 14 12 11 13
REMARK SMILES IDX 13 14 12 15
REMARK H PARENT 12 16 12 17
REMARK Flexibility Score: inf
ROOT
ATOM      1  C   UNL     1      26.093  35.861   8.319  1.00  0.00     0.079 A 
ATOM      2  C   UNL     1      26.039  36.995   7.556  1.00  0.00     0.065 A 
ATOM      3  C   UNL     1      26.977  37.150   6.548  1.00  0.00     0.016 A 
ATOM      4  C   UNL     1      27.944  36.204   6.304  1.00  0.00     0.001 A 
ATOM      5  C   UNL     1      27.984  35.062   7.086  1.00  0.00     0.002 A 
ATOM      6  C   UNL     1      27.056  34.903   8.088  1.00  0.00     0.029 A 
ENDROOT
BRANCH   1   7
ATOM      7  N   UNL     1      25.119  35.691   9.374  1.00  0.00    -0.220 N 
ATOM      8  C   UNL     1      23.848  35.569  12.828  1.00  0.00     0.070 C 
ATOM      9  C   UNL     1      24.128  35.563  11.371  1.00  0.00     0.080 A 
ATOM     10  C   UNL     1      25.311  35.798  10.702  1.00  0.00     0.140 A 
ATOM     11  N   UNL     1      23.229  35.313  10.404  1.00  0.00    -0.135 NA
ATOM     12  N   UNL     1      23.838  35.394   9.233  1.00  0.00    -0.062 NA
ENDBRANCH   1   7
BRANCH   2  13
ATOM     13  C   UNL     1      25.015  37.995   7.816  1.00  0.00     0.250 C 
ATOM     14  O   UNL     1      25.289  38.943   8.591  1.00  0.00    -0.269 OA
ATOM     15  N   UNL     1      23.715  37.919   7.213  1.00  0.00    -0.366 N 
ATOM     16  H   UNL     1      22.899  37.746   7.805  1.00  0.00     0.159 HD
ATOM     17  H   UNL     1      23.668  38.044   6.191  1.00  0.00     0.159 HD
ENDBRANCH   2  13
TORSDOF 2
BEGIN_RES LYS A 135
REMARK  4 active torsions:
REMARK  status: ('A' for Active; 'I' for Inactive)
REMARK    1  A    between atoms: CA   and  CB  
REMARK    2  A    between atoms: CB   and  CG  
REMARK    3  A    between atoms: CG   and  CD  
REMARK    4  A    between atoms: CD   and  CE  
ROOT
ATOM      1  CA  LYS A 135      33.193  34.663   9.290  1.00 25.02     0.186 C 
ENDROOT
BRANCH   1   2
ATOM      2  CB  LYS A 135      32.060  35.360  10.034  1.00 26.63     0.034 C 
BRANCH   2   3
ATOM      3  CG  LYS A 135      30.803  35.508   9.216  1.00 29.45     0.005 C 
BRANCH   3   4
ATOM      4  CD  LYS A 135      30.449  36.977   9.037  1.00 32.00     0.041 C 
BRANCH   4   5
ATOM      5  CE  LYS A 135      29.244  37.341   9.883  1.00 34.25     0.338 C 
ATOM      6  NZ  LYS A 135      28.667  38.647   9.460  1.00 35.99     0.618 N 
ENDBRANCH   4   5
ENDBRANCH   3   4
ENDBRANCH   2   3
ENDBRANCH   1   2
END_RES LYS A 135
BEGIN_RES TYR A 136
REMARK  2 active torsions:
REMARK  status: ('A' for Active; 'I' for Inactive)
REMARK    5  A    between atoms: CA   and  CB  
REMARK    6  A    between atoms: CB   and  CG  
ROOT
ATOM      7  CA  TYR A 136      36.583  36.399   8.994  1.00 26.14     0.191 C 
ENDROOT
BRANCH   7   8
ATOM      8  CB  TYR A 136      37.367  36.835  10.240  1.00 28.16     0.060 C 
BRANCH   8   9
ATOM      9  CG  TYR A 136      37.239  38.312  10.518  1.00 31.88    -0.020 A 
ATOM     10  CD2 TYR A 136      38.211  39.217  10.084  1.00 32.67    -0.002 A 
ATOM     11  CE2 TYR A 136      38.084  40.587  10.350  1.00 33.89     0.027 A 
ATOM     12  CZ  TYR A 136      36.974  41.057  11.056  1.00 34.34     0.131 A 
ATOM     13  OH  TYR A 136      36.823  42.410  11.324  1.00 35.14    -0.190 OA
ATOM     14  CE1 TYR A 136      35.999  40.172  11.496  1.00 35.01     0.027 A 
ATOM     15  CD1 TYR A 136      36.140  38.809  11.231  1.00 33.57    -0.002 A 
ENDBRANCH   8   9
ENDBRANCH   7   8
END_RES TYR A 136
BEGIN_RES ASN A 133
REMARK  2 active torsions:
REMARK  status: ('A' for Active; 'I' for Inactive)
REMARK    7  A    between atoms: CA   and  CB  
REMARK    8  A    between atoms: CB   and  CG  
ROOT
ATOM     16  CA  ASN A 133      31.225  30.257  11.749  1.00 18.15     0.196 C 
ENDROOT
BRANCH  16  17
ATOM     17  CB  ASN A 133      30.092  31.240  11.460  1.00 18.27     0.126 C 
BRANCH  17  18
ATOM     18  CG  ASN A 133      28.754  30.580  11.332  1.00 18.94     0.276 C 
ATOM     19  OD1 ASN A 133      28.583  29.629  10.567  1.00 18.09    -0.269 OA
ATOM     20  ND2 ASN A 133      27.780  31.085  12.087  1.00 18.93    -0.107 N 
ENDBRANCH  17  18
ENDBRANCH  16  17
END_RES ASN A 133
