REMARK VINA RESULT:    -5.435      5.151      9.072
REMARK INTER + INTRA:          -7.513
REMARK INTER:                  -4.266
REMARK INTRA:                  -3.247
REMARK UNBOUND:                -1.442
REMARK SMILES Cc1cn(Cc2ccccc2Br)nn1
REMARK SMILES IDX 5 1 4 2 1 3 2 4 3 5 14 6 13 7 6 8 7 9 11 10 8 11 10 12 12 13
REMARK SMILES IDX 9 14
REMARK H PARENT
REMARK Flexibility Score: inf
ROOT
ATOM      1  C   UNL     1      23.479  33.165  13.557  1.00  0.00     0.182 C 
ENDROOT
BRANCH   1   2
ATOM      2  N   UNL     1      24.251  33.867  12.556  1.00  0.00    -0.248 N 
ATOM      3  C   UNL     1      24.609  36.132   9.680  1.00  0.00     0.070 C 
ATOM      4  C   UNL     1      24.739  35.183  10.840  1.00  0.00     0.080 A 
ATOM      5  C   UNL     1      23.724  34.689  11.616  1.00  0.00     0.134 A 
ATOM      6  N   UNL     1      25.887  34.637  11.335  1.00  0.00    -0.136 NA
ATOM      7  N   UNL     1      25.528  33.871  12.347  1.00  0.00    -0.067 NA
ENDBRANCH   1   2
BRANCH   1   8
ATOM      8  C   UNL     1      23.116  31.791  13.156  1.00  0.00    -0.012 A 
ATOM      9  C   UNL     1      24.084  30.818  13.195  1.00  0.00     0.007 A 
ATOM     10  C   UNL     1      21.812  31.503  12.743  1.00  0.00     0.023 A 
ATOM     11  C   UNL     1      23.770  29.531  12.822  1.00  0.00     0.000 A 
ATOM     12  C   UNL     1      21.506  30.212  12.370  1.00  0.00     0.016 A 
ATOM     13  Br  UNL     1      20.552  32.927  12.727  1.00  0.00    -0.050 Br
ATOM     14  C   UNL     1      22.479  29.262  12.416  1.00  0.00     0.001 A 
ENDBRANCH   1   8
TORSDOF 2
BEGIN_RES LYS A 135
REMARK  4 active torsions:
REMARK  status: ('A' for Active; 'I' for Inactive)
REMARK    1  A    between atoms: CA   and  CB  
REMARK    2  A    between atoms: CB   and  CG  
REMARK    3  A    between atoms: CG   and  CD  
REMARK    4  A    between atoms: CD   and  CE  
ROOT
ATOM      1  CA  LYS A 135      33.193  34.663   9.290  1.00 25.02     0.186 C 
ENDROOT
BRANCH   1   2
ATOM      2  CB  LYS A 135      32.060  35.360  10.034  1.00 26.63     0.034 C 
BRANCH   2   3
ATOM      3  CG  LYS A 135      30.827  35.570   9.194  1.00 29.45     0.005 C 
BRANCH   3   4
ATOM      4  CD  LYS A 135      30.270  34.237   8.716  1.00 32.00     0.041 C 
BRANCH   4   5
ATOM      5  CE  LYS A 135      28.863  34.028   9.244  1.00 34.25     0.338 C 
ATOM      6  NZ  LYS A 135      27.853  34.636   8.335  1.00 35.99     0.618 N 
ENDBRANCH   4   5
ENDBRANCH   3   4
ENDBRANCH   2   3
ENDBRANCH   1   2
END_RES LYS A 135
BEGIN_RES TYR A 136
REMARK  2 active torsions:
REMARK  status: ('A' for Active; 'I' for Inactive)
REMARK    5  A    between atoms: CA   and  CB  
REMARK    6  A    between atoms: CB   and  CG  
ROOT
ATOM      7  CA  TYR A 136      36.583  36.399   8.994  1.00 26.14     0.191 C 
ENDROOT
BRANCH   7   8
ATOM      8  CB  TYR A 136      37.367  36.835  10.240  1.00 28.16     0.060 C 
BRANCH   8   9
ATOM      9  CG  TYR A 136      37.260  38.317  10.504  1.00 31.88    -0.020 A 
ATOM     10  CD2 TYR A 136      38.083  38.946  11.440  1.00 32.67    -0.002 A 
ATOM     11  CE2 TYR A 136      37.975  40.323  11.679  1.00 33.89     0.027 A 
ATOM     12  CZ  TYR A 136      37.033  41.077  10.975  1.00 34.34     0.131 A 
ATOM     13  OH  TYR A 136      36.913  42.443  11.190  1.00 35.14    -0.190 OA
ATOM     14  CE1 TYR A 136      36.206  40.468  10.042  1.00 35.01     0.027 A 
ATOM     15  CD1 TYR A 136      36.319  39.095   9.817  1.00 33.57    -0.002 A 
ENDBRANCH   8   9
ENDBRANCH   7   8
END_RES TYR A 136
BEGIN_RES ASN A 133
REMARK  2 active torsions:
REMARK  status: ('A' for Active; 'I' for Inactive)
REMARK    7  A    between atoms: CA   and  CB  
REMARK    8  A    between atoms: CB   and  CG  
ROOT
ATOM     16  CA  ASN A 133      31.225  30.257  11.749  1.00 18.15     0.196 C 
ENDROOT
BRANCH  16  17
ATOM     17  CB  ASN A 133      30.092  31.240  11.460  1.00 18.27     0.126 C 
BRANCH  17  18
ATOM     18  CG  ASN A 133      28.752  30.582  11.349  1.00 18.94     0.276 C 
ATOM     19  OD1 ASN A 133      28.582  29.597  10.627  1.00 18.09    -0.269 OA
ATOM     20  ND2 ASN A 133      27.773  31.127  12.071  1.00 18.93    -0.107 N 
ENDBRANCH  17  18
ENDBRANCH  16  17
END_RES ASN A 133
