REMARK VINA RESULT:    -4.107      7.647      9.444
REMARK INTER + INTRA:          -7.644
REMARK INTER:                  -5.604
REMARK INTRA:                  -2.040
REMARK UNBOUND:                -3.297
REMARK SMILES Cc1cn(C23CC4CC(CC(C4)C2)C3)nn1
REMARK SMILES IDX 5 1 14 2 9 3 8 4 7 5 12 6 11 7 10 8 13 9 6 10 4 11 1 12 2 13
REMARK SMILES IDX 3 14 16 15 15 16
REMARK H PARENT
REMARK Flexibility Score: inf
ROOT
ATOM      1  C   UNL     1      28.642  37.272   8.558  1.00  0.00     0.065 C 
ATOM      2  C   UNL     1      27.549  36.712   9.461  1.00  0.00     0.034 C 
ATOM      3  C   UNL     1      26.541  35.970   8.591  1.00  0.00    -0.008 C 
ATOM      4  C   UNL     1      27.290  34.864   7.902  1.00  0.00     0.007 C 
ATOM      5  C   UNL     1      28.305  35.460   6.966  1.00  0.00    -0.008 C 
ATOM      6  C   UNL     1      27.705  36.418   5.989  1.00  0.00     0.007 C 
ATOM      7  C   UNL     1      27.040  37.550   6.735  1.00  0.00    -0.008 C 
ATOM      8  C   UNL     1      25.943  36.926   7.600  1.00  0.00     0.007 C 
ATOM      9  C   UNL     1      27.971  38.274   7.647  1.00  0.00     0.034 C 
ATOM     10  C   UNL     1      29.343  36.175   7.799  1.00  0.00     0.034 C 
ENDROOT
BRANCH   1  11
ATOM     11  N   UNL     1      29.560  38.013   9.411  1.00  0.00    -0.246 N 
ATOM     12  C   UNL     1      32.932  38.855  10.442  1.00  0.00     0.070 C 
ATOM     13  C   UNL     1      31.478  38.705  10.235  1.00  0.00     0.080 A 
ATOM     14  C   UNL     1      30.895  37.885   9.304  1.00  0.00     0.134 A 
ATOM     15  N   UNL     1      30.448  39.307  10.882  1.00  0.00    -0.136 NA
ATOM     16  N   UNL     1      29.310  38.870  10.365  1.00  0.00    -0.067 NA
ENDBRANCH   1  11
TORSDOF 1
BEGIN_RES LYS A 135
REMARK  4 active torsions:
REMARK  status: ('A' for Active; 'I' for Inactive)
REMARK    1  A    between atoms: CA   and  CB  
REMARK    2  A    between atoms: CB   and  CG  
REMARK    3  A    between atoms: CG   and  CD  
REMARK    4  A    between atoms: CD   and  CE  
ROOT
ATOM      1  CA  LYS A 135      33.193  34.663   9.290  1.00 25.02     0.186 C 
ENDROOT
BRANCH   1   2
ATOM      2  CB  LYS A 135      32.060  35.360  10.034  1.00 26.63     0.034 C 
BRANCH   2   3
ATOM      3  CG  LYS A 135      30.879  34.465  10.307  1.00 29.45     0.005 C 
BRANCH   3   4
ATOM      4  CD  LYS A 135      30.106  34.953  11.524  1.00 32.00     0.041 C 
BRANCH   4   5
ATOM      5  CE  LYS A 135      31.058  35.443  12.598  1.00 34.25     0.338 C 
ATOM      6  NZ  LYS A 135      30.580  36.719  13.197  1.00 35.99     0.618 N 
ENDBRANCH   4   5
ENDBRANCH   3   4
ENDBRANCH   2   3
ENDBRANCH   1   2
END_RES LYS A 135
BEGIN_RES TYR A 136
REMARK  2 active torsions:
REMARK  status: ('A' for Active; 'I' for Inactive)
REMARK    5  A    between atoms: CA   and  CB  
REMARK    6  A    between atoms: CB   and  CG  
ROOT
ATOM      7  CA  TYR A 136      36.583  36.399   8.994  1.00 26.14     0.191 C 
ENDROOT
BRANCH   7   8
ATOM      8  CB  TYR A 136      37.367  36.835  10.240  1.00 28.16     0.060 C 
BRANCH   8   9
ATOM      9  CG  TYR A 136      36.994  38.221  10.705  1.00 31.88    -0.020 A 
ATOM     10  CD2 TYR A 136      36.644  39.220   9.793  1.00 32.67    -0.002 A 
ATOM     11  CE2 TYR A 136      36.300  40.505  10.235  1.00 33.89     0.027 A 
ATOM     12  CZ  TYR A 136      36.308  40.793  11.602  1.00 34.34     0.131 A 
ATOM     13  OH  TYR A 136      35.964  42.057  12.063  1.00 35.14    -0.190 OA
ATOM     14  CE1 TYR A 136      36.654  39.814  12.521  1.00 35.01     0.027 A 
ATOM     15  CD1 TYR A 136      37.000  38.539  12.069  1.00 33.57    -0.002 A 
ENDBRANCH   8   9
ENDBRANCH   7   8
END_RES TYR A 136
BEGIN_RES ASN A 133
REMARK  2 active torsions:
REMARK  status: ('A' for Active; 'I' for Inactive)
REMARK    7  A    between atoms: CA   and  CB  
REMARK    8  A    between atoms: CB   and  CG  
ROOT
ATOM     16  CA  ASN A 133      31.225  30.257  11.749  1.00 18.15     0.196 C 
ENDROOT
BRANCH  16  17
ATOM     17  CB  ASN A 133      30.092  31.240  11.460  1.00 18.27     0.126 C 
BRANCH  17  18
ATOM     18  CG  ASN A 133      28.751  30.582  11.352  1.00 18.94     0.276 C 
ATOM     19  OD1 ASN A 133      28.578  29.602  10.625  1.00 18.09    -0.269 OA
ATOM     20  ND2 ASN A 133      27.776  31.123  12.081  1.00 18.93    -0.107 N 
ENDBRANCH  17  18
ENDBRANCH  16  17
END_RES ASN A 133
