REMARK VINA RESULT:    -4.723      1.310      1.811
REMARK INTER + INTRA:          -9.688
REMARK INTER:                  -6.475
REMARK INTRA:                  -3.213
REMARK UNBOUND:                -3.584
REMARK SMILES Cc1cn([C@@H](C)C(=O)OCc2ccccc2)nn1
REMARK SMILES IDX 7 1 8 2 5 3 6 4 4 5 1 6 2 7 3 8 18 9 17 10 9 11 10 12 11 13
REMARK SMILES IDX 12 14 16 15 13 16 15 17 14 18
REMARK H PARENT
REMARK Flexibility Score: inf
ROOT
ATOM      1  C   UNL     1      33.050  35.490  13.533  1.00  0.00     0.331 C 
ATOM      2  O   UNL     1      32.371  35.701  12.493  1.00  0.00    -0.250 OA
ENDROOT
BRANCH   1   3
ATOM      3  C   UNL     1      34.278  36.299  13.837  1.00  0.00     0.215 C 
ATOM      4  C   UNL     1      34.477  37.409  12.847  1.00  0.00     0.046 C 
BRANCH   3   5
ATOM      5  N   UNL     1      35.416  35.407  13.731  1.00  0.00    -0.238 N 
ATOM      6  C   UNL     1      37.642  32.884  12.423  1.00  0.00     0.070 C 
ATOM      7  C   UNL     1      36.910  33.932  13.161  1.00  0.00     0.080 A 
ATOM      8  C   UNL     1      35.739  34.517  12.802  1.00  0.00     0.135 A 
ATOM      9  N   UNL     1      37.301  34.474  14.320  1.00  0.00    -0.136 NA
ATOM     10  N   UNL     1      36.375  35.370  14.649  1.00  0.00    -0.066 NA
ENDBRANCH   3   5
ENDBRANCH   1   3
BRANCH   1  11
ATOM     11  O   UNL     1      32.607  34.486  14.365  1.00  0.00    -0.459 OA
BRANCH  11  12
ATOM     12  C   UNL     1      32.429  34.573  15.757  1.00  0.00     0.268 C 
BRANCH  12  13
ATOM     13  C   UNL     1      31.640  33.494  16.356  1.00  0.00    -0.011 A 
ATOM     14  C   UNL     1      31.259  32.383  15.636  1.00  0.00     0.007 A 
ATOM     15  C   UNL     1      31.256  33.561  17.674  1.00  0.00     0.007 A 
ATOM     16  C   UNL     1      30.518  31.357  16.190  1.00  0.00     0.000 A 
ATOM     17  C   UNL     1      30.507  32.547  18.274  1.00  0.00     0.000 A 
ATOM     18  C   UNL     1      30.152  31.453  17.500  1.00  0.00     0.000 A 
ENDBRANCH  12  13
ENDBRANCH  11  12
ENDBRANCH   1  11
TORSDOF 5
BEGIN_RES LYS A 135
REMARK  4 active torsions:
REMARK  status: ('A' for Active; 'I' for Inactive)
REMARK    1  A    between atoms: CA   and  CB  
REMARK    2  A    between atoms: CB   and  CG  
REMARK    3  A    between atoms: CG   and  CD  
REMARK    4  A    between atoms: CD   and  CE  
ROOT
ATOM      1  CA  LYS A 135      33.193  34.663   9.290  1.00 25.02     0.186 C 
ENDROOT
BRANCH   1   2
ATOM      2  CB  LYS A 135      32.060  35.360  10.034  1.00 26.63     0.034 C 
BRANCH   2   3
ATOM      3  CG  LYS A 135      30.809  35.524   9.210  1.00 29.45     0.005 C 
BRANCH   3   4
ATOM      4  CD  LYS A 135      30.187  34.170   8.903  1.00 32.00     0.041 C 
BRANCH   4   5
ATOM      5  CE  LYS A 135      28.694  34.308   8.676  1.00 34.25     0.338 C 
ATOM      6  NZ  LYS A 135      27.923  33.681   9.785  1.00 35.99     0.618 N 
ENDBRANCH   4   5
ENDBRANCH   3   4
ENDBRANCH   2   3
ENDBRANCH   1   2
END_RES LYS A 135
BEGIN_RES TYR A 136
REMARK  2 active torsions:
REMARK  status: ('A' for Active; 'I' for Inactive)
REMARK    5  A    between atoms: CA   and  CB  
REMARK    6  A    between atoms: CB   and  CG  
ROOT
ATOM      7  CA  TYR A 136      36.583  36.399   8.994  1.00 26.14     0.191 C 
ENDROOT
BRANCH   7   8
ATOM      8  CB  TYR A 136      37.367  36.835  10.240  1.00 28.16     0.060 C 
BRANCH   8   9
ATOM      9  CG  TYR A 136      37.164  38.293  10.573  1.00 31.88    -0.020 A 
ATOM     10  CD2 TYR A 136      37.744  38.863  11.708  1.00 32.67    -0.002 A 
ATOM     11  CE2 TYR A 136      37.547  40.218  12.009  1.00 33.89     0.027 A 
ATOM     12  CZ  TYR A 136      36.762  41.009  11.167  1.00 34.34     0.131 A 
ATOM     13  OH  TYR A 136      36.560  42.354  11.442  1.00 35.14    -0.190 OA
ATOM     14  CE1 TYR A 136      36.177  40.458  10.036  1.00 35.01     0.027 A 
ATOM     15  CD1 TYR A 136      36.375  39.106   9.750  1.00 33.57    -0.002 A 
ENDBRANCH   8   9
ENDBRANCH   7   8
END_RES TYR A 136
BEGIN_RES ASN A 133
REMARK  2 active torsions:
REMARK  status: ('A' for Active; 'I' for Inactive)
REMARK    7  A    between atoms: CA   and  CB  
REMARK    8  A    between atoms: CB   and  CG  
ROOT
ATOM     16  CA  ASN A 133      31.225  30.257  11.749  1.00 18.15     0.196 C 
ENDROOT
BRANCH  16  17
ATOM     17  CB  ASN A 133      30.092  31.240  11.460  1.00 18.27     0.126 C 
BRANCH  17  18
ATOM     18  CG  ASN A 133      28.740  30.597  11.445  1.00 18.94     0.276 C 
ATOM     19  OD1 ASN A 133      27.855  30.952  12.226  1.00 18.09    -0.269 OA
ATOM     20  ND2 ASN A 133      28.565  29.629  10.546  1.00 18.93    -0.107 N 
ENDBRANCH  17  18
ENDBRANCH  16  17
END_RES ASN A 133
