REMARK VINA RESULT:    -5.480      5.734      9.980
REMARK INTER + INTRA:          -9.748
REMARK INTER:                  -7.082
REMARK INTRA:                  -2.666
REMARK UNBOUND:                -2.666
REMARK SMILES Cc1cn(C[C@@H](C)CN2CCN(c3ccc(Cl)cc3)CC2)nn1
REMARK SMILES IDX 6 1 7 2 5 3 4 4 1 5 2 6 3 7 23 8 22 9 8 10 9 11 10 12 21 13
REMARK SMILES IDX 11 14 20 15 12 16 13 17 14 18 19 19 15 20 18 21 16 22 17 23
REMARK H PARENT
REMARK Flexibility Score: inf
ROOT
ATOM      1  C   UNL     1      24.143  31.159  13.606  1.00  0.00     0.022 C 
ATOM      2  C   UNL     1      23.880  29.862  12.897  1.00  0.00     0.011 C 
ENDROOT
BRANCH   1   3
ATOM      3  C   UNL     1      24.119  30.973  15.084  1.00  0.00     0.150 C 
BRANCH   3   4
ATOM      4  N   UNL     1      25.378  30.468  15.580  1.00  0.00    -0.252 N 
ATOM      5  C   UNL     1      29.014  30.614  15.852  1.00  0.00     0.070 C 
ATOM      6  C   UNL     1      27.546  30.314  15.917  1.00  0.00     0.080 A 
ATOM      7  C   UNL     1      26.571  31.051  15.281  1.00  0.00     0.134 A 
ATOM      8  N   UNL     1      26.913  29.323  16.572  1.00  0.00    -0.136 NA
ATOM      9  N   UNL     1      25.593  29.436  16.353  1.00  0.00    -0.067 NA
ENDBRANCH   3   4
ENDBRANCH   1   3
BRANCH   1  10
ATOM     10  C   UNL     1      23.095  32.215  13.232  1.00  0.00     0.089 C 
BRANCH  10  11
ATOM     11  N   UNL     1      23.784  33.365  12.818  1.00  0.00    -0.299 NA
ATOM     12  C   UNL     1      23.084  34.519  12.451  1.00  0.00     0.106 C 
ATOM     13  C   UNL     1      25.185  33.382  12.786  1.00  0.00     0.106 C 
ATOM     14  C   UNL     1      23.553  35.098  11.121  1.00  0.00     0.132 C 
ATOM     15  C   UNL     1      25.623  34.805  12.408  1.00  0.00     0.132 C 
ATOM     16  N   UNL     1      25.003  35.053  11.125  1.00  0.00    -0.369 N 
BRANCH  16  17
ATOM     17  C   UNL     1      25.736  35.246   9.926  1.00  0.00     0.037 A 
ATOM     18  C   UNL     1      26.739  34.427   9.476  1.00  0.00     0.027 A 
ATOM     19  C   UNL     1      25.428  36.350   9.136  1.00  0.00     0.027 A 
ATOM     20  C   UNL     1      27.444  34.636   8.306  1.00  0.00     0.022 A 
ATOM     21  C   UNL     1      26.110  36.589   7.964  1.00  0.00     0.022 A 
ATOM     22  C   UNL     1      27.122  35.733   7.543  1.00  0.00     0.041 A 
ATOM     23  Cl  UNL     1      27.956  36.083   6.049  1.00  0.00    -0.084 Cl
ENDBRANCH  16  17
ENDBRANCH  10  11
ENDBRANCH   1  10
TORSDOF 5
BEGIN_RES LYS A 135
REMARK  4 active torsions:
REMARK  status: ('A' for Active; 'I' for Inactive)
REMARK    1  A    between atoms: CA   and  CB  
REMARK    2  A    between atoms: CB   and  CG  
REMARK    3  A    between atoms: CG   and  CD  
REMARK    4  A    between atoms: CD   and  CE  
ROOT
ATOM      1  CA  LYS A 135      33.193  34.663   9.290  1.00 25.02     0.186 C 
ENDROOT
BRANCH   1   2
ATOM      2  CB  LYS A 135      32.060  35.360  10.034  1.00 26.63     0.034 C 
BRANCH   2   3
ATOM      3  CG  LYS A 135      30.760  35.378   9.272  1.00 29.45     0.005 C 
BRANCH   3   4
ATOM      4  CD  LYS A 135      30.419  36.792   8.827  1.00 32.00     0.041 C 
BRANCH   4   5
ATOM      5  CE  LYS A 135      29.914  37.612   9.998  1.00 34.25     0.338 C 
ATOM      6  NZ  LYS A 135      28.852  36.883  10.746  1.00 35.99     0.618 N 
ENDBRANCH   4   5
ENDBRANCH   3   4
ENDBRANCH   2   3
ENDBRANCH   1   2
END_RES LYS A 135
BEGIN_RES TYR A 136
REMARK  2 active torsions:
REMARK  status: ('A' for Active; 'I' for Inactive)
REMARK    5  A    between atoms: CA   and  CB  
REMARK    6  A    between atoms: CB   and  CG  
ROOT
ATOM      7  CA  TYR A 136      36.583  36.399   8.994  1.00 26.14     0.191 C 
ENDROOT
BRANCH   7   8
ATOM      8  CB  TYR A 136      37.367  36.835  10.240  1.00 28.16     0.060 C 
BRANCH   8   9
ATOM      9  CG  TYR A 136      37.201  38.303  10.545  1.00 31.88    -0.020 A 
ATOM     10  CD2 TYR A 136      38.197  39.227  10.219  1.00 32.67    -0.002 A 
ATOM     11  CE2 TYR A 136      38.034  40.588  10.509  1.00 33.89     0.027 A 
ATOM     12  CZ  TYR A 136      36.864  41.030  11.131  1.00 34.34     0.131 A 
ATOM     13  OH  TYR A 136      36.678  42.375  11.420  1.00 35.14    -0.190 OA
ATOM     14  CE1 TYR A 136      35.865  40.126  11.463  1.00 35.01     0.027 A 
ATOM     15  CD1 TYR A 136      36.041  38.772  11.175  1.00 33.57    -0.002 A 
ENDBRANCH   8   9
ENDBRANCH   7   8
END_RES TYR A 136
BEGIN_RES ASN A 133
REMARK  2 active torsions:
REMARK  status: ('A' for Active; 'I' for Inactive)
REMARK    7  A    between atoms: CA   and  CB  
REMARK    8  A    between atoms: CB   and  CG  
ROOT
ATOM     16  CA  ASN A 133      31.225  30.257  11.749  1.00 18.15     0.196 C 
ENDROOT
BRANCH  16  17
ATOM     17  CB  ASN A 133      30.092  31.240  11.460  1.00 18.27     0.126 C 
BRANCH  17  18
ATOM     18  CG  ASN A 133      28.755  30.579  11.328  1.00 18.94     0.276 C 
ATOM     19  OD1 ASN A 133      28.595  29.602  10.594  1.00 18.09    -0.269 OA
ATOM     20  ND2 ASN A 133      27.767  31.114  12.045  1.00 18.93    -0.107 N 
ENDBRANCH  17  18
ENDBRANCH  16  17
END_RES ASN A 133
