REMARK VINA RESULT:    -4.536      6.135      8.315
REMARK INTER + INTRA:          -9.495
REMARK INTER:                  -5.279
REMARK INTRA:                  -4.216
REMARK UNBOUND:                -3.500
REMARK SMILES Cc1cn(CC(O)CCc2ccccc2)nn1
REMARK SMILES IDX 8 1 6 2 5 3 4 4 1 5 2 6 3 7 17 8 16 9 7 10 9 12 10 13 11 14
REMARK SMILES IDX 15 15 12 16 14 17 13 18
REMARK H PARENT 7 11
REMARK Flexibility Score: inf
ROOT
ATOM      1  C   UNL     1      36.659  38.865   1.245  1.00  0.00     0.038 C 
ENDROOT
BRANCH   1   2
ATOM      2  C   UNL     1      37.958  38.225   0.814  1.00  0.00     0.136 C 
BRANCH   2   3
ATOM      3  C   UNL     1      39.135  39.007   1.357  1.00  0.00     0.177 C 
BRANCH   3   4
ATOM      4  N   UNL     1      39.290  38.765   2.774  1.00  0.00    -0.250 N 
ATOM      5  C   UNL     1      39.464  39.841   6.270  1.00  0.00     0.070 C 
ATOM      6  C   UNL     1      39.432  39.160   4.936  1.00  0.00     0.080 A 
ATOM      7  C   UNL     1      39.250  39.742   3.710  1.00  0.00     0.134 A 
ATOM      8  N   UNL     1      39.578  37.848   4.724  1.00  0.00    -0.136 NA
ATOM      9  N   UNL     1      39.489  37.641   3.424  1.00  0.00    -0.067 NA
ENDBRANCH   3   4
ENDBRANCH   2   3
BRANCH   2  10
ATOM     10  O   UNL     1      37.976  36.905   1.188  1.00  0.00    -0.391 OA
ATOM     11  H   UNL     1      38.219  36.277   0.462  1.00  0.00     0.211 HD
ENDBRANCH   2  10
ENDBRANCH   1   2
BRANCH   1  12
ATOM     12  C   UNL     1      35.835  37.983   2.137  1.00  0.00     0.038 C 
BRANCH  12  13
ATOM     13  C   UNL     1      35.789  38.608   3.477  1.00  0.00    -0.048 A 
ATOM     14  C   UNL     1      35.577  39.975   3.574  1.00  0.00     0.004 A 
ATOM     15  C   UNL     1      35.949  37.900   4.646  1.00  0.00     0.004 A 
ATOM     16  C   UNL     1      35.530  40.581   4.813  1.00  0.00     0.000 A 
ATOM     17  C   UNL     1      35.900  38.516   5.882  1.00  0.00     0.000 A 
ATOM     18  C   UNL     1      35.689  39.875   5.988  1.00  0.00     0.000 A 
ENDBRANCH  12  13
ENDBRANCH   1  12
TORSDOF 6
BEGIN_RES LYS A 135
REMARK  4 active torsions:
REMARK  status: ('A' for Active; 'I' for Inactive)
REMARK    1  A    between atoms: CA   and  CB  
REMARK    2  A    between atoms: CB   and  CG  
REMARK    3  A    between atoms: CG   and  CD  
REMARK    4  A    between atoms: CD   and  CE  
ROOT
ATOM      1  CA  LYS A 135      33.193  34.663   9.290  1.00 25.02     0.186 C 
ENDROOT
BRANCH   1   2
ATOM      2  CB  LYS A 135      32.060  35.360  10.034  1.00 26.63     0.034 C 
BRANCH   2   3
ATOM      3  CG  LYS A 135      30.808  35.522   9.211  1.00 29.45     0.005 C 
BRANCH   3   4
ATOM      4  CD  LYS A 135      30.017  34.224   9.177  1.00 32.00     0.041 C 
BRANCH   4   5
ATOM      5  CE  LYS A 135      28.723  34.409   8.408  1.00 34.25     0.338 C 
ATOM      6  NZ  LYS A 135      28.801  35.588   7.501  1.00 35.99     0.618 N 
ENDBRANCH   4   5
ENDBRANCH   3   4
ENDBRANCH   2   3
ENDBRANCH   1   2
END_RES LYS A 135
BEGIN_RES TYR A 136
REMARK  2 active torsions:
REMARK  status: ('A' for Active; 'I' for Inactive)
REMARK    5  A    between atoms: CA   and  CB  
REMARK    6  A    between atoms: CB   and  CG  
ROOT
ATOM      7  CA  TYR A 136      36.583  36.399   8.994  1.00 26.14     0.191 C 
ENDROOT
BRANCH   7   8
ATOM      8  CB  TYR A 136      37.367  36.835  10.240  1.00 28.16     0.060 C 
BRANCH   8   9
ATOM      9  CG  TYR A 136      37.747  38.295  10.205  1.00 31.88    -0.020 A 
ATOM     10  CD2 TYR A 136      38.875  38.765  10.881  1.00 32.67    -0.002 A 
ATOM     11  CE2 TYR A 136      39.218  40.124  10.844  1.00 33.89     0.027 A 
ATOM     12  CZ  TYR A 136      38.424  41.020  10.124  1.00 34.34     0.131 A 
ATOM     13  OH  TYR A 136      38.749  42.368  10.067  1.00 35.14    -0.190 OA
ATOM     14  CE1 TYR A 136      37.299  40.570   9.448  1.00 35.01     0.027 A 
ATOM     15  CD1 TYR A 136      36.964  39.216   9.497  1.00 33.57    -0.002 A 
ENDBRANCH   8   9
ENDBRANCH   7   8
END_RES TYR A 136
BEGIN_RES ASN A 133
REMARK  2 active torsions:
REMARK  status: ('A' for Active; 'I' for Inactive)
REMARK    7  A    between atoms: CA   and  CB  
REMARK    8  A    between atoms: CB   and  CG  
ROOT
ATOM     16  CA  ASN A 133      31.225  30.257  11.749  1.00 18.15     0.196 C 
ENDROOT
BRANCH  16  17
ATOM     17  CB  ASN A 133      30.092  31.240  11.460  1.00 18.27     0.126 C 
BRANCH  17  18
ATOM     18  CG  ASN A 133      28.751  30.582  11.351  1.00 18.94     0.276 C 
ATOM     19  OD1 ASN A 133      28.578  29.605  10.620  1.00 18.09    -0.269 OA
ATOM     20  ND2 ASN A 133      27.777  31.119  12.084  1.00 18.93    -0.107 N 
ENDBRANCH  17  18
ENDBRANCH  16  17
END_RES ASN A 133
