REMARK VINA RESULT:    -3.731      2.449      4.927
REMARK INTER + INTRA:          -8.132
REMARK INTER:                  -4.600
REMARK INTRA:                  -3.532
REMARK UNBOUND:                -3.201
REMARK SMILES CCOC(CCn1cc(C)nn1)OCC
REMARK SMILES IDX 5 1 6 2 7 3 10 4 9 5 8 6 11 7 12 8 4 9 3 10 2 11 1 12 13 13
REMARK SMILES IDX 14 14 15 15
REMARK H PARENT
REMARK Flexibility Score: inf
ROOT
ATOM      1  C   UNL     1      38.136  34.206  12.784  1.00  0.00     0.086 C 
ENDROOT
BRANCH   1   2
ATOM      2  C   UNL     1      37.443  34.203  14.067  1.00  0.00     0.151 C 
BRANCH   2   3
ATOM      3  N   UNL     1      36.205  34.931  14.096  1.00  0.00    -0.252 N 
ATOM      4  C   UNL     1      33.043  35.979  12.576  1.00  0.00     0.070 C 
ATOM      5  C   UNL     1      34.263  35.707  13.406  1.00  0.00     0.080 A 
ATOM      6  C   UNL     1      35.312  34.899  13.059  1.00  0.00     0.134 A 
ATOM      7  N   UNL     1      34.529  36.202  14.612  1.00  0.00    -0.136 NA
ATOM      8  N   UNL     1      35.694  35.711  14.978  1.00  0.00    -0.067 NA
ENDBRANCH   2   3
ENDBRANCH   1   2
BRANCH   1   9
ATOM      9  C   UNL     1      39.623  35.033  12.900  1.00  0.00     0.251 C 
BRANCH   9  10
ATOM     10  O   UNL     1      40.570  33.800  12.537  1.00  0.00    -0.353 OA
BRANCH  10  11
ATOM     11  C   UNL     1      41.751  33.904  13.088  1.00  0.00     0.160 C 
ATOM     12  C   UNL     1      41.511  34.589  14.469  1.00  0.00     0.035 C 
ENDBRANCH  10  11
ENDBRANCH   9  10
BRANCH   9  13
ATOM     13  O   UNL     1      39.558  35.467  11.729  1.00  0.00    -0.353 OA
BRANCH  13  14
ATOM     14  C   UNL     1      40.064  36.437  11.012  1.00  0.00     0.160 C 
ATOM     15  C   UNL     1      40.588  37.514  12.005  1.00  0.00     0.035 C 
ENDBRANCH  13  14
ENDBRANCH   9  13
ENDBRANCH   1   9
TORSDOF 7
BEGIN_RES LYS A 135
REMARK  4 active torsions:
REMARK  status: ('A' for Active; 'I' for Inactive)
REMARK    1  A    between atoms: CA   and  CB  
REMARK    2  A    between atoms: CB   and  CG  
REMARK    3  A    between atoms: CG   and  CD  
REMARK    4  A    between atoms: CD   and  CE  
ROOT
ATOM      1  CA  LYS A 135      33.193  34.663   9.290  1.00 25.02     0.186 C 
ENDROOT
BRANCH   1   2
ATOM      2  CB  LYS A 135      32.060  35.360  10.034  1.00 26.63     0.034 C 
BRANCH   2   3
ATOM      3  CG  LYS A 135      30.845  35.614   9.180  1.00 29.45     0.005 C 
BRANCH   3   4
ATOM      4  CD  LYS A 135      30.244  34.303   8.698  1.00 32.00     0.041 C 
BRANCH   4   5
ATOM      5  CE  LYS A 135      28.756  34.458   8.447  1.00 34.25     0.338 C 
ATOM      6  NZ  LYS A 135      27.960  33.767   9.499  1.00 35.99     0.618 N 
ENDBRANCH   4   5
ENDBRANCH   3   4
ENDBRANCH   2   3
ENDBRANCH   1   2
END_RES LYS A 135
BEGIN_RES TYR A 136
REMARK  2 active torsions:
REMARK  status: ('A' for Active; 'I' for Inactive)
REMARK    5  A    between atoms: CA   and  CB  
REMARK    6  A    between atoms: CB   and  CG  
ROOT
ATOM      7  CA  TYR A 136      36.583  36.399   8.994  1.00 26.14     0.191 C 
ENDROOT
BRANCH   7   8
ATOM      8  CB  TYR A 136      37.367  36.835  10.240  1.00 28.16     0.060 C 
BRANCH   8   9
ATOM      9  CG  TYR A 136      36.703  37.974  10.974  1.00 31.88    -0.020 A 
ATOM     10  CD2 TYR A 136      35.926  38.916  10.296  1.00 32.67    -0.002 A 
ATOM     11  CE2 TYR A 136      35.315  39.971  10.987  1.00 33.89     0.027 A 
ATOM     12  CZ  TYR A 136      35.484  40.086  12.369  1.00 34.34     0.131 A 
ATOM     13  OH  TYR A 136      34.883  41.118  13.075  1.00 35.14    -0.190 OA
ATOM     14  CE1 TYR A 136      36.254  39.160  13.058  1.00 35.01     0.027 A 
ATOM     15  CD1 TYR A 136      36.863  38.117  12.358  1.00 33.57    -0.002 A 
ENDBRANCH   8   9
ENDBRANCH   7   8
END_RES TYR A 136
BEGIN_RES ASN A 133
REMARK  2 active torsions:
REMARK  status: ('A' for Active; 'I' for Inactive)
REMARK    7  A    between atoms: CA   and  CB  
REMARK    8  A    between atoms: CB   and  CG  
ROOT
ATOM     16  CA  ASN A 133      31.225  30.257  11.749  1.00 18.15     0.196 C 
ENDROOT
BRANCH  16  17
ATOM     17  CB  ASN A 133      30.092  31.240  11.460  1.00 18.27     0.126 C 
BRANCH  17  18
ATOM     18  CG  ASN A 133      28.750  30.584  11.363  1.00 18.94     0.276 C 
ATOM     19  OD1 ASN A 133      28.565  29.613  10.626  1.00 18.09    -0.269 OA
ATOM     20  ND2 ASN A 133      27.786  31.114  12.115  1.00 18.93    -0.107 N 
ENDBRANCH  17  18
ENDBRANCH  16  17
END_RES ASN A 133
