REMARK VINA RESULT:    -4.212      3.945      4.623
REMARK INTER + INTRA:          -7.844
REMARK INTER:                  -4.495
REMARK INTRA:                  -3.349
REMARK UNBOUND:                -3.139
REMARK SMILES Cc1cn(-c2cc(Cl)ccc2C(=O)N(C)C)nn1
REMARK SMILES IDX 5 1 6 2 7 3 8 4 9 5 10 6 11 7 4 8 1 9 2 10 3 11 18 12 17 13
REMARK SMILES IDX 12 14 13 15 14 16 15 17 16 18
REMARK H PARENT
REMARK Flexibility Score: inf
ROOT
ATOM      1  C   UNL     1      38.253  34.525  16.372  1.00  0.00     0.081 A 
ATOM      2  C   UNL     1      38.554  33.512  17.293  1.00  0.00     0.049 A 
ATOM      3  C   UNL     1      38.402  33.726  18.645  1.00  0.00     0.043 A 
ATOM      4  Cl  UNL     1      38.785  32.442  19.788  1.00  0.00    -0.084 Cl
ATOM      5  C   UNL     1      37.953  34.938  19.123  1.00  0.00     0.021 A 
ATOM      6  C   UNL     1      37.658  35.929  18.216  1.00  0.00     0.017 A 
ATOM      7  C   UNL     1      37.809  35.717  16.875  1.00  0.00     0.065 A 
ENDROOT
BRANCH   1   8
ATOM      8  N   UNL     1      38.414  34.292  14.979  1.00  0.00    -0.220 N 
ATOM      9  C   UNL     1      37.399  33.217  11.623  1.00  0.00     0.070 C 
ATOM     10  C   UNL     1      38.063  33.720  12.863  1.00  0.00     0.080 A 
ATOM     11  C   UNL     1      37.504  33.785  14.144  1.00  0.00     0.140 A 
ATOM     12  N   UNL     1      39.306  34.202  13.002  1.00  0.00    -0.135 NA
ATOM     13  N   UNL     1      39.478  34.530  14.266  1.00  0.00    -0.062 NA
ENDBRANCH   1   8
BRANCH   7  14
ATOM     14  C   UNL     1      37.486  36.794  15.934  1.00  0.00     0.255 C 
ATOM     15  O   UNL     1      38.363  37.597  15.535  1.00  0.00    -0.269 OA
ATOM     16  N   UNL     1      36.140  36.906  15.486  1.00  0.00    -0.345 N 
ATOM     17  C   UNL     1      35.795  37.980  14.544  1.00  0.00     0.146 C 
ATOM     18  C   UNL     1      35.111  36.011  15.920  1.00  0.00     0.146 C 
ENDBRANCH   7  14
TORSDOF 2
BEGIN_RES LYS A 135
REMARK  4 active torsions:
REMARK  status: ('A' for Active; 'I' for Inactive)
REMARK    1  A    between atoms: CA   and  CB  
REMARK    2  A    between atoms: CB   and  CG  
REMARK    3  A    between atoms: CG   and  CD  
REMARK    4  A    between atoms: CD   and  CE  
ROOT
ATOM      1  CA  LYS A 135      33.193  34.663   9.290  1.00 25.02     0.186 C 
ENDROOT
BRANCH   1   2
ATOM      2  CB  LYS A 135      32.060  35.360  10.034  1.00 26.63     0.034 C 
BRANCH   2   3
ATOM      3  CG  LYS A 135      30.810  35.526   9.209  1.00 29.45     0.005 C 
BRANCH   3   4
ATOM      4  CD  LYS A 135      30.161  34.177   8.941  1.00 32.00     0.041 C 
BRANCH   4   5
ATOM      5  CE  LYS A 135      28.694  34.351   8.595  1.00 34.25     0.338 C 
ATOM      6  NZ  LYS A 135      27.822  33.707   9.616  1.00 35.99     0.618 N 
ENDBRANCH   4   5
ENDBRANCH   3   4
ENDBRANCH   2   3
ENDBRANCH   1   2
END_RES LYS A 135
BEGIN_RES TYR A 136
REMARK  2 active torsions:
REMARK  status: ('A' for Active; 'I' for Inactive)
REMARK    5  A    between atoms: CA   and  CB  
REMARK    6  A    between atoms: CB   and  CG  
ROOT
ATOM      7  CA  TYR A 136      36.583  36.399   8.994  1.00 26.14     0.191 C 
ENDROOT
BRANCH   7   8
ATOM      8  CB  TYR A 136      37.367  36.835  10.240  1.00 28.16     0.060 C 
BRANCH   8   9
ATOM      9  CG  TYR A 136      37.217  38.307  10.534  1.00 31.88    -0.020 A 
ATOM     10  CD2 TYR A 136      37.856  38.895  11.629  1.00 32.67    -0.002 A 
ATOM     11  CE2 TYR A 136      37.708  40.263  11.894  1.00 33.89     0.027 A 
ATOM     12  CZ  TYR A 136      36.914  41.051  11.057  1.00 34.34     0.131 A 
ATOM     13  OH  TYR A 136      36.760  42.409  11.296  1.00 35.14    -0.190 OA
ATOM     14  CE1 TYR A 136      36.272  40.483   9.966  1.00 35.01     0.027 A 
ATOM     15  CD1 TYR A 136      36.421  39.118   9.715  1.00 33.57    -0.002 A 
ENDBRANCH   8   9
ENDBRANCH   7   8
END_RES TYR A 136
BEGIN_RES ASN A 133
REMARK  2 active torsions:
REMARK  status: ('A' for Active; 'I' for Inactive)
REMARK    7  A    between atoms: CA   and  CB  
REMARK    8  A    between atoms: CB   and  CG  
ROOT
ATOM     16  CA  ASN A 133      31.225  30.257  11.749  1.00 18.15     0.196 C 
ENDROOT
BRANCH  16  17
ATOM     17  CB  ASN A 133      30.092  31.240  11.460  1.00 18.27     0.126 C 
BRANCH  17  18
ATOM     18  CG  ASN A 133      28.749  30.584  11.367  1.00 18.94     0.276 C 
ATOM     19  OD1 ASN A 133      28.565  29.606  10.640  1.00 18.09    -0.269 OA
ATOM     20  ND2 ASN A 133      27.784  31.124  12.111  1.00 18.93    -0.107 N 
ENDBRANCH  17  18
ENDBRANCH  16  17
END_RES ASN A 133
