REMARK VINA RESULT:    -3.921      1.776      2.268
REMARK INTER + INTRA:          -8.108
REMARK INTER:                  -4.836
REMARK INTRA:                  -3.272
REMARK UNBOUND:                -3.500
REMARK SMILES Cc1cn(CS(=O)(=O)c2ccccc2)nn1
REMARK SMILES IDX 5 1 4 2 1 3 2 4 3 5 16 6 15 7 6 8 7 9 8 10 9 11 10 12 14 13
REMARK SMILES IDX 11 14 13 15 12 16
REMARK H PARENT
REMARK Flexibility Score: inf
ROOT
ATOM      1  C   UNL     1      38.417  34.380  14.350  1.00  0.00     0.287 C 
ENDROOT
BRANCH   1   2
ATOM      2  N   UNL     1      39.410  34.838  13.397  1.00  0.00    -0.237 N 
ATOM      3  C   UNL     1      40.662  36.469  10.358  1.00  0.00     0.070 C 
ATOM      4  C   UNL     1      40.452  35.752  11.644  1.00  0.00     0.080 A 
ATOM      5  C   UNL     1      39.222  35.512  12.248  1.00  0.00     0.135 A 
ATOM      6  N   UNL     1      41.352  35.199  12.476  1.00  0.00    -0.136 NA
ATOM      7  N   UNL     1      40.727  34.660  13.512  1.00  0.00    -0.066 NA
ENDBRANCH   1   2
BRANCH   1   8
ATOM      8  S   UNL     1      37.674  35.725  15.226  1.00  0.00     0.198 S 
ATOM      9  O   UNL     1      38.609  36.884  15.383  1.00  0.00    -0.222 OA
ATOM     10  O   UNL     1      37.287  35.283  16.610  1.00  0.00    -0.222 OA
BRANCH   8  11
ATOM     11  C   UNL     1      36.233  36.294  14.437  1.00  0.00     0.069 A 
ATOM     12  C   UNL     1      35.641  35.598  13.394  1.00  0.00     0.020 A 
ATOM     13  C   UNL     1      35.657  37.461  14.847  1.00  0.00     0.020 A 
ATOM     14  C   UNL     1      34.503  36.061  12.781  1.00  0.00     0.001 A 
ATOM     15  C   UNL     1      34.504  37.974  14.260  1.00  0.00     0.001 A 
ATOM     16  C   UNL     1      33.937  37.262  13.226  1.00  0.00     0.000 A 
ENDBRANCH   8  11
ENDBRANCH   1   8
TORSDOF 3
BEGIN_RES LYS A 135
REMARK  4 active torsions:
REMARK  status: ('A' for Active; 'I' for Inactive)
REMARK    1  A    between atoms: CA   and  CB  
REMARK    2  A    between atoms: CB   and  CG  
REMARK    3  A    between atoms: CG   and  CD  
REMARK    4  A    between atoms: CD   and  CE  
ROOT
ATOM      1  CA  LYS A 135      33.193  34.663   9.290  1.00 25.02     0.186 C 
ENDROOT
BRANCH   1   2
ATOM      2  CB  LYS A 135      32.060  35.360  10.034  1.00 26.63     0.034 C 
BRANCH   2   3
ATOM      3  CG  LYS A 135      30.721  34.693   9.854  1.00 29.45     0.005 C 
BRANCH   3   4
ATOM      4  CD  LYS A 135      30.456  34.409   8.383  1.00 32.00     0.041 C 
BRANCH   4   5
ATOM      5  CE  LYS A 135      29.021  34.744   8.026  1.00 34.25     0.338 C 
ATOM      6  NZ  LYS A 135      28.956  35.586   6.800  1.00 35.99     0.618 N 
ENDBRANCH   4   5
ENDBRANCH   3   4
ENDBRANCH   2   3
ENDBRANCH   1   2
END_RES LYS A 135
BEGIN_RES TYR A 136
REMARK  2 active torsions:
REMARK  status: ('A' for Active; 'I' for Inactive)
REMARK    5  A    between atoms: CA   and  CB  
REMARK    6  A    between atoms: CB   and  CG  
ROOT
ATOM      7  CA  TYR A 136      36.583  36.399   8.994  1.00 26.14     0.191 C 
ENDROOT
BRANCH   7   8
ATOM      8  CB  TYR A 136      37.367  36.835  10.240  1.00 28.16     0.060 C 
BRANCH   8   9
ATOM      9  CG  TYR A 136      36.866  38.137  10.814  1.00 31.88    -0.020 A 
ATOM     10  CD2 TYR A 136      35.729  38.764  10.301  1.00 32.67    -0.002 A 
ATOM     11  CE2 TYR A 136      35.273  39.975  10.840  1.00 33.89     0.027 A 
ATOM     12  CZ  TYR A 136      35.962  40.564  11.903  1.00 34.34     0.131 A 
ATOM     13  OH  TYR A 136      35.525  41.759  12.458  1.00 35.14    -0.190 OA
ATOM     14  CE1 TYR A 136      37.095  39.956  12.425  1.00 35.01     0.027 A 
ATOM     15  CD1 TYR A 136      37.543  38.753  11.875  1.00 33.57    -0.002 A 
ENDBRANCH   8   9
ENDBRANCH   7   8
END_RES TYR A 136
BEGIN_RES ASN A 133
REMARK  2 active torsions:
REMARK  status: ('A' for Active; 'I' for Inactive)
REMARK    7  A    between atoms: CA   and  CB  
REMARK    8  A    between atoms: CB   and  CG  
ROOT
ATOM     16  CA  ASN A 133      31.225  30.257  11.749  1.00 18.15     0.196 C 
ENDROOT
BRANCH  16  17
ATOM     17  CB  ASN A 133      30.092  31.240  11.460  1.00 18.27     0.126 C 
BRANCH  17  18
ATOM     18  CG  ASN A 133      28.749  30.585  11.369  1.00 18.94     0.276 C 
ATOM     19  OD1 ASN A 133      28.563  29.608  10.640  1.00 18.09    -0.269 OA
ATOM     20  ND2 ASN A 133      27.786  31.123  12.116  1.00 18.93    -0.107 N 
ENDBRANCH  17  18
ENDBRANCH  16  17
END_RES ASN A 133
