REMARK VINA RESULT:    -4.092      8.332     15.028
REMARK INTER + INTRA:          -7.412
REMARK INTER:                  -4.293
REMARK INTRA:                  -3.119
REMARK UNBOUND:                -3.081
REMARK SMILES Cc1cn(-c2cccc(Cl)c2)nn1
REMARK SMILES IDX 5 1 6 2 7 3 8 4 9 5 10 6 11 7 4 8 1 9 2 10 3 11 13 12 12 13
REMARK H PARENT
REMARK Flexibility Score: inf
ROOT
ATOM      1  C   UNL     1      37.321  34.762  13.828  1.00  0.00     0.068 A 
ATOM      2  C   UNL     1      36.342  34.330  12.972  1.00  0.00     0.028 A 
ATOM      3  C   UNL     1      35.016  34.599  13.215  1.00  0.00     0.004 A 
ATOM      4  C   UNL     1      34.683  35.317  14.348  1.00  0.00     0.020 A 
ATOM      5  C   UNL     1      35.635  35.771  15.238  1.00  0.00     0.043 A 
ATOM      6  Cl  UNL     1      35.189  36.689  16.682  1.00  0.00    -0.084 Cl
ATOM      7  C   UNL     1      36.951  35.476  14.949  1.00  0.00     0.049 A 
ENDROOT
BRANCH   1   8
ATOM      8  N   UNL     1      38.717  34.490  13.590  1.00  0.00    -0.220 N 
ATOM      9  C   UNL     1      42.307  34.694  13.936  1.00  0.00     0.070 C 
ATOM     10  C   UNL     1      40.892  34.450  13.627  1.00  0.00     0.080 A 
ATOM     11  C   UNL     1      39.780  35.019  14.189  1.00  0.00     0.140 A 
ATOM     12  N   UNL     1      40.431  33.592  12.699  1.00  0.00    -0.135 NA
ATOM     13  N   UNL     1      39.117  33.619  12.679  1.00  0.00    -0.062 NA
ENDBRANCH   1   8
TORSDOF 1
BEGIN_RES LYS A 135
REMARK  4 active torsions:
REMARK  status: ('A' for Active; 'I' for Inactive)
REMARK    1  A    between atoms: CA   and  CB  
REMARK    2  A    between atoms: CB   and  CG  
REMARK    3  A    between atoms: CG   and  CD  
REMARK    4  A    between atoms: CD   and  CE  
ROOT
ATOM      1  CA  LYS A 135      33.193  34.663   9.290  1.00 25.02     0.186 C 
ENDROOT
BRANCH   1   2
ATOM      2  CB  LYS A 135      32.060  35.360  10.034  1.00 26.63     0.034 C 
BRANCH   2   3
ATOM      3  CG  LYS A 135      30.709  34.737   9.795  1.00 29.45     0.005 C 
BRANCH   3   4
ATOM      4  CD  LYS A 135      30.470  34.529   8.307  1.00 32.00     0.041 C 
BRANCH   4   5
ATOM      5  CE  LYS A 135      29.027  34.831   7.952  1.00 34.25     0.338 C 
ATOM      6  NZ  LYS A 135      28.932  35.537   6.644  1.00 35.99     0.618 N 
ENDBRANCH   4   5
ENDBRANCH   3   4
ENDBRANCH   2   3
ENDBRANCH   1   2
END_RES LYS A 135
BEGIN_RES TYR A 136
REMARK  2 active torsions:
REMARK  status: ('A' for Active; 'I' for Inactive)
REMARK    5  A    between atoms: CA   and  CB  
REMARK    6  A    between atoms: CB   and  CG  
ROOT
ATOM      7  CA  TYR A 136      36.583  36.399   8.994  1.00 26.14     0.191 C 
ENDROOT
BRANCH   7   8
ATOM      8  CB  TYR A 136      37.367  36.835  10.240  1.00 28.16     0.060 C 
BRANCH   8   9
ATOM      9  CG  TYR A 136      36.739  38.017  10.936  1.00 31.88    -0.020 A 
ATOM     10  CD2 TYR A 136      36.600  38.048  12.325  1.00 32.67    -0.002 A 
ATOM     11  CE2 TYR A 136      36.014  39.151  12.962  1.00 33.89     0.027 A 
ATOM     12  CZ  TYR A 136      35.563  40.232  12.202  1.00 34.34     0.131 A 
ATOM     13  OH  TYR A 136      34.986  41.338  12.811  1.00 35.14    -0.190 OA
ATOM     14  CE1 TYR A 136      35.692  40.218  10.820  1.00 35.01     0.027 A 
ATOM     15  CD1 TYR A 136      36.272  39.112  10.197  1.00 33.57    -0.002 A 
ENDBRANCH   8   9
ENDBRANCH   7   8
END_RES TYR A 136
BEGIN_RES ASN A 133
REMARK  2 active torsions:
REMARK  status: ('A' for Active; 'I' for Inactive)
REMARK    7  A    between atoms: CA   and  CB  
REMARK    8  A    between atoms: CB   and  CG  
ROOT
ATOM     16  CA  ASN A 133      31.225  30.257  11.749  1.00 18.15     0.196 C 
ENDROOT
BRANCH  16  17
ATOM     17  CB  ASN A 133      30.092  31.240  11.460  1.00 18.27     0.126 C 
BRANCH  17  18
ATOM     18  CG  ASN A 133      28.751  30.582  11.352  1.00 18.94     0.276 C 
ATOM     19  OD1 ASN A 133      28.576  29.605  10.622  1.00 18.09    -0.269 OA
ATOM     20  ND2 ASN A 133      27.778  31.120  12.087  1.00 18.93    -0.107 N 
ENDBRANCH  17  18
ENDBRANCH  16  17
END_RES ASN A 133
