REMARK VINA RESULT:    -3.796      1.195      3.123
REMARK INTER + INTRA:          -7.137
REMARK INTER:                  -4.047
REMARK INTRA:                  -3.090
REMARK UNBOUND:                -3.119
REMARK SMILES Cc1cn(C2CCCC2)nn1
REMARK SMILES IDX 5 1 6 2 7 3 8 4 9 5 4 6 1 7 2 8 3 9 11 10 10 11
REMARK H PARENT
REMARK Flexibility Score: inf
ROOT
ATOM      1  C   UNL     1      35.216  36.187  14.123  1.00  0.00     0.109 C 
ATOM      2  C   UNL     1      34.482  36.245  12.783  1.00  0.00     0.027 C 
ATOM      3  C   UNL     1      33.667  37.512  12.965  1.00  0.00     0.002 C 
ATOM      4  C   UNL     1      34.471  38.400  13.893  1.00  0.00     0.002 C 
ATOM      5  C   UNL     1      35.718  37.586  14.258  1.00  0.00     0.027 C 
ENDROOT
BRANCH   1   6
ATOM      6  N   UNL     1      36.287  35.200  14.086  1.00  0.00    -0.249 N 
ATOM      7  C   UNL     1      38.165  32.452  12.520  1.00  0.00     0.070 C 
ATOM      8  C   UNL     1      37.580  33.552  13.367  1.00  0.00     0.080 A 
ATOM      9  C   UNL     1      36.487  34.337  13.078  1.00  0.00     0.134 A 
ATOM     10  N   UNL     1      37.998  33.986  14.565  1.00  0.00    -0.136 NA
ATOM     11  N   UNL     1      37.221  34.964  14.978  1.00  0.00    -0.067 NA
ENDBRANCH   1   6
TORSDOF 1
BEGIN_RES LYS A 135
REMARK  4 active torsions:
REMARK  status: ('A' for Active; 'I' for Inactive)
REMARK    1  A    between atoms: CA   and  CB  
REMARK    2  A    between atoms: CB   and  CG  
REMARK    3  A    between atoms: CG   and  CD  
REMARK    4  A    between atoms: CD   and  CE  
ROOT
ATOM      1  CA  LYS A 135      33.193  34.663   9.290  1.00 25.02     0.186 C 
ENDROOT
BRANCH   1   2
ATOM      2  CB  LYS A 135      32.060  35.360  10.034  1.00 26.63     0.034 C 
BRANCH   2   3
ATOM      3  CG  LYS A 135      30.727  34.674   9.881  1.00 29.45     0.005 C 
BRANCH   3   4
ATOM      4  CD  LYS A 135      30.328  34.596   8.415  1.00 32.00     0.041 C 
BRANCH   4   5
ATOM      5  CE  LYS A 135      28.819  34.546   8.276  1.00 34.25     0.338 C 
ATOM      6  NZ  LYS A 135      28.197  33.838   9.429  1.00 35.99     0.618 N 
ENDBRANCH   4   5
ENDBRANCH   3   4
ENDBRANCH   2   3
ENDBRANCH   1   2
END_RES LYS A 135
BEGIN_RES TYR A 136
REMARK  2 active torsions:
REMARK  status: ('A' for Active; 'I' for Inactive)
REMARK    5  A    between atoms: CA   and  CB  
REMARK    6  A    between atoms: CB   and  CG  
ROOT
ATOM      7  CA  TYR A 136      36.583  36.399   8.994  1.00 26.14     0.191 C 
ENDROOT
BRANCH   7   8
ATOM      8  CB  TYR A 136      37.367  36.835  10.240  1.00 28.16     0.060 C 
BRANCH   8   9
ATOM      9  CG  TYR A 136      36.987  38.218  10.710  1.00 31.88    -0.020 A 
ATOM     10  CD2 TYR A 136      35.818  38.837  10.264  1.00 32.67    -0.002 A 
ATOM     11  CE2 TYR A 136      35.475  40.123  10.705  1.00 33.89     0.027 A 
ATOM     12  CZ  TYR A 136      36.310  40.794  11.601  1.00 34.34     0.131 A 
ATOM     13  OH  TYR A 136      35.987  42.065  12.057  1.00 35.14    -0.190 OA
ATOM     14  CE1 TYR A 136      37.477  40.194  12.054  1.00 35.01     0.027 A 
ATOM     15  CD1 TYR A 136      37.811  38.916  11.602  1.00 33.57    -0.002 A 
ENDBRANCH   8   9
ENDBRANCH   7   8
END_RES TYR A 136
BEGIN_RES ASN A 133
REMARK  2 active torsions:
REMARK  status: ('A' for Active; 'I' for Inactive)
REMARK    7  A    between atoms: CA   and  CB  
REMARK    8  A    between atoms: CB   and  CG  
ROOT
ATOM     16  CA  ASN A 133      31.225  30.257  11.749  1.00 18.15     0.196 C 
ENDROOT
BRANCH  16  17
ATOM     17  CB  ASN A 133      30.092  31.240  11.460  1.00 18.27     0.126 C 
BRANCH  17  18
ATOM     18  CG  ASN A 133      28.751  30.583  11.356  1.00 18.94     0.276 C 
ATOM     19  OD1 ASN A 133      28.578  29.596  10.639  1.00 18.09    -0.269 OA
ATOM     20  ND2 ASN A 133      27.775  31.132  12.078  1.00 18.93    -0.107 N 
ENDBRANCH  17  18
ENDBRANCH  16  17
END_RES ASN A 133
