REMARK VINA RESULT:    -3.236      8.008     12.878
REMARK INTER + INTRA:          -7.106
REMARK INTER:                  -3.876
REMARK INTRA:                  -3.230
REMARK UNBOUND:                -3.113
REMARK SMILES CC(=O)OCCn1cc(C)nn1
REMARK SMILES IDX 5 1 6 2 7 3 10 4 9 5 8 6 11 7 12 8 4 9 2 10 3 11 1 12
REMARK H PARENT
REMARK Flexibility Score: inf
ROOT
ATOM      1  C   UNL     1      35.620  34.322  13.008  1.00  0.00     0.256 C 
ENDROOT
BRANCH   1   2
ATOM      2  C   UNL     1      34.736  35.085  13.942  1.00  0.00     0.187 C 
BRANCH   2   3
ATOM      3  N   UNL     1      34.302  36.355  13.387  1.00  0.00    -0.249 N 
ATOM      4  C   UNL     1      32.579  38.544  11.033  1.00  0.00     0.070 C 
ATOM      5  C   UNL     1      33.357  37.898  12.115  1.00  0.00     0.080 A 
ATOM      6  C   UNL     1      33.540  36.537  12.305  1.00  0.00     0.134 A 
ATOM      7  N   UNL     1      34.047  38.477  13.133  1.00  0.00    -0.136 NA
ATOM      8  N   UNL     1      34.602  37.540  13.882  1.00  0.00    -0.067 NA
ENDBRANCH   2   3
ENDBRANCH   1   2
BRANCH   1   9
ATOM      9  O   UNL     1      36.872  34.939  12.934  1.00  0.00    -0.464 OA
BRANCH   9  10
ATOM     10  C   UNL     1      38.019  34.284  12.592  1.00  0.00     0.302 C 
ATOM     11  O   UNL     1      39.057  34.906  12.275  1.00  0.00    -0.253 OA
ATOM     12  C   UNL     1      38.114  32.780  12.572  1.00  0.00     0.139 C 
ENDBRANCH   9  10
ENDBRANCH   1   9
TORSDOF 4
BEGIN_RES LYS A 135
REMARK  4 active torsions:
REMARK  status: ('A' for Active; 'I' for Inactive)
REMARK    1  A    between atoms: CA   and  CB  
REMARK    2  A    between atoms: CB   and  CG  
REMARK    3  A    between atoms: CG   and  CD  
REMARK    4  A    between atoms: CD   and  CE  
ROOT
ATOM      1  CA  LYS A 135      33.193  34.663   9.290  1.00 25.02     0.186 C 
ENDROOT
BRANCH   1   2
ATOM      2  CB  LYS A 135      32.060  35.360  10.034  1.00 26.63     0.034 C 
BRANCH   2   3
ATOM      3  CG  LYS A 135      30.873  35.679   9.162  1.00 29.45     0.005 C 
BRANCH   3   4
ATOM      4  CD  LYS A 135      30.400  34.436   8.424  1.00 32.00     0.041 C 
BRANCH   4   5
ATOM      5  CE  LYS A 135      28.885  34.408   8.346  1.00 34.25     0.338 C 
ATOM      6  NZ  LYS A 135      28.293  33.865   9.600  1.00 35.99     0.618 N 
ENDBRANCH   4   5
ENDBRANCH   3   4
ENDBRANCH   2   3
ENDBRANCH   1   2
END_RES LYS A 135
BEGIN_RES TYR A 136
REMARK  2 active torsions:
REMARK  status: ('A' for Active; 'I' for Inactive)
REMARK    5  A    between atoms: CA   and  CB  
REMARK    6  A    between atoms: CB   and  CG  
ROOT
ATOM      7  CA  TYR A 136      36.583  36.399   8.994  1.00 26.14     0.191 C 
ENDROOT
BRANCH   7   8
ATOM      8  CB  TYR A 136      37.367  36.835  10.240  1.00 28.16     0.060 C 
BRANCH   8   9
ATOM      9  CG  TYR A 136      37.004  38.227  10.696  1.00 31.88    -0.020 A 
ATOM     10  CD2 TYR A 136      36.166  39.043   9.933  1.00 32.67    -0.002 A 
ATOM     11  CE2 TYR A 136      35.836  40.335  10.365  1.00 33.89     0.027 A 
ATOM     12  CZ  TYR A 136      36.350  40.815  11.572  1.00 34.34     0.131 A 
ATOM     13  OH  TYR A 136      36.032  42.088  12.023  1.00 35.14    -0.190 OA
ATOM     14  CE1 TYR A 136      37.185  40.018  12.343  1.00 35.01     0.027 A 
ATOM     15  CD1 TYR A 136      37.511  38.736  11.899  1.00 33.57    -0.002 A 
ENDBRANCH   8   9
ENDBRANCH   7   8
END_RES TYR A 136
BEGIN_RES ASN A 133
REMARK  2 active torsions:
REMARK  status: ('A' for Active; 'I' for Inactive)
REMARK    7  A    between atoms: CA   and  CB  
REMARK    8  A    between atoms: CB   and  CG  
ROOT
ATOM     16  CA  ASN A 133      31.225  30.257  11.749  1.00 18.15     0.196 C 
ENDROOT
BRANCH  16  17
ATOM     17  CB  ASN A 133      30.092  31.240  11.460  1.00 18.27     0.126 C 
BRANCH  17  18
ATOM     18  CG  ASN A 133      28.748  30.585  11.374  1.00 18.94     0.276 C 
ATOM     19  OD1 ASN A 133      28.563  29.601  10.656  1.00 18.09    -0.269 OA
ATOM     20  ND2 ASN A 133      27.785  31.133  12.113  1.00 18.93    -0.107 N 
ENDBRANCH  17  18
ENDBRANCH  16  17
END_RES ASN A 133
