REMARK VINA RESULT:    -3.888      8.050     11.463
REMARK INTER + INTRA:          -7.258
REMARK INTER:                  -4.115
REMARK INTRA:                  -3.143
REMARK UNBOUND:                -3.143
REMARK SMILES Cc1cn(-c2ccc3c(c2)OCO3)nn1
REMARK SMILES IDX 5 1 6 2 7 3 8 4 9 5 10 6 11 7 12 8 13 9 4 10 1 11 2 12 3 13
REMARK SMILES IDX 15 14 14 15
REMARK H PARENT
REMARK Flexibility Score: inf
ROOT
ATOM      1  C   UNL     1      35.229  38.965   4.202  1.00  0.00     0.070 A 
ATOM      2  C   UNL     1      34.410  39.594   3.291  1.00  0.00     0.032 A 
ATOM      3  C   UNL     1      33.253  40.215   3.707  1.00  0.00     0.053 A 
ATOM      4  C   UNL     1      32.948  40.180   5.070  1.00  0.00     0.165 A 
ATOM      5  C   UNL     1      33.761  39.553   5.986  1.00  0.00     0.167 A 
ATOM      6  C   UNL     1      34.902  38.948   5.538  1.00  0.00     0.079 A 
ATOM      7  O   UNL     1      33.166  39.704   7.258  1.00  0.00    -0.454 OA
ATOM      8  C   UNL     1      31.795  39.982   7.044  1.00  0.00     0.468 C 
ATOM      9  O   UNL     1      31.879  40.697   5.802  1.00  0.00    -0.454 OA
ENDROOT
BRANCH   1  10
ATOM     10  N   UNL     1      36.434  38.325   3.733  1.00  0.00    -0.220 N 
ATOM     11  C   UNL     1      39.621  36.526   4.135  1.00  0.00     0.070 C 
ATOM     12  C   UNL     1      38.375  37.247   3.703  1.00  0.00     0.080 A 
ATOM     13  C   UNL     1      37.374  37.752   4.509  1.00  0.00     0.140 A 
ATOM     14  N   UNL     1      38.000  37.535   2.444  1.00  0.00    -0.135 NA
ATOM     15  N   UNL     1      36.841  38.177   2.495  1.00  0.00    -0.062 NA
ENDBRANCH   1  10
TORSDOF 1
BEGIN_RES LYS A 135
REMARK  4 active torsions:
REMARK  status: ('A' for Active; 'I' for Inactive)
REMARK    1  A    between atoms: CA   and  CB  
REMARK    2  A    between atoms: CB   and  CG  
REMARK    3  A    between atoms: CG   and  CD  
REMARK    4  A    between atoms: CD   and  CE  
ROOT
ATOM      1  CA  LYS A 135      33.193  34.663   9.290  1.00 25.02     0.186 C 
ENDROOT
BRANCH   1   2
ATOM      2  CB  LYS A 135      32.060  35.360  10.034  1.00 26.63     0.034 C 
BRANCH   2   3
ATOM      3  CG  LYS A 135      30.828  35.574   9.192  1.00 29.45     0.005 C 
BRANCH   3   4
ATOM      4  CD  LYS A 135      30.100  34.259   8.963  1.00 32.00     0.041 C 
BRANCH   4   5
ATOM      5  CE  LYS A 135      28.749  34.504   8.318  1.00 34.25     0.338 C 
ATOM      6  NZ  LYS A 135      28.875  35.395   7.132  1.00 35.99     0.618 N 
ENDBRANCH   4   5
ENDBRANCH   3   4
ENDBRANCH   2   3
ENDBRANCH   1   2
END_RES LYS A 135
BEGIN_RES TYR A 136
REMARK  2 active torsions:
REMARK  status: ('A' for Active; 'I' for Inactive)
REMARK    5  A    between atoms: CA   and  CB  
REMARK    6  A    between atoms: CB   and  CG  
ROOT
ATOM      7  CA  TYR A 136      36.583  36.399   8.994  1.00 26.14     0.191 C 
ENDROOT
BRANCH   7   8
ATOM      8  CB  TYR A 136      37.367  36.835  10.240  1.00 28.16     0.060 C 
BRANCH   8   9
ATOM      9  CG  TYR A 136      37.357  38.331  10.438  1.00 31.88    -0.020 A 
ATOM     10  CD2 TYR A 136      38.237  38.948  11.329  1.00 32.67    -0.002 A 
ATOM     11  CE2 TYR A 136      38.218  40.339  11.507  1.00 33.89     0.027 A 
ATOM     12  CZ  TYR A 136      37.309  41.118  10.787  1.00 34.34     0.131 A 
ATOM     13  OH  TYR A 136      37.278  42.497  10.942  1.00 35.14    -0.190 OA
ATOM     14  CE1 TYR A 136      36.427  40.521   9.898  1.00 35.01     0.027 A 
ATOM     15  CD1 TYR A 136      36.451  39.135   9.734  1.00 33.57    -0.002 A 
ENDBRANCH   8   9
ENDBRANCH   7   8
END_RES TYR A 136
BEGIN_RES ASN A 133
REMARK  2 active torsions:
REMARK  status: ('A' for Active; 'I' for Inactive)
REMARK    7  A    between atoms: CA   and  CB  
REMARK    8  A    between atoms: CB   and  CG  
ROOT
ATOM     16  CA  ASN A 133      31.225  30.257  11.749  1.00 18.15     0.196 C 
ENDROOT
BRANCH  16  17
ATOM     17  CB  ASN A 133      30.092  31.240  11.460  1.00 18.27     0.126 C 
BRANCH  17  18
ATOM     18  CG  ASN A 133      28.752  30.581  11.345  1.00 18.94     0.276 C 
ATOM     19  OD1 ASN A 133      28.581  29.609  10.607  1.00 18.09    -0.269 OA
ATOM     20  ND2 ASN A 133      27.776  31.112  12.080  1.00 18.93    -0.107 N 
ENDBRANCH  17  18
ENDBRANCH  16  17
END_RES ASN A 133
