REMARK VINA RESULT:    -5.739      2.459      3.616
REMARK INTER + INTRA:          -7.317
REMARK INTER:                  -4.186
REMARK INTRA:                  -3.132
REMARK UNBOUND:                -1.243
REMARK SMILES Cc1cn(-c2ccccc2Br)nn1
REMARK SMILES IDX 5 1 6 2 7 3 8 4 9 5 10 6 11 7 4 8 1 9 2 10 3 11 13 12 12 13
REMARK H PARENT
REMARK Flexibility Score: inf
ROOT
ATOM      1  C   UNL     1      38.300  34.245  16.576  1.00  0.00     0.081 A 
ATOM      2  C   UNL     1      38.778  33.156  17.273  1.00  0.00     0.029 A 
ATOM      3  C   UNL     1      38.614  33.094  18.642  1.00  0.00     0.002 A 
ATOM      4  C   UNL     1      37.973  34.119  19.305  1.00  0.00     0.001 A 
ATOM      5  C   UNL     1      37.504  35.195  18.590  1.00  0.00     0.018 A 
ATOM      6  C   UNL     1      37.651  35.290  17.219  1.00  0.00     0.043 A 
ATOM      7  Br  UNL     1      36.990  36.798  16.249  1.00  0.00    -0.048 Br
ENDROOT
BRANCH   1   8
ATOM      8  N   UNL     1      38.487  34.274  15.176  1.00  0.00    -0.219 N 
ATOM      9  C   UNL     1      37.316  33.520  11.813  1.00  0.00     0.070 C 
ATOM     10  C   UNL     1      38.037  33.945  13.035  1.00  0.00     0.080 A 
ATOM     11  C   UNL     1      37.574  33.768  14.301  1.00  0.00     0.140 A 
ATOM     12  N   UNL     1      39.225  34.554  13.143  1.00  0.00    -0.135 NA
ATOM     13  N   UNL     1      39.469  34.740  14.442  1.00  0.00    -0.062 NA
ENDBRANCH   1   8
TORSDOF 1
BEGIN_RES LYS A 135
REMARK  4 active torsions:
REMARK  status: ('A' for Active; 'I' for Inactive)
REMARK    1  A    between atoms: CA   and  CB  
REMARK    2  A    between atoms: CB   and  CG  
REMARK    3  A    between atoms: CG   and  CD  
REMARK    4  A    between atoms: CD   and  CE  
ROOT
ATOM      1  CA  LYS A 135      33.193  34.663   9.290  1.00 25.02     0.186 C 
ENDROOT
BRANCH   1   2
ATOM      2  CB  LYS A 135      32.060  35.360  10.034  1.00 26.63     0.034 C 
BRANCH   2   3
ATOM      3  CG  LYS A 135      30.803  35.508   9.216  1.00 29.45     0.005 C 
BRANCH   3   4
ATOM      4  CD  LYS A 135      30.160  34.152   8.969  1.00 32.00     0.041 C 
BRANCH   4   5
ATOM      5  CE  LYS A 135      28.695  34.314   8.613  1.00 34.25     0.338 C 
ATOM      6  NZ  LYS A 135      27.820  33.705   9.653  1.00 35.99     0.618 N 
ENDBRANCH   4   5
ENDBRANCH   3   4
ENDBRANCH   2   3
ENDBRANCH   1   2
END_RES LYS A 135
BEGIN_RES TYR A 136
REMARK  2 active torsions:
REMARK  status: ('A' for Active; 'I' for Inactive)
REMARK    5  A    between atoms: CA   and  CB  
REMARK    6  A    between atoms: CB   and  CG  
ROOT
ATOM      7  CA  TYR A 136      36.583  36.399   8.994  1.00 26.14     0.191 C 
ENDROOT
BRANCH   7   8
ATOM      8  CB  TYR A 136      37.367  36.835  10.240  1.00 28.16     0.060 C 
BRANCH   8   9
ATOM      9  CG  TYR A 136      36.763  38.044  10.912  1.00 31.88    -0.020 A 
ATOM     10  CD2 TYR A 136      36.264  39.112  10.165  1.00 32.67    -0.002 A 
ATOM     11  CE2 TYR A 136      35.706  40.231  10.798  1.00 33.89     0.027 A 
ATOM     12  CZ  TYR A 136      35.649  40.281  12.193  1.00 34.34     0.131 A 
ATOM     13  OH  TYR A 136      35.095  41.376  12.842  1.00 35.14    -0.190 OA
ATOM     14  CE1 TYR A 136      36.141  39.229  12.952  1.00 35.01     0.027 A 
ATOM     15  CD1 TYR A 136      36.700  38.123  12.309  1.00 33.57    -0.002 A 
ENDBRANCH   8   9
ENDBRANCH   7   8
END_RES TYR A 136
BEGIN_RES ASN A 133
REMARK  2 active torsions:
REMARK  status: ('A' for Active; 'I' for Inactive)
REMARK    7  A    between atoms: CA   and  CB  
REMARK    8  A    between atoms: CB   and  CG  
ROOT
ATOM     16  CA  ASN A 133      31.225  30.257  11.749  1.00 18.15     0.196 C 
ENDROOT
BRANCH  16  17
ATOM     17  CB  ASN A 133      30.092  31.240  11.460  1.00 18.27     0.126 C 
BRANCH  17  18
ATOM     18  CG  ASN A 133      28.751  30.583  11.356  1.00 18.94     0.276 C 
ATOM     19  OD1 ASN A 133      28.571  29.610  10.622  1.00 18.09    -0.269 OA
ATOM     20  ND2 ASN A 133      27.782  31.116  12.100  1.00 18.93    -0.107 N 
ENDBRANCH  17  18
ENDBRANCH  16  17
END_RES ASN A 133
