REMARK VINA RESULT:    -3.172      2.230      3.773
REMARK INTER + INTRA:          -6.971
REMARK INTER:                  -3.631
REMARK INTRA:                  -3.340
REMARK UNBOUND:                -3.243
REMARK SMILES Cc1cn(CCC2OCCO2)nn1
REMARK SMILES IDX 5 1 4 2 1 3 2 4 3 5 13 6 12 7 6 8 7 9 8 10 11 11 9 12 10 13
REMARK H PARENT
REMARK Flexibility Score: inf
ROOT
ATOM      1  C   UNL     1      21.052  33.790  -0.694  1.00  0.00     0.151 C 
ENDROOT
BRANCH   1   2
ATOM      2  N   UNL     1      21.883  34.962  -0.780  1.00  0.00    -0.252 N 
ATOM      3  C   UNL     1      24.587  36.948  -2.155  1.00  0.00     0.070 C 
ATOM      4  C   UNL     1      23.437  36.343  -1.426  1.00  0.00     0.080 A 
ATOM      5  C   UNL     1      22.889  35.100  -1.652  1.00  0.00     0.134 A 
ATOM      6  N   UNL     1      22.743  36.912  -0.426  1.00  0.00    -0.136 NA
ATOM      7  N   UNL     1      21.805  36.059  -0.049  1.00  0.00    -0.067 NA
ENDBRANCH   1   2
BRANCH   1   8
ATOM      8  C   UNL     1      21.925  32.588  -0.559  1.00  0.00     0.086 C 
BRANCH   8   9
ATOM      9  C   UNL     1      21.647  31.540  -1.618  1.00  0.00     0.251 C 
ATOM     10  O   UNL     1      22.644  30.602  -1.710  1.00  0.00    -0.350 OA
ATOM     11  O   UNL     1      21.441  32.085  -2.861  1.00  0.00    -0.350 OA
ATOM     12  C   UNL     1      23.088  30.559  -3.010  1.00  0.00     0.192 C 
ATOM     13  C   UNL     1      22.658  31.913  -3.539  1.00  0.00     0.192 C 
ENDBRANCH   8   9
ENDBRANCH   1   8
TORSDOF 3
BEGIN_RES LYS A 135
REMARK  4 active torsions:
REMARK  status: ('A' for Active; 'I' for Inactive)
REMARK    1  A    between atoms: CA   and  CB  
REMARK    2  A    between atoms: CB   and  CG  
REMARK    3  A    between atoms: CG   and  CD  
REMARK    4  A    between atoms: CD   and  CE  
ROOT
ATOM      1  CA  LYS A 135      33.193  34.663   9.290  1.00 25.02     0.186 C 
ENDROOT
BRANCH   1   2
ATOM      2  CB  LYS A 135      32.060  35.360  10.034  1.00 26.63     0.034 C 
BRANCH   2   3
ATOM      3  CG  LYS A 135      30.731  34.662   9.899  1.00 29.45     0.005 C 
BRANCH   3   4
ATOM      4  CD  LYS A 135      30.328  34.553   8.437  1.00 32.00     0.041 C 
BRANCH   4   5
ATOM      5  CE  LYS A 135      28.818  34.522   8.302  1.00 34.25     0.338 C 
ATOM      6  NZ  LYS A 135      28.190  33.818   9.454  1.00 35.99     0.618 N 
ENDBRANCH   4   5
ENDBRANCH   3   4
ENDBRANCH   2   3
ENDBRANCH   1   2
END_RES LYS A 135
BEGIN_RES TYR A 136
REMARK  2 active torsions:
REMARK  status: ('A' for Active; 'I' for Inactive)
REMARK    5  A    between atoms: CA   and  CB  
REMARK    6  A    between atoms: CB   and  CG  
ROOT
ATOM      7  CA  TYR A 136      36.583  36.399   8.994  1.00 26.14     0.191 C 
ENDROOT
BRANCH   7   8
ATOM      8  CB  TYR A 136      37.367  36.835  10.240  1.00 28.16     0.060 C 
BRANCH   8   9
ATOM      9  CG  TYR A 136      37.236  38.312  10.521  1.00 31.88    -0.020 A 
ATOM     10  CD2 TYR A 136      38.321  39.177  10.361  1.00 32.67    -0.002 A 
ATOM     11  CE2 TYR A 136      38.189  40.547  10.626  1.00 33.89     0.027 A 
ATOM     12  CZ  TYR A 136      36.961  41.056  11.055  1.00 34.34     0.131 A 
ATOM     13  OH  TYR A 136      36.806  42.410  11.316  1.00 35.14    -0.190 OA
ATOM     14  CE1 TYR A 136      35.873  40.211  11.219  1.00 35.01     0.027 A 
ATOM     15  CD1 TYR A 136      36.018  38.847  10.958  1.00 33.57    -0.002 A 
ENDBRANCH   8   9
ENDBRANCH   7   8
END_RES TYR A 136
BEGIN_RES ASN A 133
REMARK  2 active torsions:
REMARK  status: ('A' for Active; 'I' for Inactive)
REMARK    7  A    between atoms: CA   and  CB  
REMARK    8  A    between atoms: CB   and  CG  
ROOT
ATOM     16  CA  ASN A 133      31.225  30.257  11.749  1.00 18.15     0.196 C 
ENDROOT
BRANCH  16  17
ATOM     17  CB  ASN A 133      30.092  31.240  11.460  1.00 18.27     0.126 C 
BRANCH  17  18
ATOM     18  CG  ASN A 133      28.751  30.582  11.351  1.00 18.94     0.276 C 
ATOM     19  OD1 ASN A 133      28.581  29.597  10.630  1.00 18.09    -0.269 OA
ATOM     20  ND2 ASN A 133      27.774  31.128  12.073  1.00 18.93    -0.107 N 
ENDBRANCH  17  18
ENDBRANCH  16  17
END_RES ASN A 133
