REMARK VINA RESULT:    -4.434      0.000      0.000
REMARK INTER + INTRA:          -7.772
REMARK INTER:                  -4.656
REMARK INTRA:                  -3.115
REMARK UNBOUND:                -3.079
REMARK SMILES Cc1cn(-c2ccc(Br)cc2)nn1
REMARK SMILES IDX 5 1 6 2 7 3 8 4 9 5 10 6 11 7 4 8 1 9 2 10 3 11 13 12 12 13
REMARK H PARENT
REMARK Flexibility Score: inf
ROOT
ATOM      1  C   UNL     1      32.009  34.008  15.444  1.00  0.00     0.066 A 
ATOM      2  C   UNL     1      31.918  34.462  16.760  1.00  0.00     0.029 A 
ATOM      3  C   UNL     1      31.331  33.716  17.737  1.00  0.00     0.018 A 
ATOM      4  C   UNL     1      30.819  32.486  17.403  1.00  0.00     0.018 A 
ATOM      5  Br  UNL     1      29.994  31.437  18.768  1.00  0.00    -0.051 Br
ATOM      6  C   UNL     1      30.884  31.991  16.111  1.00  0.00     0.018 A 
ATOM      7  C   UNL     1      31.484  32.767  15.141  1.00  0.00     0.029 A 
ENDROOT
BRANCH   1   8
ATOM      8  N   UNL     1      32.621  34.791  14.441  1.00  0.00    -0.220 N 
ATOM      9  C   UNL     1      33.027  37.322  11.826  1.00  0.00     0.070 C 
ATOM     10  C   UNL     1      33.108  36.243  12.840  1.00  0.00     0.080 A 
ATOM     11  C   UNL     1      32.131  35.779  13.676  1.00  0.00     0.140 A 
ATOM     12  N   UNL     1      34.203  35.505  13.124  1.00  0.00    -0.135 NA
ATOM     13  N   UNL     1      33.890  34.645  14.082  1.00  0.00    -0.062 NA
ENDBRANCH   1   8
TORSDOF 1
BEGIN_RES LYS A 135
REMARK  4 active torsions:
REMARK  status: ('A' for Active; 'I' for Inactive)
REMARK    1  A    between atoms: CA   and  CB  
REMARK    2  A    between atoms: CB   and  CG  
REMARK    3  A    between atoms: CG   and  CD  
REMARK    4  A    between atoms: CD   and  CE  
ROOT
ATOM      1  CA  LYS A 135      33.193  34.663   9.290  1.00 25.02     0.186 C 
ENDROOT
BRANCH   1   2
ATOM      2  CB  LYS A 135      32.060  35.360  10.034  1.00 26.63     0.034 C 
BRANCH   2   3
ATOM      3  CG  LYS A 135      30.844  35.612   9.180  1.00 29.45     0.005 C 
BRANCH   3   4
ATOM      4  CD  LYS A 135      30.277  34.303   8.653  1.00 32.00     0.041 C 
BRANCH   4   5
ATOM      5  CE  LYS A 135      28.774  34.404   8.483  1.00 34.25     0.338 C 
ATOM      6  NZ  LYS A 135      28.060  33.736   9.606  1.00 35.99     0.618 N 
ENDBRANCH   4   5
ENDBRANCH   3   4
ENDBRANCH   2   3
ENDBRANCH   1   2
END_RES LYS A 135
BEGIN_RES TYR A 136
REMARK  2 active torsions:
REMARK  status: ('A' for Active; 'I' for Inactive)
REMARK    5  A    between atoms: CA   and  CB  
REMARK    6  A    between atoms: CB   and  CG  
ROOT
ATOM      7  CA  TYR A 136      36.583  36.399   8.994  1.00 26.14     0.191 C 
ENDROOT
BRANCH   7   8
ATOM      8  CB  TYR A 136      37.367  36.835  10.240  1.00 28.16     0.060 C 
BRANCH   8   9
ATOM      9  CG  TYR A 136      36.725  38.001  10.951  1.00 31.88    -0.020 A 
ATOM     10  CD2 TYR A 136      36.134  39.046  10.238  1.00 32.67    -0.002 A 
ATOM     11  CE2 TYR A 136      35.541  40.125  10.908  1.00 33.89     0.027 A 
ATOM     12  CZ  TYR A 136      35.541  40.159  12.304  1.00 34.34     0.131 A 
ATOM     13  OH  TYR A 136      34.954  41.214  12.989  1.00 35.14    -0.190 OA
ATOM     14  CE1 TYR A 136      36.125  39.130  13.029  1.00 35.01     0.027 A 
ATOM     15  CD1 TYR A 136      36.718  38.064  12.350  1.00 33.57    -0.002 A 
ENDBRANCH   8   9
ENDBRANCH   7   8
END_RES TYR A 136
BEGIN_RES ASN A 133
REMARK  2 active torsions:
REMARK  status: ('A' for Active; 'I' for Inactive)
REMARK    7  A    between atoms: CA   and  CB  
REMARK    8  A    between atoms: CB   and  CG  
ROOT
ATOM     16  CA  ASN A 133      31.225  30.257  11.749  1.00 18.15     0.196 C 
ENDROOT
BRANCH  16  17
ATOM     17  CB  ASN A 133      30.092  31.240  11.460  1.00 18.27     0.126 C 
BRANCH  17  18
ATOM     18  CG  ASN A 133      28.750  30.584  11.361  1.00 18.94     0.276 C 
ATOM     19  OD1 ASN A 133      28.567  29.611  10.627  1.00 18.09    -0.269 OA
ATOM     20  ND2 ASN A 133      27.784  31.116  12.109  1.00 18.93    -0.107 N 
ENDBRANCH  17  18
ENDBRANCH  16  17
END_RES ASN A 133
