REMARK VINA RESULT:    -4.987      1.805      2.864
REMARK INTER + INTRA:          -9.163
REMARK INTER:                  -5.821
REMARK INTRA:                  -3.343
REMARK UNBOUND:                -3.447
REMARK SMILES Cc1cn(Cc2cc(Br)cc(Br)c2O)nn1
REMARK SMILES IDX 6 1 7 2 8 3 9 4 10 5 11 6 12 7 13 8 5 9 4 10 1 11 2 12 3 13
REMARK SMILES IDX 16 14 15 15 14 16
REMARK H PARENT 14 17
REMARK Flexibility Score: inf
ROOT
ATOM      1  C   UNL     1      34.996  35.547  14.457  1.00  0.00     0.018 A 
ATOM      2  C   UNL     1      35.733  36.300  15.321  1.00  0.00     0.025 A 
ATOM      3  C   UNL     1      37.096  36.111  15.440  1.00  0.00     0.019 A 
ATOM      4  Br  UNL     1      38.144  37.171  16.657  1.00  0.00    -0.051 Br
ATOM      5  C   UNL     1      37.777  35.157  14.699  1.00  0.00     0.035 A 
ATOM      6  C   UNL     1      37.011  34.399  13.825  1.00  0.00     0.061 A 
ATOM      7  Br  UNL     1      37.892  33.074  12.780  1.00  0.00    -0.047 Br
ATOM      8  C   UNL     1      35.642  34.584  13.700  1.00  0.00     0.134 A 
ENDROOT
BRANCH   1   9
ATOM      9  C   UNL     1      33.530  35.680  14.262  1.00  0.00     0.185 C 
BRANCH   9  10
ATOM     10  N   UNL     1      33.158  36.781  13.443  1.00  0.00    -0.248 N 
ATOM     11  C   UNL     1      32.511  38.690  10.406  1.00  0.00     0.070 C 
ATOM     12  C   UNL     1      32.715  38.092  11.743  1.00  0.00     0.080 A 
ATOM     13  C   UNL     1      33.138  36.834  12.105  1.00  0.00     0.134 A 
ATOM     14  N   UNL     1      32.488  38.776  12.888  1.00  0.00    -0.136 NA
ATOM     15  N   UNL     1      32.762  37.964  13.867  1.00  0.00    -0.067 NA
ENDBRANCH   9  10
ENDBRANCH   1   9
BRANCH   8  16
ATOM     16  O   UNL     1      34.961  33.770  12.792  1.00  0.00    -0.506 OA
ATOM     17  H   UNL     1      34.020  33.512  12.988  1.00  0.00     0.293 HD
ENDBRANCH   8  16
TORSDOF 3
BEGIN_RES LYS A 135
REMARK  4 active torsions:
REMARK  status: ('A' for Active; 'I' for Inactive)
REMARK    1  A    between atoms: CA   and  CB  
REMARK    2  A    between atoms: CB   and  CG  
REMARK    3  A    between atoms: CG   and  CD  
REMARK    4  A    between atoms: CD   and  CE  
ROOT
ATOM      1  CA  LYS A 135      33.193  34.663   9.290  1.00 25.02     0.186 C 
ENDROOT
BRANCH   1   2
ATOM      2  CB  LYS A 135      32.060  35.360  10.034  1.00 26.63     0.034 C 
BRANCH   2   3
ATOM      3  CG  LYS A 135      30.827  35.571   9.193  1.00 29.45     0.005 C 
BRANCH   3   4
ATOM      4  CD  LYS A 135      30.229  34.237   8.775  1.00 32.00     0.041 C 
BRANCH   4   5
ATOM      5  CE  LYS A 135      28.730  34.363   8.579  1.00 34.25     0.338 C 
ATOM      6  NZ  LYS A 135      27.987  33.694   9.682  1.00 35.99     0.618 N 
ENDBRANCH   4   5
ENDBRANCH   3   4
ENDBRANCH   2   3
ENDBRANCH   1   2
END_RES LYS A 135
BEGIN_RES TYR A 136
REMARK  2 active torsions:
REMARK  status: ('A' for Active; 'I' for Inactive)
REMARK    5  A    between atoms: CA   and  CB  
REMARK    6  A    between atoms: CB   and  CG  
ROOT
ATOM      7  CA  TYR A 136      36.583  36.399   8.994  1.00 26.14     0.191 C 
ENDROOT
BRANCH   7   8
ATOM      8  CB  TYR A 136      37.367  36.835  10.240  1.00 28.16     0.060 C 
BRANCH   8   9
ATOM      9  CG  TYR A 136      36.775  38.056  10.901  1.00 31.88    -0.020 A 
ATOM     10  CD2 TYR A 136      36.343  39.149  10.146  1.00 32.67    -0.002 A 
ATOM     11  CE2 TYR A 136      35.796  40.278  10.769  1.00 33.89     0.027 A 
ATOM     12  CZ  TYR A 136      35.680  40.315  12.161  1.00 34.34     0.131 A 
ATOM     13  OH  TYR A 136      35.135  41.420  12.799  1.00 35.14    -0.190 OA
ATOM     14  CE1 TYR A 136      36.105  39.238  12.926  1.00 35.01     0.027 A 
ATOM     15  CD1 TYR A 136      36.654  38.121  12.294  1.00 33.57    -0.002 A 
ENDBRANCH   8   9
ENDBRANCH   7   8
END_RES TYR A 136
BEGIN_RES ASN A 133
REMARK  2 active torsions:
REMARK  status: ('A' for Active; 'I' for Inactive)
REMARK    7  A    between atoms: CA   and  CB  
REMARK    8  A    between atoms: CB   and  CG  
ROOT
ATOM     16  CA  ASN A 133      31.225  30.257  11.749  1.00 18.15     0.196 C 
ENDROOT
BRANCH  16  17
ATOM     17  CB  ASN A 133      30.092  31.240  11.460  1.00 18.27     0.126 C 
BRANCH  17  18
ATOM     18  CG  ASN A 133      28.747  30.586  11.380  1.00 18.94     0.276 C 
ATOM     19  OD1 ASN A 133      28.556  29.606  10.657  1.00 18.09    -0.269 OA
ATOM     20  ND2 ASN A 133      27.790  31.129  12.130  1.00 18.93    -0.107 N 
ENDBRANCH  17  18
ENDBRANCH  16  17
END_RES ASN A 133
