REMARK VINA RESULT:    -3.752      2.698      4.322
REMARK INTER + INTRA:          -7.051
REMARK INTER:                  -3.977
REMARK INTRA:                  -3.074
REMARK UNBOUND:                -3.079
REMARK SMILES Cc1cn(-c2ccc(Br)cc2)nn1
REMARK SMILES IDX 5 1 6 2 7 3 8 4 9 5 10 6 11 7 4 8 1 9 2 10 3 11 13 12 12 13
REMARK H PARENT
REMARK Flexibility Score: inf
ROOT
ATOM      1  C   UNL     1      29.816  32.591  15.100  1.00  0.00     0.066 A 
ATOM      2  C   UNL     1      29.590  33.509  14.074  1.00  0.00     0.029 A 
ATOM      3  C   UNL     1      30.526  34.435  13.723  1.00  0.00     0.018 A 
ATOM      4  C   UNL     1      31.717  34.454  14.405  1.00  0.00     0.018 A 
ATOM      5  Br  UNL     1      33.032  35.750  13.917  1.00  0.00    -0.051 Br
ATOM      6  C   UNL     1      31.989  33.564  15.432  1.00  0.00     0.018 A 
ATOM      7  C   UNL     1      31.024  32.637  15.767  1.00  0.00     0.029 A 
ENDROOT
BRANCH   1   8
ATOM      8  N   UNL     1      28.837  31.636  15.454  1.00  0.00    -0.220 N 
ATOM      9  C   UNL     1      25.546  30.147  16.054  1.00  0.00     0.070 C 
ATOM     10  C   UNL     1      26.971  30.524  15.886  1.00  0.00     0.080 A 
ATOM     11  C   UNL     1      27.498  31.714  15.465  1.00  0.00     0.140 A 
ATOM     12  N   UNL     1      28.033  29.726  16.128  1.00  0.00    -0.135 NA
ATOM     13  N   UNL     1      29.137  30.411  15.864  1.00  0.00    -0.062 NA
ENDBRANCH   1   8
TORSDOF 1
BEGIN_RES LYS A 135
REMARK  4 active torsions:
REMARK  status: ('A' for Active; 'I' for Inactive)
REMARK    1  A    between atoms: CA   and  CB  
REMARK    2  A    between atoms: CB   and  CG  
REMARK    3  A    between atoms: CG   and  CD  
REMARK    4  A    between atoms: CD   and  CE  
ROOT
ATOM      1  CA  LYS A 135      33.193  34.663   9.290  1.00 25.02     0.186 C 
ENDROOT
BRANCH   1   2
ATOM      2  CB  LYS A 135      32.060  35.360  10.034  1.00 26.63     0.034 C 
BRANCH   2   3
ATOM      3  CG  LYS A 135      30.803  35.507   9.216  1.00 29.45     0.005 C 
BRANCH   3   4
ATOM      4  CD  LYS A 135      30.125  34.159   9.027  1.00 32.00     0.041 C 
BRANCH   4   5
ATOM      5  CE  LYS A 135      28.675  34.344   8.622  1.00 34.25     0.338 C 
ATOM      6  NZ  LYS A 135      27.757  33.711   9.609  1.00 35.99     0.618 N 
ENDBRANCH   4   5
ENDBRANCH   3   4
ENDBRANCH   2   3
ENDBRANCH   1   2
END_RES LYS A 135
BEGIN_RES TYR A 136
REMARK  2 active torsions:
REMARK  status: ('A' for Active; 'I' for Inactive)
REMARK    5  A    between atoms: CA   and  CB  
REMARK    6  A    between atoms: CB   and  CG  
ROOT
ATOM      7  CA  TYR A 136      36.583  36.399   8.994  1.00 26.14     0.191 C 
ENDROOT
BRANCH   7   8
ATOM      8  CB  TYR A 136      37.367  36.835  10.240  1.00 28.16     0.060 C 
BRANCH   8   9
ATOM      9  CG  TYR A 136      36.729  38.005  10.947  1.00 31.88    -0.020 A 
ATOM     10  CD2 TYR A 136      36.533  39.225  10.296  1.00 32.67    -0.002 A 
ATOM     11  CE2 TYR A 136      35.940  40.306  10.962  1.00 33.89     0.027 A 
ATOM     12  CZ  TYR A 136      35.540  40.166  12.293  1.00 34.34     0.131 A 
ATOM     13  OH  TYR A 136      34.945  41.221  12.971  1.00 35.14    -0.190 OA
ATOM     14  CE1 TYR A 136      35.728  38.961  12.956  1.00 35.01     0.027 A 
ATOM     15  CD1 TYR A 136      36.325  37.894  12.284  1.00 33.57    -0.002 A 
ENDBRANCH   8   9
ENDBRANCH   7   8
END_RES TYR A 136
BEGIN_RES ASN A 133
REMARK  2 active torsions:
REMARK  status: ('A' for Active; 'I' for Inactive)
REMARK    7  A    between atoms: CA   and  CB  
REMARK    8  A    between atoms: CB   and  CG  
ROOT
ATOM     16  CA  ASN A 133      31.225  30.257  11.749  1.00 18.15     0.196 C 
ENDROOT
BRANCH  16  17
ATOM     17  CB  ASN A 133      30.092  31.240  11.460  1.00 18.27     0.126 C 
BRANCH  17  18
ATOM     18  CG  ASN A 133      28.759  30.577  11.305  1.00 18.94     0.276 C 
ATOM     19  OD1 ASN A 133      28.614  29.599  10.569  1.00 18.09    -0.269 OA
ATOM     20  ND2 ASN A 133      27.758  31.110  12.004  1.00 18.93    -0.107 N 
ENDBRANCH  17  18
ENDBRANCH  16  17
END_RES ASN A 133
