REMARK VINA RESULT:    -6.856      0.000      0.000
REMARK INTER + INTRA:         -12.096
REMARK INTER:                  -8.330
REMARK INTRA:                  -3.766
REMARK UNBOUND:                -3.836
REMARK SMILES Cc1cn(-c2ccc(-c3c4ccc(=O)cc-4oc4cc(O)ccc34)c(C(=O)[O-])c2)nn1
REMARK SMILES IDX 9 1 24 2 23 3 22 4 20 5 19 6 18 7 17 8 16 9 15 10 13 11
REMARK SMILES IDX 14 12 12 13 11 14 10 15 8 16 5 17 29 18 6 19 25 20 7 21 4 22
REMARK SMILES IDX 1 23 2 24 3 25 31 26 30 27 26 28 27 29 28 30 21 31
REMARK H PARENT 21 32
REMARK Flexibility Score: inf
ROOT
ATOM      1  C   UNL     1      32.889  35.607  13.629  1.00  0.00     0.004 A 
ATOM      2  C   UNL     1      32.415  36.603  12.803  1.00  0.00     0.026 A 
ATOM      3  C   UNL     1      33.299  37.374  12.080  1.00  0.00     0.016 A 
ATOM      4  C   UNL     1      32.866  38.386  11.238  1.00  0.00     0.047 A 
ATOM      5  C   UNL     1      31.509  38.607  11.138  1.00  0.00     0.119 A 
ATOM      6  C   UNL     1      30.623  37.837  11.860  1.00  0.00     0.093 A 
ATOM      7  C   UNL     1      31.046  36.814  12.712  1.00  0.00     0.139 A 
ATOM      8  O   UNL     1      30.174  36.100  13.385  1.00  0.00    -0.456 OA
ATOM      9  C   UNL     1      30.522  35.142  14.185  1.00  0.00     0.139 A 
ATOM     10  C   UNL     1      29.639  34.374  14.905  1.00  0.00     0.099 A 
ATOM     11  C   UNL     1      30.133  33.385  15.724  1.00  0.00     0.182 A 
ATOM     12  O   UNL     1      29.319  32.689  16.378  1.00  0.00    -0.290 OA
ATOM     13  C   UNL     1      31.487  33.133  15.851  1.00  0.00     0.053 A 
ATOM     14  C   UNL     1      32.429  33.864  15.160  1.00  0.00     0.016 A 
ATOM     15  C   UNL     1      31.959  34.867  14.327  1.00  0.00     0.026 A 
ENDROOT
BRANCH   1  16
ATOM     16  C   UNL     1      34.318  35.392  13.718  1.00  0.00    -0.008 A 
ATOM     17  C   UNL     1      37.079  35.026  13.947  1.00  0.00     0.067 A 
ATOM     18  C   UNL     1      36.426  35.887  14.804  1.00  0.00     0.039 A 
ATOM     19  C   UNL     1      36.365  34.343  12.974  1.00  0.00     0.029 A 
ATOM     20  C   UNL     1      35.059  36.055  14.675  1.00  0.00     0.007 A 
ATOM     21  C   UNL     1      34.997  34.535  12.872  1.00  0.00     0.012 A 
BRANCH  17  22
ATOM     22  N   UNL     1      38.482  34.813  14.033  1.00  0.00    -0.220 N 
ATOM     23  C   UNL     1      41.733  33.893  12.572  1.00  0.00     0.070 C 
ATOM     24  C   UNL     1      40.566  34.303  13.406  1.00  0.00     0.080 A 
ATOM     25  C   UNL     1      39.257  34.414  12.982  1.00  0.00     0.140 A 
ATOM     26  N   UNL     1      40.544  34.643  14.707  1.00  0.00    -0.135 NA
ATOM     27  N   UNL     1      39.291  34.940  15.047  1.00  0.00    -0.062 NA
ENDBRANCH  17  22
BRANCH  20  28
ATOM     28  C   UNL     1      34.381  36.969  15.588  1.00  0.00     0.072 C 
ATOM     29  O   UNL     1      34.250  38.186  15.326  1.00  0.00    -0.545 OA
ATOM     30  O   UNL     1      33.851  36.516  16.787  1.00  0.00    -0.545 OA
ENDBRANCH  20  28
ENDBRANCH   1  16
BRANCH   5  31
ATOM     31  O   UNL     1      31.060  39.630  10.287  1.00  0.00    -0.508 OA
ATOM     32  H   UNL     1      30.081  39.688  10.041  1.00  0.00     0.293 HD
ENDBRANCH   5  31
TORSDOF 4
BEGIN_RES LYS A 135
REMARK  4 active torsions:
REMARK  status: ('A' for Active; 'I' for Inactive)
REMARK    1  A    between atoms: CA   and  CB  
REMARK    2  A    between atoms: CB   and  CG  
REMARK    3  A    between atoms: CG   and  CD  
REMARK    4  A    between atoms: CD   and  CE  
ROOT
ATOM      1  CA  LYS A 135      33.193  34.663   9.290  1.00 25.02     0.186 C 
ENDROOT
BRANCH   1   2
ATOM      2  CB  LYS A 135      32.060  35.360  10.034  1.00 26.63     0.034 C 
BRANCH   2   3
ATOM      3  CG  LYS A 135      30.733  34.657   9.907  1.00 29.45     0.005 C 
BRANCH   3   4
ATOM      4  CD  LYS A 135      30.318  34.555   8.447  1.00 32.00     0.041 C 
BRANCH   4   5
ATOM      5  CE  LYS A 135      28.807  34.508   8.326  1.00 34.25     0.338 C 
ATOM      6  NZ  LYS A 135      28.199  33.773   9.470  1.00 35.99     0.618 N 
ENDBRANCH   4   5
ENDBRANCH   3   4
ENDBRANCH   2   3
ENDBRANCH   1   2
END_RES LYS A 135
BEGIN_RES TYR A 136
REMARK  2 active torsions:
REMARK  status: ('A' for Active; 'I' for Inactive)
REMARK    5  A    between atoms: CA   and  CB  
REMARK    6  A    between atoms: CB   and  CG  
ROOT
ATOM      7  CA  TYR A 136      36.583  36.399   8.994  1.00 26.14     0.191 C 
ENDROOT
BRANCH   7   8
ATOM      8  CB  TYR A 136      37.367  36.835  10.240  1.00 28.16     0.060 C 
BRANCH   8   9
ATOM      9  CG  TYR A 136      36.857  38.130  10.823  1.00 31.88    -0.020 A 
ATOM     10  CD2 TYR A 136      36.399  39.162  10.001  1.00 32.67    -0.002 A 
ATOM     11  CE2 TYR A 136      35.928  40.362  10.553  1.00 33.89     0.027 A 
ATOM     12  CZ  TYR A 136      35.916  40.530  11.939  1.00 34.34     0.131 A 
ATOM     13  OH  TYR A 136      35.448  41.707  12.508  1.00 35.14    -0.190 OA
ATOM     14  CE1 TYR A 136      36.369  39.515  12.771  1.00 35.01     0.027 A 
ATOM     15  CD1 TYR A 136      36.841  38.328  12.210  1.00 33.57    -0.002 A 
ENDBRANCH   8   9
ENDBRANCH   7   8
END_RES TYR A 136
BEGIN_RES ASN A 133
REMARK  2 active torsions:
REMARK  status: ('A' for Active; 'I' for Inactive)
REMARK    7  A    between atoms: CA   and  CB  
REMARK    8  A    between atoms: CB   and  CG  
ROOT
ATOM     16  CA  ASN A 133      31.225  30.257  11.749  1.00 18.15     0.196 C 
ENDROOT
BRANCH  16  17
ATOM     17  CB  ASN A 133      30.092  31.240  11.460  1.00 18.27     0.126 C 
BRANCH  17  18
ATOM     18  CG  ASN A 133      28.756  30.578  11.318  1.00 18.94     0.276 C 
ATOM     19  OD1 ASN A 133      28.599  29.612  10.570  1.00 18.09    -0.269 OA
ATOM     20  ND2 ASN A 133      27.768  31.100  12.044  1.00 18.93    -0.107 N 
ENDBRANCH  17  18
ENDBRANCH  16  17
END_RES ASN A 133
