REMARK VINA RESULT:    -3.861      8.915     12.092
REMARK INTER + INTRA:          -8.043
REMARK INTER:                  -4.955
REMARK INTRA:                  -3.088
REMARK UNBOUND:                -3.053
REMARK SMILES Cc1cn([C@@H](CC(=O)O)C(=O)O)nn1
REMARK SMILES IDX 6 1 5 2 4 3 1 4 2 5 3 6 14 7 13 8 10 9 11 10 12 11 7 13 8 14
REMARK SMILES IDX 9 15
REMARK H PARENT 12 12 9 16
REMARK Flexibility Score: inf
ROOT
ATOM      1  C   UNL     1      21.160  35.349  -0.760  1.00  0.00     0.161 C 
ENDROOT
BRANCH   1   2
ATOM      2  C   UNL     1      21.952  35.206  -2.030  1.00  0.00     0.229 C 
BRANCH   2   3
ATOM      3  N   UNL     1      22.227  33.802  -2.306  1.00  0.00    -0.237 N 
ATOM      4  C   UNL     1      22.192  30.244  -1.682  1.00  0.00     0.070 C 
ATOM      5  C   UNL     1      22.353  31.626  -2.187  1.00  0.00     0.080 A 
ATOM      6  C   UNL     1      21.888  32.741  -1.544  1.00  0.00     0.135 A 
ATOM      7  N   UNL     1      22.959  31.999  -3.311  1.00  0.00    -0.136 NA
ATOM      8  N   UNL     1      22.861  33.320  -3.347  1.00  0.00    -0.066 NA
ENDBRANCH   2   3
BRANCH   2   9
ATOM      9  C   UNL     1      23.155  36.041  -2.041  1.00  0.00     0.329 C 
ATOM     10  O   UNL     1      23.125  37.274  -2.169  1.00  0.00    -0.250 OA
BRANCH   9  11
ATOM     11  O   UNL     1      24.411  35.468  -1.902  1.00  0.00    -0.480 OA
ATOM     12  H   UNL     1      24.844  35.007  -2.692  1.00  0.00     0.296 HD
ENDBRANCH   9  11
ENDBRANCH   2   9
ENDBRANCH   1   2
BRANCH   1  13
ATOM     13  C   UNL     1      22.074  35.859   0.280  1.00  0.00     0.306 C 
ATOM     14  O   UNL     1      22.949  35.122   0.799  1.00  0.00    -0.252 OA
BRANCH  13  15
ATOM     15  O   UNL     1      21.956  37.187   0.684  1.00  0.00    -0.481 OA
ATOM     16  H   UNL     1      22.762  37.823   0.605  1.00  0.00     0.296 HD
ENDBRANCH  13  15
ENDBRANCH   1  13
TORSDOF 6
BEGIN_RES LYS A 135
REMARK  4 active torsions:
REMARK  status: ('A' for Active; 'I' for Inactive)
REMARK    1  A    between atoms: CA   and  CB  
REMARK    2  A    between atoms: CB   and  CG  
REMARK    3  A    between atoms: CG   and  CD  
REMARK    4  A    between atoms: CD   and  CE  
ROOT
ATOM      1  CA  LYS A 135      33.193  34.663   9.290  1.00 25.02     0.186 C 
ENDROOT
BRANCH   1   2
ATOM      2  CB  LYS A 135      32.060  35.360  10.034  1.00 26.63     0.034 C 
BRANCH   2   3
ATOM      3  CG  LYS A 135      30.831  35.581   9.190  1.00 29.45     0.005 C 
BRANCH   3   4
ATOM      4  CD  LYS A 135      30.285  34.256   8.680  1.00 32.00     0.041 C 
BRANCH   4   5
ATOM      5  CE  LYS A 135      28.883  34.020   9.206  1.00 34.25     0.338 C 
ATOM      6  NZ  LYS A 135      27.863  34.632   8.310  1.00 35.99     0.618 N 
ENDBRANCH   4   5
ENDBRANCH   3   4
ENDBRANCH   2   3
ENDBRANCH   1   2
END_RES LYS A 135
BEGIN_RES TYR A 136
REMARK  2 active torsions:
REMARK  status: ('A' for Active; 'I' for Inactive)
REMARK    5  A    between atoms: CA   and  CB  
REMARK    6  A    between atoms: CB   and  CG  
ROOT
ATOM      7  CA  TYR A 136      36.583  36.399   8.994  1.00 26.14     0.191 C 
ENDROOT
BRANCH   7   8
ATOM      8  CB  TYR A 136      37.367  36.835  10.240  1.00 28.16     0.060 C 
BRANCH   8   9
ATOM      9  CG  TYR A 136      37.153  38.289  10.581  1.00 31.88    -0.020 A 
ATOM     10  CD2 TYR A 136      37.180  39.275   9.592  1.00 32.67    -0.002 A 
ATOM     11  CE2 TYR A 136      36.982  40.624   9.919  1.00 33.89     0.027 A 
ATOM     12  CZ  TYR A 136      36.755  40.989  11.248  1.00 34.34     0.131 A 
ATOM     13  OH  TYR A 136      36.549  42.317  11.594  1.00 35.14    -0.190 OA
ATOM     14  CE1 TYR A 136      36.726  40.023  12.244  1.00 35.01     0.027 A 
ATOM     15  CD1 TYR A 136      36.931  38.684  11.906  1.00 33.57    -0.002 A 
ENDBRANCH   8   9
ENDBRANCH   7   8
END_RES TYR A 136
BEGIN_RES ASN A 133
REMARK  2 active torsions:
REMARK  status: ('A' for Active; 'I' for Inactive)
REMARK    7  A    between atoms: CA   and  CB  
REMARK    8  A    between atoms: CB   and  CG  
ROOT
ATOM     16  CA  ASN A 133      31.225  30.257  11.749  1.00 18.15     0.196 C 
ENDROOT
BRANCH  16  17
ATOM     17  CB  ASN A 133      30.092  31.240  11.460  1.00 18.27     0.126 C 
BRANCH  17  18
ATOM     18  CG  ASN A 133      28.757  30.578  11.315  1.00 18.94     0.276 C 
ATOM     19  OD1 ASN A 133      28.602  29.609  10.569  1.00 18.09    -0.269 OA
ATOM     20  ND2 ASN A 133      27.765  31.102  12.035  1.00 18.93    -0.107 N 
ENDBRANCH  17  18
ENDBRANCH  16  17
END_RES ASN A 133
