REMARK VINA RESULT:    -4.598      1.306      1.520
REMARK INTER + INTRA:          -8.131
REMARK INTER:                  -5.097
REMARK INTRA:                  -3.034
REMARK UNBOUND:                -3.264
REMARK SMILES Cc1cn(-c2cnc3ccccc3c2)nn1
REMARK SMILES IDX 5 1 6 2 7 3 8 4 9 5 10 6 11 7 12 8 13 9 14 10 4 11 1 12 2 13
REMARK SMILES IDX 3 14 16 15 15 16
REMARK H PARENT
REMARK Flexibility Score: inf
ROOT
ATOM      1  C   UNL     1      37.724  35.021  13.603  1.00  0.00     0.085 A 
ATOM      2  C   UNL     1      36.953  34.084  12.976  1.00  0.00     0.140 A 
ATOM      3  N   UNL     1      35.648  34.325  12.741  1.00  0.00    -0.254 NA
ATOM      4  C   UNL     1      35.056  35.482  13.107  1.00  0.00     0.070 A 
ATOM      5  C   UNL     1      33.721  35.736  12.869  1.00  0.00     0.029 A 
ATOM      6  C   UNL     1      33.154  36.935  13.262  1.00  0.00     0.002 A 
ATOM      7  C   UNL     1      33.924  37.907  13.903  1.00  0.00     0.001 A 
ATOM      8  C   UNL     1      35.241  37.655  14.137  1.00  0.00     0.010 A 
ATOM      9  C   UNL     1      35.796  36.458  13.743  1.00  0.00     0.002 A 
ATOM     10  C   UNL     1      37.125  36.206  13.979  1.00  0.00     0.040 A 
ENDROOT
BRANCH   1  11
ATOM     11  N   UNL     1      39.124  34.810  13.877  1.00  0.00    -0.219 N 
ATOM     12  C   UNL     1      42.557  33.871  13.002  1.00  0.00     0.070 C 
ATOM     13  C   UNL     1      41.271  34.299  13.614  1.00  0.00     0.080 A 
ATOM     14  C   UNL     1      40.034  34.382  12.983  1.00  0.00     0.140 A 
ATOM     15  N   UNL     1      41.031  34.692  14.880  1.00  0.00    -0.135 NA
ATOM     16  N   UNL     1      39.751  34.992  15.025  1.00  0.00    -0.062 NA
ENDBRANCH   1  11
TORSDOF 1
BEGIN_RES LYS A 135
REMARK  4 active torsions:
REMARK  status: ('A' for Active; 'I' for Inactive)
REMARK    1  A    between atoms: CA   and  CB  
REMARK    2  A    between atoms: CB   and  CG  
REMARK    3  A    between atoms: CG   and  CD  
REMARK    4  A    between atoms: CD   and  CE  
ROOT
ATOM      1  CA  LYS A 135      33.193  34.663   9.290  1.00 25.02     0.186 C 
ENDROOT
BRANCH   1   2
ATOM      2  CB  LYS A 135      32.060  35.360  10.034  1.00 26.63     0.034 C 
BRANCH   2   3
ATOM      3  CG  LYS A 135      30.730  34.666   9.893  1.00 29.45     0.005 C 
BRANCH   3   4
ATOM      4  CD  LYS A 135      30.336  34.553   8.429  1.00 32.00     0.041 C 
BRANCH   4   5
ATOM      5  CE  LYS A 135      28.827  34.550   8.281  1.00 34.25     0.338 C 
ATOM      6  NZ  LYS A 135      28.177  33.854   9.426  1.00 35.99     0.618 N 
ENDBRANCH   4   5
ENDBRANCH   3   4
ENDBRANCH   2   3
ENDBRANCH   1   2
END_RES LYS A 135
BEGIN_RES TYR A 136
REMARK  2 active torsions:
REMARK  status: ('A' for Active; 'I' for Inactive)
REMARK    5  A    between atoms: CA   and  CB  
REMARK    6  A    between atoms: CB   and  CG  
ROOT
ATOM      7  CA  TYR A 136      36.583  36.399   8.994  1.00 26.14     0.191 C 
ENDROOT
BRANCH   7   8
ATOM      8  CB  TYR A 136      37.367  36.835  10.240  1.00 28.16     0.060 C 
BRANCH   8   9
ATOM      9  CG  TYR A 136      36.903  38.165  10.782  1.00 31.88    -0.020 A 
ATOM     10  CD2 TYR A 136      37.733  38.947  11.588  1.00 32.67    -0.002 A 
ATOM     11  CE2 TYR A 136      37.292  40.180  12.087  1.00 33.89     0.027 A 
ATOM     12  CZ  TYR A 136      36.007  40.634  11.778  1.00 34.34     0.131 A 
ATOM     13  OH  TYR A 136      35.551  41.854  12.256  1.00 35.14    -0.190 OA
ATOM     14  CE1 TYR A 136      35.168  39.869  10.980  1.00 35.01     0.027 A 
ATOM     15  CD1 TYR A 136      35.617  38.640  10.494  1.00 33.57    -0.002 A 
ENDBRANCH   8   9
ENDBRANCH   7   8
END_RES TYR A 136
BEGIN_RES ASN A 133
REMARK  2 active torsions:
REMARK  status: ('A' for Active; 'I' for Inactive)
REMARK    7  A    between atoms: CA   and  CB  
REMARK    8  A    between atoms: CB   and  CG  
ROOT
ATOM     16  CA  ASN A 133      31.225  30.257  11.749  1.00 18.15     0.196 C 
ENDROOT
BRANCH  16  17
ATOM     17  CB  ASN A 133      30.092  31.240  11.460  1.00 18.27     0.126 C 
BRANCH  17  18
ATOM     18  CG  ASN A 133      28.750  30.584  11.362  1.00 18.94     0.276 C 
ATOM     19  OD1 ASN A 133      28.574  29.594  10.648  1.00 18.09    -0.269 OA
ATOM     20  ND2 ASN A 133      27.777  31.135  12.086  1.00 18.93    -0.107 N 
ENDBRANCH  17  18
ENDBRANCH  16  17
END_RES ASN A 133
