REMARK VINA RESULT:    -3.062      8.183     11.411
REMARK INTER + INTRA:          -6.842
REMARK INTER:                  -3.666
REMARK INTRA:                  -3.176
REMARK UNBOUND:                -3.243
REMARK SMILES Cc1cn(CCC2OCCO2)nn1
REMARK SMILES IDX 5 1 4 2 1 3 2 4 3 5 13 6 12 7 6 8 7 9 8 10 11 11 9 12 10 13
REMARK H PARENT
REMARK Flexibility Score: inf
ROOT
ATOM      1  C   UNL     1      36.745  37.703   4.489  1.00  0.00     0.151 C 
ENDROOT
BRANCH   1   2
ATOM      2  N   UNL     1      35.585  38.554   4.516  1.00  0.00    -0.252 N 
ATOM      3  C   UNL     1      33.129  40.768   3.028  1.00  0.00     0.070 C 
ATOM      4  C   UNL     1      34.001  39.899   3.868  1.00  0.00     0.080 A 
ATOM      5  C   UNL     1      35.105  39.195   3.443  1.00  0.00     0.134 A 
ATOM      6  N   UNL     1      33.852  39.660   5.182  1.00  0.00    -0.136 NA
ATOM      7  N   UNL     1      34.823  38.842   5.556  1.00  0.00    -0.067 NA
ENDBRANCH   1   2
BRANCH   1   8
ATOM      8  C   UNL     1      37.302  37.690   3.105  1.00  0.00     0.086 C 
BRANCH   8   9
ATOM      9  C   UNL     1      38.757  37.271   3.063  1.00  0.00     0.251 C 
ATOM     10  O   UNL     1      39.207  36.795   4.268  1.00  0.00    -0.350 OA
ATOM     11  O   UNL     1      39.589  38.284   2.653  1.00  0.00    -0.350 OA
ATOM     12  C   UNL     1      40.317  37.517   4.639  1.00  0.00     0.192 C 
ATOM     13  C   UNL     1      40.153  38.791   3.834  1.00  0.00     0.192 C 
ENDBRANCH   8   9
ENDBRANCH   1   8
TORSDOF 3
BEGIN_RES LYS A 135
REMARK  4 active torsions:
REMARK  status: ('A' for Active; 'I' for Inactive)
REMARK    1  A    between atoms: CA   and  CB  
REMARK    2  A    between atoms: CB   and  CG  
REMARK    3  A    between atoms: CG   and  CD  
REMARK    4  A    between atoms: CD   and  CE  
ROOT
ATOM      1  CA  LYS A 135      33.193  34.663   9.290  1.00 25.02     0.186 C 
ENDROOT
BRANCH   1   2
ATOM      2  CB  LYS A 135      32.060  35.360  10.034  1.00 26.63     0.034 C 
BRANCH   2   3
ATOM      3  CG  LYS A 135      30.693  34.837   9.676  1.00 29.45     0.005 C 
BRANCH   3   4
ATOM      4  CD  LYS A 135      30.583  34.602   8.178  1.00 32.00     0.041 C 
BRANCH   4   5
ATOM      5  CE  LYS A 135      29.210  35.003   7.674  1.00 34.25     0.338 C 
ATOM      6  NZ  LYS A 135      28.139  34.491   8.573  1.00 35.99     0.618 N 
ENDBRANCH   4   5
ENDBRANCH   3   4
ENDBRANCH   2   3
ENDBRANCH   1   2
END_RES LYS A 135
BEGIN_RES TYR A 136
REMARK  2 active torsions:
REMARK  status: ('A' for Active; 'I' for Inactive)
REMARK    5  A    between atoms: CA   and  CB  
REMARK    6  A    between atoms: CB   and  CG  
ROOT
ATOM      7  CA  TYR A 136      36.583  36.399   8.994  1.00 26.14     0.191 C 
ENDROOT
BRANCH   7   8
ATOM      8  CB  TYR A 136      37.367  36.835  10.240  1.00 28.16     0.060 C 
BRANCH   8   9
ATOM      9  CG  TYR A 136      37.266  38.318  10.500  1.00 31.88    -0.020 A 
ATOM     10  CD2 TYR A 136      36.069  38.898  10.926  1.00 32.67    -0.002 A 
ATOM     11  CE2 TYR A 136      35.985  40.277  11.162  1.00 33.89     0.027 A 
ATOM     12  CZ  TYR A 136      37.109  41.083  10.971  1.00 34.34     0.131 A 
ATOM     13  OH  TYR A 136      37.051  42.450  11.206  1.00 35.14    -0.190 OA
ATOM     14  CE1 TYR A 136      38.306  40.524  10.547  1.00 35.01     0.027 A 
ATOM     15  CD1 TYR A 136      38.376  39.151  10.308  1.00 33.57    -0.002 A 
ENDBRANCH   8   9
ENDBRANCH   7   8
END_RES TYR A 136
BEGIN_RES ASN A 133
REMARK  2 active torsions:
REMARK  status: ('A' for Active; 'I' for Inactive)
REMARK    7  A    between atoms: CA   and  CB  
REMARK    8  A    between atoms: CB   and  CG  
ROOT
ATOM     16  CA  ASN A 133      31.225  30.257  11.749  1.00 18.15     0.196 C 
ENDROOT
BRANCH  16  17
ATOM     17  CB  ASN A 133      30.092  31.240  11.460  1.00 18.27     0.126 C 
BRANCH  17  18
ATOM     18  CG  ASN A 133      28.751  30.582  11.352  1.00 18.94     0.276 C 
ATOM     19  OD1 ASN A 133      28.575  29.610  10.616  1.00 18.09    -0.269 OA
ATOM     20  ND2 ASN A 133      27.780  31.114  12.093  1.00 18.93    -0.107 N 
ENDBRANCH  17  18
ENDBRANCH  16  17
END_RES ASN A 133
