REMARK VINA RESULT:    -5.482      5.200      8.648
REMARK INTER + INTRA:          -8.131
REMARK INTER:                  -5.992
REMARK INTRA:                  -2.139
REMARK UNBOUND:                -1.368
REMARK SMILES Cc1cn(COCc2ccccc2)nn1
REMARK SMILES IDX 6 1 5 2 4 3 1 4 2 5 3 6 15 7 14 8 7 9 8 10 9 11 13 12 10 13
REMARK SMILES IDX 12 14 11 15
REMARK H PARENT
REMARK Flexibility Score: inf
ROOT
ATOM      1  O   UNL     1      27.464  36.529   5.629  1.00  0.00    -0.355 OA
ENDROOT
BRANCH   1   2
ATOM      2  C   UNL     1      28.254  37.670   5.511  1.00  0.00     0.307 C 
BRANCH   2   3
ATOM      3  N   UNL     1      27.499  38.860   5.286  1.00  0.00    -0.226 N 
ATOM      4  C   UNL     1      26.262  41.671   3.355  1.00  0.00     0.070 C 
ATOM      5  C   UNL     1      26.614  40.634   4.336  1.00  0.00     0.080 A 
ATOM      6  C   UNL     1      27.448  39.562   4.145  1.00  0.00     0.137 A 
ATOM      7  N   UNL     1      26.177  40.551   5.603  1.00  0.00    -0.136 NA
ATOM      8  N   UNL     1      26.719  39.486   6.147  1.00  0.00    -0.065 NA
ENDBRANCH   2   3
ENDBRANCH   1   2
BRANCH   1   9
ATOM      9  C   UNL     1      28.168  35.612   6.398  1.00  0.00     0.198 C 
BRANCH   9  10
ATOM     10  C   UNL     1      27.467  35.337   7.689  1.00  0.00    -0.022 A 
ATOM     11  C   UNL     1      26.373  36.039   8.110  1.00  0.00     0.006 A 
ATOM     12  C   UNL     1      27.972  34.325   8.469  1.00  0.00     0.006 A 
ATOM     13  C   UNL     1      25.793  35.714   9.318  1.00  0.00     0.000 A 
ATOM     14  C   UNL     1      27.388  33.996   9.688  1.00  0.00     0.000 A 
ATOM     15  C   UNL     1      26.280  34.698  10.123  1.00  0.00     0.000 A 
ENDBRANCH   9  10
ENDBRANCH   1   9
TORSDOF 4
BEGIN_RES LYS A 135
REMARK  4 active torsions:
REMARK  status: ('A' for Active; 'I' for Inactive)
REMARK    1  A    between atoms: CA   and  CB  
REMARK    2  A    between atoms: CB   and  CG  
REMARK    3  A    between atoms: CG   and  CD  
REMARK    4  A    between atoms: CD   and  CE  
ROOT
ATOM      1  CA  LYS A 135      33.193  34.663   9.290  1.00 25.02     0.186 C 
ENDROOT
BRANCH   1   2
ATOM      2  CB  LYS A 135      32.060  35.360  10.034  1.00 26.63     0.034 C 
BRANCH   2   3
ATOM      3  CG  LYS A 135      30.861  35.653   9.169  1.00 29.45     0.005 C 
BRANCH   3   4
ATOM      4  CD  LYS A 135      30.647  37.153   9.038  1.00 32.00     0.041 C 
BRANCH   4   5
ATOM      5  CE  LYS A 135      29.408  37.582   9.800  1.00 34.25     0.338 C 
ATOM      6  NZ  LYS A 135      28.659  38.634   9.057  1.00 35.99     0.618 N 
ENDBRANCH   4   5
ENDBRANCH   3   4
ENDBRANCH   2   3
ENDBRANCH   1   2
END_RES LYS A 135
BEGIN_RES TYR A 136
REMARK  2 active torsions:
REMARK  status: ('A' for Active; 'I' for Inactive)
REMARK    5  A    between atoms: CA   and  CB  
REMARK    6  A    between atoms: CB   and  CG  
ROOT
ATOM      7  CA  TYR A 136      36.583  36.399   8.994  1.00 26.14     0.191 C 
ENDROOT
BRANCH   7   8
ATOM      8  CB  TYR A 136      37.367  36.835  10.240  1.00 28.16     0.060 C 
BRANCH   8   9
ATOM      9  CG  TYR A 136      37.204  38.304  10.543  1.00 31.88    -0.020 A 
ATOM     10  CD2 TYR A 136      38.226  39.216  10.272  1.00 32.67    -0.002 A 
ATOM     11  CE2 TYR A 136      38.065  40.579  10.559  1.00 33.89     0.027 A 
ATOM     12  CZ  TYR A 136      36.871  41.032  11.124  1.00 34.34     0.131 A 
ATOM     13  OH  TYR A 136      36.686  42.378  11.410  1.00 35.14    -0.190 OA
ATOM     14  CE1 TYR A 136      35.845  40.140  11.402  1.00 35.01     0.027 A 
ATOM     15  CD1 TYR A 136      36.020  38.784  11.117  1.00 33.57    -0.002 A 
ENDBRANCH   8   9
ENDBRANCH   7   8
END_RES TYR A 136
BEGIN_RES ASN A 133
REMARK  2 active torsions:
REMARK  status: ('A' for Active; 'I' for Inactive)
REMARK    7  A    between atoms: CA   and  CB  
REMARK    8  A    between atoms: CB   and  CG  
ROOT
ATOM     16  CA  ASN A 133      31.225  30.257  11.749  1.00 18.15     0.196 C 
ENDROOT
BRANCH  16  17
ATOM     17  CB  ASN A 133      30.092  31.240  11.460  1.00 18.27     0.126 C 
BRANCH  17  18
ATOM     18  CG  ASN A 133      28.757  30.578  11.316  1.00 18.94     0.276 C 
ATOM     19  OD1 ASN A 133      28.601  29.611  10.568  1.00 18.09    -0.269 OA
ATOM     20  ND2 ASN A 133      27.766  31.100  12.038  1.00 18.93    -0.107 N 
ENDBRANCH  17  18
ENDBRANCH  16  17
END_RES ASN A 133
