REMARK VINA RESULT:    -3.158      5.486      7.471
REMARK INTER + INTRA:          -7.326
REMARK INTER:                  -3.904
REMARK INTRA:                  -3.421
REMARK UNBOUND:                -3.429
REMARK SMILES COCC(C(N)=O)n1cc(C)nn1
REMARK SMILES IDX 3 1 4 2 8 3 11 4 10 5 9 6 12 7 13 8 5 9 7 10 6 11 2 14 1 15
REMARK H PARENT 6 12 6 13
REMARK Flexibility Score: inf
ROOT
ATOM      1  C   UNL     1      37.068  38.670   2.308  1.00  0.00     0.197 C 
ENDROOT
BRANCH   1   2
ATOM      2  C   UNL     1      37.196  37.638   3.422  1.00  0.00     0.223 C 
BRANCH   2   3
ATOM      3  N   UNL     1      38.532  37.625   3.971  1.00  0.00    -0.237 N 
ATOM      4  C   UNL     1      41.677  38.852   5.343  1.00  0.00     0.070 C 
ATOM      5  C   UNL     1      40.499  38.098   4.811  1.00  0.00     0.080 A 
ATOM      6  C   UNL     1      39.321  38.638   4.359  1.00  0.00     0.135 A 
ATOM      7  N   UNL     1      40.372  36.762   4.674  1.00  0.00    -0.136 NA
ATOM      8  N   UNL     1      39.200  36.486   4.174  1.00  0.00    -0.066 NA
ENDBRANCH   2   3
BRANCH   2   9
ATOM      9  C   UNL     1      36.165  37.913   4.425  1.00  0.00     0.244 C 
ATOM     10  O   UNL     1      35.254  38.738   4.160  1.00  0.00    -0.273 OA
ATOM     11  N   UNL     1      36.167  37.271   5.688  1.00  0.00    -0.368 N 
ATOM     12  H   UNL     1      36.669  36.375   5.886  1.00  0.00     0.159 HD
ATOM     13  H   UNL     1      35.649  37.669   6.523  1.00  0.00     0.159 HD
ENDBRANCH   2   9
ENDBRANCH   1   2
BRANCH   1  14
ATOM     14  O   UNL     1      37.784  38.206   1.209  1.00  0.00    -0.382 OA
ATOM     15  C   UNL     1      37.992  39.269   0.314  1.00  0.00     0.195 C 
ENDBRANCH   1  14
TORSDOF 4
BEGIN_RES LYS A 135
REMARK  4 active torsions:
REMARK  status: ('A' for Active; 'I' for Inactive)
REMARK    1  A    between atoms: CA   and  CB  
REMARK    2  A    between atoms: CB   and  CG  
REMARK    3  A    between atoms: CG   and  CD  
REMARK    4  A    between atoms: CD   and  CE  
ROOT
ATOM      1  CA  LYS A 135      33.193  34.663   9.290  1.00 25.02     0.186 C 
ENDROOT
BRANCH   1   2
ATOM      2  CB  LYS A 135      32.060  35.360  10.034  1.00 26.63     0.034 C 
BRANCH   2   3
ATOM      3  CG  LYS A 135      30.701  34.776   9.746  1.00 29.45     0.005 C 
BRANCH   3   4
ATOM      4  CD  LYS A 135      30.551  34.470   8.264  1.00 32.00     0.041 C 
BRANCH   4   5
ATOM      5  CE  LYS A 135      29.248  35.036   7.732  1.00 34.25     0.338 C 
ATOM      6  NZ  LYS A 135      28.080  34.472   8.465  1.00 35.99     0.618 N 
ENDBRANCH   4   5
ENDBRANCH   3   4
ENDBRANCH   2   3
ENDBRANCH   1   2
END_RES LYS A 135
BEGIN_RES TYR A 136
REMARK  2 active torsions:
REMARK  status: ('A' for Active; 'I' for Inactive)
REMARK    5  A    between atoms: CA   and  CB  
REMARK    6  A    between atoms: CB   and  CG  
ROOT
ATOM      7  CA  TYR A 136      36.583  36.399   8.994  1.00 26.14     0.191 C 
ENDROOT
BRANCH   7   8
ATOM      8  CB  TYR A 136      37.367  36.835  10.240  1.00 28.16     0.060 C 
BRANCH   8   9
ATOM      9  CG  TYR A 136      37.360  38.331  10.436  1.00 31.88    -0.020 A 
ATOM     10  CD2 TYR A 136      36.373  39.132   9.857  1.00 32.67    -0.002 A 
ATOM     11  CE2 TYR A 136      36.376  40.521  10.043  1.00 33.89     0.027 A 
ATOM     12  CZ  TYR A 136      37.378  41.114  10.816  1.00 34.34     0.131 A 
ATOM     13  OH  TYR A 136      37.397  42.487  11.020  1.00 35.14    -0.190 OA
ATOM     14  CE1 TYR A 136      38.367  40.334  11.398  1.00 35.01     0.027 A 
ATOM     15  CD1 TYR A 136      38.356  38.953  11.200  1.00 33.57    -0.002 A 
ENDBRANCH   8   9
ENDBRANCH   7   8
END_RES TYR A 136
BEGIN_RES ASN A 133
REMARK  2 active torsions:
REMARK  status: ('A' for Active; 'I' for Inactive)
REMARK    7  A    between atoms: CA   and  CB  
REMARK    8  A    between atoms: CB   and  CG  
ROOT
ATOM     16  CA  ASN A 133      31.225  30.257  11.749  1.00 18.15     0.196 C 
ENDROOT
BRANCH  16  17
ATOM     17  CB  ASN A 133      30.092  31.240  11.460  1.00 18.27     0.126 C 
BRANCH  17  18
ATOM     18  CG  ASN A 133      28.747  30.587  11.387  1.00 18.94     0.276 C 
ATOM     19  OD1 ASN A 133      28.558  29.591  10.686  1.00 18.09    -0.269 OA
ATOM     20  ND2 ASN A 133      27.785  31.150  12.118  1.00 18.93    -0.107 N 
ENDBRANCH  17  18
ENDBRANCH  16  17
END_RES ASN A 133
