REMARK VINA RESULT:    -3.167      8.214     12.779
REMARK INTER + INTRA:          -6.567
REMARK INTER:                  -3.417
REMARK INTRA:                  -3.150
REMARK UNBOUND:                -3.214
REMARK SMILES Cc1cn(C2CCN(C)CC2)nn1
REMARK SMILES IDX 5 1 6 2 7 3 8 4 9 5 10 6 11 7 4 8 1 9 2 10 3 11 13 12 12 13
REMARK H PARENT
REMARK Flexibility Score: inf
ROOT
ATOM      1  C   UNL     1      29.371  32.607  16.229  1.00  0.00     0.111 C 
ATOM      2  C   UNL     1      30.803  32.476  16.655  1.00  0.00     0.043 C 
ATOM      3  C   UNL     1      31.664  32.871  15.454  1.00  0.00     0.086 C 
ATOM      4  N   UNL     1      31.259  34.166  15.057  1.00  0.00    -0.306 NA
ATOM      5  C   UNL     1      32.252  35.030  14.559  1.00  0.00     0.105 C 
ATOM      6  C   UNL     1      29.959  34.288  14.523  1.00  0.00     0.086 C 
ATOM      7  C   UNL     1      29.211  32.973  14.777  1.00  0.00     0.043 C 
ENDROOT
BRANCH   1   8
ATOM      8  N   UNL     1      28.723  31.333  16.473  1.00  0.00    -0.249 N 
ATOM      9  C   UNL     1      26.996  28.887  18.479  1.00  0.00     0.070 C 
ATOM     10  C   UNL     1      27.680  29.681  17.433  1.00  0.00     0.080 A 
ATOM     11  C   UNL     1      28.186  30.943  17.626  1.00  0.00     0.134 A 
ATOM     12  N   UNL     1      27.925  29.340  16.160  1.00  0.00    -0.136 NA
ATOM     13  N   UNL     1      28.555  30.359  15.612  1.00  0.00    -0.067 NA
ENDBRANCH   1   8
TORSDOF 1
BEGIN_RES LYS A 135
REMARK  4 active torsions:
REMARK  status: ('A' for Active; 'I' for Inactive)
REMARK    1  A    between atoms: CA   and  CB  
REMARK    2  A    between atoms: CB   and  CG  
REMARK    3  A    between atoms: CG   and  CD  
REMARK    4  A    between atoms: CD   and  CE  
ROOT
ATOM      1  CA  LYS A 135      33.193  34.663   9.290  1.00 25.02     0.186 C 
ENDROOT
BRANCH   1   2
ATOM      2  CB  LYS A 135      32.060  35.360  10.034  1.00 26.63     0.034 C 
BRANCH   2   3
ATOM      3  CG  LYS A 135      30.802  35.505   9.217  1.00 29.45     0.005 C 
BRANCH   3   4
ATOM      4  CD  LYS A 135      30.147  34.151   8.994  1.00 32.00     0.041 C 
BRANCH   4   5
ATOM      5  CE  LYS A 135      28.687  34.320   8.623  1.00 34.25     0.338 C 
ATOM      6  NZ  LYS A 135      27.798  33.697   9.642  1.00 35.99     0.618 N 
ENDBRANCH   4   5
ENDBRANCH   3   4
ENDBRANCH   2   3
ENDBRANCH   1   2
END_RES LYS A 135
BEGIN_RES TYR A 136
REMARK  2 active torsions:
REMARK  status: ('A' for Active; 'I' for Inactive)
REMARK    5  A    between atoms: CA   and  CB  
REMARK    6  A    between atoms: CB   and  CG  
ROOT
ATOM      7  CA  TYR A 136      36.583  36.399   8.994  1.00 26.14     0.191 C 
ENDROOT
BRANCH   7   8
ATOM      8  CB  TYR A 136      37.367  36.835  10.240  1.00 28.16     0.060 C 
BRANCH   8   9
ATOM      9  CG  TYR A 136      36.777  38.058  10.898  1.00 31.88    -0.020 A 
ATOM     10  CD2 TYR A 136      36.638  39.259  10.199  1.00 32.67    -0.002 A 
ATOM     11  CE2 TYR A 136      36.090  40.390  10.820  1.00 33.89     0.027 A 
ATOM     12  CZ  TYR A 136      35.679  40.319  12.153  1.00 34.34     0.131 A 
ATOM     13  OH  TYR A 136      35.127  41.424  12.786  1.00 35.14    -0.190 OA
ATOM     14  CE1 TYR A 136      35.811  39.134  12.863  1.00 35.01     0.027 A 
ATOM     15  CD1 TYR A 136      36.364  38.016  12.236  1.00 33.57    -0.002 A 
ENDBRANCH   8   9
ENDBRANCH   7   8
END_RES TYR A 136
BEGIN_RES ASN A 133
REMARK  2 active torsions:
REMARK  status: ('A' for Active; 'I' for Inactive)
REMARK    7  A    between atoms: CA   and  CB  
REMARK    8  A    between atoms: CB   and  CG  
ROOT
ATOM     16  CA  ASN A 133      31.225  30.257  11.749  1.00 18.15     0.196 C 
ENDROOT
BRANCH  16  17
ATOM     17  CB  ASN A 133      30.092  31.240  11.460  1.00 18.27     0.126 C 
BRANCH  17  18
ATOM     18  CG  ASN A 133      28.755  30.579  11.324  1.00 18.94     0.276 C 
ATOM     19  OD1 ASN A 133      28.592  29.618  10.571  1.00 18.09    -0.269 OA
ATOM     20  ND2 ASN A 133      27.773  31.095  12.061  1.00 18.93    -0.107 N 
ENDBRANCH  17  18
ENDBRANCH  16  17
END_RES ASN A 133
