REMARK VINA RESULT:    -5.774      1.862      4.050
REMARK INTER + INTRA:         -11.596
REMARK INTER:                  -8.075
REMARK INTRA:                  -3.521
REMARK UNBOUND:                -3.628
REMARK SMILES Cc1cn(C[C@@H](C(=O)O)C(c2ccccc2)c2ccccc2)nn1
REMARK SMILES IDX 6 1 5 2 4 3 1 4 2 5 3 6 24 7 23 8 7 9 8 10 9 11 10 13 11 14
REMARK SMILES IDX 12 15 16 16 13 17 15 18 14 19 17 20 18 21 22 22 19 23 21 24
REMARK SMILES IDX 20 25
REMARK H PARENT 9 12
REMARK Flexibility Score: inf
ROOT
ATOM      1  C   UNL     1      32.383  35.939  13.383  1.00  0.00     0.132 C 
ENDROOT
BRANCH   1   2
ATOM      2  C   UNL     1      33.283  36.599  12.391  1.00  0.00     0.162 C 
BRANCH   2   3
ATOM      3  N   UNL     1      32.858  37.949  12.108  1.00  0.00    -0.251 N 
ATOM      4  C   UNL     1      32.032  40.744   9.903  1.00  0.00     0.070 C 
ATOM      5  C   UNL     1      32.318  39.729  10.961  1.00  0.00     0.080 A 
ATOM      6  C   UNL     1      32.754  38.450  10.847  1.00  0.00     0.134 A 
ATOM      7  N   UNL     1      32.167  39.981  12.275  1.00  0.00    -0.136 NA
ATOM      8  N   UNL     1      32.493  38.908  12.944  1.00  0.00    -0.067 NA
ENDBRANCH   2   3
ENDBRANCH   1   2
BRANCH   1   9
ATOM      9  C   UNL     1      31.153  35.456  12.753  1.00  0.00     0.309 C 
ATOM     10  O   UNL     1      30.106  36.156  12.846  1.00  0.00    -0.252 OA
BRANCH   9  11
ATOM     11  O   UNL     1      31.109  34.242  12.051  1.00  0.00    -0.481 OA
ATOM     12  H   UNL     1      30.785  34.286  11.074  1.00  0.00     0.296 HD
ENDBRANCH   9  11
ENDBRANCH   1   9
BRANCH   1  13
ATOM     13  C   UNL     1      33.106  34.736  13.987  1.00  0.00     0.065 C 
BRANCH  13  14
ATOM     14  C   UNL     1      34.552  35.006  14.215  1.00  0.00    -0.040 A 
ATOM     15  C   UNL     1      35.035  35.867  15.171  1.00  0.00     0.004 A 
ATOM     16  C   UNL     1      35.451  34.331  13.395  1.00  0.00     0.004 A 
ATOM     17  C   UNL     1      36.403  36.044  15.298  1.00  0.00     0.000 A 
ATOM     18  C   UNL     1      36.814  34.529  13.546  1.00  0.00     0.000 A 
ATOM     19  C   UNL     1      37.293  35.383  14.494  1.00  0.00     0.000 A 
ENDBRANCH  13  14
BRANCH  13  20
ATOM     20  C   UNL     1      32.439  34.342  15.251  1.00  0.00    -0.040 A 
ATOM     21  C   UNL     1      31.828  33.110  15.368  1.00  0.00     0.004 A 
ATOM     22  C   UNL     1      32.418  35.176  16.346  1.00  0.00     0.004 A 
ATOM     23  C   UNL     1      31.202  32.669  16.508  1.00  0.00     0.000 A 
ATOM     24  C   UNL     1      31.793  34.759  17.513  1.00  0.00     0.000 A 
ATOM     25  C   UNL     1      31.202  33.539  17.591  1.00  0.00     0.000 A 
ENDBRANCH  13  20
ENDBRANCH   1  13
TORSDOF 7
BEGIN_RES LYS A 135
REMARK  4 active torsions:
REMARK  status: ('A' for Active; 'I' for Inactive)
REMARK    1  A    between atoms: CA   and  CB  
REMARK    2  A    between atoms: CB   and  CG  
REMARK    3  A    between atoms: CG   and  CD  
REMARK    4  A    between atoms: CD   and  CE  
ROOT
ATOM      1  CA  LYS A 135      33.193  34.663   9.290  1.00 25.02     0.186 C 
ENDROOT
BRANCH   1   2
ATOM      2  CB  LYS A 135      32.060  35.360  10.034  1.00 26.63     0.034 C 
BRANCH   2   3
ATOM      3  CG  LYS A 135      30.902  35.741   9.148  1.00 29.45     0.005 C 
BRANCH   3   4
ATOM      4  CD  LYS A 135      30.390  34.530   8.383  1.00 32.00     0.041 C 
BRANCH   4   5
ATOM      5  CE  LYS A 135      28.874  34.498   8.390  1.00 34.25     0.338 C 
ATOM      6  NZ  LYS A 135      28.357  33.780   9.587  1.00 35.99     0.618 N 
ENDBRANCH   4   5
ENDBRANCH   3   4
ENDBRANCH   2   3
ENDBRANCH   1   2
END_RES LYS A 135
BEGIN_RES TYR A 136
REMARK  2 active torsions:
REMARK  status: ('A' for Active; 'I' for Inactive)
REMARK    5  A    between atoms: CA   and  CB  
REMARK    6  A    between atoms: CB   and  CG  
ROOT
ATOM      7  CA  TYR A 136      36.583  36.399   8.994  1.00 26.14     0.191 C 
ENDROOT
BRANCH   7   8
ATOM      8  CB  TYR A 136      37.367  36.835  10.240  1.00 28.16     0.060 C 
BRANCH   8   9
ATOM      9  CG  TYR A 136      36.807  38.087  10.869  1.00 31.88    -0.020 A 
ATOM     10  CD2 TYR A 136      36.464  39.196  10.091  1.00 32.67    -0.002 A 
ATOM     11  CE2 TYR A 136      35.947  40.355  10.685  1.00 33.89     0.027 A 
ATOM     12  CZ  TYR A 136      35.772  40.406  12.070  1.00 34.34     0.131 A 
ATOM     13  OH  TYR A 136      35.254  41.541  12.679  1.00 35.14    -0.190 OA
ATOM     14  CE1 TYR A 136      36.109  39.314  12.858  1.00 35.01     0.027 A 
ATOM     15  CD1 TYR A 136      36.629  38.168  12.256  1.00 33.57    -0.002 A 
ENDBRANCH   8   9
ENDBRANCH   7   8
END_RES TYR A 136
BEGIN_RES ASN A 133
REMARK  2 active torsions:
REMARK  status: ('A' for Active; 'I' for Inactive)
REMARK    7  A    between atoms: CA   and  CB  
REMARK    8  A    between atoms: CB   and  CG  
ROOT
ATOM     16  CA  ASN A 133      31.225  30.257  11.749  1.00 18.15     0.196 C 
ENDROOT
BRANCH  16  17
ATOM     17  CB  ASN A 133      30.092  31.240  11.460  1.00 18.27     0.126 C 
BRANCH  17  18
ATOM     18  CG  ASN A 133      28.756  30.579  11.323  1.00 18.94     0.276 C 
ATOM     19  OD1 ASN A 133      28.595  29.613  10.574  1.00 18.09    -0.269 OA
ATOM     20  ND2 ASN A 133      27.770  31.099  12.053  1.00 18.93    -0.107 N 
ENDBRANCH  17  18
ENDBRANCH  16  17
END_RES ASN A 133
