REMARK VINA RESULT:    -5.710      4.083      8.903
REMARK INTER + INTRA:          -8.925
REMARK INTER:                  -7.045
REMARK INTRA:                  -1.880
REMARK UNBOUND:                -1.880
REMARK SMILES Cc1cn(C(C)CC(=O)c2ccccc2)nn1
REMARK SMILES IDX 7 1 5 2 6 3 4 4 1 5 2 6 3 7 17 8 16 9 8 10 9 11 10 12 11 13
REMARK SMILES IDX 15 14 12 15 14 16 13 17
REMARK H PARENT
REMARK Flexibility Score: inf
ROOT
ATOM      1  C   UNL     1      26.369  36.637   7.362  1.00  0.00     0.108 C 
ENDROOT
BRANCH   1   2
ATOM      2  C   UNL     1      26.402  38.120   7.416  1.00  0.00     0.114 C 
ATOM      3  C   UNL     1      27.239  38.720   8.473  1.00  0.00     0.034 C 
BRANCH   2   4
ATOM      4  N   UNL     1      25.036  38.603   7.500  1.00  0.00    -0.249 N 
ATOM      5  C   UNL     1      22.601  41.263   7.067  1.00  0.00     0.070 C 
ATOM      6  C   UNL     1      23.336  40.018   7.341  1.00  0.00     0.080 A 
ATOM      7  C   UNL     1      24.695  39.859   7.154  1.00  0.00     0.134 A 
ATOM      8  N   UNL     1      22.895  38.833   7.801  1.00  0.00    -0.136 NA
ATOM      9  N   UNL     1      23.937  38.009   7.884  1.00  0.00    -0.067 NA
ENDBRANCH   2   4
ENDBRANCH   1   2
BRANCH   1  10
ATOM     10  C   UNL     1      27.591  36.006   6.844  1.00  0.00     0.164 C 
ATOM     11  O   UNL     1      28.000  36.104   5.671  1.00  0.00    -0.294 OA
BRANCH  10  12
ATOM     12  C   UNL     1      28.384  35.208   7.773  1.00  0.00     0.018 A 
ATOM     13  C   UNL     1      27.808  34.526   8.840  1.00  0.00     0.012 A 
ATOM     14  C   UNL     1      29.761  35.073   7.657  1.00  0.00     0.012 A 
ATOM     15  C   UNL     1      28.549  33.769   9.723  1.00  0.00     0.001 A 
ATOM     16  C   UNL     1      30.529  34.337   8.505  1.00  0.00     0.001 A 
ATOM     17  C   UNL     1      29.923  33.678   9.548  1.00  0.00     0.000 A 
ENDBRANCH  10  12
ENDBRANCH   1  10
TORSDOF 4
BEGIN_RES LYS A 135
REMARK  4 active torsions:
REMARK  status: ('A' for Active; 'I' for Inactive)
REMARK    1  A    between atoms: CA   and  CB  
REMARK    2  A    between atoms: CB   and  CG  
REMARK    3  A    between atoms: CG   and  CD  
REMARK    4  A    between atoms: CD   and  CE  
ROOT
ATOM      1  CA  LYS A 135      33.193  34.663   9.290  1.00 25.02     0.186 C 
ENDROOT
BRANCH   1   2
ATOM      2  CB  LYS A 135      32.060  35.360  10.034  1.00 26.63     0.034 C 
BRANCH   2   3
ATOM      3  CG  LYS A 135      32.407  35.726  11.454  1.00 29.45     0.005 C 
BRANCH   3   4
ATOM      4  CD  LYS A 135      31.146  35.941  12.276  1.00 32.00     0.041 C 
BRANCH   4   5
ATOM      5  CE  LYS A 135      30.844  34.718  13.120  1.00 34.25     0.338 C 
ATOM      6  NZ  LYS A 135      29.376  34.503  13.248  1.00 35.99     0.618 N 
ENDBRANCH   4   5
ENDBRANCH   3   4
ENDBRANCH   2   3
ENDBRANCH   1   2
END_RES LYS A 135
BEGIN_RES TYR A 136
REMARK  2 active torsions:
REMARK  status: ('A' for Active; 'I' for Inactive)
REMARK    5  A    between atoms: CA   and  CB  
REMARK    6  A    between atoms: CB   and  CG  
ROOT
ATOM      7  CA  TYR A 136      36.583  36.399   8.994  1.00 26.14     0.191 C 
ENDROOT
BRANCH   7   8
ATOM      8  CB  TYR A 136      37.367  36.835  10.240  1.00 28.16     0.060 C 
BRANCH   8   9
ATOM      9  CG  TYR A 136      36.468  37.158  11.408  1.00 31.88    -0.020 A 
ATOM     10  CD2 TYR A 136      35.654  38.293  11.401  1.00 32.67    -0.002 A 
ATOM     11  CE2 TYR A 136      34.823  38.585  12.491  1.00 33.89     0.027 A 
ATOM     12  CZ  TYR A 136      34.807  37.734  13.599  1.00 34.34     0.131 A 
ATOM     13  OH  TYR A 136      33.987  38.000  14.687  1.00 35.14    -0.190 OA
ATOM     14  CE1 TYR A 136      35.610  36.603  13.623  1.00 35.01     0.027 A 
ATOM     15  CD1 TYR A 136      36.438  36.326  12.534  1.00 33.57    -0.002 A 
ENDBRANCH   8   9
ENDBRANCH   7   8
END_RES TYR A 136
BEGIN_RES ASN A 133
REMARK  2 active torsions:
REMARK  status: ('A' for Active; 'I' for Inactive)
REMARK    7  A    between atoms: CA   and  CB  
REMARK    8  A    between atoms: CB   and  CG  
ROOT
ATOM     16  CA  ASN A 133      31.225  30.257  11.749  1.00 18.15     0.196 C 
ENDROOT
BRANCH  16  17
ATOM     17  CB  ASN A 133      30.092  31.240  11.460  1.00 18.27     0.126 C 
BRANCH  17  18
ATOM     18  CG  ASN A 133      28.747  30.587  11.384  1.00 18.94     0.276 C 
ATOM     19  OD1 ASN A 133      28.552  29.609  10.659  1.00 18.09    -0.269 OA
ATOM     20  ND2 ASN A 133      27.792  31.128  12.140  1.00 18.93    -0.107 N 
ENDBRANCH  17  18
ENDBRANCH  16  17
END_RES ASN A 133
