REMARK VINA RESULT:    -3.868      3.931      6.747
REMARK INTER + INTRA:          -7.372
REMARK INTER:                  -5.312
REMARK INTRA:                  -2.060
REMARK UNBOUND:                -3.052
REMARK SMILES Cc1cn(Cc2ccc(Br)cc2)nn1
REMARK SMILES IDX 5 1 4 2 1 3 2 4 3 5 14 6 13 7 6 8 7 9 12 10 8 11 11 12 9 13
REMARK SMILES IDX 10 14
REMARK H PARENT
REMARK Flexibility Score: inf
ROOT
ATOM      1  C   UNL     1      26.565  34.300   8.745  1.00  0.00     0.181 C 
ENDROOT
BRANCH   1   2
ATOM      2  N   UNL     1      27.149  34.532  10.072  1.00  0.00    -0.248 N 
ATOM      3  C   UNL     1      29.671  34.264  12.742  1.00  0.00     0.070 C 
ATOM      4  C   UNL     1      28.498  34.529  11.837  1.00  0.00     0.080 A 
ATOM      5  C   UNL     1      28.328  34.082  10.539  1.00  0.00     0.134 A 
ATOM      6  N   UNL     1      27.395  35.245  12.109  1.00  0.00    -0.136 NA
ATOM      7  N   UNL     1      26.616  35.229  11.047  1.00  0.00    -0.067 NA
ENDBRANCH   1   2
BRANCH   1   8
ATOM      8  C   UNL     1      26.913  35.426   7.851  1.00  0.00    -0.026 A 
ATOM      9  C   UNL     1      26.179  36.584   7.912  1.00  0.00     0.007 A 
ATOM     10  C   UNL     1      27.958  35.334   6.962  1.00  0.00     0.007 A 
ATOM     11  C   UNL     1      26.524  37.616   7.070  1.00  0.00     0.016 A 
ATOM     12  C   UNL     1      28.287  36.397   6.118  1.00  0.00     0.016 A 
ATOM     13  C   UNL     1      27.561  37.566   6.165  1.00  0.00     0.017 A 
ATOM     14  Br  UNL     1      28.038  38.988   5.003  1.00  0.00    -0.051 Br
ENDBRANCH   1   8
TORSDOF 2
BEGIN_RES LYS A 135
REMARK  4 active torsions:
REMARK  status: ('A' for Active; 'I' for Inactive)
REMARK    1  A    between atoms: CA   and  CB  
REMARK    2  A    between atoms: CB   and  CG  
REMARK    3  A    between atoms: CG   and  CD  
REMARK    4  A    between atoms: CD   and  CE  
ROOT
ATOM      1  CA  LYS A 135      33.193  34.663   9.290  1.00 25.02     0.186 C 
ENDROOT
BRANCH   1   2
ATOM      2  CB  LYS A 135      32.060  35.360  10.034  1.00 26.63     0.034 C 
BRANCH   2   3
ATOM      3  CG  LYS A 135      30.854  35.636   9.173  1.00 29.45     0.005 C 
BRANCH   3   4
ATOM      4  CD  LYS A 135      30.629  37.133   9.030  1.00 32.00     0.041 C 
BRANCH   4   5
ATOM      5  CE  LYS A 135      29.354  37.550   9.739  1.00 34.25     0.338 C 
ATOM      6  NZ  LYS A 135      29.624  37.925  11.154  1.00 35.99     0.618 N 
ENDBRANCH   4   5
ENDBRANCH   3   4
ENDBRANCH   2   3
ENDBRANCH   1   2
END_RES LYS A 135
BEGIN_RES TYR A 136
REMARK  2 active torsions:
REMARK  status: ('A' for Active; 'I' for Inactive)
REMARK    5  A    between atoms: CA   and  CB  
REMARK    6  A    between atoms: CB   and  CG  
ROOT
ATOM      7  CA  TYR A 136      36.583  36.399   8.994  1.00 26.14     0.191 C 
ENDROOT
BRANCH   7   8
ATOM      8  CB  TYR A 136      37.367  36.835  10.240  1.00 28.16     0.060 C 
BRANCH   8   9
ATOM      9  CG  TYR A 136      36.829  38.107  10.848  1.00 31.88    -0.020 A 
ATOM     10  CD2 TYR A 136      36.801  39.300  10.122  1.00 32.67    -0.002 A 
ATOM     11  CE2 TYR A 136      36.301  40.476  10.697  1.00 33.89     0.027 A 
ATOM     12  CZ  TYR A 136      35.825  40.459  12.011  1.00 34.34     0.131 A 
ATOM     13  OH  TYR A 136      35.319  41.610  12.598  1.00 35.14    -0.190 OA
ATOM     14  CE1 TYR A 136      35.847  39.283  12.747  1.00 35.01     0.027 A 
ATOM     15  CD1 TYR A 136      36.354  38.119  12.166  1.00 33.57    -0.002 A 
ENDBRANCH   8   9
ENDBRANCH   7   8
END_RES TYR A 136
BEGIN_RES ASN A 133
REMARK  2 active torsions:
REMARK  status: ('A' for Active; 'I' for Inactive)
REMARK    7  A    between atoms: CA   and  CB  
REMARK    8  A    between atoms: CB   and  CG  
ROOT
ATOM     16  CA  ASN A 133      31.225  30.257  11.749  1.00 18.15     0.196 C 
ENDROOT
BRANCH  16  17
ATOM     17  CB  ASN A 133      30.092  31.240  11.460  1.00 18.27     0.126 C 
BRANCH  17  18
ATOM     18  CG  ASN A 133      28.749  30.584  11.366  1.00 18.94     0.276 C 
ATOM     19  OD1 ASN A 133      28.534  29.683  10.554  1.00 18.09    -0.269 OA
ATOM     20  ND2 ASN A 133      27.820  31.037  12.207  1.00 18.93    -0.107 N 
ENDBRANCH  17  18
ENDBRANCH  16  17
END_RES ASN A 133
