REMARK VINA RESULT:    -3.533      4.367      7.718
REMARK INTER + INTRA:          -6.928
REMARK INTER:                  -4.506
REMARK INTRA:                  -2.422
REMARK UNBOUND:                -3.188
REMARK SMILES Cc1cn(-c2ccc(Cl)cc2)nn1
REMARK SMILES IDX 5 1 6 2 7 3 8 4 9 5 10 6 11 7 4 8 1 9 2 10 3 11 13 12 12 13
REMARK H PARENT
REMARK Flexibility Score: inf
ROOT
ATOM      1  C   UNL     1      25.314  35.724   8.894  1.00  0.00     0.066 A 
ATOM      2  C   UNL     1      25.547  36.813   8.079  1.00  0.00     0.030 A 
ATOM      3  C   UNL     1      26.618  36.905   7.229  1.00  0.00     0.023 A 
ATOM      4  C   UNL     1      27.533  35.857   7.167  1.00  0.00     0.041 A 
ATOM      5  Cl  UNL     1      28.913  35.948   6.088  1.00  0.00    -0.084 Cl
ATOM      6  C   UNL     1      27.317  34.752   7.980  1.00  0.00     0.023 A 
ATOM      7  C   UNL     1      26.227  34.690   8.827  1.00  0.00     0.030 A 
ENDROOT
BRANCH   1   8
ATOM      8  N   UNL     1      24.194  35.652   9.770  1.00  0.00    -0.220 N 
ATOM      9  C   UNL     1      20.619  35.291  10.551  1.00  0.00     0.070 C 
ATOM     10  C   UNL     1      22.090  35.457  10.495  1.00  0.00     0.080 A 
ATOM     11  C   UNL     1      22.902  35.479   9.382  1.00  0.00     0.140 A 
ATOM     12  N   UNL     1      22.911  35.618  11.543  1.00  0.00    -0.135 NA
ATOM     13  N   UNL     1      24.148  35.731  11.089  1.00  0.00    -0.062 NA
ENDBRANCH   1   8
TORSDOF 1
BEGIN_RES LYS A 135
REMARK  4 active torsions:
REMARK  status: ('A' for Active; 'I' for Inactive)
REMARK    1  A    between atoms: CA   and  CB  
REMARK    2  A    between atoms: CB   and  CG  
REMARK    3  A    between atoms: CG   and  CD  
REMARK    4  A    between atoms: CD   and  CE  
ROOT
ATOM      1  CA  LYS A 135      33.193  34.663   9.290  1.00 25.02     0.186 C 
ENDROOT
BRANCH   1   2
ATOM      2  CB  LYS A 135      32.060  35.360  10.034  1.00 26.63     0.034 C 
BRANCH   2   3
ATOM      3  CG  LYS A 135      30.691  35.021   9.502  1.00 29.45     0.005 C 
BRANCH   3   4
ATOM      4  CD  LYS A 135      29.712  34.797  10.644  1.00 32.00     0.041 C 
BRANCH   4   5
ATOM      5  CE  LYS A 135      30.421  34.898  11.981  1.00 34.25     0.338 C 
ATOM      6  NZ  LYS A 135      29.541  34.439  13.091  1.00 35.99     0.618 N 
ENDBRANCH   4   5
ENDBRANCH   3   4
ENDBRANCH   2   3
ENDBRANCH   1   2
END_RES LYS A 135
BEGIN_RES TYR A 136
REMARK  2 active torsions:
REMARK  status: ('A' for Active; 'I' for Inactive)
REMARK    5  A    between atoms: CA   and  CB  
REMARK    6  A    between atoms: CB   and  CG  
ROOT
ATOM      7  CA  TYR A 136      36.583  36.399   8.994  1.00 26.14     0.191 C 
ENDROOT
BRANCH   7   8
ATOM      8  CB  TYR A 136      37.367  36.835  10.240  1.00 28.16     0.060 C 
BRANCH   8   9
ATOM      9  CG  TYR A 136      37.246  38.314  10.513  1.00 31.88    -0.020 A 
ATOM     10  CD2 TYR A 136      37.996  38.927  11.519  1.00 32.67    -0.002 A 
ATOM     11  CE2 TYR A 136      37.876  40.301  11.766  1.00 33.89     0.027 A 
ATOM     12  CZ  TYR A 136      36.995  41.069  11.000  1.00 34.34     0.131 A 
ATOM     13  OH  TYR A 136      36.864  42.433  11.223  1.00 35.14    -0.190 OA
ATOM     14  CE1 TYR A 136      36.241  40.476   9.998  1.00 35.01     0.027 A 
ATOM     15  CD1 TYR A 136      36.365  39.106   9.765  1.00 33.57    -0.002 A 
ENDBRANCH   8   9
ENDBRANCH   7   8
END_RES TYR A 136
BEGIN_RES ASN A 133
REMARK  2 active torsions:
REMARK  status: ('A' for Active; 'I' for Inactive)
REMARK    7  A    between atoms: CA   and  CB  
REMARK    8  A    between atoms: CB   and  CG  
ROOT
ATOM     16  CA  ASN A 133      31.225  30.257  11.749  1.00 18.15     0.196 C 
ENDROOT
BRANCH  16  17
ATOM     17  CB  ASN A 133      30.092  31.240  11.460  1.00 18.27     0.126 C 
BRANCH  17  18
ATOM     18  CG  ASN A 133      28.752  30.582  11.348  1.00 18.94     0.276 C 
ATOM     19  OD1 ASN A 133      28.580  29.605  10.616  1.00 18.09    -0.269 OA
ATOM     20  ND2 ASN A 133      27.776  31.118  12.080  1.00 18.93    -0.107 N 
ENDBRANCH  17  18
ENDBRANCH  16  17
END_RES ASN A 133
