REMARK VINA RESULT:    -5.824      1.509      1.716
REMARK INTER + INTRA:          -9.150
REMARK INTER:                  -6.254
REMARK INTRA:                  -2.896
REMARK UNBOUND:                -2.985
REMARK SMILES Cc1cn(-c2c3ccccc3nc3ccccc23)nn1
REMARK SMILES IDX 5 1 6 2 7 3 8 4 9 5 10 6 11 7 12 8 13 9 14 10 15 11 16 12
REMARK SMILES IDX 17 13 18 14 4 15 1 16 2 17 3 18 20 19 19 20
REMARK H PARENT
REMARK Flexibility Score: inf
ROOT
ATOM      1  C   UNL     1      35.200  35.550  14.349  1.00  0.00     0.085 A 
ATOM      2  C   UNL     1      35.374  36.220  15.547  1.00  0.00     0.027 A 
ATOM      3  C   UNL     1      34.363  37.000  16.068  1.00  0.00     0.012 A 
ATOM      4  C   UNL     1      34.563  37.657  17.264  1.00  0.00     0.001 A 
ATOM      5  C   UNL     1      35.779  37.502  17.894  1.00  0.00     0.002 A 
ATOM      6  C   UNL     1      36.778  36.725  17.373  1.00  0.00     0.029 A 
ATOM      7  C   UNL     1      36.596  36.053  16.164  1.00  0.00     0.073 A 
ATOM      8  N   UNL     1      37.589  35.298  15.671  1.00  0.00    -0.248 NA
ATOM      9  C   UNL     1      37.424  34.634  14.488  1.00  0.00     0.073 A 
ATOM     10  C   UNL     1      38.442  33.854  13.973  1.00  0.00     0.029 A 
ATOM     11  C   UNL     1      38.213  33.210  12.777  1.00  0.00     0.002 A 
ATOM     12  C   UNL     1      37.012  33.332  12.104  1.00  0.00     0.001 A 
ATOM     13  C   UNL     1      36.025  34.103  12.626  1.00  0.00     0.012 A 
ATOM     14  C   UNL     1      36.229  34.756  13.820  1.00  0.00     0.027 A 
ENDROOT
BRANCH   1  15
ATOM     15  N   UNL     1      33.978  35.655  13.634  1.00  0.00    -0.219 N 
ATOM     16  C   UNL     1      30.506  34.817  12.796  1.00  0.00     0.070 C 
ATOM     17  C   UNL     1      31.909  35.349  12.932  1.00  0.00     0.080 A 
ATOM     18  C   UNL     1      32.865  34.940  13.834  1.00  0.00     0.140 A 
ATOM     19  N   UNL     1      32.468  36.315  12.191  1.00  0.00    -0.135 NA
ATOM     20  N   UNL     1      33.695  36.464  12.642  1.00  0.00    -0.062 NA
ENDBRANCH   1  15
TORSDOF 1
BEGIN_RES LYS A 135
REMARK  4 active torsions:
REMARK  status: ('A' for Active; 'I' for Inactive)
REMARK    1  A    between atoms: CA   and  CB  
REMARK    2  A    between atoms: CB   and  CG  
REMARK    3  A    between atoms: CG   and  CD  
REMARK    4  A    between atoms: CD   and  CE  
ROOT
ATOM      1  CA  LYS A 135      33.193  34.663   9.290  1.00 25.02     0.186 C 
ENDROOT
BRANCH   1   2
ATOM      2  CB  LYS A 135      32.060  35.360  10.034  1.00 26.63     0.034 C 
BRANCH   2   3
ATOM      3  CG  LYS A 135      30.830  35.577   9.191  1.00 29.45     0.005 C 
BRANCH   3   4
ATOM      4  CD  LYS A 135      30.219  34.246   8.780  1.00 32.00     0.041 C 
BRANCH   4   5
ATOM      5  CE  LYS A 135      28.730  34.396   8.535  1.00 34.25     0.338 C 
ATOM      6  NZ  LYS A 135      27.940  33.719   9.600  1.00 35.99     0.618 N 
ENDBRANCH   4   5
ENDBRANCH   3   4
ENDBRANCH   2   3
ENDBRANCH   1   2
END_RES LYS A 135
BEGIN_RES TYR A 136
REMARK  2 active torsions:
REMARK  status: ('A' for Active; 'I' for Inactive)
REMARK    5  A    between atoms: CA   and  CB  
REMARK    6  A    between atoms: CB   and  CG  
ROOT
ATOM      7  CA  TYR A 136      36.583  36.399   8.994  1.00 26.14     0.191 C 
ENDROOT
BRANCH   7   8
ATOM      8  CB  TYR A 136      37.367  36.835  10.240  1.00 28.16     0.060 C 
BRANCH   8   9
ATOM      9  CG  TYR A 136      36.651  37.901  11.033  1.00 31.88    -0.020 A 
ATOM     10  CD2 TYR A 136      35.721  38.750  10.428  1.00 32.67    -0.002 A 
ATOM     11  CE2 TYR A 136      35.062  39.737  11.173  1.00 33.89     0.027 A 
ATOM     12  CZ  TYR A 136      35.337  39.877  12.536  1.00 34.34     0.131 A 
ATOM     13  OH  TYR A 136      34.691  40.843  13.295  1.00 35.14    -0.190 OA
ATOM     14  CE1 TYR A 136      36.258  39.043  13.152  1.00 35.01     0.027 A 
ATOM     15  CD1 TYR A 136      36.913  38.067  12.399  1.00 33.57    -0.002 A 
ENDBRANCH   8   9
ENDBRANCH   7   8
END_RES TYR A 136
BEGIN_RES ASN A 133
REMARK  2 active torsions:
REMARK  status: ('A' for Active; 'I' for Inactive)
REMARK    7  A    between atoms: CA   and  CB  
REMARK    8  A    between atoms: CB   and  CG  
ROOT
ATOM     16  CA  ASN A 133      31.225  30.257  11.749  1.00 18.15     0.196 C 
ENDROOT
BRANCH  16  17
ATOM     17  CB  ASN A 133      30.092  31.240  11.460  1.00 18.27     0.126 C 
BRANCH  17  18
ATOM     18  CG  ASN A 133      28.749  30.584  11.365  1.00 18.94     0.276 C 
ATOM     19  OD1 ASN A 133      28.565  29.611  10.631  1.00 18.09    -0.269 OA
ATOM     20  ND2 ASN A 133      27.785  31.118  12.113  1.00 18.93    -0.107 N 
ENDBRANCH  17  18
ENDBRANCH  16  17
END_RES ASN A 133
