REMARK VINA RESULT:    -4.073      3.699      5.820
REMARK INTER + INTRA:          -7.073
REMARK INTER:                  -4.373
REMARK INTRA:                  -2.700
REMARK UNBOUND:                -2.762
REMARK SMILES Cc1cc(C)c(-n2cc(C)nn2)c(C)c1
REMARK SMILES IDX 6 1 4 2 5 3 3 4 2 5 1 6 15 7 13 8 14 9 7 10 10 11 9 12 8 13
REMARK SMILES IDX 11 14 12 15
REMARK H PARENT
REMARK Flexibility Score: inf
ROOT
ATOM      1  C   UNL     1      31.365  36.172  12.902  1.00  0.00     0.072 A 
ATOM      2  C   UNL     1      32.643  36.446  12.456  1.00  0.00    -0.025 A 
ATOM      3  C   UNL     1      33.769  35.520  12.797  1.00  0.00     0.047 C 
ATOM      4  C   UNL     1      32.896  37.580  11.689  1.00  0.00     0.009 A 
ATOM      5  C   UNL     1      31.887  38.460  11.352  1.00  0.00    -0.050 A 
ATOM      6  C   UNL     1      32.169  39.679  10.527  1.00  0.00     0.044 C 
ATOM      7  C   UNL     1      30.618  38.198  11.790  1.00  0.00     0.009 A 
ATOM      8  C   UNL     1      30.363  37.075  12.550  1.00  0.00    -0.025 A 
ATOM      9  C   UNL     1      28.980  36.806  13.015  1.00  0.00     0.047 C 
ENDROOT
BRANCH   1  10
ATOM     10  N   UNL     1      31.076  35.019  13.689  1.00  0.00    -0.220 N 
ATOM     11  C   UNL     1      30.999  32.832  16.617  1.00  0.00     0.070 C 
ATOM     12  C   UNL     1      30.902  33.528  15.316  1.00  0.00     0.080 A 
ATOM     13  C   UNL     1      31.379  34.773  14.970  1.00  0.00     0.140 A 
ATOM     14  N   UNL     1      30.308  33.044  14.202  1.00  0.00    -0.135 NA
ATOM     15  N   UNL     1      30.421  33.939  13.247  1.00  0.00    -0.062 NA
ENDBRANCH   1  10
TORSDOF 1
BEGIN_RES LYS A 135
REMARK  4 active torsions:
REMARK  status: ('A' for Active; 'I' for Inactive)
REMARK    1  A    between atoms: CA   and  CB  
REMARK    2  A    between atoms: CB   and  CG  
REMARK    3  A    between atoms: CG   and  CD  
REMARK    4  A    between atoms: CD   and  CE  
ROOT
ATOM      1  CA  LYS A 135      33.193  34.663   9.290  1.00 25.02     0.186 C 
ENDROOT
BRANCH   1   2
ATOM      2  CB  LYS A 135      32.060  35.360  10.034  1.00 26.63     0.034 C 
BRANCH   2   3
ATOM      3  CG  LYS A 135      30.791  35.474   9.229  1.00 29.45     0.005 C 
BRANCH   3   4
ATOM      4  CD  LYS A 135      30.078  34.132   9.159  1.00 32.00     0.041 C 
BRANCH   4   5
ATOM      5  CE  LYS A 135      28.669  34.305   8.626  1.00 34.25     0.338 C 
ATOM      6  NZ  LYS A 135      28.655  35.178   7.420  1.00 35.99     0.618 N 
ENDBRANCH   4   5
ENDBRANCH   3   4
ENDBRANCH   2   3
ENDBRANCH   1   2
END_RES LYS A 135
BEGIN_RES TYR A 136
REMARK  2 active torsions:
REMARK  status: ('A' for Active; 'I' for Inactive)
REMARK    5  A    between atoms: CA   and  CB  
REMARK    6  A    between atoms: CB   and  CG  
ROOT
ATOM      7  CA  TYR A 136      36.583  36.399   8.994  1.00 26.14     0.191 C 
ENDROOT
BRANCH   7   8
ATOM      8  CB  TYR A 136      37.367  36.835  10.240  1.00 28.16     0.060 C 
BRANCH   8   9
ATOM      9  CG  TYR A 136      36.734  38.011  10.942  1.00 31.88    -0.020 A 
ATOM     10  CD2 TYR A 136      36.286  39.124  10.227  1.00 32.67    -0.002 A 
ATOM     11  CE2 TYR A 136      35.701  40.213  10.888  1.00 33.89     0.027 A 
ATOM     12  CZ  TYR A 136      35.563  40.187  12.278  1.00 34.34     0.131 A 
ATOM     13  OH  TYR A 136      34.980  41.250  12.953  1.00 35.14    -0.190 OA
ATOM     14  CE1 TYR A 136      36.004  39.090  13.004  1.00 35.01     0.027 A 
ATOM     15  CD1 TYR A 136      36.591  38.015  12.335  1.00 33.57    -0.002 A 
ENDBRANCH   8   9
ENDBRANCH   7   8
END_RES TYR A 136
BEGIN_RES ASN A 133
REMARK  2 active torsions:
REMARK  status: ('A' for Active; 'I' for Inactive)
REMARK    7  A    between atoms: CA   and  CB  
REMARK    8  A    between atoms: CB   and  CG  
ROOT
ATOM     16  CA  ASN A 133      31.225  30.257  11.749  1.00 18.15     0.196 C 
ENDROOT
BRANCH  16  17
ATOM     17  CB  ASN A 133      30.092  31.240  11.460  1.00 18.27     0.126 C 
BRANCH  17  18
ATOM     18  CG  ASN A 133      28.753  30.581  11.339  1.00 18.94     0.276 C 
ATOM     19  OD1 ASN A 133      28.573  29.641  10.563  1.00 18.09    -0.269 OA
ATOM     20  ND2 ASN A 133      27.788  31.074  12.114  1.00 18.93    -0.107 N 
ENDBRANCH  17  18
ENDBRANCH  16  17
END_RES ASN A 133
