REMARK VINA RESULT:    -4.075      3.903      5.978
REMARK INTER + INTRA:          -8.531
REMARK INTER:                  -5.136
REMARK INTRA:                  -3.395
REMARK UNBOUND:                -3.502
REMARK SMILES CCOC(=O)c1cccc(-n2cc(C)nn2)c1
REMARK SMILES IDX 4 1 5 2 6 3 10 4 17 5 9 6 8 7 7 8 11 9 14 10 13 11 12 12
REMARK SMILES IDX 15 13 16 14 3 15 2 16 1 17
REMARK H PARENT
REMARK Flexibility Score: inf
ROOT
ATOM      1  C   UNL     1      37.405  35.811  16.197  1.00  0.00     0.338 C 
ATOM      2  O   UNL     1      37.286  37.050  16.376  1.00  0.00    -0.246 OA
ENDROOT
BRANCH   1   3
ATOM      3  C   UNL     1      37.584  35.217  14.882  1.00  0.00     0.062 A 
ATOM      4  C   UNL     1      38.999  34.595  13.025  1.00  0.00     0.067 A 
ATOM      5  C   UNL     1      38.826  35.156  14.270  1.00  0.00     0.044 A 
ATOM      6  C   UNL     1      37.893  34.087  12.389  1.00  0.00     0.028 A 
ATOM      7  C   UNL     1      36.622  34.119  12.952  1.00  0.00     0.003 A 
ATOM      8  C   UNL     1      36.507  34.693  14.202  1.00  0.00     0.016 A 
BRANCH   4   9
ATOM      9  N   UNL     1      40.269  34.531  12.395  1.00  0.00    -0.220 N 
ATOM     10  C   UNL     1      43.071  35.828  10.386  1.00  0.00     0.070 C 
ATOM     11  C   UNL     1      42.109  35.055  11.216  1.00  0.00     0.080 A 
ATOM     12  C   UNL     1      40.880  35.494  11.664  1.00  0.00     0.140 A 
ATOM     13  N   UNL     1      42.214  33.801  11.701  1.00  0.00    -0.135 NA
ATOM     14  N   UNL     1      41.128  33.503  12.392  1.00  0.00    -0.062 NA
ENDBRANCH   4   9
ENDBRANCH   1   3
BRANCH   1  15
ATOM     15  O   UNL     1      37.359  35.016  17.330  1.00  0.00    -0.462 OA
BRANCH  15  16
ATOM     16  C   UNL     1      38.540  34.573  17.965  1.00  0.00     0.230 C 
ATOM     17  C   UNL     1      38.688  33.100  17.734  1.00  0.00     0.049 C 
ENDBRANCH  15  16
ENDBRANCH   1  15
TORSDOF 4
BEGIN_RES LYS A 135
REMARK  4 active torsions:
REMARK  status: ('A' for Active; 'I' for Inactive)
REMARK    1  A    between atoms: CA   and  CB  
REMARK    2  A    between atoms: CB   and  CG  
REMARK    3  A    between atoms: CG   and  CD  
REMARK    4  A    between atoms: CD   and  CE  
ROOT
ATOM      1  CA  LYS A 135      33.193  34.663   9.290  1.00 25.02     0.186 C 
ENDROOT
BRANCH   1   2
ATOM      2  CB  LYS A 135      32.060  35.360  10.034  1.00 26.63     0.034 C 
BRANCH   2   3
ATOM      3  CG  LYS A 135      30.733  34.658   9.904  1.00 29.45     0.005 C 
BRANCH   3   4
ATOM      4  CD  LYS A 135      30.350  34.501   8.441  1.00 32.00     0.041 C 
BRANCH   4   5
ATOM      5  CE  LYS A 135      28.843  34.552   8.276  1.00 34.25     0.338 C 
ATOM      6  NZ  LYS A 135      28.157  33.833   9.385  1.00 35.99     0.618 N 
ENDBRANCH   4   5
ENDBRANCH   3   4
ENDBRANCH   2   3
ENDBRANCH   1   2
END_RES LYS A 135
BEGIN_RES TYR A 136
REMARK  2 active torsions:
REMARK  status: ('A' for Active; 'I' for Inactive)
REMARK    5  A    between atoms: CA   and  CB  
REMARK    6  A    between atoms: CB   and  CG  
ROOT
ATOM      7  CA  TYR A 136      36.583  36.399   8.994  1.00 26.14     0.191 C 
ENDROOT
BRANCH   7   8
ATOM      8  CB  TYR A 136      37.367  36.835  10.240  1.00 28.16     0.060 C 
BRANCH   8   9
ATOM      9  CG  TYR A 136      36.643  37.889  11.042  1.00 31.88    -0.020 A 
ATOM     10  CD2 TYR A 136      36.581  37.821  12.435  1.00 32.67    -0.002 A 
ATOM     11  CE2 TYR A 136      35.905  38.804  13.170  1.00 33.89     0.027 A 
ATOM     12  CZ  TYR A 136      35.285  39.865  12.505  1.00 34.34     0.131 A 
ATOM     13  OH  TYR A 136      34.615  40.853  13.213  1.00 35.14    -0.190 OA
ATOM     14  CE1 TYR A 136      35.335  39.947  11.121  1.00 35.01     0.027 A 
ATOM     15  CD1 TYR A 136      36.007  38.958  10.399  1.00 33.57    -0.002 A 
ENDBRANCH   8   9
ENDBRANCH   7   8
END_RES TYR A 136
BEGIN_RES ASN A 133
REMARK  2 active torsions:
REMARK  status: ('A' for Active; 'I' for Inactive)
REMARK    7  A    between atoms: CA   and  CB  
REMARK    8  A    between atoms: CB   and  CG  
ROOT
ATOM     16  CA  ASN A 133      31.225  30.257  11.749  1.00 18.15     0.196 C 
ENDROOT
BRANCH  16  17
ATOM     17  CB  ASN A 133      30.092  31.240  11.460  1.00 18.27     0.126 C 
BRANCH  17  18
ATOM     18  CG  ASN A 133      28.761  30.576  11.292  1.00 18.94     0.276 C 
ATOM     19  OD1 ASN A 133      28.626  29.592  10.561  1.00 18.09    -0.269 OA
ATOM     20  ND2 ASN A 133      27.750  31.114  11.974  1.00 18.93    -0.107 N 
ENDBRANCH  17  18
ENDBRANCH  16  17
END_RES ASN A 133
