REMARK VINA RESULT:    -3.832      0.000      0.000
REMARK INTER + INTRA:          -8.127
REMARK INTER:                  -4.837
REMARK INTRA:                  -3.290
REMARK UNBOUND:                -3.398
REMARK SMILES Cc1cn(CC(O)CO)nn1
REMARK SMILES IDX 6 1 5 2 4 3 1 4 2 5 3 6 11 7 10 8 7 9 8 11 9 12
REMARK H PARENT 7 10 9 13
REMARK Flexibility Score: inf
ROOT
ATOM      1  C   UNL     1      22.530  35.208  -0.097  1.00  0.00     0.161 C 
ENDROOT
BRANCH   1   2
ATOM      2  C   UNL     1      21.698  34.166  -0.807  1.00  0.00     0.180 C 
BRANCH   2   3
ATOM      3  N   UNL     1      22.070  32.822  -0.418  1.00  0.00    -0.250 N 
ATOM      4  C   UNL     1      22.470  29.197  -0.758  1.00  0.00     0.070 C 
ATOM      5  C   UNL     1      22.414  30.634  -0.388  1.00  0.00     0.080 A 
ATOM      6  C   UNL     1      21.934  31.688  -1.126  1.00  0.00     0.134 A 
ATOM      7  N   UNL     1      22.838  31.171   0.773  1.00  0.00    -0.136 NA
ATOM      8  N   UNL     1      22.622  32.463   0.728  1.00  0.00    -0.067 NA
ENDBRANCH   2   3
ENDBRANCH   1   2
BRANCH   1   9
ATOM      9  O   UNL     1      23.827  35.134  -0.583  1.00  0.00    -0.389 OA
ATOM     10  H   UNL     1      24.437  35.795  -0.220  1.00  0.00     0.211 HD
ENDBRANCH   1   9
BRANCH   1  11
ATOM     11  C   UNL     1      22.000  36.579  -0.383  1.00  0.00     0.189 C 
BRANCH  11  12
ATOM     12  O   UNL     1      21.678  37.186   0.820  1.00  0.00    -0.394 OA
ATOM     13  H   UNL     1      20.822  36.847   1.189  1.00  0.00     0.210 HD
ENDBRANCH  11  12
ENDBRANCH   1  11
TORSDOF 5
BEGIN_RES LYS A 135
REMARK  4 active torsions:
REMARK  status: ('A' for Active; 'I' for Inactive)
REMARK    1  A    between atoms: CA   and  CB  
REMARK    2  A    between atoms: CB   and  CG  
REMARK    3  A    between atoms: CG   and  CD  
REMARK    4  A    between atoms: CD   and  CE  
ROOT
ATOM      1  CA  LYS A 135      33.193  34.663   9.290  1.00 25.02     0.186 C 
ENDROOT
BRANCH   1   2
ATOM      2  CB  LYS A 135      32.060  35.360  10.034  1.00 26.63     0.034 C 
BRANCH   2   3
ATOM      3  CG  LYS A 135      30.849  35.625   9.177  1.00 29.45     0.005 C 
BRANCH   3   4
ATOM      4  CD  LYS A 135      30.318  34.329   8.584  1.00 32.00     0.041 C 
BRANCH   4   5
ATOM      5  CE  LYS A 135      28.801  34.310   8.619  1.00 34.25     0.338 C 
ATOM      6  NZ  LYS A 135      28.300  34.046   9.996  1.00 35.99     0.618 N 
ENDBRANCH   4   5
ENDBRANCH   3   4
ENDBRANCH   2   3
ENDBRANCH   1   2
END_RES LYS A 135
BEGIN_RES TYR A 136
REMARK  2 active torsions:
REMARK  status: ('A' for Active; 'I' for Inactive)
REMARK    5  A    between atoms: CA   and  CB  
REMARK    6  A    between atoms: CB   and  CG  
ROOT
ATOM      7  CA  TYR A 136      36.583  36.399   8.994  1.00 26.14     0.191 C 
ENDROOT
BRANCH   7   8
ATOM      8  CB  TYR A 136      37.367  36.835  10.240  1.00 28.16     0.060 C 
BRANCH   8   9
ATOM      9  CG  TYR A 136      37.234  38.311  10.522  1.00 31.88    -0.020 A 
ATOM     10  CD2 TYR A 136      36.388  39.120   9.760  1.00 32.67    -0.002 A 
ATOM     11  CE2 TYR A 136      36.272  40.490  10.029  1.00 33.89     0.027 A 
ATOM     12  CZ  TYR A 136      37.011  41.057  11.071  1.00 34.34     0.131 A 
ATOM     13  OH  TYR A 136      36.907  42.411  11.360  1.00 35.14    -0.190 OA
ATOM     14  CE1 TYR A 136      37.857  40.269  11.838  1.00 35.01     0.027 A 
ATOM     15  CD1 TYR A 136      37.968  38.907  11.556  1.00 33.57    -0.002 A 
ENDBRANCH   8   9
ENDBRANCH   7   8
END_RES TYR A 136
BEGIN_RES ASN A 133
REMARK  2 active torsions:
REMARK  status: ('A' for Active; 'I' for Inactive)
REMARK    7  A    between atoms: CA   and  CB  
REMARK    8  A    between atoms: CB   and  CG  
ROOT
ATOM     16  CA  ASN A 133      31.225  30.257  11.749  1.00 18.15     0.196 C 
ENDROOT
BRANCH  16  17
ATOM     17  CB  ASN A 133      30.092  31.240  11.460  1.00 18.27     0.126 C 
BRANCH  17  18
ATOM     18  CG  ASN A 133      28.756  30.579  11.321  1.00 18.94     0.276 C 
ATOM     19  OD1 ASN A 133      28.595  29.615  10.570  1.00 18.09    -0.269 OA
ATOM     20  ND2 ASN A 133      27.770  31.097  12.053  1.00 18.93    -0.107 N 
ENDBRANCH  17  18
ENDBRANCH  16  17
END_RES ASN A 133
