REMARK VINA RESULT:    -3.788      5.879      7.789
REMARK INTER + INTRA:          -8.602
REMARK INTER:                  -4.895
REMARK INTRA:                  -3.706
REMARK UNBOUND:                -3.485
REMARK SMILES Cc1cn([C@@H](CCC(=O)O)C(=O)O)nn1
REMARK SMILES IDX 6 1 5 2 4 3 1 4 2 5 3 6 15 7 14 8 11 9 12 10 13 11 7 13 8 14
REMARK SMILES IDX 9 15 10 16
REMARK H PARENT 13 12 10 17
REMARK Flexibility Score: inf
ROOT
ATOM      1  C   UNL     1      38.100  39.377   2.929  1.00  0.00     0.051 C 
ENDROOT
BRANCH   1   2
ATOM      2  C   UNL     1      37.161  39.226   4.097  1.00  0.00     0.219 C 
BRANCH   2   3
ATOM      3  N   UNL     1      37.592  39.985   5.248  1.00  0.00    -0.238 N 
ATOM      4  C   UNL     1      39.680  40.696   8.159  1.00  0.00     0.070 C 
ATOM      5  C   UNL     1      38.695  40.650   7.045  1.00  0.00     0.080 A 
ATOM      6  C   UNL     1      38.619  39.680   6.093  1.00  0.00     0.135 A 
ATOM      7  N   UNL     1      37.720  41.535   6.775  1.00  0.00    -0.136 NA
ATOM      8  N   UNL     1      37.073  41.131   5.707  1.00  0.00    -0.066 NA
ENDBRANCH   2   3
BRANCH   2   9
ATOM      9  C   UNL     1      36.887  37.837   4.453  1.00  0.00     0.328 C 
ATOM     10  O   UNL     1      35.954  37.575   5.243  1.00  0.00    -0.250 OA
BRANCH   9  11
ATOM     11  O   UNL     1      37.622  36.781   3.953  1.00  0.00    -0.480 OA
ATOM     12  H   UNL     1      38.489  36.923   3.417  1.00  0.00     0.296 HD
ENDBRANCH   9  11
ENDBRANCH   2   9
ENDBRANCH   1   2
BRANCH   1  13
ATOM     13  C   UNL     1      37.372  39.344   1.603  1.00  0.00     0.125 C 
BRANCH  13  14
ATOM     14  C   UNL     1      37.903  38.241   0.761  1.00  0.00     0.303 C 
ATOM     15  O   UNL     1      38.793  38.428  -0.106  1.00  0.00    -0.252 OA
BRANCH  14  16
ATOM     16  O   UNL     1      37.428  36.944   0.900  1.00  0.00    -0.481 OA
ATOM     17  H   UNL     1      36.683  36.716   1.566  1.00  0.00     0.296 HD
ENDBRANCH  14  16
ENDBRANCH  13  14
ENDBRANCH   1  13
TORSDOF 7
BEGIN_RES LYS A 135
REMARK  4 active torsions:
REMARK  status: ('A' for Active; 'I' for Inactive)
REMARK    1  A    between atoms: CA   and  CB  
REMARK    2  A    between atoms: CB   and  CG  
REMARK    3  A    between atoms: CG   and  CD  
REMARK    4  A    between atoms: CD   and  CE  
ROOT
ATOM      1  CA  LYS A 135      33.193  34.663   9.290  1.00 25.02     0.186 C 
ENDROOT
BRANCH   1   2
ATOM      2  CB  LYS A 135      32.060  35.360  10.034  1.00 26.63     0.034 C 
BRANCH   2   3
ATOM      3  CG  LYS A 135      30.708  34.739   9.792  1.00 29.45     0.005 C 
BRANCH   3   4
ATOM      4  CD  LYS A 135      30.473  34.531   8.304  1.00 32.00     0.041 C 
BRANCH   4   5
ATOM      5  CE  LYS A 135      29.029  34.831   7.946  1.00 34.25     0.338 C 
ATOM      6  NZ  LYS A 135      28.937  35.537   6.638  1.00 35.99     0.618 N 
ENDBRANCH   4   5
ENDBRANCH   3   4
ENDBRANCH   2   3
ENDBRANCH   1   2
END_RES LYS A 135
BEGIN_RES TYR A 136
REMARK  2 active torsions:
REMARK  status: ('A' for Active; 'I' for Inactive)
REMARK    5  A    between atoms: CA   and  CB  
REMARK    6  A    between atoms: CB   and  CG  
ROOT
ATOM      7  CA  TYR A 136      36.583  36.399   8.994  1.00 26.14     0.191 C 
ENDROOT
BRANCH   7   8
ATOM      8  CB  TYR A 136      37.367  36.835  10.240  1.00 28.16     0.060 C 
BRANCH   8   9
ATOM      9  CG  TYR A 136      37.291  38.322  10.482  1.00 31.88    -0.020 A 
ATOM     10  CD2 TYR A 136      36.403  39.127   9.765  1.00 32.67    -0.002 A 
ATOM     11  CE2 TYR A 136      36.341  40.508   9.997  1.00 33.89     0.027 A 
ATOM     12  CZ  TYR A 136      37.176  41.089  10.955  1.00 34.34     0.131 A 
ATOM     13  OH  TYR A 136      37.127  42.453  11.206  1.00 35.14    -0.190 OA
ATOM     14  CE1 TYR A 136      38.064  40.305  11.676  1.00 35.01     0.027 A 
ATOM     15  CD1 TYR A 136      38.121  38.931  11.432  1.00 33.57    -0.002 A 
ENDBRANCH   8   9
ENDBRANCH   7   8
END_RES TYR A 136
BEGIN_RES ASN A 133
REMARK  2 active torsions:
REMARK  status: ('A' for Active; 'I' for Inactive)
REMARK    7  A    between atoms: CA   and  CB  
REMARK    8  A    between atoms: CB   and  CG  
ROOT
ATOM     16  CA  ASN A 133      31.225  30.257  11.749  1.00 18.15     0.196 C 
ENDROOT
BRANCH  16  17
ATOM     17  CB  ASN A 133      30.092  31.240  11.460  1.00 18.27     0.126 C 
BRANCH  17  18
ATOM     18  CG  ASN A 133      28.750  30.583  11.360  1.00 18.94     0.276 C 
ATOM     19  OD1 ASN A 133      28.572  29.602  10.635  1.00 18.09    -0.269 OA
ATOM     20  ND2 ASN A 133      27.779  31.125  12.094  1.00 18.93    -0.107 N 
ENDBRANCH  17  18
ENDBRANCH  16  17
END_RES ASN A 133
