REMARK VINA RESULT:    -4.747      1.982      5.599
REMARK INTER + INTRA:          -8.025
REMARK INTER:                  -5.443
REMARK INTRA:                  -2.582
REMARK UNBOUND:                -2.723
REMARK SMILES Cc1cn(-c2ncn3c2c(=O)n(C(C)C)c2ccccc23)nn1
REMARK SMILES IDX 5 1 6 2 7 3 8 4 21 5 20 6 19 7 18 8 17 9 16 10 12 11 10 12
REMARK SMILES IDX 11 13 9 14 4 15 1 16 2 17 3 18 23 19 22 20 13 21 14 22 15 23
REMARK H PARENT
REMARK Flexibility Score: inf
ROOT
ATOM      1  C   UNL     1      33.051  34.903  14.300  1.00  0.00     0.186 A 
ATOM      2  N   UNL     1      32.347  33.919  14.878  1.00  0.00    -0.216 NA
ATOM      3  C   UNL     1      31.039  34.035  14.597  1.00  0.00     0.207 A 
ATOM      4  N   UNL     1      30.905  35.133  13.810  1.00  0.00    -0.291 N 
ATOM      5  C   UNL     1      29.829  35.721  13.234  1.00  0.00     0.071 A 
ATOM      6  C   UNL     1      28.617  35.111  13.468  1.00  0.00     0.029 A 
ATOM      7  C   UNL     1      27.509  35.686  12.890  1.00  0.00     0.002 A 
ATOM      8  C   UNL     1      27.595  36.815  12.115  1.00  0.00     0.002 A 
ATOM      9  C   UNL     1      28.808  37.408  11.893  1.00  0.00     0.028 A 
ATOM     10  C   UNL     1      29.933  36.854  12.460  1.00  0.00     0.068 A 
ATOM     11  N   UNL     1      31.187  37.384  12.284  1.00  0.00    -0.302 N 
ATOM     12  C   UNL     1      32.263  36.811  12.848  1.00  0.00     0.279 A 
ATOM     13  O   UNL     1      33.441  37.240  12.728  1.00  0.00    -0.267 OA
ATOM     14  C   UNL     1      32.125  35.675  13.619  1.00  0.00     0.158 A 
ENDROOT
BRANCH   1  15
ATOM     15  N   UNL     1      34.475  35.122  14.366  1.00  0.00    -0.200 N 
ATOM     16  C   UNL     1      37.927  34.744  13.302  1.00  0.00     0.070 C 
ATOM     17  C   UNL     1      36.626  35.072  13.953  1.00  0.00     0.080 A 
ATOM     18  C   UNL     1      35.404  34.616  13.535  1.00  0.00     0.142 A 
ATOM     19  N   UNL     1      36.423  35.840  15.023  1.00  0.00    -0.135 NA
ATOM     20  N   UNL     1      35.118  35.858  15.255  1.00  0.00    -0.061 NA
ENDBRANCH   1  15
BRANCH  11  21
ATOM     21  C   UNL     1      31.288  38.558  11.490  1.00  0.00     0.085 C 
ATOM     22  C   UNL     1      31.877  39.704  12.279  1.00  0.00     0.031 C 
ATOM     23  C   UNL     1      32.140  38.384  10.250  1.00  0.00     0.031 C 
ENDBRANCH  11  21
TORSDOF 2
BEGIN_RES LYS A 135
REMARK  4 active torsions:
REMARK  status: ('A' for Active; 'I' for Inactive)
REMARK    1  A    between atoms: CA   and  CB  
REMARK    2  A    between atoms: CB   and  CG  
REMARK    3  A    between atoms: CG   and  CD  
REMARK    4  A    between atoms: CD   and  CE  
ROOT
ATOM      1  CA  LYS A 135      33.193  34.663   9.290  1.00 25.02     0.186 C 
ENDROOT
BRANCH   1   2
ATOM      2  CB  LYS A 135      32.060  35.360  10.034  1.00 26.63     0.034 C 
BRANCH   2   3
ATOM      3  CG  LYS A 135      30.724  34.684   9.867  1.00 29.45     0.005 C 
BRANCH   3   4
ATOM      4  CD  LYS A 135      29.899  35.381   8.796  1.00 32.00     0.041 C 
BRANCH   4   5
ATOM      5  CE  LYS A 135      28.715  34.524   8.393  1.00 34.25     0.338 C 
ATOM      6  NZ  LYS A 135      28.154  33.799   9.567  1.00 35.99     0.618 N 
ENDBRANCH   4   5
ENDBRANCH   3   4
ENDBRANCH   2   3
ENDBRANCH   1   2
END_RES LYS A 135
BEGIN_RES TYR A 136
REMARK  2 active torsions:
REMARK  status: ('A' for Active; 'I' for Inactive)
REMARK    5  A    between atoms: CA   and  CB  
REMARK    6  A    between atoms: CB   and  CG  
ROOT
ATOM      7  CA  TYR A 136      36.583  36.399   8.994  1.00 26.14     0.191 C 
ENDROOT
BRANCH   7   8
ATOM      8  CB  TYR A 136      37.367  36.835  10.240  1.00 28.16     0.060 C 
BRANCH   8   9
ATOM      9  CG  TYR A 136      36.754  38.034  10.921  1.00 31.88    -0.020 A 
ATOM     10  CD2 TYR A 136      36.922  38.252  12.290  1.00 32.67    -0.002 A 
ATOM     11  CE2 TYR A 136      36.347  39.368  12.913  1.00 33.89     0.027 A 
ATOM     12  CZ  TYR A 136      35.597  40.274  12.160  1.00 34.34     0.131 A 
ATOM     13  OH  TYR A 136      35.025  41.390  12.754  1.00 35.14    -0.190 OA
ATOM     14  CE1 TYR A 136      35.419  40.072  10.799  1.00 35.01     0.027 A 
ATOM     15  CD1 TYR A 136      35.991  38.954  10.190  1.00 33.57    -0.002 A 
ENDBRANCH   8   9
ENDBRANCH   7   8
END_RES TYR A 136
BEGIN_RES ASN A 133
REMARK  2 active torsions:
REMARK  status: ('A' for Active; 'I' for Inactive)
REMARK    7  A    between atoms: CA   and  CB  
REMARK    8  A    between atoms: CB   and  CG  
ROOT
ATOM     16  CA  ASN A 133      31.225  30.257  11.749  1.00 18.15     0.196 C 
ENDROOT
BRANCH  16  17
ATOM     17  CB  ASN A 133      30.092  31.240  11.460  1.00 18.27     0.126 C 
BRANCH  17  18
ATOM     18  CG  ASN A 133      28.757  30.578  11.317  1.00 18.94     0.276 C 
ATOM     19  OD1 ASN A 133      28.600  29.612  10.569  1.00 18.09    -0.269 OA
ATOM     20  ND2 ASN A 133      27.767  31.100  12.042  1.00 18.93    -0.107 N 
ENDBRANCH  17  18
ENDBRANCH  16  17
END_RES ASN A 133
