REMARK VINA RESULT:    -3.934      5.235      8.529
REMARK INTER + INTRA:          -7.758
REMARK INTER:                  -5.255
REMARK INTRA:                  -2.503
REMARK UNBOUND:                -3.249
REMARK SMILES Cc1cn(-c2ccc(S(N)(=O)=O)cc2)nn1
REMARK SMILES IDX 5 1 6 2 7 3 8 4 13 5 14 6 4 7 1 8 2 9 3 10 16 11 15 12 9 13
REMARK SMILES IDX 11 14 12 15 10 16
REMARK H PARENT 10 17 10 18
REMARK Flexibility Score: inf
ROOT
ATOM      1  C   UNL     1      24.627  35.753   9.146  1.00  0.00     0.066 A 
ATOM      2  C   UNL     1      25.724  34.927   9.015  1.00  0.00     0.030 A 
ATOM      3  C   UNL     1      26.789  35.253   8.167  1.00  0.00     0.024 A 
ATOM      4  C   UNL     1      26.767  36.419   7.435  1.00  0.00     0.082 A 
ATOM      5  C   UNL     1      25.683  37.243   7.559  1.00  0.00     0.024 A 
ATOM      6  C   UNL     1      24.642  36.923   8.389  1.00  0.00     0.030 A 
ENDROOT
BRANCH   1   7
ATOM      7  N   UNL     1      23.523  35.470   9.988  1.00  0.00    -0.220 N 
ATOM      8  C   UNL     1      22.128  34.306  13.132  1.00  0.00     0.070 C 
ATOM      9  C   UNL     1      22.363  34.822  11.779  1.00  0.00     0.080 A 
ATOM     10  C   UNL     1      23.636  34.984  11.231  1.00  0.00     0.140 A 
ATOM     11  N   UNL     1      21.526  35.230  10.818  1.00  0.00    -0.135 NA
ATOM     12  N   UNL     1      22.235  35.615   9.752  1.00  0.00    -0.062 NA
ENDBRANCH   1   7
BRANCH   4  13
ATOM     13  S   UNL     1      28.098  36.826   6.376  1.00  0.00     0.238 S 
ATOM     14  O   UNL     1      28.960  37.868   7.034  1.00  0.00    -0.207 OA
ATOM     15  O   UNL     1      28.930  35.631   6.073  1.00  0.00    -0.207 OA
BRANCH  13  16
ATOM     16  N   UNL     1      27.463  37.537   4.933  1.00  0.00    -0.225 NA
ATOM     17  H   UNL     1      27.878  37.052   4.102  1.00  0.00     0.137 HD
ATOM     18  H   UNL     1      26.424  37.337   4.947  1.00  0.00     0.137 HD
ENDBRANCH  13  16
ENDBRANCH   4  13
TORSDOF 3
BEGIN_RES LYS A 135
REMARK  4 active torsions:
REMARK  status: ('A' for Active; 'I' for Inactive)
REMARK    1  A    between atoms: CA   and  CB  
REMARK    2  A    between atoms: CB   and  CG  
REMARK    3  A    between atoms: CG   and  CD  
REMARK    4  A    between atoms: CD   and  CE  
ROOT
ATOM      1  CA  LYS A 135      33.193  34.663   9.290  1.00 25.02     0.186 C 
ENDROOT
BRANCH   1   2
ATOM      2  CB  LYS A 135      32.060  35.360  10.034  1.00 26.63     0.034 C 
BRANCH   2   3
ATOM      3  CG  LYS A 135      30.768  35.404   9.260  1.00 29.45     0.005 C 
BRANCH   3   4
ATOM      4  CD  LYS A 135      29.730  34.492   9.896  1.00 32.00     0.041 C 
BRANCH   4   5
ATOM      5  CE  LYS A 135      29.474  34.898  11.334  1.00 34.25     0.338 C 
ATOM      6  NZ  LYS A 135      28.063  34.627  11.726  1.00 35.99     0.618 N 
ENDBRANCH   4   5
ENDBRANCH   3   4
ENDBRANCH   2   3
ENDBRANCH   1   2
END_RES LYS A 135
BEGIN_RES TYR A 136
REMARK  2 active torsions:
REMARK  status: ('A' for Active; 'I' for Inactive)
REMARK    5  A    between atoms: CA   and  CB  
REMARK    6  A    between atoms: CB   and  CG  
ROOT
ATOM      7  CA  TYR A 136      36.583  36.399   8.994  1.00 26.14     0.191 C 
ENDROOT
BRANCH   7   8
ATOM      8  CB  TYR A 136      37.367  36.835  10.240  1.00 28.16     0.060 C 
BRANCH   8   9
ATOM      9  CG  TYR A 136      37.206  38.305  10.542  1.00 31.88    -0.020 A 
ATOM     10  CD2 TYR A 136      37.764  38.872  11.690  1.00 32.67    -0.002 A 
ATOM     11  CE2 TYR A 136      37.607  40.238  11.962  1.00 33.89     0.027 A 
ATOM     12  CZ  TYR A 136      36.886  41.044  11.077  1.00 34.34     0.131 A 
ATOM     13  OH  TYR A 136      36.724  42.400  11.323  1.00 35.14    -0.190 OA
ATOM     14  CE1 TYR A 136      36.324  40.496   9.933  1.00 35.01     0.027 A 
ATOM     15  CD1 TYR A 136      36.481  39.133   9.676  1.00 33.57    -0.002 A 
ENDBRANCH   8   9
ENDBRANCH   7   8
END_RES TYR A 136
BEGIN_RES ASN A 133
REMARK  2 active torsions:
REMARK  status: ('A' for Active; 'I' for Inactive)
REMARK    7  A    between atoms: CA   and  CB  
REMARK    8  A    between atoms: CB   and  CG  
ROOT
ATOM     16  CA  ASN A 133      31.225  30.257  11.749  1.00 18.15     0.196 C 
ENDROOT
BRANCH  16  17
ATOM     17  CB  ASN A 133      30.092  31.240  11.460  1.00 18.27     0.126 C 
BRANCH  17  18
ATOM     18  CG  ASN A 133      28.755  30.579  11.328  1.00 18.94     0.276 C 
ATOM     19  OD1 ASN A 133      28.587  29.623  10.569  1.00 18.09    -0.269 OA
ATOM     20  ND2 ASN A 133      27.776  31.090  12.074  1.00 18.93    -0.107 N 
ENDBRANCH  17  18
ENDBRANCH  16  17
END_RES ASN A 133
