REMARK VINA RESULT:    -4.615      0.000      0.000
REMARK INTER + INTRA:          -8.295
REMARK INTER:                  -5.052
REMARK INTRA:                  -3.243
REMARK UNBOUND:                -3.139
REMARK SMILES Cc1cn(-c2cc(Cl)ccc2C(=O)N(C)C)nn1
REMARK SMILES IDX 5 1 6 2 7 3 8 4 9 5 10 6 11 7 4 8 1 9 2 10 3 11 18 12 17 13
REMARK SMILES IDX 12 14 13 15 14 16 15 17 16 18
REMARK H PARENT
REMARK Flexibility Score: inf
ROOT
ATOM      1  C   UNL     1      32.173  34.229  15.623  1.00  0.00     0.081 A 
ATOM      2  C   UNL     1      31.463  33.038  15.415  1.00  0.00     0.049 A 
ATOM      3  C   UNL     1      30.845  32.398  16.467  1.00  0.00     0.043 A 
ATOM      4  Cl  UNL     1      29.958  30.902  16.189  1.00  0.00    -0.084 Cl
ATOM      5  C   UNL     1      30.910  32.912  17.745  1.00  0.00     0.021 A 
ATOM      6  C   UNL     1      31.607  34.081  17.943  1.00  0.00     0.017 A 
ATOM      7  C   UNL     1      32.220  34.716  16.900  1.00  0.00     0.065 A 
ENDROOT
BRANCH   1   8
ATOM      8  N   UNL     1      32.806  34.880  14.529  1.00  0.00    -0.220 N 
ATOM      9  C   UNL     1      33.072  37.231  11.727  1.00  0.00     0.070 C 
ATOM     10  C   UNL     1      33.234  36.200  12.797  1.00  0.00     0.080 A 
ATOM     11  C   UNL     1      32.282  35.832  13.754  1.00  0.00     0.140 A 
ATOM     12  N   UNL     1      34.301  35.432  13.055  1.00  0.00    -0.135 NA
ATOM     13  N   UNL     1      34.012  34.664  14.086  1.00  0.00    -0.062 NA
ENDBRANCH   1   8
BRANCH   7  14
ATOM     14  C   UNL     1      32.955  35.960  17.146  1.00  0.00     0.255 C 
ATOM     15  O   UNL     1      34.191  35.957  17.358  1.00  0.00    -0.269 OA
ATOM     16  N   UNL     1      32.221  37.180  17.139  1.00  0.00    -0.345 N 
ATOM     17  C   UNL     1      32.939  38.438  17.384  1.00  0.00     0.146 C 
ATOM     18  C   UNL     1      30.811  37.223  16.902  1.00  0.00     0.146 C 
ENDBRANCH   7  14
TORSDOF 2
BEGIN_RES LYS A 135
REMARK  4 active torsions:
REMARK  status: ('A' for Active; 'I' for Inactive)
REMARK    1  A    between atoms: CA   and  CB  
REMARK    2  A    between atoms: CB   and  CG  
REMARK    3  A    between atoms: CG   and  CD  
REMARK    4  A    between atoms: CD   and  CE  
ROOT
ATOM      1  CA  LYS A 135      33.193  34.663   9.290  1.00 25.02     0.186 C 
ENDROOT
BRANCH   1   2
ATOM      2  CB  LYS A 135      32.060  35.360  10.034  1.00 26.63     0.034 C 
BRANCH   2   3
ATOM      3  CG  LYS A 135      30.804  35.511   9.215  1.00 29.45     0.005 C 
BRANCH   3   4
ATOM      4  CD  LYS A 135      30.148  34.158   8.984  1.00 32.00     0.041 C 
BRANCH   4   5
ATOM      5  CE  LYS A 135      28.684  34.330   8.629  1.00 34.25     0.338 C 
ATOM      6  NZ  LYS A 135      27.806  33.683   9.643  1.00 35.99     0.618 N 
ENDBRANCH   4   5
ENDBRANCH   3   4
ENDBRANCH   2   3
ENDBRANCH   1   2
END_RES LYS A 135
BEGIN_RES TYR A 136
REMARK  2 active torsions:
REMARK  status: ('A' for Active; 'I' for Inactive)
REMARK    5  A    between atoms: CA   and  CB  
REMARK    6  A    between atoms: CB   and  CG  
ROOT
ATOM      7  CA  TYR A 136      36.583  36.399   8.994  1.00 26.14     0.191 C 
ENDROOT
BRANCH   7   8
ATOM      8  CB  TYR A 136      37.367  36.835  10.240  1.00 28.16     0.060 C 
BRANCH   8   9
ATOM      9  CG  TYR A 136      36.723  37.999  10.953  1.00 31.88    -0.020 A 
ATOM     10  CD2 TYR A 136      36.707  38.073  12.347  1.00 32.67    -0.002 A 
ATOM     11  CE2 TYR A 136      36.105  39.158  13.000  1.00 33.89     0.027 A 
ATOM     12  CZ  TYR A 136      35.513  40.177  12.250  1.00 34.34     0.131 A 
ATOM     13  OH  TYR A 136      34.917  41.264  12.874  1.00 35.14    -0.190 OA
ATOM     14  CE1 TYR A 136      35.518  40.118  10.864  1.00 35.01     0.027 A 
ATOM     15  CD1 TYR A 136      36.116  39.030  10.225  1.00 33.57    -0.002 A 
ENDBRANCH   8   9
ENDBRANCH   7   8
END_RES TYR A 136
BEGIN_RES ASN A 133
REMARK  2 active torsions:
REMARK  status: ('A' for Active; 'I' for Inactive)
REMARK    7  A    between atoms: CA   and  CB  
REMARK    8  A    between atoms: CB   and  CG  
ROOT
ATOM     16  CA  ASN A 133      31.225  30.257  11.749  1.00 18.15     0.196 C 
ENDROOT
BRANCH  16  17
ATOM     17  CB  ASN A 133      30.092  31.240  11.460  1.00 18.27     0.126 C 
BRANCH  17  18
ATOM     18  CG  ASN A 133      28.750  30.583  11.361  1.00 18.94     0.276 C 
ATOM     19  OD1 ASN A 133      28.566  29.615  10.621  1.00 18.09    -0.269 OA
ATOM     20  ND2 ASN A 133      27.786  31.112  12.115  1.00 18.93    -0.107 N 
ENDBRANCH  17  18
ENDBRANCH  16  17
END_RES ASN A 133
