REMARK VINA RESULT:    -4.048      8.100     13.502
REMARK INTER + INTRA:          -7.408
REMARK INTER:                  -4.388
REMARK INTRA:                  -3.020
REMARK UNBOUND:                -3.123
REMARK SMILES Cc1cn(C2CCCCC2)nn1
REMARK SMILES IDX 5 1 6 2 7 3 8 4 9 5 10 6 4 7 1 8 2 9 3 10 12 11 11 12
REMARK H PARENT
REMARK Flexibility Score: inf
ROOT
ATOM      1  C   UNL     1      34.221  35.290  13.695  1.00  0.00     0.109 C 
ATOM      2  C   UNL     1      34.023  36.213  12.537  1.00  0.00     0.027 C 
ATOM      3  C   UNL     1      32.852  37.153  12.717  1.00  0.00     0.002 C 
ATOM      4  C   UNL     1      33.103  38.067  13.892  1.00  0.00     0.000 C 
ATOM      5  C   UNL     1      34.083  37.488  14.861  1.00  0.00     0.002 C 
ATOM      6  C   UNL     1      33.958  35.984  15.007  1.00  0.00     0.027 C 
ENDROOT
BRANCH   1   7
ATOM      7  N   UNL     1      35.560  34.727  13.646  1.00  0.00    -0.249 N 
ATOM      8  C   UNL     1      38.352  32.725  12.438  1.00  0.00     0.070 C 
ATOM      9  C   UNL     1      37.411  33.634  13.159  1.00  0.00     0.080 A 
ATOM     10  C   UNL     1      36.108  33.873  12.796  1.00  0.00     0.134 A 
ATOM     11  N   UNL     1      37.622  34.378  14.257  1.00  0.00    -0.136 NA
ATOM     12  N   UNL     1      36.510  35.027  14.540  1.00  0.00    -0.067 NA
ENDBRANCH   1   7
TORSDOF 1
BEGIN_RES LYS A 135
REMARK  4 active torsions:
REMARK  status: ('A' for Active; 'I' for Inactive)
REMARK    1  A    between atoms: CA   and  CB  
REMARK    2  A    between atoms: CB   and  CG  
REMARK    3  A    between atoms: CG   and  CD  
REMARK    4  A    between atoms: CD   and  CE  
ROOT
ATOM      1  CA  LYS A 135      33.193  34.663   9.290  1.00 25.02     0.186 C 
ENDROOT
BRANCH   1   2
ATOM      2  CB  LYS A 135      32.060  35.360  10.034  1.00 26.63     0.034 C 
BRANCH   2   3
ATOM      3  CG  LYS A 135      30.751  34.616   9.973  1.00 29.45     0.005 C 
BRANCH   3   4
ATOM      4  CD  LYS A 135      30.344  34.364   8.529  1.00 32.00     0.041 C 
BRANCH   4   5
ATOM      5  CE  LYS A 135      28.850  34.558   8.355  1.00 34.25     0.338 C 
ATOM      6  NZ  LYS A 135      28.087  33.812   9.394  1.00 35.99     0.618 N 
ENDBRANCH   4   5
ENDBRANCH   3   4
ENDBRANCH   2   3
ENDBRANCH   1   2
END_RES LYS A 135
BEGIN_RES TYR A 136
REMARK  2 active torsions:
REMARK  status: ('A' for Active; 'I' for Inactive)
REMARK    5  A    between atoms: CA   and  CB  
REMARK    6  A    between atoms: CB   and  CG  
ROOT
ATOM      7  CA  TYR A 136      36.583  36.399   8.994  1.00 26.14     0.191 C 
ENDROOT
BRANCH   7   8
ATOM      8  CB  TYR A 136      37.367  36.835  10.240  1.00 28.16     0.060 C 
BRANCH   8   9
ATOM      9  CG  TYR A 136      36.740  38.018  10.936  1.00 31.88    -0.020 A 
ATOM     10  CD2 TYR A 136      35.821  38.840  10.279  1.00 32.67    -0.002 A 
ATOM     11  CE2 TYR A 136      35.246  39.937  10.933  1.00 33.89     0.027 A 
ATOM     12  CZ  TYR A 136      35.593  40.215  12.258  1.00 34.34     0.131 A 
ATOM     13  OH  TYR A 136      35.030  41.293  12.928  1.00 35.14    -0.190 OA
ATOM     14  CE1 TYR A 136      36.504  39.410  12.925  1.00 35.01     0.027 A 
ATOM     15  CD1 TYR A 136      37.076  38.324  12.261  1.00 33.57    -0.002 A 
ENDBRANCH   8   9
ENDBRANCH   7   8
END_RES TYR A 136
BEGIN_RES ASN A 133
REMARK  2 active torsions:
REMARK  status: ('A' for Active; 'I' for Inactive)
REMARK    7  A    between atoms: CA   and  CB  
REMARK    8  A    between atoms: CB   and  CG  
ROOT
ATOM     16  CA  ASN A 133      31.225  30.257  11.749  1.00 18.15     0.196 C 
ENDROOT
BRANCH  16  17
ATOM     17  CB  ASN A 133      30.092  31.240  11.460  1.00 18.27     0.126 C 
BRANCH  17  18
ATOM     18  CG  ASN A 133      28.753  30.581  11.341  1.00 18.94     0.276 C 
ATOM     19  OD1 ASN A 133      28.587  29.599  10.615  1.00 18.09    -0.269 OA
ATOM     20  ND2 ASN A 133      27.771  31.122  12.061  1.00 18.93    -0.107 N 
ENDBRANCH  17  18
ENDBRANCH  16  17
END_RES ASN A 133
