REMARK VINA RESULT:    -4.882      2.543      4.351
REMARK INTER + INTRA:          -7.929
REMARK INTER:                  -4.971
REMARK INTRA:                  -2.958
REMARK UNBOUND:                -2.762
REMARK SMILES Cc1cc(C)c(-n2cc(C)nn2)c(C)c1
REMARK SMILES IDX 6 1 4 2 5 3 3 4 2 5 1 6 15 7 13 8 14 9 7 10 10 11 9 12 8 13
REMARK SMILES IDX 11 14 12 15
REMARK H PARENT
REMARK Flexibility Score: inf
ROOT
ATOM      1  C   UNL     1      35.508  35.435  14.249  1.00  0.00     0.072 A 
ATOM      2  C   UNL     1      36.504  34.619  13.750  1.00  0.00    -0.025 A 
ATOM      3  C   UNL     1      36.264  33.822  12.503  1.00  0.00     0.047 C 
ATOM      4  C   UNL     1      37.733  34.527  14.396  1.00  0.00     0.009 A 
ATOM      5  C   UNL     1      37.996  35.244  15.546  1.00  0.00    -0.050 A 
ATOM      6  C   UNL     1      39.322  35.139  16.235  1.00  0.00     0.044 C 
ATOM      7  C   UNL     1      37.016  36.055  16.049  1.00  0.00     0.009 A 
ATOM      8  C   UNL     1      35.796  36.148  15.411  1.00  0.00    -0.025 A 
ATOM      9  C   UNL     1      34.745  37.034  15.970  1.00  0.00     0.047 C 
ENDROOT
BRANCH   1  10
ATOM     10  N   UNL     1      34.239  35.548  13.608  1.00  0.00    -0.220 N 
ATOM     11  C   UNL     1      30.715  34.881  12.901  1.00  0.00     0.070 C 
ATOM     12  C   UNL     1      32.124  35.320  12.996  1.00  0.00     0.080 A 
ATOM     13  C   UNL     1      33.102  34.889  13.865  1.00  0.00     0.140 A 
ATOM     14  N   UNL     1      32.716  36.253  12.217  1.00  0.00    -0.135 NA
ATOM     15  N   UNL     1      33.969  36.376  12.592  1.00  0.00    -0.062 NA
ENDBRANCH   1  10
TORSDOF 1
BEGIN_RES LYS A 135
REMARK  4 active torsions:
REMARK  status: ('A' for Active; 'I' for Inactive)
REMARK    1  A    between atoms: CA   and  CB  
REMARK    2  A    between atoms: CB   and  CG  
REMARK    3  A    between atoms: CG   and  CD  
REMARK    4  A    between atoms: CD   and  CE  
ROOT
ATOM      1  CA  LYS A 135      33.193  34.663   9.290  1.00 25.02     0.186 C 
ENDROOT
BRANCH   1   2
ATOM      2  CB  LYS A 135      32.060  35.360  10.034  1.00 26.63     0.034 C 
BRANCH   2   3
ATOM      3  CG  LYS A 135      30.799  35.497   9.220  1.00 29.45     0.005 C 
BRANCH   3   4
ATOM      4  CD  LYS A 135      30.158  34.137   8.991  1.00 32.00     0.041 C 
BRANCH   4   5
ATOM      5  CE  LYS A 135      28.693  34.293   8.630  1.00 34.25     0.338 C 
ATOM      6  NZ  LYS A 135      27.816  33.763   9.710  1.00 35.99     0.618 N 
ENDBRANCH   4   5
ENDBRANCH   3   4
ENDBRANCH   2   3
ENDBRANCH   1   2
END_RES LYS A 135
BEGIN_RES TYR A 136
REMARK  2 active torsions:
REMARK  status: ('A' for Active; 'I' for Inactive)
REMARK    5  A    between atoms: CA   and  CB  
REMARK    6  A    between atoms: CB   and  CG  
ROOT
ATOM      7  CA  TYR A 136      36.583  36.399   8.994  1.00 26.14     0.191 C 
ENDROOT
BRANCH   7   8
ATOM      8  CB  TYR A 136      37.367  36.835  10.240  1.00 28.16     0.060 C 
BRANCH   8   9
ATOM      9  CG  TYR A 136      36.685  37.950  10.994  1.00 31.88    -0.020 A 
ATOM     10  CD2 TYR A 136      35.764  38.790  10.365  1.00 32.67    -0.002 A 
ATOM     11  CE2 TYR A 136      35.137  39.825  11.074  1.00 33.89     0.027 A 
ATOM     12  CZ  TYR A 136      35.435  40.020  12.424  1.00 34.34     0.131 A 
ATOM     13  OH  TYR A 136      34.822  41.033  13.148  1.00 35.14    -0.190 OA
ATOM     14  CE1 TYR A 136      36.349  39.195  13.065  1.00 35.01     0.027 A 
ATOM     15  CD1 TYR A 136      36.971  38.172  12.347  1.00 33.57    -0.002 A 
ENDBRANCH   8   9
ENDBRANCH   7   8
END_RES TYR A 136
BEGIN_RES ASN A 133
REMARK  2 active torsions:
REMARK  status: ('A' for Active; 'I' for Inactive)
REMARK    7  A    between atoms: CA   and  CB  
REMARK    8  A    between atoms: CB   and  CG  
ROOT
ATOM     16  CA  ASN A 133      31.225  30.257  11.749  1.00 18.15     0.196 C 
ENDROOT
BRANCH  16  17
ATOM     17  CB  ASN A 133      30.092  31.240  11.460  1.00 18.27     0.126 C 
BRANCH  17  18
ATOM     18  CG  ASN A 133      28.750  30.583  11.359  1.00 18.94     0.276 C 
ATOM     19  OD1 ASN A 133      28.567  29.618  10.615  1.00 18.09    -0.269 OA
ATOM     20  ND2 ASN A 133      27.786  31.108  12.114  1.00 18.93    -0.107 N 
ENDBRANCH  17  18
ENDBRANCH  16  17
END_RES ASN A 133
