REMARK VINA RESULT:    -4.832      5.381      8.269
REMARK INTER + INTRA:         -10.296
REMARK INTER:                  -6.412
REMARK INTRA:                  -3.884
REMARK UNBOUND:                -3.628
REMARK SMILES Cc1cn(C[C@@H](C(=O)O)C(c2ccccc2)c2ccccc2)nn1
REMARK SMILES IDX 6 1 5 2 4 3 1 4 2 5 3 6 24 7 23 8 7 9 8 10 9 11 10 13 11 14
REMARK SMILES IDX 12 15 16 16 13 17 15 18 14 19 17 20 18 21 22 22 19 23 21 24
REMARK SMILES IDX 20 25
REMARK H PARENT 9 12
REMARK Flexibility Score: inf
ROOT
ATOM      1  C   UNL     1      41.607  35.343  12.470  1.00  0.00     0.132 C 
ENDROOT
BRANCH   1   2
ATOM      2  C   UNL     1      41.298  34.090  13.222  1.00  0.00     0.162 C 
BRANCH   2   3
ATOM      3  N   UNL     1      42.085  33.990  14.428  1.00  0.00    -0.251 N 
ATOM      4  C   UNL     1      42.852  34.727  17.925  1.00  0.00     0.070 C 
ATOM      5  C   UNL     1      42.709  34.306  16.498  1.00  0.00     0.080 A 
ATOM      6  C   UNL     1      41.766  34.639  15.582  1.00  0.00     0.134 A 
ATOM      7  N   UNL     1      43.575  33.472  15.893  1.00  0.00    -0.136 NA
ATOM      8  N   UNL     1      43.186  33.295  14.659  1.00  0.00    -0.067 NA
ENDBRANCH   2   3
ENDBRANCH   1   2
BRANCH   1   9
ATOM      9  C   UNL     1      42.678  35.132  11.495  1.00  0.00     0.309 C 
ATOM     10  O   UNL     1      43.776  35.735  11.655  1.00  0.00    -0.252 OA
BRANCH   9  11
ATOM     11  O   UNL     1      42.516  34.280  10.391  1.00  0.00    -0.481 OA
ATOM     12  H   UNL     1      43.330  34.173   9.768  1.00  0.00     0.296 HD
ENDBRANCH   9  11
ENDBRANCH   1   9
BRANCH   1  13
ATOM     13  C   UNL     1      40.359  35.788  11.710  1.00  0.00     0.065 C 
BRANCH  13  14
ATOM     14  C   UNL     1      39.135  35.724  12.555  1.00  0.00    -0.040 A 
ATOM     15  C   UNL     1      39.032  36.278  13.808  1.00  0.00     0.004 A 
ATOM     16  C   UNL     1      38.039  35.055  12.018  1.00  0.00     0.004 A 
ATOM     17  C   UNL     1      37.842  36.160  14.509  1.00  0.00     0.000 A 
ATOM     18  C   UNL     1      36.863  34.953  12.743  1.00  0.00     0.000 A 
ATOM     19  C   UNL     1      36.761  35.503  13.986  1.00  0.00     0.000 A 
ENDBRANCH  13  14
BRANCH  13  20
ATOM     20  C   UNL     1      40.563  37.159  11.183  1.00  0.00    -0.040 A 
ATOM     21  C   UNL     1      40.672  38.233  12.044  1.00  0.00     0.004 A 
ATOM     22  C   UNL     1      40.663  37.404   9.832  1.00  0.00     0.004 A 
ATOM     23  C   UNL     1      40.873  39.527  11.633  1.00  0.00     0.000 A 
ATOM     24  C   UNL     1      40.866  38.703   9.386  1.00  0.00     0.000 A 
ATOM     25  C   UNL     1      40.968  39.735  10.262  1.00  0.00     0.000 A 
ENDBRANCH  13  20
ENDBRANCH   1  13
TORSDOF 7
BEGIN_RES LYS A 135
REMARK  4 active torsions:
REMARK  status: ('A' for Active; 'I' for Inactive)
REMARK    1  A    between atoms: CA   and  CB  
REMARK    2  A    between atoms: CB   and  CG  
REMARK    3  A    between atoms: CG   and  CD  
REMARK    4  A    between atoms: CD   and  CE  
ROOT
ATOM      1  CA  LYS A 135      33.193  34.663   9.290  1.00 25.02     0.186 C 
ENDROOT
BRANCH   1   2
ATOM      2  CB  LYS A 135      32.060  35.360  10.034  1.00 26.63     0.034 C 
BRANCH   2   3
ATOM      3  CG  LYS A 135      30.707  34.745   9.784  1.00 29.45     0.005 C 
BRANCH   3   4
ATOM      4  CD  LYS A 135      30.465  34.568   8.293  1.00 32.00     0.041 C 
BRANCH   4   5
ATOM      5  CE  LYS A 135      29.020  34.877   7.949  1.00 34.25     0.338 C 
ATOM      6  NZ  LYS A 135      28.917  35.559   6.629  1.00 35.99     0.618 N 
ENDBRANCH   4   5
ENDBRANCH   3   4
ENDBRANCH   2   3
ENDBRANCH   1   2
END_RES LYS A 135
BEGIN_RES TYR A 136
REMARK  2 active torsions:
REMARK  status: ('A' for Active; 'I' for Inactive)
REMARK    5  A    between atoms: CA   and  CB  
REMARK    6  A    between atoms: CB   and  CG  
ROOT
ATOM      7  CA  TYR A 136      36.583  36.399   8.994  1.00 26.14     0.191 C 
ENDROOT
BRANCH   7   8
ATOM      8  CB  TYR A 136      37.367  36.835  10.240  1.00 28.16     0.060 C 
BRANCH   8   9
ATOM      9  CG  TYR A 136      37.226  38.309  10.528  1.00 31.88    -0.020 A 
ATOM     10  CD2 TYR A 136      37.052  38.778  11.832  1.00 32.67    -0.002 A 
ATOM     11  CE2 TYR A 136      36.920  40.150  12.089  1.00 33.89     0.027 A 
ATOM     12  CZ  TYR A 136      36.962  41.061  11.030  1.00 34.34     0.131 A 
ATOM     13  OH  TYR A 136      36.840  42.424  11.262  1.00 35.14    -0.190 OA
ATOM     14  CE1 TYR A 136      37.132  40.612   9.728  1.00 35.01     0.027 A 
ATOM     15  CD1 TYR A 136      37.256  39.244   9.485  1.00 33.57    -0.002 A 
ENDBRANCH   8   9
ENDBRANCH   7   8
END_RES TYR A 136
BEGIN_RES ASN A 133
REMARK  2 active torsions:
REMARK  status: ('A' for Active; 'I' for Inactive)
REMARK    7  A    between atoms: CA   and  CB  
REMARK    8  A    between atoms: CB   and  CG  
ROOT
ATOM     16  CA  ASN A 133      31.225  30.257  11.749  1.00 18.15     0.196 C 
ENDROOT
BRANCH  16  17
ATOM     17  CB  ASN A 133      30.092  31.240  11.460  1.00 18.27     0.126 C 
BRANCH  17  18
ATOM     18  CG  ASN A 133      28.755  30.579  11.329  1.00 18.94     0.276 C 
ATOM     19  OD1 ASN A 133      28.586  29.626  10.567  1.00 18.09    -0.269 OA
ATOM     20  ND2 ASN A 133      27.778  31.088  12.079  1.00 18.93    -0.107 N 
ENDBRANCH  17  18
ENDBRANCH  16  17
END_RES ASN A 133
