REMARK VINA RESULT:    -4.458      3.970      6.486
REMARK INTER + INTRA:          -7.961
REMARK INTER:                  -4.681
REMARK INTRA:                  -3.281
REMARK UNBOUND:                -2.722
REMARK SMILES Cc1cn(Cc2ccc(C#N)cc2)nn1
REMARK SMILES IDX 6 1 7 2 8 3 9 4 12 5 13 6 5 7 4 8 1 9 2 10 3 11 15 12 14 13
REMARK SMILES IDX 10 14 11 15
REMARK H PARENT
REMARK Flexibility Score: inf
ROOT
ATOM      1  C   UNL     1      30.411  31.873  17.669  1.00  0.00    -0.026 A 
ATOM      2  C   UNL     1      30.900  33.106  18.047  1.00  0.00     0.007 A 
ATOM      3  C   UNL     1      31.562  33.918  17.149  1.00  0.00     0.020 A 
ATOM      4  C   UNL     1      31.768  33.538  15.832  1.00  0.00     0.052 A 
ATOM      5  C   UNL     1      31.274  32.303  15.465  1.00  0.00     0.020 A 
ATOM      6  C   UNL     1      30.612  31.487  16.361  1.00  0.00     0.007 A 
ENDROOT
BRANCH   1   7
ATOM      7  C   UNL     1      29.691  30.990  18.640  1.00  0.00     0.181 C 
BRANCH   7   8
ATOM      8  N   UNL     1      28.326  30.727  18.177  1.00  0.00    -0.248 N 
ATOM      9  C   UNL     1      25.404  28.707  17.210  1.00  0.00     0.070 C 
ATOM     10  C   UNL     1      26.432  29.752  17.543  1.00  0.00     0.080 A 
ATOM     11  C   UNL     1      27.721  29.539  17.991  1.00  0.00     0.134 A 
ATOM     12  N   UNL     1      26.295  31.088  17.471  1.00  0.00    -0.136 NA
ATOM     13  N   UNL     1      27.440  31.641  17.854  1.00  0.00    -0.067 NA
ENDBRANCH   7   8
ENDBRANCH   1   7
BRANCH   4  14
ATOM     14  C   UNL     1      32.460  34.391  14.907  1.00  0.00     0.099 C 
ATOM     15  N   UNL     1      33.017  35.066  14.149  1.00  0.00    -0.192 NA
ENDBRANCH   4  14
TORSDOF 3
BEGIN_RES LYS A 135
REMARK  4 active torsions:
REMARK  status: ('A' for Active; 'I' for Inactive)
REMARK    1  A    between atoms: CA   and  CB  
REMARK    2  A    between atoms: CB   and  CG  
REMARK    3  A    between atoms: CG   and  CD  
REMARK    4  A    between atoms: CD   and  CE  
ROOT
ATOM      1  CA  LYS A 135      33.193  34.663   9.290  1.00 25.02     0.186 C 
ENDROOT
BRANCH   1   2
ATOM      2  CB  LYS A 135      32.060  35.360  10.034  1.00 26.63     0.034 C 
BRANCH   2   3
ATOM      3  CG  LYS A 135      30.723  34.686   9.864  1.00 29.45     0.005 C 
BRANCH   3   4
ATOM      4  CD  LYS A 135      30.325  34.644   8.397  1.00 32.00     0.041 C 
BRANCH   4   5
ATOM      5  CE  LYS A 135      28.818  34.548   8.256  1.00 34.25     0.338 C 
ATOM      6  NZ  LYS A 135      28.213  33.855   9.428  1.00 35.99     0.618 N 
ENDBRANCH   4   5
ENDBRANCH   3   4
ENDBRANCH   2   3
ENDBRANCH   1   2
END_RES LYS A 135
BEGIN_RES TYR A 136
REMARK  2 active torsions:
REMARK  status: ('A' for Active; 'I' for Inactive)
REMARK    5  A    between atoms: CA   and  CB  
REMARK    6  A    between atoms: CB   and  CG  
ROOT
ATOM      7  CA  TYR A 136      36.583  36.399   8.994  1.00 26.14     0.191 C 
ENDROOT
BRANCH   7   8
ATOM      8  CB  TYR A 136      37.367  36.835  10.240  1.00 28.16     0.060 C 
BRANCH   8   9
ATOM      9  CG  TYR A 136      37.237  38.312  10.520  1.00 31.88    -0.020 A 
ATOM     10  CD2 TYR A 136      38.004  38.931  11.510  1.00 32.67    -0.002 A 
ATOM     11  CE2 TYR A 136      37.874  40.303  11.763  1.00 33.89     0.027 A 
ATOM     12  CZ  TYR A 136      36.967  41.063  11.020  1.00 34.34     0.131 A 
ATOM     13  OH  TYR A 136      36.827  42.425  11.249  1.00 35.14    -0.190 OA
ATOM     14  CE1 TYR A 136      36.196  40.464  10.034  1.00 35.01     0.027 A 
ATOM     15  CD1 TYR A 136      36.330  39.096   9.795  1.00 33.57    -0.002 A 
ENDBRANCH   8   9
ENDBRANCH   7   8
END_RES TYR A 136
BEGIN_RES ASN A 133
REMARK  2 active torsions:
REMARK  status: ('A' for Active; 'I' for Inactive)
REMARK    7  A    between atoms: CA   and  CB  
REMARK    8  A    between atoms: CB   and  CG  
ROOT
ATOM     16  CA  ASN A 133      31.225  30.257  11.749  1.00 18.15     0.196 C 
ENDROOT
BRANCH  16  17
ATOM     17  CB  ASN A 133      30.092  31.240  11.460  1.00 18.27     0.126 C 
BRANCH  17  18
ATOM     18  CG  ASN A 133      28.753  30.581  11.338  1.00 18.94     0.276 C 
ATOM     19  OD1 ASN A 133      28.590  29.596  10.615  1.00 18.09    -0.269 OA
ATOM     20  ND2 ASN A 133      27.768  31.125  12.052  1.00 18.93    -0.107 N 
ENDBRANCH  17  18
ENDBRANCH  16  17
END_RES ASN A 133
