REMARK VINA RESULT:    -5.799      4.896      9.394
REMARK INTER + INTRA:         -10.822
REMARK INTER:                  -8.726
REMARK INTRA:                  -2.097
REMARK UNBOUND:                -3.836
REMARK SMILES Cc1cn(-c2ccc(-c3c4ccc(=O)cc-4oc4cc(O)ccc34)c(C(=O)[O-])c2)nn1
REMARK SMILES IDX 9 1 24 2 23 3 22 4 20 5 19 6 18 7 17 8 16 9 15 10 13 11
REMARK SMILES IDX 14 12 12 13 11 14 10 15 8 16 5 17 29 18 6 19 25 20 7 21 4 22
REMARK SMILES IDX 1 23 2 24 3 25 31 26 30 27 26 28 27 29 28 30 21 31
REMARK H PARENT 21 32
REMARK Flexibility Score: inf
ROOT
ATOM      1  C   UNL     1      27.073  36.650   7.848  1.00  0.00     0.004 A 
ATOM      2  C   UNL     1      27.996  35.737   8.309  1.00  0.00     0.026 A 
ATOM      3  C   UNL     1      29.320  35.857   7.945  1.00  0.00     0.016 A 
ATOM      4  C   UNL     1      30.282  34.961   8.385  1.00  0.00     0.047 A 
ATOM      5  C   UNL     1      29.879  33.932   9.209  1.00  0.00     0.119 A 
ATOM      6  C   UNL     1      28.554  33.811   9.575  1.00  0.00     0.093 A 
ATOM      7  C   UNL     1      27.576  34.707   9.139  1.00  0.00     0.139 A 
ATOM      8  O   UNL     1      26.324  34.561   9.507  1.00  0.00    -0.456 OA
ATOM      9  C   UNL     1      25.384  35.368   9.126  1.00  0.00     0.139 A 
ATOM     10  C   UNL     1      24.065  35.248   9.491  1.00  0.00     0.099 A 
ATOM     11  C   UNL     1      23.159  36.170   9.020  1.00  0.00     0.182 A 
ATOM     12  O   UNL     1      21.956  36.052   9.358  1.00  0.00    -0.290 OA
ATOM     13  C   UNL     1      23.525  37.215   8.192  1.00  0.00     0.053 A 
ATOM     14  C   UNL     1      24.829  37.397   7.786  1.00  0.00     0.016 A 
ATOM     15  C   UNL     1      25.764  36.482   8.246  1.00  0.00     0.026 A 
ENDROOT
BRANCH   1  16
ATOM     16  C   UNL     1      27.519  37.723   6.984  1.00  0.00    -0.008 A 
ATOM     17  C   UNL     1      28.393  39.835   5.377  1.00  0.00     0.067 A 
ATOM     18  C   UNL     1      28.360  39.981   6.747  1.00  0.00     0.039 A 
ATOM     19  C   UNL     1      27.993  38.640   4.798  1.00  0.00     0.029 A 
ATOM     20  C   UNL     1      27.924  38.925   7.526  1.00  0.00     0.007 A 
ATOM     21  C   UNL     1      27.562  37.601   5.607  1.00  0.00     0.012 A 
BRANCH  17  22
ATOM     22  N   UNL     1      28.831  40.886   4.526  1.00  0.00    -0.220 N 
ATOM     23  C   UNL     1      28.224  43.542   2.050  1.00  0.00     0.070 C 
ATOM     24  C   UNL     1      28.745  42.547   3.033  1.00  0.00     0.080 A 
ATOM     25  C   UNL     1      28.000  41.612   3.723  1.00  0.00     0.140 A 
ATOM     26  N   UNL     1      30.012  42.359   3.443  1.00  0.00    -0.135 NA
ATOM     27  N   UNL     1      30.028  41.364   4.329  1.00  0.00    -0.062 NA
ENDBRANCH  17  22
BRANCH  20  28
ATOM     28  C   UNL     1      27.895  39.094   8.975  1.00  0.00     0.072 C 
ATOM     29  O   UNL     1      26.887  39.541   9.567  1.00  0.00    -0.545 OA
ATOM     30  O   UNL     1      28.993  38.759   9.755  1.00  0.00    -0.545 OA
ENDBRANCH  20  28
ENDBRANCH   1  16
BRANCH   5  31
ATOM     31  O   UNL     1      30.846  33.020   9.661  1.00  0.00    -0.508 OA
ATOM     32  H   UNL     1      31.381  32.481   8.994  1.00  0.00     0.293 HD
ENDBRANCH   5  31
TORSDOF 4
BEGIN_RES LYS A 135
REMARK  4 active torsions:
REMARK  status: ('A' for Active; 'I' for Inactive)
REMARK    1  A    between atoms: CA   and  CB  
REMARK    2  A    between atoms: CB   and  CG  
REMARK    3  A    between atoms: CG   and  CD  
REMARK    4  A    between atoms: CD   and  CE  
ROOT
ATOM      1  CA  LYS A 135      33.193  34.663   9.290  1.00 25.02     0.186 C 
ENDROOT
BRANCH   1   2
ATOM      2  CB  LYS A 135      32.060  35.360  10.034  1.00 26.63     0.034 C 
BRANCH   2   3
ATOM      3  CG  LYS A 135      32.499  36.025  11.313  1.00 29.45     0.005 C 
BRANCH   3   4
ATOM      4  CD  LYS A 135      31.809  35.391  12.511  1.00 32.00     0.041 C 
BRANCH   4   5
ATOM      5  CE  LYS A 135      30.312  35.621  12.448  1.00 34.25     0.338 C 
ATOM      6  NZ  LYS A 135      29.565  34.444  12.971  1.00 35.99     0.618 N 
ENDBRANCH   4   5
ENDBRANCH   3   4
ENDBRANCH   2   3
ENDBRANCH   1   2
END_RES LYS A 135
BEGIN_RES TYR A 136
REMARK  2 active torsions:
REMARK  status: ('A' for Active; 'I' for Inactive)
REMARK    5  A    between atoms: CA   and  CB  
REMARK    6  A    between atoms: CB   and  CG  
ROOT
ATOM      7  CA  TYR A 136      36.583  36.399   8.994  1.00 26.14     0.191 C 
ENDROOT
BRANCH   7   8
ATOM      8  CB  TYR A 136      37.367  36.835  10.240  1.00 28.16     0.060 C 
BRANCH   8   9
ATOM      9  CG  TYR A 136      36.621  36.557  11.522  1.00 31.88    -0.020 A 
ATOM     10  CD2 TYR A 136      35.892  37.559  12.166  1.00 32.67    -0.002 A 
ATOM     11  CE2 TYR A 136      35.204  37.290  13.358  1.00 33.89     0.027 A 
ATOM     12  CZ  TYR A 136      35.246  36.007  13.909  1.00 34.34     0.131 A 
ATOM     13  OH  TYR A 136      34.567  35.717  15.084  1.00 35.14    -0.190 OA
ATOM     14  CE1 TYR A 136      35.966  35.000  13.282  1.00 35.01     0.027 A 
ATOM     15  CD1 TYR A 136      36.653  35.281  12.100  1.00 33.57    -0.002 A 
ENDBRANCH   8   9
ENDBRANCH   7   8
END_RES TYR A 136
BEGIN_RES ASN A 133
REMARK  2 active torsions:
REMARK  status: ('A' for Active; 'I' for Inactive)
REMARK    7  A    between atoms: CA   and  CB  
REMARK    8  A    between atoms: CB   and  CG  
ROOT
ATOM     16  CA  ASN A 133      31.225  30.257  11.749  1.00 18.15     0.196 C 
ENDROOT
BRANCH  16  17
ATOM     17  CB  ASN A 133      30.092  31.240  11.460  1.00 18.27     0.126 C 
BRANCH  17  18
ATOM     18  CG  ASN A 133      28.750  30.583  11.360  1.00 18.94     0.276 C 
ATOM     19  OD1 ASN A 133      28.572  29.603  10.635  1.00 18.09    -0.269 OA
ATOM     20  ND2 ASN A 133      27.780  31.125  12.095  1.00 18.93    -0.107 N 
ENDBRANCH  17  18
ENDBRANCH  16  17
END_RES ASN A 133
