REMARK VINA RESULT:    -4.826      2.601      4.128
REMARK INTER + INTRA:          -7.104
REMARK INTER:                  -4.140
REMARK INTRA:                  -2.965
REMARK UNBOUND:                -1.996
REMARK SMILES Cc1cn(-c2ccccc2I)nn1
REMARK SMILES IDX 5 1 6 2 7 3 8 4 9 5 10 6 11 7 4 8 1 9 2 10 3 11 13 12 12 13
REMARK H PARENT
REMARK Flexibility Score: inf
ROOT
ATOM      1  C   UNL     1      38.138  34.867  13.045  1.00  0.00     0.080 A 
ATOM      2  C   UNL     1      37.100  34.287  12.346  1.00  0.00     0.029 A 
ATOM      3  C   UNL     1      35.793  34.310  12.809  1.00  0.00     0.002 A 
ATOM      4  C   UNL     1      35.499  34.933  14.018  1.00  0.00     0.001 A 
ATOM      5  C   UNL     1      36.525  35.519  14.733  1.00  0.00     0.017 A 
ATOM      6  C   UNL     1      37.815  35.482  14.250  1.00  0.00     0.039 A 
ATOM      7  I   UNL     1      39.359  36.387  15.368  1.00  0.00    -0.042 I 
ENDROOT
BRANCH   1   8
ATOM      8  N   UNL     1      39.480  34.833  12.552  1.00  0.00    -0.219 N 
ATOM      9  C   UNL     1      42.498  35.898  10.838  1.00  0.00     0.070 C 
ATOM     10  C   UNL     1      41.393  35.245  11.606  1.00  0.00     0.080 A 
ATOM     11  C   UNL     1      40.130  35.737  11.825  1.00  0.00     0.140 A 
ATOM     12  N   UNL     1      41.451  34.051  12.219  1.00  0.00    -0.135 NA
ATOM     13  N   UNL     1      40.299  33.819  12.781  1.00  0.00    -0.062 NA
ENDBRANCH   1   8
TORSDOF 1
BEGIN_RES LYS A 135
REMARK  4 active torsions:
REMARK  status: ('A' for Active; 'I' for Inactive)
REMARK    1  A    between atoms: CA   and  CB  
REMARK    2  A    between atoms: CB   and  CG  
REMARK    3  A    between atoms: CG   and  CD  
REMARK    4  A    between atoms: CD   and  CE  
ROOT
ATOM      1  CA  LYS A 135      33.193  34.663   9.290  1.00 25.02     0.186 C 
ENDROOT
BRANCH   1   2
ATOM      2  CB  LYS A 135      32.060  35.360  10.034  1.00 26.63     0.034 C 
BRANCH   2   3
ATOM      3  CG  LYS A 135      30.732  34.661   9.900  1.00 29.45     0.005 C 
BRANCH   3   4
ATOM      4  CD  LYS A 135      30.324  34.558   8.439  1.00 32.00     0.041 C 
BRANCH   4   5
ATOM      5  CE  LYS A 135      28.814  34.534   8.307  1.00 34.25     0.338 C 
ATOM      6  NZ  LYS A 135      28.186  33.821   9.454  1.00 35.99     0.618 N 
ENDBRANCH   4   5
ENDBRANCH   3   4
ENDBRANCH   2   3
ENDBRANCH   1   2
END_RES LYS A 135
BEGIN_RES TYR A 136
REMARK  2 active torsions:
REMARK  status: ('A' for Active; 'I' for Inactive)
REMARK    5  A    between atoms: CA   and  CB  
REMARK    6  A    between atoms: CB   and  CG  
ROOT
ATOM      7  CA  TYR A 136      36.583  36.399   8.994  1.00 26.14     0.191 C 
ENDROOT
BRANCH   7   8
ATOM      8  CB  TYR A 136      37.367  36.835  10.240  1.00 28.16     0.060 C 
BRANCH   8   9
ATOM      9  CG  TYR A 136      36.829  38.107  10.849  1.00 31.88    -0.020 A 
ATOM     10  CD2 TYR A 136      36.927  39.327  10.178  1.00 32.67    -0.002 A 
ATOM     11  CE2 TYR A 136      36.425  40.503  10.752  1.00 33.89     0.027 A 
ATOM     12  CZ  TYR A 136      35.820  40.457  12.011  1.00 34.34     0.131 A 
ATOM     13  OH  TYR A 136      35.310  41.607  12.596  1.00 35.14    -0.190 OA
ATOM     14  CE1 TYR A 136      35.715  39.253  12.692  1.00 35.01     0.027 A 
ATOM     15  CD1 TYR A 136      36.224  38.090  12.112  1.00 33.57    -0.002 A 
ENDBRANCH   8   9
ENDBRANCH   7   8
END_RES TYR A 136
BEGIN_RES ASN A 133
REMARK  2 active torsions:
REMARK  status: ('A' for Active; 'I' for Inactive)
REMARK    7  A    between atoms: CA   and  CB  
REMARK    8  A    between atoms: CB   and  CG  
ROOT
ATOM     16  CA  ASN A 133      31.225  30.257  11.749  1.00 18.15     0.196 C 
ENDROOT
BRANCH  16  17
ATOM     17  CB  ASN A 133      30.092  31.240  11.460  1.00 18.27     0.126 C 
BRANCH  17  18
ATOM     18  CG  ASN A 133      28.752  30.582  11.349  1.00 18.94     0.276 C 
ATOM     19  OD1 ASN A 133      28.580  29.601  10.623  1.00 18.09    -0.269 OA
ATOM     20  ND2 ASN A 133      27.775  31.123  12.076  1.00 18.93    -0.107 N 
ENDBRANCH  17  18
ENDBRANCH  16  17
END_RES ASN A 133
