REMARK VINA RESULT:    -3.905      4.378      7.498
REMARK INTER + INTRA:          -6.998
REMARK INTER:                  -4.041
REMARK INTRA:                  -2.957
REMARK UNBOUND:                -2.865
REMARK SMILES Cc1ccc(-n2cc(C)nn2)cc1
REMARK SMILES IDX 5 1 4 2 3 3 2 4 1 5 13 6 12 7 6 8 9 9 8 10 7 11 10 12 11 13
REMARK H PARENT
REMARK Flexibility Score: inf
ROOT
ATOM      1  C   UNL     1      24.608  36.802   8.347  1.00  0.00     0.066 A 
ATOM      2  C   UNL     1      24.348  35.790   9.235  1.00  0.00     0.029 A 
ATOM      3  C   UNL     1      23.044  35.402   9.474  1.00  0.00     0.005 A 
ATOM      4  C   UNL     1      21.965  35.995   8.851  1.00  0.00    -0.051 A 
ATOM      5  C   UNL     1      20.569  35.562   9.124  1.00  0.00     0.044 C 
ATOM      6  C   UNL     1      22.254  37.014   7.960  1.00  0.00     0.005 A 
ATOM      7  C   UNL     1      23.553  37.417   7.706  1.00  0.00     0.029 A 
ENDROOT
BRANCH   1   8
ATOM      8  N   UNL     1      25.925  37.212   8.087  1.00  0.00    -0.220 N 
ATOM      9  C   UNL     1      28.940  37.320   6.055  1.00  0.00     0.070 C 
ATOM     10  C   UNL     1      27.876  37.470   7.093  1.00  0.00     0.080 A 
ATOM     11  C   UNL     1      26.636  36.882   6.994  1.00  0.00     0.140 A 
ATOM     12  N   UNL     1      27.887  38.139   8.239  1.00  0.00    -0.135 NA
ATOM     13  N   UNL     1      26.720  37.984   8.832  1.00  0.00    -0.062 NA
ENDBRANCH   1   8
TORSDOF 1
BEGIN_RES LYS A 135
REMARK  4 active torsions:
REMARK  status: ('A' for Active; 'I' for Inactive)
REMARK    1  A    between atoms: CA   and  CB  
REMARK    2  A    between atoms: CB   and  CG  
REMARK    3  A    between atoms: CG   and  CD  
REMARK    4  A    between atoms: CD   and  CE  
ROOT
ATOM      1  CA  LYS A 135      33.193  34.663   9.290  1.00 25.02     0.186 C 
ENDROOT
BRANCH   1   2
ATOM      2  CB  LYS A 135      32.060  35.360  10.034  1.00 26.63     0.034 C 
BRANCH   2   3
ATOM      3  CG  LYS A 135      30.859  35.646   9.171  1.00 29.45     0.005 C 
BRANCH   3   4
ATOM      4  CD  LYS A 135      30.326  34.364   8.550  1.00 32.00     0.041 C 
BRANCH   4   5
ATOM      5  CE  LYS A 135      28.820  34.280   8.710  1.00 34.25     0.338 C 
ATOM      6  NZ  LYS A 135      28.367  35.019   9.922  1.00 35.99     0.618 N 
ENDBRANCH   4   5
ENDBRANCH   3   4
ENDBRANCH   2   3
ENDBRANCH   1   2
END_RES LYS A 135
BEGIN_RES TYR A 136
REMARK  2 active torsions:
REMARK  status: ('A' for Active; 'I' for Inactive)
REMARK    5  A    between atoms: CA   and  CB  
REMARK    6  A    between atoms: CB   and  CG  
ROOT
ATOM      7  CA  TYR A 136      36.583  36.399   8.994  1.00 26.14     0.191 C 
ENDROOT
BRANCH   7   8
ATOM      8  CB  TYR A 136      37.367  36.835  10.240  1.00 28.16     0.060 C 
BRANCH   8   9
ATOM      9  CG  TYR A 136      37.203  38.304  10.544  1.00 31.88    -0.020 A 
ATOM     10  CD2 TYR A 136      36.643  39.178   9.609  1.00 32.67    -0.002 A 
ATOM     11  CE2 TYR A 136      36.497  40.541   9.901  1.00 33.89     0.027 A 
ATOM     12  CZ  TYR A 136      36.915  41.034  11.140  1.00 34.34     0.131 A 
ATOM     13  OH  TYR A 136      36.773  42.379  11.453  1.00 35.14    -0.190 OA
ATOM     14  CE1 TYR A 136      37.474  40.180  12.079  1.00 35.01     0.027 A 
ATOM     15  CD1 TYR A 136      37.621  38.826  11.775  1.00 33.57    -0.002 A 
ENDBRANCH   8   9
ENDBRANCH   7   8
END_RES TYR A 136
BEGIN_RES ASN A 133
REMARK  2 active torsions:
REMARK  status: ('A' for Active; 'I' for Inactive)
REMARK    7  A    between atoms: CA   and  CB  
REMARK    8  A    between atoms: CB   and  CG  
ROOT
ATOM     16  CA  ASN A 133      31.225  30.257  11.749  1.00 18.15     0.196 C 
ENDROOT
BRANCH  16  17
ATOM     17  CB  ASN A 133      30.092  31.240  11.460  1.00 18.27     0.126 C 
BRANCH  17  18
ATOM     18  CG  ASN A 133      28.752  30.582  11.350  1.00 18.94     0.276 C 
ATOM     19  OD1 ASN A 133      28.580  29.599  10.626  1.00 18.09    -0.269 OA
ATOM     20  ND2 ASN A 133      27.774  31.125  12.075  1.00 18.93    -0.107 N 
ENDBRANCH  17  18
ENDBRANCH  16  17
END_RES ASN A 133
