REMARK VINA RESULT:    -6.605      2.140      2.561
REMARK INTER + INTRA:          -9.531
REMARK INTER:                  -6.252
REMARK INTRA:                  -3.279
REMARK UNBOUND:                -1.768
REMARK SMILES Cc1cn(C(C)(C)C(=O)c2c[nH]c3ccccc23)nn1
REMARK SMILES IDX 5 1 6 2 7 3 4 4 1 5 2 6 3 7 20 8 19 9 8 10 9 11 10 12 11 13
REMARK SMILES IDX 18 14 12 15 13 16 17 17 14 19 16 20 15 21
REMARK H PARENT 12 18
REMARK Flexibility Score: inf
ROOT
ATOM      1  C   UNL     1      37.193  35.970  15.569  1.00  0.00     0.122 C 
ATOM      2  C   UNL     1      37.710  37.404  15.380  1.00  0.00     0.046 C 
ATOM      3  C   UNL     1      37.796  35.343  16.790  1.00  0.00     0.046 C 
ENDROOT
BRANCH   1   4
ATOM      4  N   UNL     1      37.730  35.250  14.403  1.00  0.00    -0.239 N 
ATOM      5  C   UNL     1      38.567  32.321  12.354  1.00  0.00     0.070 C 
ATOM      6  C   UNL     1      38.346  33.672  12.968  1.00  0.00     0.080 A 
ATOM      7  C   UNL     1      37.751  33.922  14.191  1.00  0.00     0.135 A 
ATOM      8  N   UNL     1      38.667  34.876  12.476  1.00  0.00    -0.136 NA
ATOM      9  N   UNL     1      38.292  35.793  13.342  1.00  0.00    -0.066 NA
ENDBRANCH   1   4
BRANCH   1  10
ATOM     10  C   UNL     1      35.735  36.017  15.546  1.00  0.00     0.192 C 
ATOM     11  O   UNL     1      35.007  35.939  16.586  1.00  0.00    -0.291 OA
BRANCH  10  12
ATOM     12  C   UNL     1      35.039  36.155  14.274  1.00  0.00     0.045 A 
ATOM     13  C   UNL     1      34.695  35.113  13.404  1.00  0.00     0.095 A 
ATOM     14  C   UNL     1      34.603  37.304  13.653  1.00  0.00     0.010 A 
ATOM     15  N   UNL     1      34.087  35.615  12.322  1.00  0.00    -0.360 N 
ATOM     16  C   UNL     1      34.014  36.963  12.445  1.00  0.00     0.046 A 
ATOM     17  C   UNL     1      34.630  38.626  13.983  1.00  0.00     0.011 A 
ATOM     18  H   UNL     1      33.710  35.085  11.487  1.00  0.00     0.166 HD
ATOM     19  C   UNL     1      33.477  37.903  11.596  1.00  0.00     0.027 A 
ATOM     20  C   UNL     1      34.093  39.598  13.144  1.00  0.00     0.001 A 
ATOM     21  C   UNL     1      33.523  39.217  11.960  1.00  0.00     0.002 A 
ENDBRANCH  10  12
ENDBRANCH   1  10
TORSDOF 3
BEGIN_RES LYS A 135
REMARK  4 active torsions:
REMARK  status: ('A' for Active; 'I' for Inactive)
REMARK    1  A    between atoms: CA   and  CB  
REMARK    2  A    between atoms: CB   and  CG  
REMARK    3  A    between atoms: CG   and  CD  
REMARK    4  A    between atoms: CD   and  CE  
ROOT
ATOM      1  CA  LYS A 135      33.193  34.663   9.290  1.00 25.02     0.186 C 
ENDROOT
BRANCH   1   2
ATOM      2  CB  LYS A 135      32.060  35.360  10.034  1.00 26.63     0.034 C 
BRANCH   2   3
ATOM      3  CG  LYS A 135      30.801  35.503   9.218  1.00 29.45     0.005 C 
BRANCH   3   4
ATOM      4  CD  LYS A 135      30.156  34.146   8.984  1.00 32.00     0.041 C 
BRANCH   4   5
ATOM      5  CE  LYS A 135      28.672  34.301   8.714  1.00 34.25     0.338 C 
ATOM      6  NZ  LYS A 135      28.430  35.160   7.522  1.00 35.99     0.618 N 
ENDBRANCH   4   5
ENDBRANCH   3   4
ENDBRANCH   2   3
ENDBRANCH   1   2
END_RES LYS A 135
BEGIN_RES TYR A 136
REMARK  2 active torsions:
REMARK  status: ('A' for Active; 'I' for Inactive)
REMARK    5  A    between atoms: CA   and  CB  
REMARK    6  A    between atoms: CB   and  CG  
ROOT
ATOM      7  CA  TYR A 136      36.583  36.399   8.994  1.00 26.14     0.191 C 
ENDROOT
BRANCH   7   8
ATOM      8  CB  TYR A 136      37.367  36.835  10.240  1.00 28.16     0.060 C 
BRANCH   8   9
ATOM      9  CG  TYR A 136      37.182  38.298  10.559  1.00 31.88    -0.020 A 
ATOM     10  CD2 TYR A 136      37.663  38.844  11.752  1.00 32.67    -0.002 A 
ATOM     11  CE2 TYR A 136      37.484  40.204  12.040  1.00 33.89     0.027 A 
ATOM     12  CZ  TYR A 136      36.818  41.025  11.126  1.00 34.34     0.131 A 
ATOM     13  OH  TYR A 136      36.635  42.376  11.387  1.00 35.14    -0.190 OA
ATOM     14  CE1 TYR A 136      36.332  40.499   9.938  1.00 35.01     0.027 A 
ATOM     15  CD1 TYR A 136      36.511  39.142   9.665  1.00 33.57    -0.002 A 
ENDBRANCH   8   9
ENDBRANCH   7   8
END_RES TYR A 136
BEGIN_RES ASN A 133
REMARK  2 active torsions:
REMARK  status: ('A' for Active; 'I' for Inactive)
REMARK    7  A    between atoms: CA   and  CB  
REMARK    8  A    between atoms: CB   and  CG  
ROOT
ATOM     16  CA  ASN A 133      31.225  30.257  11.749  1.00 18.15     0.196 C 
ENDROOT
BRANCH  16  17
ATOM     17  CB  ASN A 133      30.092  31.240  11.460  1.00 18.27     0.126 C 
BRANCH  17  18
ATOM     18  CG  ASN A 133      28.754  30.580  11.334  1.00 18.94     0.276 C 
ATOM     19  OD1 ASN A 133      28.589  29.607  10.596  1.00 18.09    -0.269 OA
ATOM     20  ND2 ASN A 133      27.772  31.111  12.062  1.00 18.93    -0.107 N 
ENDBRANCH  17  18
ENDBRANCH  16  17
END_RES ASN A 133
