REMARK VINA RESULT:    -3.595      5.685      6.829
REMARK INTER + INTRA:          -7.346
REMARK INTER:                  -4.013
REMARK INTRA:                  -3.334
REMARK UNBOUND:                -3.226
REMARK SMILES Cc1cn(CC(=O)O)nn1
REMARK SMILES IDX 5 1 4 2 1 3 2 4 3 5 10 6 9 7 6 8 7 9 8 10
REMARK H PARENT 8 11
REMARK Flexibility Score: inf
ROOT
ATOM      1  C   UNL     1      38.451  37.577   2.470  1.00  0.00     0.268 C 
ENDROOT
BRANCH   1   2
ATOM      2  N   UNL     1      37.494  37.951   3.466  1.00  0.00    -0.241 N 
ATOM      3  C   UNL     1      36.138  39.076   6.689  1.00  0.00     0.070 C 
ATOM      4  C   UNL     1      36.482  38.616   5.338  1.00  0.00     0.080 A 
ATOM      5  C   UNL     1      37.691  38.360   4.744  1.00  0.00     0.134 A 
ATOM      6  N   UNL     1      35.559  38.348   4.376  1.00  0.00    -0.136 NA
ATOM      7  N   UNL     1      36.185  37.960   3.290  1.00  0.00    -0.067 NA
ENDBRANCH   1   2
BRANCH   1   8
ATOM      8  C   UNL     1      37.835  37.655   1.111  1.00  0.00     0.325 C 
ATOM      9  O   UNL     1      38.006  38.662   0.366  1.00  0.00    -0.250 OA
BRANCH   8  10
ATOM     10  O   UNL     1      37.052  36.635   0.608  1.00  0.00    -0.480 OA
ATOM     11  H   UNL     1      37.361  35.698   0.472  1.00  0.00     0.296 HD
ENDBRANCH   8  10
ENDBRANCH   1   8
TORSDOF 3
BEGIN_RES LYS A 135
REMARK  4 active torsions:
REMARK  status: ('A' for Active; 'I' for Inactive)
REMARK    1  A    between atoms: CA   and  CB  
REMARK    2  A    between atoms: CB   and  CG  
REMARK    3  A    between atoms: CG   and  CD  
REMARK    4  A    between atoms: CD   and  CE  
ROOT
ATOM      1  CA  LYS A 135      33.193  34.663   9.290  1.00 25.02     0.186 C 
ENDROOT
BRANCH   1   2
ATOM      2  CB  LYS A 135      32.060  35.360  10.034  1.00 26.63     0.034 C 
BRANCH   2   3
ATOM      3  CG  LYS A 135      30.722  34.688   9.861  1.00 29.45     0.005 C 
BRANCH   3   4
ATOM      4  CD  LYS A 135      30.363  34.580   8.387  1.00 32.00     0.041 C 
BRANCH   4   5
ATOM      5  CE  LYS A 135      28.857  34.585   8.204  1.00 34.25     0.338 C 
ATOM      6  NZ  LYS A 135      28.178  33.887   9.331  1.00 35.99     0.618 N 
ENDBRANCH   4   5
ENDBRANCH   3   4
ENDBRANCH   2   3
ENDBRANCH   1   2
END_RES LYS A 135
BEGIN_RES TYR A 136
REMARK  2 active torsions:
REMARK  status: ('A' for Active; 'I' for Inactive)
REMARK    5  A    between atoms: CA   and  CB  
REMARK    6  A    between atoms: CB   and  CG  
ROOT
ATOM      7  CA  TYR A 136      36.583  36.399   8.994  1.00 26.14     0.191 C 
ENDROOT
BRANCH   7   8
ATOM      8  CB  TYR A 136      37.367  36.835  10.240  1.00 28.16     0.060 C 
BRANCH   8   9
ATOM      9  CG  TYR A 136      37.375  38.332  10.426  1.00 31.88    -0.020 A 
ATOM     10  CD2 TYR A 136      38.546  39.075  10.260  1.00 32.67    -0.002 A 
ATOM     11  CE2 TYR A 136      38.544  40.466  10.437  1.00 33.89     0.027 A 
ATOM     12  CZ  TYR A 136      37.358  41.119  10.783  1.00 34.34     0.131 A 
ATOM     13  OH  TYR A 136      37.331  42.496  10.956  1.00 35.14    -0.190 OA
ATOM     14  CE1 TYR A 136      36.186  40.396  10.952  1.00 35.01     0.027 A 
ATOM     15  CD1 TYR A 136      36.202  39.011  10.780  1.00 33.57    -0.002 A 
ENDBRANCH   8   9
ENDBRANCH   7   8
END_RES TYR A 136
BEGIN_RES ASN A 133
REMARK  2 active torsions:
REMARK  status: ('A' for Active; 'I' for Inactive)
REMARK    7  A    between atoms: CA   and  CB  
REMARK    8  A    between atoms: CB   and  CG  
ROOT
ATOM     16  CA  ASN A 133      31.225  30.257  11.749  1.00 18.15     0.196 C 
ENDROOT
BRANCH  16  17
ATOM     17  CB  ASN A 133      30.092  31.240  11.460  1.00 18.27     0.126 C 
BRANCH  17  18
ATOM     18  CG  ASN A 133      28.752  30.582  11.350  1.00 18.94     0.276 C 
ATOM     19  OD1 ASN A 133      28.582  29.595  10.631  1.00 18.09    -0.269 OA
ATOM     20  ND2 ASN A 133      27.773  31.130  12.069  1.00 18.93    -0.107 N 
ENDBRANCH  17  18
ENDBRANCH  16  17
END_RES ASN A 133
