REMARK VINA RESULT:    -4.913      8.551     14.158
REMARK INTER + INTRA:          -7.515
REMARK INTER:                  -4.383
REMARK INTRA:                  -3.132
REMARK UNBOUND:                -2.028
REMARK SMILES Cc1cn(-c2ncccc2C#N)nn1
REMARK SMILES IDX 5 1 6 2 7 3 8 4 9 5 10 6 4 7 1 8 2 9 3 10 14 11 13 12 11 13
REMARK SMILES IDX 12 14
REMARK H PARENT
REMARK Flexibility Score: inf
ROOT
ATOM      1  C   UNL     1      22.320  31.883  -0.366  1.00  0.00     0.173 A 
ATOM      2  N   UNL     1      22.770  31.349   0.784  1.00  0.00    -0.236 NA
ATOM      3  C   UNL     1      23.090  30.055   0.924  1.00  0.00     0.113 A 
ATOM      4  C   UNL     1      22.975  29.170  -0.131  1.00  0.00     0.022 A 
ATOM      5  C   UNL     1      22.514  29.697  -1.327  1.00  0.00     0.025 A 
ATOM      6  C   UNL     1      22.189  31.044  -1.444  1.00  0.00     0.097 A 
ENDROOT
BRANCH   1   7
ATOM      7  N   UNL     1      21.994  33.272  -0.459  1.00  0.00    -0.201 N 
ATOM      8  C   UNL     1      22.572  36.908  -0.601  1.00  0.00     0.070 C 
ATOM      9  C   UNL     1      22.093  35.501  -0.565  1.00  0.00     0.080 A 
ATOM     10  C   UNL     1      22.823  34.334  -0.455  1.00  0.00     0.142 A 
ATOM     11  N   UNL     1      20.806  35.092  -0.634  1.00  0.00    -0.135 NA
ATOM     12  N   UNL     1      20.772  33.767  -0.570  1.00  0.00    -0.061 NA
ENDBRANCH   1   7
BRANCH   6  13
ATOM     13  C   UNL     1      21.711  31.596  -2.681  1.00  0.00     0.103 C 
ATOM     14  N   UNL     1      21.348  32.041  -3.666  1.00  0.00    -0.192 NA
ENDBRANCH   6  13
TORSDOF 2
BEGIN_RES LYS A 135
REMARK  4 active torsions:
REMARK  status: ('A' for Active; 'I' for Inactive)
REMARK    1  A    between atoms: CA   and  CB  
REMARK    2  A    between atoms: CB   and  CG  
REMARK    3  A    between atoms: CG   and  CD  
REMARK    4  A    between atoms: CD   and  CE  
ROOT
ATOM      1  CA  LYS A 135      33.193  34.663   9.290  1.00 25.02     0.186 C 
ENDROOT
BRANCH   1   2
ATOM      2  CB  LYS A 135      32.060  35.360  10.034  1.00 26.63     0.034 C 
BRANCH   2   3
ATOM      3  CG  LYS A 135      30.815  35.540   9.204  1.00 29.45     0.005 C 
BRANCH   3   4
ATOM      4  CD  LYS A 135      30.193  34.193   8.871  1.00 32.00     0.041 C 
BRANCH   4   5
ATOM      5  CE  LYS A 135      28.721  34.353   8.540  1.00 34.25     0.338 C 
ATOM      6  NZ  LYS A 135      27.866  33.713   9.578  1.00 35.99     0.618 N 
ENDBRANCH   4   5
ENDBRANCH   3   4
ENDBRANCH   2   3
ENDBRANCH   1   2
END_RES LYS A 135
BEGIN_RES TYR A 136
REMARK  2 active torsions:
REMARK  status: ('A' for Active; 'I' for Inactive)
REMARK    5  A    between atoms: CA   and  CB  
REMARK    6  A    between atoms: CB   and  CG  
ROOT
ATOM      7  CA  TYR A 136      36.583  36.399   8.994  1.00 26.14     0.191 C 
ENDROOT
BRANCH   7   8
ATOM      8  CB  TYR A 136      37.367  36.835  10.240  1.00 28.16     0.060 C 
BRANCH   8   9
ATOM      9  CG  TYR A 136      37.202  38.304  10.545  1.00 31.88    -0.020 A 
ATOM     10  CD2 TYR A 136      37.726  38.863  11.713  1.00 32.67    -0.002 A 
ATOM     11  CE2 TYR A 136      37.566  40.228  11.987  1.00 33.89     0.027 A 
ATOM     12  CZ  TYR A 136      36.875  41.041  11.085  1.00 34.34     0.131 A 
ATOM     13  OH  TYR A 136      36.711  42.397  11.332  1.00 35.14    -0.190 OA
ATOM     14  CE1 TYR A 136      36.348  40.502   9.920  1.00 35.01     0.027 A 
ATOM     15  CD1 TYR A 136      36.508  39.140   9.661  1.00 33.57    -0.002 A 
ENDBRANCH   8   9
ENDBRANCH   7   8
END_RES TYR A 136
BEGIN_RES ASN A 133
REMARK  2 active torsions:
REMARK  status: ('A' for Active; 'I' for Inactive)
REMARK    7  A    between atoms: CA   and  CB  
REMARK    8  A    between atoms: CB   and  CG  
ROOT
ATOM     16  CA  ASN A 133      31.225  30.257  11.749  1.00 18.15     0.196 C 
ENDROOT
BRANCH  16  17
ATOM     17  CB  ASN A 133      30.092  31.240  11.460  1.00 18.27     0.126 C 
BRANCH  17  18
ATOM     18  CG  ASN A 133      28.750  30.584  11.362  1.00 18.94     0.276 C 
ATOM     19  OD1 ASN A 133      28.566  29.613  10.624  1.00 18.09    -0.269 OA
ATOM     20  ND2 ASN A 133      27.785  31.114  12.112  1.00 18.93    -0.107 N 
ENDBRANCH  17  18
ENDBRANCH  16  17
END_RES ASN A 133
