REMARK VINA RESULT:    -3.718      8.043     13.440
REMARK INTER + INTRA:          -7.058
REMARK INTER:                  -3.840
REMARK INTRA:                  -3.218
REMARK UNBOUND:                -3.123
REMARK SMILES Cc1cn(C2CCCCC2)nn1
REMARK SMILES IDX 5 1 6 2 7 3 8 4 9 5 10 6 4 7 1 8 2 9 3 10 12 11 11 12
REMARK H PARENT
REMARK Flexibility Score: inf
ROOT
ATOM      1  C   UNL     1      36.176  35.445  12.799  1.00  0.00     0.109 C 
ATOM      2  C   UNL     1      36.317  33.958  12.813  1.00  0.00     0.027 C 
ATOM      3  C   UNL     1      37.707  33.495  13.187  1.00  0.00     0.002 C 
ATOM      4  C   UNL     1      38.028  33.918  14.600  1.00  0.00     0.000 C 
ATOM      5  C   UNL     1      37.208  35.088  15.039  1.00  0.00     0.002 C 
ATOM      6  C   UNL     1      36.947  36.084  13.926  1.00  0.00     0.027 C 
ENDROOT
BRANCH   1   7
ATOM      7  N   UNL     1      34.768  35.802  12.844  1.00  0.00    -0.249 N 
ATOM      8  C   UNL     1      31.217  35.497  13.594  1.00  0.00     0.070 C 
ATOM      9  C   UNL     1      32.588  35.897  13.155  1.00  0.00     0.080 A 
ATOM     10  C   UNL     1      33.730  35.160  13.354  1.00  0.00     0.134 A 
ATOM     11  N   UNL     1      32.982  37.004  12.506  1.00  0.00    -0.136 NA
ATOM     12  N   UNL     1      34.287  36.938  12.324  1.00  0.00    -0.067 NA
ENDBRANCH   1   7
TORSDOF 1
BEGIN_RES LYS A 135
REMARK  4 active torsions:
REMARK  status: ('A' for Active; 'I' for Inactive)
REMARK    1  A    between atoms: CA   and  CB  
REMARK    2  A    between atoms: CB   and  CG  
REMARK    3  A    between atoms: CG   and  CD  
REMARK    4  A    between atoms: CD   and  CE  
ROOT
ATOM      1  CA  LYS A 135      33.193  34.663   9.290  1.00 25.02     0.186 C 
ENDROOT
BRANCH   1   2
ATOM      2  CB  LYS A 135      32.060  35.360  10.034  1.00 26.63     0.034 C 
BRANCH   2   3
ATOM      3  CG  LYS A 135      30.731  34.662   9.898  1.00 29.45     0.005 C 
BRANCH   3   4
ATOM      4  CD  LYS A 135      30.335  34.542   8.435  1.00 32.00     0.041 C 
BRANCH   4   5
ATOM      5  CE  LYS A 135      28.826  34.532   8.290  1.00 34.25     0.338 C 
ATOM      6  NZ  LYS A 135      28.181  33.835   9.438  1.00 35.99     0.618 N 
ENDBRANCH   4   5
ENDBRANCH   3   4
ENDBRANCH   2   3
ENDBRANCH   1   2
END_RES LYS A 135
BEGIN_RES TYR A 136
REMARK  2 active torsions:
REMARK  status: ('A' for Active; 'I' for Inactive)
REMARK    5  A    between atoms: CA   and  CB  
REMARK    6  A    between atoms: CB   and  CG  
ROOT
ATOM      7  CA  TYR A 136      36.583  36.399   8.994  1.00 26.14     0.191 C 
ENDROOT
BRANCH   7   8
ATOM      8  CB  TYR A 136      37.367  36.835  10.240  1.00 28.16     0.060 C 
BRANCH   8   9
ATOM      9  CG  TYR A 136      37.176  38.296  10.564  1.00 31.88    -0.020 A 
ATOM     10  CD2 TYR A 136      36.366  39.113   9.771  1.00 32.67    -0.002 A 
ATOM     11  CE2 TYR A 136      36.197  40.469  10.080  1.00 33.89     0.027 A 
ATOM     12  CZ  TYR A 136      36.844  41.014  11.191  1.00 34.34     0.131 A 
ATOM     13  OH  TYR A 136      36.685  42.353  11.520  1.00 35.14    -0.190 OA
ATOM     14  CE1 TYR A 136      37.653  40.218  11.989  1.00 35.01     0.027 A 
ATOM     15  CD1 TYR A 136      37.819  38.870  11.668  1.00 33.57    -0.002 A 
ENDBRANCH   8   9
ENDBRANCH   7   8
END_RES TYR A 136
BEGIN_RES ASN A 133
REMARK  2 active torsions:
REMARK  status: ('A' for Active; 'I' for Inactive)
REMARK    7  A    between atoms: CA   and  CB  
REMARK    8  A    between atoms: CB   and  CG  
ROOT
ATOM     16  CA  ASN A 133      31.225  30.257  11.749  1.00 18.15     0.196 C 
ENDROOT
BRANCH  16  17
ATOM     17  CB  ASN A 133      30.092  31.240  11.460  1.00 18.27     0.126 C 
BRANCH  17  18
ATOM     18  CG  ASN A 133      28.752  30.581  11.345  1.00 18.94     0.276 C 
ATOM     19  OD1 ASN A 133      28.584  29.599  10.620  1.00 18.09    -0.269 OA
ATOM     20  ND2 ASN A 133      27.772  31.124  12.066  1.00 18.93    -0.107 N 
ENDBRANCH  17  18
ENDBRANCH  16  17
END_RES ASN A 133
