REMARK VINA RESULT:    -2.898      6.814     13.797
REMARK INTER + INTRA:          -6.409
REMARK INTER:                  -3.359
REMARK INTRA:                  -3.051
REMARK UNBOUND:                -3.088
REMARK SMILES Cc1cn(CCO)nn1
REMARK SMILES IDX 5 1 4 2 1 3 2 4 3 5 9 6 8 7 6 8 7 9
REMARK H PARENT 7 10
REMARK Flexibility Score: inf
ROOT
ATOM      1  C   UNL     1      38.651  34.837  16.406  1.00  0.00     0.174 C 
ENDROOT
BRANCH   1   2
ATOM      2  N   UNL     1      38.754  34.485  15.005  1.00  0.00    -0.250 N 
ATOM      3  C   UNL     1      37.257  33.139  11.948  1.00  0.00     0.070 C 
ATOM      4  C   UNL     1      38.097  33.719  13.029  1.00  0.00     0.080 A 
ATOM      5  C   UNL     1      37.717  33.951  14.334  1.00  0.00     0.134 A 
ATOM      6  N   UNL     1      39.377  34.138  12.982  1.00  0.00    -0.136 NA
ATOM      7  N   UNL     1      39.744  34.587  14.168  1.00  0.00    -0.067 NA
ENDBRANCH   1   2
BRANCH   1   8
ATOM      8  C   UNL     1      39.614  34.047  17.260  1.00  0.00     0.179 C 
BRANCH   8   9
ATOM      9  O   UNL     1      39.223  32.697  17.310  1.00  0.00    -0.394 OA
ATOM     10  H   UNL     1      38.249  32.680  17.493  1.00  0.00     0.210 HD
ENDBRANCH   8   9
ENDBRANCH   1   8
TORSDOF 3
BEGIN_RES LYS A 135
REMARK  4 active torsions:
REMARK  status: ('A' for Active; 'I' for Inactive)
REMARK    1  A    between atoms: CA   and  CB  
REMARK    2  A    between atoms: CB   and  CG  
REMARK    3  A    between atoms: CG   and  CD  
REMARK    4  A    between atoms: CD   and  CE  
ROOT
ATOM      1  CA  LYS A 135      33.193  34.663   9.290  1.00 25.02     0.186 C 
ENDROOT
BRANCH   1   2
ATOM      2  CB  LYS A 135      32.060  35.360  10.034  1.00 26.63     0.034 C 
BRANCH   2   3
ATOM      3  CG  LYS A 135      30.829  35.575   9.192  1.00 29.45     0.005 C 
BRANCH   3   4
ATOM      4  CD  LYS A 135      30.123  34.254   8.927  1.00 32.00     0.041 C 
BRANCH   4   5
ATOM      5  CE  LYS A 135      28.747  34.494   8.336  1.00 34.25     0.338 C 
ATOM      6  NZ  LYS A 135      28.826  35.362   7.128  1.00 35.99     0.618 N 
ENDBRANCH   4   5
ENDBRANCH   3   4
ENDBRANCH   2   3
ENDBRANCH   1   2
END_RES LYS A 135
BEGIN_RES TYR A 136
REMARK  2 active torsions:
REMARK  status: ('A' for Active; 'I' for Inactive)
REMARK    5  A    between atoms: CA   and  CB  
REMARK    6  A    between atoms: CB   and  CG  
ROOT
ATOM      7  CA  TYR A 136      36.583  36.399   8.994  1.00 26.14     0.191 C 
ENDROOT
BRANCH   7   8
ATOM      8  CB  TYR A 136      37.367  36.835  10.240  1.00 28.16     0.060 C 
BRANCH   8   9
ATOM      9  CG  TYR A 136      37.227  38.310  10.527  1.00 31.88    -0.020 A 
ATOM     10  CD2 TYR A 136      35.998  38.861  10.896  1.00 32.67    -0.002 A 
ATOM     11  CE2 TYR A 136      35.879  40.233  11.159  1.00 33.89     0.027 A 
ATOM     12  CZ  TYR A 136      36.999  41.060  11.051  1.00 34.34     0.131 A 
ATOM     13  OH  TYR A 136      36.906  42.420  11.313  1.00 35.14    -0.190 OA
ATOM     14  CE1 TYR A 136      38.227  40.529  10.684  1.00 35.01     0.027 A 
ATOM     15  CD1 TYR A 136      38.333  39.163  10.419  1.00 33.57    -0.002 A 
ENDBRANCH   8   9
ENDBRANCH   7   8
END_RES TYR A 136
BEGIN_RES ASN A 133
REMARK  2 active torsions:
REMARK  status: ('A' for Active; 'I' for Inactive)
REMARK    7  A    between atoms: CA   and  CB  
REMARK    8  A    between atoms: CB   and  CG  
ROOT
ATOM     16  CA  ASN A 133      31.225  30.257  11.749  1.00 18.15     0.196 C 
ENDROOT
BRANCH  16  17
ATOM     17  CB  ASN A 133      30.092  31.240  11.460  1.00 18.27     0.126 C 
BRANCH  17  18
ATOM     18  CG  ASN A 133      28.752  30.581  11.343  1.00 18.94     0.276 C 
ATOM     19  OD1 ASN A 133      28.582  29.607  10.608  1.00 18.09    -0.269 OA
ATOM     20  ND2 ASN A 133      27.775  31.114  12.077  1.00 18.93    -0.107 N 
ENDBRANCH  17  18
ENDBRANCH  16  17
END_RES ASN A 133
