REMARK VINA RESULT:    -4.197      5.704      8.961
REMARK INTER + INTRA:          -8.495
REMARK INTER:                  -4.933
REMARK INTRA:                  -3.562
REMARK UNBOUND:                -3.317
REMARK SMILES Cc1cn(CC(=O)NCc2cccs2)nn1
REMARK SMILES IDX 6 1 7 2 8 3 5 5 4 6 1 7 2 8 3 9 16 10 15 11 9 12 10 13 11 14
REMARK SMILES IDX 14 15 12 16 13 17
REMARK H PARENT 8 4
REMARK Flexibility Score: inf
ROOT
ATOM      1  C   UNL     1      37.565  37.655   3.548  1.00  0.00     0.242 C 
ATOM      2  O   UNL     1      36.608  37.650   2.732  1.00  0.00    -0.273 OA
ATOM      3  N   UNL     1      37.247  37.665   4.919  1.00  0.00    -0.350 N 
ATOM      4  H   UNL     1      37.985  37.673   5.639  1.00  0.00     0.163 HD
ENDROOT
BRANCH   1   5
ATOM      5  C   UNL     1      38.943  37.647   3.000  1.00  0.00     0.245 C 
BRANCH   5   6
ATOM      6  N   UNL     1      39.869  37.019   3.895  1.00  0.00    -0.243 N 
ATOM      7  C   UNL     1      42.643  37.036   6.311  1.00  0.00     0.070 C 
ATOM      8  C   UNL     1      41.505  36.763   5.363  1.00  0.00     0.080 A 
ATOM      9  C   UNL     1      40.811  37.684   4.616  1.00  0.00     0.134 A 
ATOM     10  N   UNL     1      40.948  35.564   5.059  1.00  0.00    -0.136 NA
ATOM     11  N   UNL     1      39.980  35.758   4.184  1.00  0.00    -0.067 NA
ENDBRANCH   5   6
ENDBRANCH   1   5
BRANCH   3  12
ATOM     12  C   UNL     1      35.854  37.670   5.387  1.00  0.00     0.162 C 
BRANCH  12  13
ATOM     13  C   UNL     1      35.693  38.933   6.134  1.00  0.00     0.024 A 
ATOM     14  C   UNL     1      36.439  39.585   7.044  1.00  0.00     0.017 A 
ATOM     15  S   UNL     1      34.253  40.023   5.963  1.00  0.00    -0.147 S 
ATOM     16  C   UNL     1      36.021  40.737   7.560  1.00  0.00     0.012 A 
ATOM     17  C   UNL     1      34.805  41.235   7.131  1.00  0.00     0.065 A 
ENDBRANCH  12  13
ENDBRANCH   3  12
TORSDOF 4
BEGIN_RES LYS A 135
REMARK  4 active torsions:
REMARK  status: ('A' for Active; 'I' for Inactive)
REMARK    1  A    between atoms: CA   and  CB  
REMARK    2  A    between atoms: CB   and  CG  
REMARK    3  A    between atoms: CG   and  CD  
REMARK    4  A    between atoms: CD   and  CE  
ROOT
ATOM      1  CA  LYS A 135      33.193  34.663   9.290  1.00 25.02     0.186 C 
ENDROOT
BRANCH   1   2
ATOM      2  CB  LYS A 135      32.060  35.360  10.034  1.00 26.63     0.034 C 
BRANCH   2   3
ATOM      3  CG  LYS A 135      30.803  35.507   9.216  1.00 29.45     0.005 C 
BRANCH   3   4
ATOM      4  CD  LYS A 135      30.134  34.156   9.013  1.00 32.00     0.041 C 
BRANCH   4   5
ATOM      5  CE  LYS A 135      28.670  34.334   8.659  1.00 34.25     0.338 C 
ATOM      6  NZ  LYS A 135      27.791  33.665   9.658  1.00 35.99     0.618 N 
ENDBRANCH   4   5
ENDBRANCH   3   4
ENDBRANCH   2   3
ENDBRANCH   1   2
END_RES LYS A 135
BEGIN_RES TYR A 136
REMARK  2 active torsions:
REMARK  status: ('A' for Active; 'I' for Inactive)
REMARK    5  A    between atoms: CA   and  CB  
REMARK    6  A    between atoms: CB   and  CG  
ROOT
ATOM      7  CA  TYR A 136      36.583  36.399   8.994  1.00 26.14     0.191 C 
ENDROOT
BRANCH   7   8
ATOM      8  CB  TYR A 136      37.367  36.835  10.240  1.00 28.16     0.060 C 
BRANCH   8   9
ATOM      9  CG  TYR A 136      37.208  38.305  10.540  1.00 31.88    -0.020 A 
ATOM     10  CD2 TYR A 136      35.977  38.834  10.933  1.00 32.67    -0.002 A 
ATOM     11  CE2 TYR A 136      35.840  40.202  11.208  1.00 33.89     0.027 A 
ATOM     12  CZ  TYR A 136      36.945  41.048  11.089  1.00 34.34     0.131 A 
ATOM     13  OH  TYR A 136      36.834  42.404  11.363  1.00 35.14    -0.190 OA
ATOM     14  CE1 TYR A 136      38.175  40.539  10.698  1.00 35.01     0.027 A 
ATOM     15  CD1 TYR A 136      38.298  39.177  10.421  1.00 33.57    -0.002 A 
ENDBRANCH   8   9
ENDBRANCH   7   8
END_RES TYR A 136
BEGIN_RES ASN A 133
REMARK  2 active torsions:
REMARK  status: ('A' for Active; 'I' for Inactive)
REMARK    7  A    between atoms: CA   and  CB  
REMARK    8  A    between atoms: CB   and  CG  
ROOT
ATOM     16  CA  ASN A 133      31.225  30.257  11.749  1.00 18.15     0.196 C 
ENDROOT
BRANCH  16  17
ATOM     17  CB  ASN A 133      30.092  31.240  11.460  1.00 18.27     0.126 C 
BRANCH  17  18
ATOM     18  CG  ASN A 133      28.752  30.582  11.349  1.00 18.94     0.276 C 
ATOM     19  OD1 ASN A 133      28.571  29.627  10.591  1.00 18.09    -0.269 OA
ATOM     20  ND2 ASN A 133      27.786  31.094  12.111  1.00 18.93    -0.107 N 
ENDBRANCH  17  18
ENDBRANCH  16  17
END_RES ASN A 133
