REMARK VINA RESULT:    -4.486      2.126      3.126
REMARK INTER + INTRA:          -9.038
REMARK INTER:                  -5.709
REMARK INTRA:                  -3.329
REMARK UNBOUND:                -3.502
REMARK SMILES CCOC(=O)c1cccc(-n2cc(C)nn2)c1
REMARK SMILES IDX 4 1 5 2 6 3 10 4 17 5 9 6 8 7 7 8 11 9 14 10 13 11 12 12
REMARK SMILES IDX 15 13 16 14 3 15 2 16 1 17
REMARK H PARENT
REMARK Flexibility Score: inf
ROOT
ATOM      1  C   UNL     1      38.246  33.660  13.139  1.00  0.00     0.338 C 
ATOM      2  O   UNL     1      38.049  32.460  12.820  1.00  0.00    -0.246 OA
ENDROOT
BRANCH   1   3
ATOM      3  C   UNL     1      37.246  34.472  13.813  1.00  0.00     0.062 A 
ATOM      4  C   UNL     1      35.041  35.454  13.903  1.00  0.00     0.067 A 
ATOM      5  C   UNL     1      35.990  34.686  13.267  1.00  0.00     0.044 A 
ATOM      6  C   UNL     1      35.370  36.015  15.113  1.00  0.00     0.028 A 
ATOM      7  C   UNL     1      36.613  35.836  15.709  1.00  0.00     0.003 A 
ATOM      8  C   UNL     1      37.526  35.056  15.029  1.00  0.00     0.016 A 
BRANCH   4   9
ATOM      9  N   UNL     1      33.753  35.677  13.348  1.00  0.00    -0.220 N 
ATOM     10  C   UNL     1      30.136  35.097  12.961  1.00  0.00     0.070 C 
ATOM     11  C   UNL     1      31.554  35.540  12.903  1.00  0.00     0.080 A 
ATOM     12  C   UNL     1      32.597  35.043  13.659  1.00  0.00     0.140 A 
ATOM     13  N   UNL     1      32.123  36.489  12.132  1.00  0.00    -0.135 NA
ATOM     14  N   UNL     1      33.414  36.561  12.401  1.00  0.00    -0.062 NA
ENDBRANCH   4   9
ENDBRANCH   1   3
BRANCH   1  15
ATOM     15  O   UNL     1      39.484  34.190  12.815  1.00  0.00    -0.462 OA
BRANCH  15  16
ATOM     16  C   UNL     1      39.599  35.379  12.061  1.00  0.00     0.230 C 
ATOM     17  C   UNL     1      40.284  36.416  12.898  1.00  0.00     0.049 C 
ENDBRANCH  15  16
ENDBRANCH   1  15
TORSDOF 4
BEGIN_RES LYS A 135
REMARK  4 active torsions:
REMARK  status: ('A' for Active; 'I' for Inactive)
REMARK    1  A    between atoms: CA   and  CB  
REMARK    2  A    between atoms: CB   and  CG  
REMARK    3  A    between atoms: CG   and  CD  
REMARK    4  A    between atoms: CD   and  CE  
ROOT
ATOM      1  CA  LYS A 135      33.193  34.663   9.290  1.00 25.02     0.186 C 
ENDROOT
BRANCH   1   2
ATOM      2  CB  LYS A 135      32.060  35.360  10.034  1.00 26.63     0.034 C 
BRANCH   2   3
ATOM      3  CG  LYS A 135      30.800  35.498   9.219  1.00 29.45     0.005 C 
BRANCH   3   4
ATOM      4  CD  LYS A 135      30.181  34.135   8.952  1.00 32.00     0.041 C 
BRANCH   4   5
ATOM      5  CE  LYS A 135      28.692  34.267   8.696  1.00 34.25     0.338 C 
ATOM      6  NZ  LYS A 135      27.904  33.850   9.889  1.00 35.99     0.618 N 
ENDBRANCH   4   5
ENDBRANCH   3   4
ENDBRANCH   2   3
ENDBRANCH   1   2
END_RES LYS A 135
BEGIN_RES TYR A 136
REMARK  2 active torsions:
REMARK  status: ('A' for Active; 'I' for Inactive)
REMARK    5  A    between atoms: CA   and  CB  
REMARK    6  A    between atoms: CB   and  CG  
ROOT
ATOM      7  CA  TYR A 136      36.583  36.399   8.994  1.00 26.14     0.191 C 
ENDROOT
BRANCH   7   8
ATOM      8  CB  TYR A 136      37.367  36.835  10.240  1.00 28.16     0.060 C 
BRANCH   8   9
ATOM      9  CG  TYR A 136      36.674  37.935  11.006  1.00 31.88    -0.020 A 
ATOM     10  CD2 TYR A 136      35.788  38.809  10.373  1.00 32.67    -0.002 A 
ATOM     11  CE2 TYR A 136      35.151  39.829  11.093  1.00 33.89     0.027 A 
ATOM     12  CZ  TYR A 136      35.403  39.976  12.459  1.00 34.34     0.131 A 
ATOM     13  OH  TYR A 136      34.778  40.974  13.194  1.00 35.14    -0.190 OA
ATOM     14  CE1 TYR A 136      36.282  39.117  13.104  1.00 35.01     0.027 A 
ATOM     15  CD1 TYR A 136      36.915  38.109  12.375  1.00 33.57    -0.002 A 
ENDBRANCH   8   9
ENDBRANCH   7   8
END_RES TYR A 136
BEGIN_RES ASN A 133
REMARK  2 active torsions:
REMARK  status: ('A' for Active; 'I' for Inactive)
REMARK    7  A    between atoms: CA   and  CB  
REMARK    8  A    between atoms: CB   and  CG  
ROOT
ATOM     16  CA  ASN A 133      31.225  30.257  11.749  1.00 18.15     0.196 C 
ENDROOT
BRANCH  16  17
ATOM     17  CB  ASN A 133      30.092  31.240  11.460  1.00 18.27     0.126 C 
BRANCH  17  18
ATOM     18  CG  ASN A 133      28.754  30.580  11.333  1.00 18.94     0.276 C 
ATOM     19  OD1 ASN A 133      28.582  29.627  10.570  1.00 18.09    -0.269 OA
ATOM     20  ND2 ASN A 133      27.780  31.087  12.087  1.00 18.93    -0.107 N 
ENDBRANCH  17  18
ENDBRANCH  16  17
END_RES ASN A 133
