REMARK VINA RESULT:    -5.797      2.158      5.205
REMARK INTER + INTRA:          -8.281
REMARK INTER:                  -5.094
REMARK INTRA:                  -3.187
REMARK UNBOUND:                -2.144
REMARK SMILES Cc1cn(-c2ccc3[nH]ncc3c2)nn1
REMARK SMILES IDX 5 1 6 2 7 3 8 4 9 5 10 6 11 7 12 8 13 9 4 11 1 12 2 13 3 14
REMARK SMILES IDX 15 15 14 16
REMARK H PARENT 9 10
REMARK Flexibility Score: inf
ROOT
ATOM      1  C   UNL     1      34.890  35.322  13.820  1.00  0.00     0.067 A 
ATOM      2  C   UNL     1      35.740  35.695  14.842  1.00  0.00     0.030 A 
ATOM      3  C   UNL     1      37.019  35.184  14.883  1.00  0.00     0.030 A 
ATOM      4  C   UNL     1      37.505  34.298  13.931  1.00  0.00     0.065 A 
ATOM      5  N   UNL     1      38.665  33.663  13.728  1.00  0.00    -0.278 N 
ATOM      6  N   UNL     1      38.595  32.918  12.647  1.00  0.00    -0.183 NA
ATOM      7  C   UNL     1      37.368  33.054  12.112  1.00  0.00     0.143 A 
ATOM      8  C   UNL     1      36.643  33.924  12.901  1.00  0.00     0.022 A 
ATOM      9  C   UNL     1      35.359  34.437  12.859  1.00  0.00     0.040 A 
ATOM     10  H   UNL     1      39.499  33.747  14.336  1.00  0.00     0.190 HD
ENDROOT
BRANCH   1  11
ATOM     11  N   UNL     1      33.572  35.858  13.792  1.00  0.00    -0.220 N 
ATOM     12  C   UNL     1      30.067  36.301  12.856  1.00  0.00     0.070 C 
ATOM     13  C   UNL     1      31.442  36.315  13.389  1.00  0.00     0.080 A 
ATOM     14  C   UNL     1      32.506  35.496  13.071  1.00  0.00     0.140 A 
ATOM     15  N   UNL     1      31.922  37.167  14.320  1.00  0.00    -0.135 NA
ATOM     16  N   UNL     1      33.207  36.878  14.553  1.00  0.00    -0.062 NA
ENDBRANCH   1  11
TORSDOF 1
BEGIN_RES LYS A 135
REMARK  4 active torsions:
REMARK  status: ('A' for Active; 'I' for Inactive)
REMARK    1  A    between atoms: CA   and  CB  
REMARK    2  A    between atoms: CB   and  CG  
REMARK    3  A    between atoms: CG   and  CD  
REMARK    4  A    between atoms: CD   and  CE  
ROOT
ATOM      1  CA  LYS A 135      33.193  34.663   9.290  1.00 25.02     0.186 C 
ENDROOT
BRANCH   1   2
ATOM      2  CB  LYS A 135      32.060  35.360  10.034  1.00 26.63     0.034 C 
BRANCH   2   3
ATOM      3  CG  LYS A 135      30.810  35.527   9.209  1.00 29.45     0.005 C 
BRANCH   3   4
ATOM      4  CD  LYS A 135      30.155  34.180   8.948  1.00 32.00     0.041 C 
BRANCH   4   5
ATOM      5  CE  LYS A 135      28.687  34.358   8.611  1.00 34.25     0.338 C 
ATOM      6  NZ  LYS A 135      27.819  33.701   9.627  1.00 35.99     0.618 N 
ENDBRANCH   4   5
ENDBRANCH   3   4
ENDBRANCH   2   3
ENDBRANCH   1   2
END_RES LYS A 135
BEGIN_RES TYR A 136
REMARK  2 active torsions:
REMARK  status: ('A' for Active; 'I' for Inactive)
REMARK    5  A    between atoms: CA   and  CB  
REMARK    6  A    between atoms: CB   and  CG  
ROOT
ATOM      7  CA  TYR A 136      36.583  36.399   8.994  1.00 26.14     0.191 C 
ENDROOT
BRANCH   7   8
ATOM      8  CB  TYR A 136      37.367  36.835  10.240  1.00 28.16     0.060 C 
BRANCH   8   9
ATOM      9  CG  TYR A 136      36.746  38.025  10.930  1.00 31.88    -0.020 A 
ATOM     10  CD2 TYR A 136      36.143  39.051  10.198  1.00 32.67    -0.002 A 
ATOM     11  CE2 TYR A 136      35.570  40.152  10.849  1.00 33.89     0.027 A 
ATOM     12  CZ  TYR A 136      35.601  40.228  12.243  1.00 34.34     0.131 A 
ATOM     13  OH  TYR A 136      35.034  41.306  12.909  1.00 35.14    -0.190 OA
ATOM     14  CE1 TYR A 136      36.197  39.219  12.985  1.00 35.01     0.027 A 
ATOM     15  CD1 TYR A 136      36.770  38.130  12.326  1.00 33.57    -0.002 A 
ENDBRANCH   8   9
ENDBRANCH   7   8
END_RES TYR A 136
BEGIN_RES ASN A 133
REMARK  2 active torsions:
REMARK  status: ('A' for Active; 'I' for Inactive)
REMARK    7  A    between atoms: CA   and  CB  
REMARK    8  A    between atoms: CB   and  CG  
ROOT
ATOM     16  CA  ASN A 133      31.225  30.257  11.749  1.00 18.15     0.196 C 
ENDROOT
BRANCH  16  17
ATOM     17  CB  ASN A 133      30.092  31.240  11.460  1.00 18.27     0.126 C 
BRANCH  17  18
ATOM     18  CG  ASN A 133      28.750  30.583  11.359  1.00 18.94     0.276 C 
ATOM     19  OD1 ASN A 133      28.570  29.610  10.624  1.00 18.09    -0.269 OA
ATOM     20  ND2 ASN A 133      27.783  31.116  12.104  1.00 18.93    -0.107 N 
ENDBRANCH  17  18
ENDBRANCH  16  17
END_RES ASN A 133
