REMARK VINA RESULT:    -4.638      2.224      3.506
REMARK INTER + INTRA:          -7.980
REMARK INTER:                  -4.628
REMARK INTRA:                  -3.352
REMARK UNBOUND:                -2.529
REMARK SMILES Cc1cn(Cc2cccc(C#N)c2)nn1
REMARK SMILES IDX 6 1 7 2 8 3 9 4 10 5 13 6 5 7 4 8 1 9 2 10 3 11 15 12 14 13
REMARK SMILES IDX 11 14 12 15
REMARK H PARENT
REMARK Flexibility Score: inf
ROOT
ATOM      1  C   UNL     1      33.525  37.482  12.583  1.00  0.00    -0.025 A 
ATOM      2  C   UNL     1      33.438  38.458  13.545  1.00  0.00     0.006 A 
ATOM      3  C   UNL     1      33.079  39.762  13.266  1.00  0.00     0.002 A 
ATOM      4  C   UNL     1      32.796  40.089  11.956  1.00  0.00     0.019 A 
ATOM      5  C   UNL     1      32.870  39.143  10.954  1.00  0.00     0.052 A 
ATOM      6  C   UNL     1      33.236  37.836  11.280  1.00  0.00     0.025 A 
ENDROOT
BRANCH   1   7
ATOM      7  C   UNL     1      33.907  36.088  12.877  1.00  0.00     0.181 C 
BRANCH   7   8
ATOM      8  N   UNL     1      32.870  35.331  13.501  1.00  0.00    -0.248 N 
ATOM      9  C   UNL     1      31.579  33.252  16.203  1.00  0.00     0.070 C 
ATOM     10  C   UNL     1      31.837  34.074  14.976  1.00  0.00     0.080 A 
ATOM     11  C   UNL     1      33.016  34.693  14.676  1.00  0.00     0.134 A 
ATOM     12  N   UNL     1      30.983  34.347  13.973  1.00  0.00    -0.136 NA
ATOM     13  N   UNL     1      31.620  35.101  13.100  1.00  0.00    -0.067 NA
ENDBRANCH   7   8
ENDBRANCH   1   7
BRANCH   5  14
ATOM     14  C   UNL     1      32.562  39.550   9.614  1.00  0.00     0.099 C 
ATOM     15  N   UNL     1      32.311  39.896   8.542  1.00  0.00    -0.192 NA
ENDBRANCH   5  14
TORSDOF 3
BEGIN_RES LYS A 135
REMARK  4 active torsions:
REMARK  status: ('A' for Active; 'I' for Inactive)
REMARK    1  A    between atoms: CA   and  CB  
REMARK    2  A    between atoms: CB   and  CG  
REMARK    3  A    between atoms: CG   and  CD  
REMARK    4  A    between atoms: CD   and  CE  
ROOT
ATOM      1  CA  LYS A 135      33.193  34.663   9.290  1.00 25.02     0.186 C 
ENDROOT
BRANCH   1   2
ATOM      2  CB  LYS A 135      32.060  35.360  10.034  1.00 26.63     0.034 C 
BRANCH   2   3
ATOM      3  CG  LYS A 135      30.844  35.611   9.181  1.00 29.45     0.005 C 
BRANCH   3   4
ATOM      4  CD  LYS A 135      30.255  34.299   8.686  1.00 32.00     0.041 C 
BRANCH   4   5
ATOM      5  CE  LYS A 135      28.754  34.423   8.505  1.00 34.25     0.338 C 
ATOM      6  NZ  LYS A 135      28.023  33.718   9.594  1.00 35.99     0.618 N 
ENDBRANCH   4   5
ENDBRANCH   3   4
ENDBRANCH   2   3
ENDBRANCH   1   2
END_RES LYS A 135
BEGIN_RES TYR A 136
REMARK  2 active torsions:
REMARK  status: ('A' for Active; 'I' for Inactive)
REMARK    5  A    between atoms: CA   and  CB  
REMARK    6  A    between atoms: CB   and  CG  
ROOT
ATOM      7  CA  TYR A 136      36.583  36.399   8.994  1.00 26.14     0.191 C 
ENDROOT
BRANCH   7   8
ATOM      8  CB  TYR A 136      37.367  36.835  10.240  1.00 28.16     0.060 C 
BRANCH   8   9
ATOM      9  CG  TYR A 136      36.986  38.217  10.711  1.00 31.88    -0.020 A 
ATOM     10  CD2 TYR A 136      36.530  39.186   9.815  1.00 32.67    -0.002 A 
ATOM     11  CE2 TYR A 136      36.180  40.468  10.263  1.00 33.89     0.027 A 
ATOM     12  CZ  TYR A 136      36.287  40.781  11.620  1.00 34.34     0.131 A 
ATOM     13  OH  TYR A 136      35.939  42.041  12.087  1.00 35.14    -0.190 OA
ATOM     14  CE1 TYR A 136      36.739  39.831  12.524  1.00 35.01     0.027 A 
ATOM     15  CD1 TYR A 136      37.091  38.560  12.065  1.00 33.57    -0.002 A 
ENDBRANCH   8   9
ENDBRANCH   7   8
END_RES TYR A 136
BEGIN_RES ASN A 133
REMARK  2 active torsions:
REMARK  status: ('A' for Active; 'I' for Inactive)
REMARK    7  A    between atoms: CA   and  CB  
REMARK    8  A    between atoms: CB   and  CG  
ROOT
ATOM     16  CA  ASN A 133      31.225  30.257  11.749  1.00 18.15     0.196 C 
ENDROOT
BRANCH  16  17
ATOM     17  CB  ASN A 133      30.092  31.240  11.460  1.00 18.27     0.126 C 
BRANCH  17  18
ATOM     18  CG  ASN A 133      28.755  30.579  11.326  1.00 18.94     0.276 C 
ATOM     19  OD1 ASN A 133      28.591  29.618  10.573  1.00 18.09    -0.269 OA
ATOM     20  ND2 ASN A 133      27.773  31.096  12.065  1.00 18.93    -0.107 N 
ENDBRANCH  17  18
ENDBRANCH  16  17
END_RES ASN A 133
