REMARK VINA RESULT:    -4.454      1.812      2.803
REMARK INTER + INTRA:          -8.462
REMARK INTER:                  -5.224
REMARK INTRA:                  -3.238
REMARK UNBOUND:                -3.226
REMARK SMILES COc1ccc(Cn2cc(C)nn2)cc1
REMARK SMILES IDX 6 1 5 2 4 3 3 4 15 5 14 6 7 7 8 8 11 9 10 10 9 11 12 12
REMARK SMILES IDX 13 13 2 14 1 15
REMARK H PARENT
REMARK Flexibility Score: inf
ROOT
ATOM      1  C   UNL     1      35.199  34.922  13.871  1.00  0.00    -0.026 A 
ATOM      2  C   UNL     1      35.937  35.504  14.893  1.00  0.00     0.009 A 
ATOM      3  C   UNL     1      37.330  35.436  14.862  1.00  0.00     0.047 A 
ATOM      4  C   UNL     1      37.941  34.788  13.810  1.00  0.00     0.118 A 
ATOM      5  C   UNL     1      37.174  34.222  12.814  1.00  0.00     0.047 A 
ATOM      6  C   UNL     1      35.794  34.275  12.819  1.00  0.00     0.009 A 
ENDROOT
BRANCH   1   7
ATOM      7  C   UNL     1      33.720  35.011  13.935  1.00  0.00     0.181 C 
BRANCH   7   8
ATOM      8  N   UNL     1      33.252  36.286  13.365  1.00  0.00    -0.248 N 
ATOM      9  C   UNL     1      32.335  38.632  10.716  1.00  0.00     0.070 C 
ATOM     10  C   UNL     1      32.646  37.873  11.974  1.00  0.00     0.080 A 
ATOM     11  C   UNL     1      33.103  36.580  12.066  1.00  0.00     0.134 A 
ATOM     12  N   UNL     1      32.529  38.332  13.227  1.00  0.00    -0.136 NA
ATOM     13  N   UNL     1      32.895  37.372  14.025  1.00  0.00    -0.067 NA
ENDBRANCH   7   8
ENDBRANCH   1   7
BRANCH   4  14
ATOM     14  O   UNL     1      39.327  34.745  13.818  1.00  0.00    -0.497 OA
ATOM     15  C   UNL     1      39.965  34.002  12.796  1.00  0.00     0.278 C 
ENDBRANCH   4  14
TORSDOF 3
BEGIN_RES LYS A 135
REMARK  4 active torsions:
REMARK  status: ('A' for Active; 'I' for Inactive)
REMARK    1  A    between atoms: CA   and  CB  
REMARK    2  A    between atoms: CB   and  CG  
REMARK    3  A    between atoms: CG   and  CD  
REMARK    4  A    between atoms: CD   and  CE  
ROOT
ATOM      1  CA  LYS A 135      33.193  34.663   9.290  1.00 25.02     0.186 C 
ENDROOT
BRANCH   1   2
ATOM      2  CB  LYS A 135      32.060  35.360  10.034  1.00 26.63     0.034 C 
BRANCH   2   3
ATOM      3  CG  LYS A 135      30.800  35.500   9.219  1.00 29.45     0.005 C 
BRANCH   3   4
ATOM      4  CD  LYS A 135      30.132  34.148   9.027  1.00 32.00     0.041 C 
BRANCH   4   5
ATOM      5  CE  LYS A 135      28.675  34.323   8.645  1.00 34.25     0.338 C 
ATOM      6  NZ  LYS A 135      27.774  33.740   9.678  1.00 35.99     0.618 N 
ENDBRANCH   4   5
ENDBRANCH   3   4
ENDBRANCH   2   3
ENDBRANCH   1   2
END_RES LYS A 135
BEGIN_RES TYR A 136
REMARK  2 active torsions:
REMARK  status: ('A' for Active; 'I' for Inactive)
REMARK    5  A    between atoms: CA   and  CB  
REMARK    6  A    between atoms: CB   and  CG  
ROOT
ATOM      7  CA  TYR A 136      36.583  36.399   8.994  1.00 26.14     0.191 C 
ENDROOT
BRANCH   7   8
ATOM      8  CB  TYR A 136      37.367  36.835  10.240  1.00 28.16     0.060 C 
BRANCH   8   9
ATOM      9  CG  TYR A 136      36.734  38.011  10.942  1.00 31.88    -0.020 A 
ATOM     10  CD2 TYR A 136      36.611  38.043  12.333  1.00 32.67    -0.002 A 
ATOM     11  CE2 TYR A 136      36.019  39.139  12.975  1.00 33.89     0.027 A 
ATOM     12  CZ  TYR A 136      35.546  40.214  12.218  1.00 34.34     0.131 A 
ATOM     13  OH  TYR A 136      34.964  41.314  12.833  1.00 35.14    -0.190 OA
ATOM     14  CE1 TYR A 136      35.659  40.199  10.835  1.00 35.01     0.027 A 
ATOM     15  CD1 TYR A 136      36.244  39.098  10.207  1.00 33.57    -0.002 A 
ENDBRANCH   8   9
ENDBRANCH   7   8
END_RES TYR A 136
BEGIN_RES ASN A 133
REMARK  2 active torsions:
REMARK  status: ('A' for Active; 'I' for Inactive)
REMARK    7  A    between atoms: CA   and  CB  
REMARK    8  A    between atoms: CB   and  CG  
ROOT
ATOM     16  CA  ASN A 133      31.225  30.257  11.749  1.00 18.15     0.196 C 
ENDROOT
BRANCH  16  17
ATOM     17  CB  ASN A 133      30.092  31.240  11.460  1.00 18.27     0.126 C 
BRANCH  17  18
ATOM     18  CG  ASN A 133      28.755  30.579  11.325  1.00 18.94     0.276 C 
ATOM     19  OD1 ASN A 133      28.592  29.619  10.570  1.00 18.09    -0.269 OA
ATOM     20  ND2 ASN A 133      27.773  31.094  12.063  1.00 18.93    -0.107 N 
ENDBRANCH  17  18
ENDBRANCH  16  17
END_RES ASN A 133
