REMARK VINA RESULT:    -5.623      9.459     17.077
REMARK INTER + INTRA:          -9.933
REMARK INTER:                  -6.384
REMARK INTRA:                  -3.550
REMARK UNBOUND:                -2.666
REMARK SMILES Cc1cn(C[C@@H](C)CN2CCN(c3ccc(Cl)cc3)CC2)nn1
REMARK SMILES IDX 6 1 7 2 5 3 4 4 1 5 2 6 3 7 23 8 22 9 8 10 9 11 10 12 21 13
REMARK SMILES IDX 11 14 20 15 12 16 13 17 14 18 19 19 15 20 18 21 16 22 17 23
REMARK H PARENT
REMARK Flexibility Score: inf
ROOT
ATOM      1  C   UNL     1      22.023  32.721  -1.796  1.00  0.00     0.022 C 
ATOM      2  C   UNL     1      22.654  33.157  -3.086  1.00  0.00     0.011 C 
ENDROOT
BRANCH   1   3
ATOM      3  C   UNL     1      21.587  31.298  -1.870  1.00  0.00     0.150 C 
BRANCH   3   4
ATOM      4  N   UNL     1      22.283  30.474  -0.909  1.00  0.00    -0.252 N 
ATOM      5  C   UNL     1      23.740  29.921   2.389  1.00  0.00     0.070 C 
ATOM      6  C   UNL     1      23.235  29.870   0.978  1.00  0.00     0.080 A 
ATOM      7  C   UNL     1      22.577  30.903   0.348  1.00  0.00     0.134 A 
ATOM      8  N   UNL     1      23.313  28.863   0.088  1.00  0.00    -0.136 NA
ATOM      9  N   UNL     1      22.727  29.253  -1.056  1.00  0.00    -0.067 NA
ENDBRANCH   3   4
ENDBRANCH   1   3
BRANCH   1  10
ATOM     10  C   UNL     1      20.802  33.587  -1.459  1.00  0.00     0.089 C 
BRANCH  10  11
ATOM     11  N   UNL     1      21.268  34.877  -1.164  1.00  0.00    -0.299 NA
ATOM     12  C   UNL     1      20.729  35.992  -1.815  1.00  0.00     0.106 C 
ATOM     13  C   UNL     1      22.264  35.070  -0.198  1.00  0.00     0.106 C 
ATOM     14  C   UNL     1      21.798  36.926  -2.370  1.00  0.00     0.132 C 
ATOM     15  C   UNL     1      22.461  36.584  -0.031  1.00  0.00     0.132 C 
ATOM     16  N   UNL     1      22.821  37.056  -1.350  1.00  0.00    -0.369 N 
BRANCH  16  17
ATOM     17  C   UNL     1      24.086  37.619  -1.661  1.00  0.00     0.037 A 
ATOM     18  C   UNL     1      25.074  36.988  -2.372  1.00  0.00     0.027 A 
ATOM     19  C   UNL     1      24.362  38.908  -1.215  1.00  0.00     0.027 A 
ATOM     20  C   UNL     1      26.301  37.553  -2.661  1.00  0.00     0.022 A 
ATOM     21  C   UNL     1      25.574  39.502  -1.485  1.00  0.00     0.022 A 
ATOM     22  C   UNL     1      26.550  38.828  -2.209  1.00  0.00     0.041 A 
ATOM     23  Cl  UNL     1      28.071  39.628  -2.523  1.00  0.00    -0.084 Cl
ENDBRANCH  16  17
ENDBRANCH  10  11
ENDBRANCH   1  10
TORSDOF 5
BEGIN_RES LYS A 135
REMARK  4 active torsions:
REMARK  status: ('A' for Active; 'I' for Inactive)
REMARK    1  A    between atoms: CA   and  CB  
REMARK    2  A    between atoms: CB   and  CG  
REMARK    3  A    between atoms: CG   and  CD  
REMARK    4  A    between atoms: CD   and  CE  
ROOT
ATOM      1  CA  LYS A 135      33.193  34.663   9.290  1.00 25.02     0.186 C 
ENDROOT
BRANCH   1   2
ATOM      2  CB  LYS A 135      32.060  35.360  10.034  1.00 26.63     0.034 C 
BRANCH   2   3
ATOM      3  CG  LYS A 135      30.819  35.549   9.201  1.00 29.45     0.005 C 
BRANCH   3   4
ATOM      4  CD  LYS A 135      30.018  34.258   9.130  1.00 32.00     0.041 C 
BRANCH   4   5
ATOM      5  CE  LYS A 135      28.731  34.471   8.357  1.00 34.25     0.338 C 
ATOM      6  NZ  LYS A 135      28.960  35.323   7.157  1.00 35.99     0.618 N 
ENDBRANCH   4   5
ENDBRANCH   3   4
ENDBRANCH   2   3
ENDBRANCH   1   2
END_RES LYS A 135
BEGIN_RES TYR A 136
REMARK  2 active torsions:
REMARK  status: ('A' for Active; 'I' for Inactive)
REMARK    5  A    between atoms: CA   and  CB  
REMARK    6  A    between atoms: CB   and  CG  
ROOT
ATOM      7  CA  TYR A 136      36.583  36.399   8.994  1.00 26.14     0.191 C 
ENDROOT
BRANCH   7   8
ATOM      8  CB  TYR A 136      37.367  36.835  10.240  1.00 28.16     0.060 C 
BRANCH   8   9
ATOM      9  CG  TYR A 136      37.226  38.309  10.528  1.00 31.88    -0.020 A 
ATOM     10  CD2 TYR A 136      38.066  38.952  11.440  1.00 32.67    -0.002 A 
ATOM     11  CE2 TYR A 136      37.926  40.322  11.701  1.00 33.89     0.027 A 
ATOM     12  CZ  TYR A 136      36.935  41.055  11.044  1.00 34.34     0.131 A 
ATOM     13  OH  TYR A 136      36.782  42.414  11.282  1.00 35.14    -0.190 OA
ATOM     14  CE1 TYR A 136      36.090  40.433  10.136  1.00 35.01     0.027 A 
ATOM     15  CD1 TYR A 136      36.236  39.067   9.889  1.00 33.57    -0.002 A 
ENDBRANCH   8   9
ENDBRANCH   7   8
END_RES TYR A 136
BEGIN_RES ASN A 133
REMARK  2 active torsions:
REMARK  status: ('A' for Active; 'I' for Inactive)
REMARK    7  A    between atoms: CA   and  CB  
REMARK    8  A    between atoms: CB   and  CG  
ROOT
ATOM     16  CA  ASN A 133      31.225  30.257  11.749  1.00 18.15     0.196 C 
ENDROOT
BRANCH  16  17
ATOM     17  CB  ASN A 133      30.092  31.240  11.460  1.00 18.27     0.126 C 
BRANCH  17  18
ATOM     18  CG  ASN A 133      28.751  30.582  11.352  1.00 18.94     0.276 C 
ATOM     19  OD1 ASN A 133      28.579  29.597  10.632  1.00 18.09    -0.269 OA
ATOM     20  ND2 ASN A 133      27.774  31.129  12.076  1.00 18.93    -0.107 N 
ENDBRANCH  17  18
ENDBRANCH  16  17
END_RES ASN A 133
