REMARK VINA RESULT:    -4.210      1.856      4.477
REMARK INTER + INTRA:         -10.220
REMARK INTER:                  -5.338
REMARK INTRA:                  -4.882
REMARK UNBOUND:                -4.164
REMARK SMILES Cc1cn(CC(=O)NCC(O)Cn2ccnc2[N+](=O)[O-])nn1
REMARK SMILES IDX 9 1 8 2 6 3 7 4 5 6 4 7 1 8 2 9 3 10 22 11 21 12 10 13 11 14
REMARK SMILES IDX 12 16 13 17 14 18 17 19 15 20 16 21 18 22 19 23 20 24
REMARK H PARENT 8 5 11 15
REMARK Flexibility Score: inf
ROOT
ATOM      1  C   UNL     1      37.704  33.115  13.395  1.00  0.00     0.151 C 
ENDROOT
BRANCH   1   2
ATOM      2  N   UNL     1      38.673  33.953  14.059  1.00  0.00    -0.352 N 
ATOM      3  C   UNL     1      39.951  34.301  13.550  1.00  0.00     0.241 C 
ATOM      4  O   UNL     1      40.303  33.871  12.431  1.00  0.00    -0.273 OA
ATOM      5  H   UNL     1      38.400  34.344  15.020  1.00  0.00     0.163 HD
BRANCH   3   6
ATOM      6  C   UNL     1      40.822  35.174  14.387  1.00  0.00     0.245 C 
BRANCH   6   7
ATOM      7  N   UNL     1      40.333  36.523  14.401  1.00  0.00    -0.243 N 
ATOM      8  C   UNL     1      39.910  39.973  15.523  1.00  0.00     0.070 C 
ATOM      9  C   UNL     1      39.918  38.626  14.879  1.00  0.00     0.080 A 
ATOM     10  C   UNL     1      40.622  37.516  15.261  1.00  0.00     0.134 A 
ATOM     11  N   UNL     1      39.209  38.283  13.790  1.00  0.00    -0.136 NA
ATOM     12  N   UNL     1      39.475  37.013  13.520  1.00  0.00    -0.067 NA
ENDBRANCH   6   7
ENDBRANCH   3   6
ENDBRANCH   1   2
BRANCH   1  13
ATOM     13  C   UNL     1      36.835  33.802  12.420  1.00  0.00     0.168 C 
BRANCH  13  14
ATOM     14  O   UNL     1      37.332  33.860  11.113  1.00  0.00    -0.388 OA
ATOM     15  H   UNL     1      37.078  34.671  10.649  1.00  0.00     0.211 HD
ENDBRANCH  13  14
BRANCH  13  16
ATOM     16  C   UNL     1      36.364  35.181  12.774  1.00  0.00     0.239 C 
BRANCH  16  17
ATOM     17  N   UNL     1      35.322  35.251  13.751  1.00  0.00    -0.227 N 
ATOM     18  C   UNL     1      34.025  34.831  13.556  1.00  0.00     0.204 A 
ATOM     19  C   UNL     1      35.447  35.780  14.974  1.00  0.00     0.434 A 
ATOM     20  C   UNL     1      33.347  35.123  14.711  1.00  0.00     0.245 A 
ATOM     21  N   UNL     1      34.196  35.689  15.556  1.00  0.00    -0.074 NA
BRANCH  19  22
ATOM     22  N   UNL     1      36.571  36.327  15.658  1.00  0.00    -0.047 N 
ATOM     23  O   UNL     1      37.496  35.644  16.096  1.00  0.00    -0.390 OA
ATOM     24  O   UNL     1      36.648  37.679  15.882  1.00  0.00    -0.390 OA
ENDBRANCH  19  22
ENDBRANCH  16  17
ENDBRANCH  13  16
ENDBRANCH   1  13
TORSDOF 8
BEGIN_RES LYS A 135
REMARK  4 active torsions:
REMARK  status: ('A' for Active; 'I' for Inactive)
REMARK    1  A    between atoms: CA   and  CB  
REMARK    2  A    between atoms: CB   and  CG  
REMARK    3  A    between atoms: CG   and  CD  
REMARK    4  A    between atoms: CD   and  CE  
ROOT
ATOM      1  CA  LYS A 135      33.193  34.663   9.290  1.00 25.02     0.186 C 
ENDROOT
BRANCH   1   2
ATOM      2  CB  LYS A 135      32.060  35.360  10.034  1.00 26.63     0.034 C 
BRANCH   2   3
ATOM      3  CG  LYS A 135      30.842  35.607   9.182  1.00 29.45     0.005 C 
BRANCH   3   4
ATOM      4  CD  LYS A 135      30.318  34.301   8.604  1.00 32.00     0.041 C 
BRANCH   4   5
ATOM      5  CE  LYS A 135      28.832  34.158   8.872  1.00 34.25     0.338 C 
ATOM      6  NZ  LYS A 135      28.532  34.311  10.323  1.00 35.99     0.618 N 
ENDBRANCH   4   5
ENDBRANCH   3   4
ENDBRANCH   2   3
ENDBRANCH   1   2
END_RES LYS A 135
BEGIN_RES TYR A 136
REMARK  2 active torsions:
REMARK  status: ('A' for Active; 'I' for Inactive)
REMARK    5  A    between atoms: CA   and  CB  
REMARK    6  A    between atoms: CB   and  CG  
ROOT
ATOM      7  CA  TYR A 136      36.583  36.399   8.994  1.00 26.14     0.191 C 
ENDROOT
BRANCH   7   8
ATOM      8  CB  TYR A 136      37.367  36.835  10.240  1.00 28.16     0.060 C 
BRANCH   8   9
ATOM      9  CG  TYR A 136      37.190  38.300  10.553  1.00 31.88    -0.020 A 
ATOM     10  CD2 TYR A 136      35.967  38.801  11.005  1.00 32.67    -0.002 A 
ATOM     11  CE2 TYR A 136      35.813  40.164  11.292  1.00 33.89     0.027 A 
ATOM     12  CZ  TYR A 136      36.893  41.035  11.124  1.00 34.34     0.131 A 
ATOM     13  OH  TYR A 136      36.765  42.387  11.409  1.00 35.14    -0.190 OA
ATOM     14  CE1 TYR A 136      38.115  40.555  10.676  1.00 35.01     0.027 A 
ATOM     15  CD1 TYR A 136      38.254  39.196  10.387  1.00 33.57    -0.002 A 
ENDBRANCH   8   9
ENDBRANCH   7   8
END_RES TYR A 136
BEGIN_RES ASN A 133
REMARK  2 active torsions:
REMARK  status: ('A' for Active; 'I' for Inactive)
REMARK    7  A    between atoms: CA   and  CB  
REMARK    8  A    between atoms: CB   and  CG  
ROOT
ATOM     16  CA  ASN A 133      31.225  30.257  11.749  1.00 18.15     0.196 C 
ENDROOT
BRANCH  16  17
ATOM     17  CB  ASN A 133      30.092  31.240  11.460  1.00 18.27     0.126 C 
BRANCH  17  18
ATOM     18  CG  ASN A 133      28.752  30.582  11.349  1.00 18.94     0.276 C 
ATOM     19  OD1 ASN A 133      28.584  29.592  10.634  1.00 18.09    -0.269 OA
ATOM     20  ND2 ASN A 133      27.771  31.133  12.063  1.00 18.93    -0.107 N 
ENDBRANCH  17  18
ENDBRANCH  16  17
END_RES ASN A 133
