REMARK VINA RESULT:    -4.194      4.246      8.338
REMARK INTER + INTRA:          -7.652
REMARK INTER:                  -5.629
REMARK INTRA:                  -2.023
REMARK UNBOUND:                -2.722
REMARK SMILES Cc1cn(Cc2ccc(C#N)cc2)nn1
REMARK SMILES IDX 6 1 7 2 8 3 9 4 12 5 13 6 5 7 4 8 1 9 2 10 3 11 15 12 14 13
REMARK SMILES IDX 10 14 11 15
REMARK H PARENT
REMARK Flexibility Score: inf
ROOT
ATOM      1  C   UNL     1      27.413  36.162   6.934  1.00  0.00    -0.026 A 
ATOM      2  C   UNL     1      26.458  37.111   7.232  1.00  0.00     0.007 A 
ATOM      3  C   UNL     1      25.509  36.888   8.209  1.00  0.00     0.020 A 
ATOM      4  C   UNL     1      25.468  35.707   8.934  1.00  0.00     0.052 A 
ATOM      5  C   UNL     1      26.429  34.765   8.627  1.00  0.00     0.020 A 
ATOM      6  C   UNL     1      27.380  34.985   7.650  1.00  0.00     0.007 A 
ENDROOT
BRANCH   1   7
ATOM      7  C   UNL     1      28.445  36.402   5.875  1.00  0.00     0.181 C 
BRANCH   7   8
ATOM      8  N   UNL     1      28.517  37.828   5.546  1.00  0.00    -0.248 N 
ATOM      9  C   UNL     1      29.750  41.291   5.734  1.00  0.00     0.070 C 
ATOM     10  C   UNL     1      29.069  39.979   5.464  1.00  0.00     0.080 A 
ATOM     11  C   UNL     1      29.342  38.761   6.056  1.00  0.00     0.134 A 
ATOM     12  N   UNL     1      28.068  39.738   4.598  1.00  0.00    -0.136 NA
ATOM     13  N   UNL     1      27.762  38.449   4.670  1.00  0.00    -0.067 NA
ENDBRANCH   7   8
ENDBRANCH   1   7
BRANCH   4  14
ATOM     14  C   UNL     1      24.476  35.486   9.947  1.00  0.00     0.099 C 
ATOM     15  N   UNL     1      23.662  35.308  10.751  1.00  0.00    -0.192 NA
ENDBRANCH   4  14
TORSDOF 3
BEGIN_RES LYS A 135
REMARK  4 active torsions:
REMARK  status: ('A' for Active; 'I' for Inactive)
REMARK    1  A    between atoms: CA   and  CB  
REMARK    2  A    between atoms: CB   and  CG  
REMARK    3  A    between atoms: CG   and  CD  
REMARK    4  A    between atoms: CD   and  CE  
ROOT
ATOM      1  CA  LYS A 135      33.193  34.663   9.290  1.00 25.02     0.186 C 
ENDROOT
BRANCH   1   2
ATOM      2  CB  LYS A 135      32.060  35.360  10.034  1.00 26.63     0.034 C 
BRANCH   2   3
ATOM      3  CG  LYS A 135      30.784  35.453   9.238  1.00 29.45     0.005 C 
BRANCH   3   4
ATOM      4  CD  LYS A 135      30.441  36.905   8.942  1.00 32.00     0.041 C 
BRANCH   4   5
ATOM      5  CE  LYS A 135      29.868  37.579  10.174  1.00 34.25     0.338 C 
ATOM      6  NZ  LYS A 135      28.503  37.068  10.479  1.00 35.99     0.618 N 
ENDBRANCH   4   5
ENDBRANCH   3   4
ENDBRANCH   2   3
ENDBRANCH   1   2
END_RES LYS A 135
BEGIN_RES TYR A 136
REMARK  2 active torsions:
REMARK  status: ('A' for Active; 'I' for Inactive)
REMARK    5  A    between atoms: CA   and  CB  
REMARK    6  A    between atoms: CB   and  CG  
ROOT
ATOM      7  CA  TYR A 136      36.583  36.399   8.994  1.00 26.14     0.191 C 
ENDROOT
BRANCH   7   8
ATOM      8  CB  TYR A 136      37.367  36.835  10.240  1.00 28.16     0.060 C 
BRANCH   8   9
ATOM      9  CG  TYR A 136      37.161  38.292  10.575  1.00 31.88    -0.020 A 
ATOM     10  CD2 TYR A 136      36.390  39.120   9.756  1.00 32.67    -0.002 A 
ATOM     11  CE2 TYR A 136      36.206  40.472  10.075  1.00 33.89     0.027 A 
ATOM     12  CZ  TYR A 136      36.800  41.001  11.223  1.00 34.34     0.131 A 
ATOM     13  OH  TYR A 136      36.626  42.336  11.563  1.00 35.14    -0.190 OA
ATOM     14  CE1 TYR A 136      37.571  40.193  12.047  1.00 35.01     0.027 A 
ATOM     15  CD1 TYR A 136      37.752  38.850  11.716  1.00 33.57    -0.002 A 
ENDBRANCH   8   9
ENDBRANCH   7   8
END_RES TYR A 136
BEGIN_RES ASN A 133
REMARK  2 active torsions:
REMARK  status: ('A' for Active; 'I' for Inactive)
REMARK    7  A    between atoms: CA   and  CB  
REMARK    8  A    between atoms: CB   and  CG  
ROOT
ATOM     16  CA  ASN A 133      31.225  30.257  11.749  1.00 18.15     0.196 C 
ENDROOT
BRANCH  16  17
ATOM     17  CB  ASN A 133      30.092  31.240  11.460  1.00 18.27     0.126 C 
BRANCH  17  18
ATOM     18  CG  ASN A 133      28.748  30.585  11.374  1.00 18.94     0.276 C 
ATOM     19  OD1 ASN A 133      28.562  29.603  10.654  1.00 18.09    -0.269 OA
ATOM     20  ND2 ASN A 133      27.785  31.131  12.116  1.00 18.93    -0.107 N 
ENDBRANCH  17  18
ENDBRANCH  16  17
END_RES ASN A 133
