REMARK VINA RESULT:    -3.850      7.932     11.113
REMARK INTER + INTRA:          -7.157
REMARK INTER:                  -3.996
REMARK INTRA:                  -3.161
REMARK UNBOUND:                -3.081
REMARK SMILES Cc1cn(-c2cccc(Cl)c2)nn1
REMARK SMILES IDX 5 1 6 2 7 3 8 4 9 5 10 6 11 7 4 8 1 9 2 10 3 11 13 12 12 13
REMARK H PARENT
REMARK Flexibility Score: inf
ROOT
ATOM      1  C   UNL     1      35.141  39.153   5.803  1.00  0.00     0.068 A 
ATOM      2  C   UNL     1      35.713  39.400   7.024  1.00  0.00     0.028 A 
ATOM      3  C   UNL     1      34.995  39.979   8.042  1.00  0.00     0.004 A 
ATOM      4  C   UNL     1      33.673  40.313   7.813  1.00  0.00     0.020 A 
ATOM      5  C   UNL     1      33.056  40.084   6.601  1.00  0.00     0.043 A 
ATOM      6  Cl  UNL     1      31.364  40.518   6.327  1.00  0.00    -0.084 Cl
ATOM      7  C   UNL     1      33.819  39.501   5.611  1.00  0.00     0.049 A 
ENDROOT
BRANCH   1   8
ATOM      8  N   UNL     1      35.878  38.546   4.723  1.00  0.00    -0.220 N 
ATOM      9  C   UNL     1      36.721  37.518   1.364  1.00  0.00     0.070 C 
ATOM     10  C   UNL     1      36.580  37.828   2.793  1.00  0.00     0.080 A 
ATOM     11  C   UNL     1      35.581  38.517   3.428  1.00  0.00     0.140 A 
ATOM     12  N   UNL     1      37.444  37.469   3.759  1.00  0.00    -0.135 NA
ATOM     13  N   UNL     1      37.017  37.904   4.925  1.00  0.00    -0.062 NA
ENDBRANCH   1   8
TORSDOF 1
BEGIN_RES LYS A 135
REMARK  4 active torsions:
REMARK  status: ('A' for Active; 'I' for Inactive)
REMARK    1  A    between atoms: CA   and  CB  
REMARK    2  A    between atoms: CB   and  CG  
REMARK    3  A    between atoms: CG   and  CD  
REMARK    4  A    between atoms: CD   and  CE  
ROOT
ATOM      1  CA  LYS A 135      33.193  34.663   9.290  1.00 25.02     0.186 C 
ENDROOT
BRANCH   1   2
ATOM      2  CB  LYS A 135      32.060  35.360  10.034  1.00 26.63     0.034 C 
BRANCH   2   3
ATOM      3  CG  LYS A 135      30.696  34.806   9.711  1.00 29.45     0.005 C 
BRANCH   3   4
ATOM      4  CD  LYS A 135      30.597  34.452   8.235  1.00 32.00     0.041 C 
BRANCH   4   5
ATOM      5  CE  LYS A 135      29.376  35.103   7.613  1.00 34.25     0.338 C 
ATOM      6  NZ  LYS A 135      28.125  34.640   8.276  1.00 35.99     0.618 N 
ENDBRANCH   4   5
ENDBRANCH   3   4
ENDBRANCH   2   3
ENDBRANCH   1   2
END_RES LYS A 135
BEGIN_RES TYR A 136
REMARK  2 active torsions:
REMARK  status: ('A' for Active; 'I' for Inactive)
REMARK    5  A    between atoms: CA   and  CB  
REMARK    6  A    between atoms: CB   and  CG  
ROOT
ATOM      7  CA  TYR A 136      36.583  36.399   8.994  1.00 26.14     0.191 C 
ENDROOT
BRANCH   7   8
ATOM      8  CB  TYR A 136      37.367  36.835  10.240  1.00 28.16     0.060 C 
BRANCH   8   9
ATOM      9  CG  TYR A 136      37.206  38.305  10.542  1.00 31.88    -0.020 A 
ATOM     10  CD2 TYR A 136      38.095  39.250  10.025  1.00 32.67    -0.002 A 
ATOM     11  CE2 TYR A 136      37.938  40.613  10.313  1.00 33.89     0.027 A 
ATOM     12  CZ  TYR A 136      36.882  41.033  11.126  1.00 34.34     0.131 A 
ATOM     13  OH  TYR A 136      36.703  42.378  11.418  1.00 35.14    -0.190 OA
ATOM     14  CE1 TYR A 136      35.990  40.107  11.648  1.00 35.01     0.027 A 
ATOM     15  CD1 TYR A 136      36.161  38.752  11.360  1.00 33.57    -0.002 A 
ENDBRANCH   8   9
ENDBRANCH   7   8
END_RES TYR A 136
BEGIN_RES ASN A 133
REMARK  2 active torsions:
REMARK  status: ('A' for Active; 'I' for Inactive)
REMARK    7  A    between atoms: CA   and  CB  
REMARK    8  A    between atoms: CB   and  CG  
ROOT
ATOM     16  CA  ASN A 133      31.225  30.257  11.749  1.00 18.15     0.196 C 
ENDROOT
BRANCH  16  17
ATOM     17  CB  ASN A 133      30.092  31.240  11.460  1.00 18.27     0.126 C 
BRANCH  17  18
ATOM     18  CG  ASN A 133      28.751  30.583  11.356  1.00 18.94     0.276 C 
ATOM     19  OD1 ASN A 133      28.575  29.603  10.629  1.00 18.09    -0.269 OA
ATOM     20  ND2 ASN A 133      27.778  31.124  12.089  1.00 18.93    -0.107 N 
ENDBRANCH  17  18
ENDBRANCH  16  17
END_RES ASN A 133
