REMARK VINA RESULT:    -4.841      2.332      4.006
REMARK INTER + INTRA:          -7.119
REMARK INTER:                  -4.117
REMARK INTRA:                  -3.002
REMARK UNBOUND:                -1.996
REMARK SMILES Cc1cn(-c2ccccc2I)nn1
REMARK SMILES IDX 5 1 6 2 7 3 8 4 9 5 10 6 11 7 4 8 1 9 2 10 3 11 13 12 12 13
REMARK H PARENT
REMARK Flexibility Score: inf
ROOT
ATOM      1  C   UNL     1      37.930  34.170  14.577  1.00  0.00     0.080 A 
ATOM      2  C   UNL     1      38.115  33.286  13.534  1.00  0.00     0.029 A 
ATOM      3  C   UNL     1      37.225  33.196  12.475  1.00  0.00     0.002 A 
ATOM      4  C   UNL     1      36.101  34.016  12.445  1.00  0.00     0.001 A 
ATOM      5  C   UNL     1      35.898  34.908  13.481  1.00  0.00     0.017 A 
ATOM      6  C   UNL     1      36.799  34.977  14.522  1.00  0.00     0.039 A 
ATOM      7  I   UNL     1      36.459  36.349  16.087  1.00  0.00    -0.042 I 
ENDROOT
BRANCH   1   8
ATOM      8  N   UNL     1      38.860  34.248  15.661  1.00  0.00    -0.219 N 
ATOM      9  C   UNL     1      41.790  35.241  17.561  1.00  0.00     0.070 C 
ATOM     10  C   UNL     1      40.522  34.689  16.989  1.00  0.00     0.080 A 
ATOM     11  C   UNL     1      39.988  34.945  15.751  1.00  0.00     0.140 A 
ATOM     12  N   UNL     1      39.681  33.838  17.601  1.00  0.00    -0.135 NA
ATOM     13  N   UNL     1      38.691  33.584  16.794  1.00  0.00    -0.062 NA
ENDBRANCH   1   8
TORSDOF 1
BEGIN_RES LYS A 135
REMARK  4 active torsions:
REMARK  status: ('A' for Active; 'I' for Inactive)
REMARK    1  A    between atoms: CA   and  CB  
REMARK    2  A    between atoms: CB   and  CG  
REMARK    3  A    between atoms: CG   and  CD  
REMARK    4  A    between atoms: CD   and  CE  
ROOT
ATOM      1  CA  LYS A 135      33.193  34.663   9.290  1.00 25.02     0.186 C 
ENDROOT
BRANCH   1   2
ATOM      2  CB  LYS A 135      32.060  35.360  10.034  1.00 26.63     0.034 C 
BRANCH   2   3
ATOM      3  CG  LYS A 135      30.732  34.660   9.901  1.00 29.45     0.005 C 
BRANCH   3   4
ATOM      4  CD  LYS A 135      30.327  34.551   8.440  1.00 32.00     0.041 C 
BRANCH   4   5
ATOM      5  CE  LYS A 135      28.816  34.531   8.306  1.00 34.25     0.338 C 
ATOM      6  NZ  LYS A 135      28.186  33.814   9.449  1.00 35.99     0.618 N 
ENDBRANCH   4   5
ENDBRANCH   3   4
ENDBRANCH   2   3
ENDBRANCH   1   2
END_RES LYS A 135
BEGIN_RES TYR A 136
REMARK  2 active torsions:
REMARK  status: ('A' for Active; 'I' for Inactive)
REMARK    5  A    between atoms: CA   and  CB  
REMARK    6  A    between atoms: CB   and  CG  
ROOT
ATOM      7  CA  TYR A 136      36.583  36.399   8.994  1.00 26.14     0.191 C 
ENDROOT
BRANCH   7   8
ATOM      8  CB  TYR A 136      37.367  36.835  10.240  1.00 28.16     0.060 C 
BRANCH   8   9
ATOM      9  CG  TYR A 136      36.781  38.062  10.895  1.00 31.88    -0.020 A 
ATOM     10  CD2 TYR A 136      36.164  39.060  10.138  1.00 32.67    -0.002 A 
ATOM     11  CE2 TYR A 136      35.624  40.197  10.755  1.00 33.89     0.027 A 
ATOM     12  CZ  TYR A 136      35.702  40.335  12.143  1.00 34.34     0.131 A 
ATOM     13  OH  TYR A 136      35.168  41.448  12.777  1.00 35.14    -0.190 OA
ATOM     14  CE1 TYR A 136      36.312  39.353  12.911  1.00 35.01     0.027 A 
ATOM     15  CD1 TYR A 136      36.852  38.229  12.284  1.00 33.57    -0.002 A 
ENDBRANCH   8   9
ENDBRANCH   7   8
END_RES TYR A 136
BEGIN_RES ASN A 133
REMARK  2 active torsions:
REMARK  status: ('A' for Active; 'I' for Inactive)
REMARK    7  A    between atoms: CA   and  CB  
REMARK    8  A    between atoms: CB   and  CG  
ROOT
ATOM     16  CA  ASN A 133      31.225  30.257  11.749  1.00 18.15     0.196 C 
ENDROOT
BRANCH  16  17
ATOM     17  CB  ASN A 133      30.092  31.240  11.460  1.00 18.27     0.126 C 
BRANCH  17  18
ATOM     18  CG  ASN A 133      28.759  30.577  11.305  1.00 18.94     0.276 C 
ATOM     19  OD1 ASN A 133      28.614  29.599  10.568  1.00 18.09    -0.269 OA
ATOM     20  ND2 ASN A 133      27.758  31.110  12.004  1.00 18.93    -0.107 N 
ENDBRANCH  17  18
ENDBRANCH  16  17
END_RES ASN A 133
