REMARK VINA RESULT:    -5.052      2.294      3.550
REMARK INTER + INTRA:          -8.333
REMARK INTER:                  -5.234
REMARK INTRA:                  -3.099
REMARK UNBOUND:                -2.985
REMARK SMILES Cc1cn(-c2c3ccccc3nc3ccccc23)nn1
REMARK SMILES IDX 5 1 6 2 7 3 8 4 9 5 10 6 11 7 12 8 13 9 14 10 15 11 16 12
REMARK SMILES IDX 17 13 18 14 4 15 1 16 2 17 3 18 20 19 19 20
REMARK H PARENT
REMARK Flexibility Score: inf
ROOT
ATOM      1  C   UNL     1      38.964  34.942  13.943  1.00  0.00     0.085 A 
ATOM      2  C   UNL     1      39.299  34.568  15.233  1.00  0.00     0.027 A 
ATOM      3  C   UNL     1      38.339  34.082  16.094  1.00  0.00     0.012 A 
ATOM      4  C   UNL     1      38.700  33.716  17.374  1.00  0.00     0.001 A 
ATOM      5  C   UNL     1      40.021  33.853  17.739  1.00  0.00     0.002 A 
ATOM      6  C   UNL     1      40.971  34.335  16.879  1.00  0.00     0.029 A 
ATOM      7  C   UNL     1      40.626  34.711  15.580  1.00  0.00     0.073 A 
ATOM      8  N   UNL     1      41.573  35.182  14.755  1.00  0.00    -0.248 NA
ATOM      9  C   UNL     1      41.249  35.554  13.481  1.00  0.00     0.073 A 
ATOM     10  C   UNL     1      42.218  36.039  12.623  1.00  0.00     0.029 A 
ATOM     11  C   UNL     1      41.827  36.397  11.351  1.00  0.00     0.002 A 
ATOM     12  C   UNL     1      40.515  36.280  10.934  1.00  0.00     0.001 A 
ATOM     13  C   UNL     1      39.578  35.800  11.791  1.00  0.00     0.012 A 
ATOM     14  C   UNL     1      39.943  35.436  13.067  1.00  0.00     0.027 A 
ENDROOT
BRANCH   1  15
ATOM     15  N   UNL     1      37.625  34.834  13.485  1.00  0.00    -0.219 N 
ATOM     16  C   UNL     1      34.221  36.008  12.783  1.00  0.00     0.070 C 
ATOM     17  C   UNL     1      35.529  35.282  12.965  1.00  0.00     0.080 A 
ATOM     18  C   UNL     1      36.692  35.792  13.496  1.00  0.00     0.140 A 
ATOM     19  N   UNL     1      35.781  34.008  12.640  1.00  0.00    -0.135 NA
ATOM     20  N   UNL     1      37.036  33.784  12.966  1.00  0.00    -0.062 NA
ENDBRANCH   1  15
TORSDOF 1
BEGIN_RES LYS A 135
REMARK  4 active torsions:
REMARK  status: ('A' for Active; 'I' for Inactive)
REMARK    1  A    between atoms: CA   and  CB  
REMARK    2  A    between atoms: CB   and  CG  
REMARK    3  A    between atoms: CG   and  CD  
REMARK    4  A    between atoms: CD   and  CE  
ROOT
ATOM      1  CA  LYS A 135      33.193  34.663   9.290  1.00 25.02     0.186 C 
ENDROOT
BRANCH   1   2
ATOM      2  CB  LYS A 135      32.060  35.360  10.034  1.00 26.63     0.034 C 
BRANCH   2   3
ATOM      3  CG  LYS A 135      30.801  35.502   9.218  1.00 29.45     0.005 C 
BRANCH   3   4
ATOM      4  CD  LYS A 135      30.107  34.157   9.063  1.00 32.00     0.041 C 
BRANCH   4   5
ATOM      5  CE  LYS A 135      28.656  34.349   8.668  1.00 34.25     0.338 C 
ATOM      6  NZ  LYS A 135      27.745  33.652   9.617  1.00 35.99     0.618 N 
ENDBRANCH   4   5
ENDBRANCH   3   4
ENDBRANCH   2   3
ENDBRANCH   1   2
END_RES LYS A 135
BEGIN_RES TYR A 136
REMARK  2 active torsions:
REMARK  status: ('A' for Active; 'I' for Inactive)
REMARK    5  A    between atoms: CA   and  CB  
REMARK    6  A    between atoms: CB   and  CG  
ROOT
ATOM      7  CA  TYR A 136      36.583  36.399   8.994  1.00 26.14     0.191 C 
ENDROOT
BRANCH   7   8
ATOM      8  CB  TYR A 136      37.367  36.835  10.240  1.00 28.16     0.060 C 
BRANCH   8   9
ATOM      9  CG  TYR A 136      37.123  38.279  10.603  1.00 31.88    -0.020 A 
ATOM     10  CD2 TYR A 136      36.305  39.094   9.817  1.00 32.67    -0.002 A 
ATOM     11  CE2 TYR A 136      36.086  40.435  10.162  1.00 33.89     0.027 A 
ATOM     12  CZ  TYR A 136      36.692  40.965  11.304  1.00 34.34     0.131 A 
ATOM     13  OH  TYR A 136      36.484  42.288  11.669  1.00 35.14    -0.190 OA
ATOM     14  CE1 TYR A 136      37.509  40.170  12.095  1.00 35.01     0.027 A 
ATOM     15  CD1 TYR A 136      37.724  38.838  11.738  1.00 33.57    -0.002 A 
ENDBRANCH   8   9
ENDBRANCH   7   8
END_RES TYR A 136
BEGIN_RES ASN A 133
REMARK  2 active torsions:
REMARK  status: ('A' for Active; 'I' for Inactive)
REMARK    7  A    between atoms: CA   and  CB  
REMARK    8  A    between atoms: CB   and  CG  
ROOT
ATOM     16  CA  ASN A 133      31.225  30.257  11.749  1.00 18.15     0.196 C 
ENDROOT
BRANCH  16  17
ATOM     17  CB  ASN A 133      30.092  31.240  11.460  1.00 18.27     0.126 C 
BRANCH  17  18
ATOM     18  CG  ASN A 133      28.749  30.584  11.366  1.00 18.94     0.276 C 
ATOM     19  OD1 ASN A 133      28.561  29.620  10.621  1.00 18.09    -0.269 OA
ATOM     20  ND2 ASN A 133      27.790  31.108  12.128  1.00 18.93    -0.107 N 
ENDBRANCH  17  18
ENDBRANCH  16  17
END_RES ASN A 133
