REMARK VINA RESULT:    -4.224      5.221      8.935
REMARK INTER + INTRA:          -7.858
REMARK INTER:                  -5.548
REMARK INTRA:                  -2.310
REMARK UNBOUND:                -3.139
REMARK SMILES Cc1cn(-c2cc(Cl)ccc2C(=O)N(C)C)nn1
REMARK SMILES IDX 5 1 6 2 7 3 8 4 9 5 10 6 11 7 4 8 1 9 2 10 3 11 18 12 17 13
REMARK SMILES IDX 12 14 13 15 14 16 15 17 16 18
REMARK H PARENT
REMARK Flexibility Score: inf
ROOT
ATOM      1  C   UNL     1      26.752  38.158   6.924  1.00  0.00     0.081 A 
ATOM      2  C   UNL     1      26.480  37.019   7.693  1.00  0.00     0.049 A 
ATOM      3  C   UNL     1      27.122  35.828   7.434  1.00  0.00     0.043 A 
ATOM      4  Cl  UNL     1      26.767  34.405   8.409  1.00  0.00    -0.084 Cl
ATOM      5  C   UNL     1      28.044  35.729   6.414  1.00  0.00     0.021 A 
ATOM      6  C   UNL     1      28.309  36.850   5.662  1.00  0.00     0.017 A 
ATOM      7  C   UNL     1      27.672  38.031   5.919  1.00  0.00     0.065 A 
ENDROOT
BRANCH   1   8
ATOM      8  N   UNL     1      26.084  39.382   7.202  1.00  0.00    -0.220 N 
ATOM      9  C   UNL     1      23.354  41.824   7.027  1.00  0.00     0.070 C 
ATOM     10  C   UNL     1      24.594  41.026   7.267  1.00  0.00     0.080 A 
ATOM     11  C   UNL     1      24.880  39.753   6.762  1.00  0.00     0.140 A 
ATOM     12  N   UNL     1      25.667  41.357   7.999  1.00  0.00    -0.135 NA
ATOM     13  N   UNL     1      26.527  40.362   7.938  1.00  0.00    -0.062 NA
ENDBRANCH   1   8
BRANCH   7  14
ATOM     14  C   UNL     1      27.977  39.207   5.099  1.00  0.00     0.255 C 
ATOM     15  O   UNL     1      27.299  39.488   4.083  1.00  0.00    -0.269 OA
ATOM     16  N   UNL     1      29.074  40.026   5.491  1.00  0.00    -0.345 N 
ATOM     17  C   UNL     1      29.397  41.210   4.682  1.00  0.00     0.146 C 
ATOM     18  C   UNL     1      29.872  39.738   6.643  1.00  0.00     0.146 C 
ENDBRANCH   7  14
TORSDOF 2
BEGIN_RES LYS A 135
REMARK  4 active torsions:
REMARK  status: ('A' for Active; 'I' for Inactive)
REMARK    1  A    between atoms: CA   and  CB  
REMARK    2  A    between atoms: CB   and  CG  
REMARK    3  A    between atoms: CG   and  CD  
REMARK    4  A    between atoms: CD   and  CE  
ROOT
ATOM      1  CA  LYS A 135      33.193  34.663   9.290  1.00 25.02     0.186 C 
ENDROOT
BRANCH   1   2
ATOM      2  CB  LYS A 135      32.060  35.360  10.034  1.00 26.63     0.034 C 
BRANCH   2   3
ATOM      3  CG  LYS A 135      30.783  35.450   9.239  1.00 29.45     0.005 C 
BRANCH   3   4
ATOM      4  CD  LYS A 135      30.453  36.899   8.915  1.00 32.00     0.041 C 
BRANCH   4   5
ATOM      5  CE  LYS A 135      29.429  37.444   9.892  1.00 34.25     0.338 C 
ATOM      6  NZ  LYS A 135      28.762  36.342  10.640  1.00 35.99     0.618 N 
ENDBRANCH   4   5
ENDBRANCH   3   4
ENDBRANCH   2   3
ENDBRANCH   1   2
END_RES LYS A 135
BEGIN_RES TYR A 136
REMARK  2 active torsions:
REMARK  status: ('A' for Active; 'I' for Inactive)
REMARK    5  A    between atoms: CA   and  CB  
REMARK    6  A    between atoms: CB   and  CG  
ROOT
ATOM      7  CA  TYR A 136      36.583  36.399   8.994  1.00 26.14     0.191 C 
ENDROOT
BRANCH   7   8
ATOM      8  CB  TYR A 136      37.367  36.835  10.240  1.00 28.16     0.060 C 
BRANCH   8   9
ATOM      9  CG  TYR A 136      37.194  38.301  10.551  1.00 31.88    -0.020 A 
ATOM     10  CD2 TYR A 136      37.449  38.805  11.828  1.00 32.67    -0.002 A 
ATOM     11  CE2 TYR A 136      37.284  40.168  12.107  1.00 33.89     0.027 A 
ATOM     12  CZ  TYR A 136      36.858  41.036  11.098  1.00 34.34     0.131 A 
ATOM     13  OH  TYR A 136      36.694  42.391  11.350  1.00 35.14    -0.190 OA
ATOM     14  CE1 TYR A 136      36.598  40.553   9.824  1.00 35.01     0.027 A 
ATOM     15  CD1 TYR A 136      36.761  39.192   9.560  1.00 33.57    -0.002 A 
ENDBRANCH   8   9
ENDBRANCH   7   8
END_RES TYR A 136
BEGIN_RES ASN A 133
REMARK  2 active torsions:
REMARK  status: ('A' for Active; 'I' for Inactive)
REMARK    7  A    between atoms: CA   and  CB  
REMARK    8  A    between atoms: CB   and  CG  
ROOT
ATOM     16  CA  ASN A 133      31.225  30.257  11.749  1.00 18.15     0.196 C 
ENDROOT
BRANCH  16  17
ATOM     17  CB  ASN A 133      30.092  31.240  11.460  1.00 18.27     0.126 C 
BRANCH  17  18
ATOM     18  CG  ASN A 133      28.750  30.583  11.358  1.00 18.94     0.276 C 
ATOM     19  OD1 ASN A 133      28.574  29.602  10.633  1.00 18.09    -0.269 OA
ATOM     20  ND2 ASN A 133      27.779  31.125  12.091  1.00 18.93    -0.107 N 
ENDBRANCH  17  18
ENDBRANCH  16  17
END_RES ASN A 133
