REMARK VINA RESULT:    -3.677      6.316      9.238
REMARK INTER + INTRA:          -6.971
REMARK INTER:                  -3.831
REMARK INTRA:                  -3.139
REMARK UNBOUND:                -3.079
REMARK SMILES Cc1cn(-c2ccc(Br)cc2)nn1
REMARK SMILES IDX 5 1 6 2 7 3 8 4 9 5 10 6 11 7 4 8 1 9 2 10 3 11 13 12 12 13
REMARK H PARENT
REMARK Flexibility Score: inf
ROOT
ATOM      1  C   UNL     1      35.460  38.855   4.028  1.00  0.00     0.066 A 
ATOM      2  C   UNL     1      34.685  39.446   3.029  1.00  0.00     0.029 A 
ATOM      3  C   UNL     1      33.515  40.084   3.314  1.00  0.00     0.018 A 
ATOM      4  C   UNL     1      33.101  40.139   4.622  1.00  0.00     0.018 A 
ATOM      5  Br  UNL     1      31.462  41.032   5.026  1.00  0.00    -0.051 Br
ATOM      6  C   UNL     1      33.834  39.568   5.649  1.00  0.00     0.018 A 
ATOM      7  C   UNL     1      35.015  38.928   5.333  1.00  0.00     0.029 A 
ENDROOT
BRANCH   1   8
ATOM      8  N   UNL     1      36.671  38.197   3.719  1.00  0.00    -0.220 N 
ATOM      9  C   UNL     1      39.805  36.364   4.195  1.00  0.00     0.070 C 
ATOM     10  C   UNL     1      38.595  37.098   3.754  1.00  0.00     0.080 A 
ATOM     11  C   UNL     1      37.575  37.603   4.513  1.00  0.00     0.140 A 
ATOM     12  N   UNL     1      38.277  37.405   2.478  1.00  0.00    -0.135 NA
ATOM     13  N   UNL     1      37.126  38.061   2.481  1.00  0.00    -0.062 NA
ENDBRANCH   1   8
TORSDOF 1
BEGIN_RES LYS A 135
REMARK  4 active torsions:
REMARK  status: ('A' for Active; 'I' for Inactive)
REMARK    1  A    between atoms: CA   and  CB  
REMARK    2  A    between atoms: CB   and  CG  
REMARK    3  A    between atoms: CG   and  CD  
REMARK    4  A    between atoms: CD   and  CE  
ROOT
ATOM      1  CA  LYS A 135      33.193  34.663   9.290  1.00 25.02     0.186 C 
ENDROOT
BRANCH   1   2
ATOM      2  CB  LYS A 135      32.060  35.360  10.034  1.00 26.63     0.034 C 
BRANCH   2   3
ATOM      3  CG  LYS A 135      30.735  34.651   9.915  1.00 29.45     0.005 C 
BRANCH   3   4
ATOM      4  CD  LYS A 135      30.427  34.331   8.460  1.00 32.00     0.041 C 
BRANCH   4   5
ATOM      5  CE  LYS A 135      29.014  34.756   8.109  1.00 34.25     0.338 C 
ATOM      6  NZ  LYS A 135      28.983  35.505   6.823  1.00 35.99     0.618 N 
ENDBRANCH   4   5
ENDBRANCH   3   4
ENDBRANCH   2   3
ENDBRANCH   1   2
END_RES LYS A 135
BEGIN_RES TYR A 136
REMARK  2 active torsions:
REMARK  status: ('A' for Active; 'I' for Inactive)
REMARK    5  A    between atoms: CA   and  CB  
REMARK    6  A    between atoms: CB   and  CG  
ROOT
ATOM      7  CA  TYR A 136      36.583  36.399   8.994  1.00 26.14     0.191 C 
ENDROOT
BRANCH   7   8
ATOM      8  CB  TYR A 136      37.367  36.835  10.240  1.00 28.16     0.060 C 
BRANCH   8   9
ATOM      9  CG  TYR A 136      37.330  38.328  10.456  1.00 31.88    -0.020 A 
ATOM     10  CD2 TYR A 136      38.148  38.941  11.407  1.00 32.67    -0.002 A 
ATOM     11  CE2 TYR A 136      38.105  40.329  11.601  1.00 33.89     0.027 A 
ATOM     12  CZ  TYR A 136      37.235  41.110  10.836  1.00 34.34     0.131 A 
ATOM     13  OH  TYR A 136      37.180  42.486  11.006  1.00 35.14    -0.190 OA
ATOM     14  CE1 TYR A 136      36.415  40.517   9.887  1.00 35.01     0.027 A 
ATOM     15  CD1 TYR A 136      36.462  39.133   9.707  1.00 33.57    -0.002 A 
ENDBRANCH   8   9
ENDBRANCH   7   8
END_RES TYR A 136
BEGIN_RES ASN A 133
REMARK  2 active torsions:
REMARK  status: ('A' for Active; 'I' for Inactive)
REMARK    7  A    between atoms: CA   and  CB  
REMARK    8  A    between atoms: CB   and  CG  
ROOT
ATOM     16  CA  ASN A 133      31.225  30.257  11.749  1.00 18.15     0.196 C 
ENDROOT
BRANCH  16  17
ATOM     17  CB  ASN A 133      30.092  31.240  11.460  1.00 18.27     0.126 C 
BRANCH  17  18
ATOM     18  CG  ASN A 133      28.754  30.580  11.333  1.00 18.94     0.276 C 
ATOM     19  OD1 ASN A 133      28.589  29.610  10.590  1.00 18.09    -0.269 OA
ATOM     20  ND2 ASN A 133      27.772  31.107  12.064  1.00 18.93    -0.107 N 
ENDBRANCH  17  18
ENDBRANCH  16  17
END_RES ASN A 133
