REMARK VINA RESULT:    -5.616      1.403      3.245
REMARK INTER + INTRA:          -9.325
REMARK INTER:                  -5.903
REMARK INTRA:                  -3.422
REMARK UNBOUND:                -3.381
REMARK SMILES Cc1cn(C2c3ccccc3-c3ccccc32)nn1
REMARK SMILES IDX 5 1 6 2 7 3 8 4 9 5 10 6 11 7 12 8 13 9 14 10 15 11 16 12
REMARK SMILES IDX 17 13 4 14 1 15 2 16 3 17 19 18 18 19
REMARK H PARENT
REMARK Flexibility Score: inf
ROOT
ATOM      1  C   UNL     1      34.611  34.970  14.304  1.00  0.00     0.170 C 
ATOM      2  C   UNL     1      35.089  35.845  15.383  1.00  0.00    -0.011 A 
ATOM      3  C   UNL     1      34.361  36.500  16.365  1.00  0.00     0.007 A 
ATOM      4  C   UNL     1      35.014  37.282  17.294  1.00  0.00     0.000 A 
ATOM      5  C   UNL     1      36.395  37.397  17.225  1.00  0.00     0.001 A 
ATOM      6  C   UNL     1      37.124  36.743  16.244  1.00  0.00     0.009 A 
ATOM      7  C   UNL     1      36.451  35.962  15.322  1.00  0.00    -0.012 A 
ATOM      8  C   UNL     1      36.909  35.168  14.199  1.00  0.00    -0.012 A 
ATOM      9  C   UNL     1      38.217  34.972  13.732  1.00  0.00     0.009 A 
ATOM     10  C   UNL     1      38.400  34.169  12.642  1.00  0.00     0.001 A 
ATOM     11  C   UNL     1      37.355  33.544  11.982  1.00  0.00     0.000 A 
ATOM     12  C   UNL     1      36.102  33.769  12.479  1.00  0.00     0.007 A 
ATOM     13  C   UNL     1      35.834  34.574  13.587  1.00  0.00    -0.011 A 
ENDROOT
BRANCH   1  14
ATOM     14  N   UNL     1      33.638  35.608  13.482  1.00  0.00    -0.240 N 
ATOM     15  C   UNL     1      32.510  38.100  11.089  1.00  0.00     0.070 C 
ATOM     16  C   UNL     1      32.674  36.989  12.052  1.00  0.00     0.080 A 
ATOM     17  C   UNL     1      33.864  36.661  12.685  1.00  0.00     0.135 A 
ATOM     18  N   UNL     1      31.771  36.113  12.496  1.00  0.00    -0.136 NA
ATOM     19  N   UNL     1      32.369  35.281  13.362  1.00  0.00    -0.066 NA
ENDBRANCH   1  14
TORSDOF 1
BEGIN_RES LYS A 135
REMARK  4 active torsions:
REMARK  status: ('A' for Active; 'I' for Inactive)
REMARK    1  A    between atoms: CA   and  CB  
REMARK    2  A    between atoms: CB   and  CG  
REMARK    3  A    between atoms: CG   and  CD  
REMARK    4  A    between atoms: CD   and  CE  
ROOT
ATOM      1  CA  LYS A 135      33.193  34.663   9.290  1.00 25.02     0.186 C 
ENDROOT
BRANCH   1   2
ATOM      2  CB  LYS A 135      32.060  35.360  10.034  1.00 26.63     0.034 C 
BRANCH   2   3
ATOM      3  CG  LYS A 135      30.807  35.518   9.212  1.00 29.45     0.005 C 
BRANCH   3   4
ATOM      4  CD  LYS A 135      30.176  34.164   8.929  1.00 32.00     0.041 C 
BRANCH   4   5
ATOM      5  CE  LYS A 135      28.702  34.320   8.607  1.00 34.25     0.338 C 
ATOM      6  NZ  LYS A 135      27.854  33.706   9.666  1.00 35.99     0.618 N 
ENDBRANCH   4   5
ENDBRANCH   3   4
ENDBRANCH   2   3
ENDBRANCH   1   2
END_RES LYS A 135
BEGIN_RES TYR A 136
REMARK  2 active torsions:
REMARK  status: ('A' for Active; 'I' for Inactive)
REMARK    5  A    between atoms: CA   and  CB  
REMARK    6  A    between atoms: CB   and  CG  
ROOT
ATOM      7  CA  TYR A 136      36.583  36.399   8.994  1.00 26.14     0.191 C 
ENDROOT
BRANCH   7   8
ATOM      8  CB  TYR A 136      37.367  36.835  10.240  1.00 28.16     0.060 C 
BRANCH   8   9
ATOM      9  CG  TYR A 136      36.779  38.060  10.896  1.00 31.88    -0.020 A 
ATOM     10  CD2 TYR A 136      36.919  38.283  12.268  1.00 32.67    -0.002 A 
ATOM     11  CE2 TYR A 136      36.367  39.423  12.868  1.00 33.89     0.027 A 
ATOM     12  CZ  TYR A 136      35.669  40.349  12.088  1.00 34.34     0.131 A 
ATOM     13  OH  TYR A 136      35.121  41.488  12.660  1.00 35.14    -0.190 OA
ATOM     14  CE1 TYR A 136      35.520  40.142  10.725  1.00 35.01     0.027 A 
ATOM     15  CD1 TYR A 136      36.068  39.000  10.139  1.00 33.57    -0.002 A 
ENDBRANCH   8   9
ENDBRANCH   7   8
END_RES TYR A 136
BEGIN_RES ASN A 133
REMARK  2 active torsions:
REMARK  status: ('A' for Active; 'I' for Inactive)
REMARK    7  A    between atoms: CA   and  CB  
REMARK    8  A    between atoms: CB   and  CG  
ROOT
ATOM     16  CA  ASN A 133      31.225  30.257  11.749  1.00 18.15     0.196 C 
ENDROOT
BRANCH  16  17
ATOM     17  CB  ASN A 133      30.092  31.240  11.460  1.00 18.27     0.126 C 
BRANCH  17  18
ATOM     18  CG  ASN A 133      28.749  30.585  11.370  1.00 18.94     0.276 C 
ATOM     19  OD1 ASN A 133      28.557  29.621  10.626  1.00 18.09    -0.269 OA
ATOM     20  ND2 ASN A 133      27.792  31.108  12.136  1.00 18.93    -0.107 N 
ENDBRANCH  17  18
ENDBRANCH  16  17
END_RES ASN A 133
