REMARK VINA RESULT:    -4.731      4.111      9.239
REMARK INTER + INTRA:          -8.007
REMARK INTER:                  -5.098
REMARK INTRA:                  -2.908
REMARK UNBOUND:                -2.723
REMARK SMILES Cc1cn(-c2ncn3c2c(=O)n(C(C)C)c2ccccc23)nn1
REMARK SMILES IDX 5 1 6 2 7 3 8 4 21 5 20 6 19 7 18 8 17 9 16 10 12 11 10 12
REMARK SMILES IDX 11 13 9 14 4 15 1 16 2 17 3 18 23 19 22 20 13 21 14 22 15 23
REMARK H PARENT
REMARK Flexibility Score: inf
ROOT
ATOM      1  C   UNL     1      27.740  38.774   8.270  1.00  0.00     0.186 A 
ATOM      2  N   UNL     1      27.171  39.483   7.284  1.00  0.00    -0.216 NA
ATOM      3  C   UNL     1      25.899  39.100   7.090  1.00  0.00     0.207 A 
ATOM      4  N   UNL     1      25.648  38.111   7.985  1.00  0.00    -0.291 N 
ATOM      5  C   UNL     1      24.546  37.364   8.241  1.00  0.00     0.071 A 
ATOM      6  C   UNL     1      23.445  37.638   7.462  1.00  0.00     0.029 A 
ATOM      7  C   UNL     1      22.311  36.897   7.705  1.00  0.00     0.002 A 
ATOM      8  C   UNL     1      22.270  35.928   8.677  1.00  0.00     0.002 A 
ATOM      9  C   UNL     1      23.374  35.670   9.440  1.00  0.00     0.028 A 
ATOM     10  C   UNL     1      24.522  36.396   9.218  1.00  0.00     0.068 A 
ATOM     11  N   UNL     1      25.671  36.202   9.943  1.00  0.00    -0.302 N 
ATOM     12  C   UNL     1      26.771  36.935   9.701  1.00  0.00     0.279 A 
ATOM     13  O   UNL     1      27.857  36.814  10.326  1.00  0.00    -0.267 OA
ATOM     14  C   UNL     1      26.763  37.899   8.713  1.00  0.00     0.158 A 
ENDROOT
BRANCH   1  15
ATOM     15  N   UNL     1      29.087  38.889   8.771  1.00  0.00    -0.200 N 
ATOM     16  C   UNL     1      31.714  40.200  10.911  1.00  0.00     0.070 C 
ATOM     17  C   UNL     1      30.855  39.495   9.916  1.00  0.00     0.080 A 
ATOM     18  C   UNL     1      29.510  39.700   9.758  1.00  0.00     0.142 A 
ATOM     19  N   UNL     1      31.226  38.572   9.031  1.00  0.00    -0.135 NA
ATOM     20  N   UNL     1      30.145  38.219   8.349  1.00  0.00    -0.061 NA
ENDBRANCH   1  15
BRANCH  11  21
ATOM     21  C   UNL     1      25.643  35.195  10.945  1.00  0.00     0.085 C 
ATOM     22  C   UNL     1      26.776  34.213  10.767  1.00  0.00     0.031 C 
ATOM     23  C   UNL     1      25.739  35.738  12.356  1.00  0.00     0.031 C 
ENDBRANCH  11  21
TORSDOF 2
BEGIN_RES LYS A 135
REMARK  4 active torsions:
REMARK  status: ('A' for Active; 'I' for Inactive)
REMARK    1  A    between atoms: CA   and  CB  
REMARK    2  A    between atoms: CB   and  CG  
REMARK    3  A    between atoms: CG   and  CD  
REMARK    4  A    between atoms: CD   and  CE  
ROOT
ATOM      1  CA  LYS A 135      33.193  34.663   9.290  1.00 25.02     0.186 C 
ENDROOT
BRANCH   1   2
ATOM      2  CB  LYS A 135      32.060  35.360  10.034  1.00 26.63     0.034 C 
BRANCH   2   3
ATOM      3  CG  LYS A 135      30.700  34.783   9.737  1.00 29.45     0.005 C 
BRANCH   3   4
ATOM      4  CD  LYS A 135      30.491  34.644   8.237  1.00 32.00     0.041 C 
BRANCH   4   5
ATOM      5  CE  LYS A 135      29.013  34.666   7.901  1.00 34.25     0.338 C 
ATOM      6  NZ  LYS A 135      28.746  35.521   6.711  1.00 35.99     0.618 N 
ENDBRANCH   4   5
ENDBRANCH   3   4
ENDBRANCH   2   3
ENDBRANCH   1   2
END_RES LYS A 135
BEGIN_RES TYR A 136
REMARK  2 active torsions:
REMARK  status: ('A' for Active; 'I' for Inactive)
REMARK    5  A    between atoms: CA   and  CB  
REMARK    6  A    between atoms: CB   and  CG  
ROOT
ATOM      7  CA  TYR A 136      36.583  36.399   8.994  1.00 26.14     0.191 C 
ENDROOT
BRANCH   7   8
ATOM      8  CB  TYR A 136      37.367  36.835  10.240  1.00 28.16     0.060 C 
BRANCH   8   9
ATOM      9  CG  TYR A 136      37.197  38.302  10.548  1.00 31.88    -0.020 A 
ATOM     10  CD2 TYR A 136      36.008  38.795  11.090  1.00 32.67    -0.002 A 
ATOM     11  CE2 TYR A 136      35.859  40.160  11.371  1.00 33.89     0.027 A 
ATOM     12  CZ  TYR A 136      36.911  41.040  11.107  1.00 34.34     0.131 A 
ATOM     13  OH  TYR A 136      36.790  42.395  11.384  1.00 35.14    -0.190 OA
ATOM     14  CE1 TYR A 136      38.100  40.569  10.569  1.00 35.01     0.027 A 
ATOM     15  CD1 TYR A 136      38.233  39.208  10.287  1.00 33.57    -0.002 A 
ENDBRANCH   8   9
ENDBRANCH   7   8
END_RES TYR A 136
BEGIN_RES ASN A 133
REMARK  2 active torsions:
REMARK  status: ('A' for Active; 'I' for Inactive)
REMARK    7  A    between atoms: CA   and  CB  
REMARK    8  A    between atoms: CB   and  CG  
ROOT
ATOM     16  CA  ASN A 133      31.225  30.257  11.749  1.00 18.15     0.196 C 
ENDROOT
BRANCH  16  17
ATOM     17  CB  ASN A 133      30.092  31.240  11.460  1.00 18.27     0.126 C 
BRANCH  17  18
ATOM     18  CG  ASN A 133      28.755  30.579  11.327  1.00 18.94     0.276 C 
ATOM     19  OD1 ASN A 133      28.587  29.625  10.566  1.00 18.09    -0.269 OA
ATOM     20  ND2 ASN A 133      27.777  31.088  12.076  1.00 18.93    -0.107 N 
ENDBRANCH  17  18
ENDBRANCH  16  17
END_RES ASN A 133
