REMARK VINA RESULT:    -8.869      2.300      3.698
REMARK INTER + INTRA:          -6.107
REMARK INTER:                  -4.571
REMARK INTRA:                  -1.536
REMARK UNBOUND:                 6.391
REMARK SMILES Cc1cn(C2CC(O)C=C[C@@H](O)C2)nn1
REMARK SMILES IDX 7 1 6 2 5 3 4 5 1 6 2 7 3 8 15 9 14 10 8 11 9 13 10 14 11 15
REMARK SMILES IDX 12 16 13 18
REMARK H PARENT 8 12 12 17
REMARK Flexibility Score: 80.00
ROOT
ATOM      1  C   UNL     1      38.795  34.009  16.832  1.00  0.00     0.139 C 
ENDROOT
BRANCH   1   2
ATOM      2  C   UNL     1      38.240  34.059  15.517  1.00  0.00     0.063 C 
BRANCH   2   3
ATOM      3  C   UNL     1      38.005  34.237  14.136  1.00  0.00     0.115 CG0
ATOM      4  G   UNL     1      39.098  35.207  13.580  1.00  0.00     0.000 G0
BRANCH   3   5
ATOM      5  N   UNL     1      36.696  34.844  13.829  1.00  0.00    -0.249 N 
ATOM      6  C   UNL     1      33.865  37.098  14.515  1.00  0.00     0.070 C 
ATOM      7  C   UNL     1      34.871  36.107  13.999  1.00  0.00     0.080 A 
ATOM      8  C   UNL     1      36.080  35.764  14.593  1.00  0.00     0.134 A 
ATOM      9  N   UNL     1      34.810  35.365  12.881  1.00  0.00    -0.136 NA
ATOM     10  N   UNL     1      35.913  34.625  12.811  1.00  0.00    -0.067 NA
ENDBRANCH   3   5
ENDBRANCH   2   3
ENDBRANCH   1   2
BRANCH   1  11
ATOM     11  O   UNL     1      39.227  32.759  17.322  1.00  0.00    -0.389 OA
ATOM     12  H   UNL     1      38.777  32.609  18.186  1.00  0.00     0.211 HD
ENDBRANCH   1  11
BRANCH   1  13
ATOM     13  C   UNL     1      40.075  34.871  16.833  1.00  0.00     0.002 C 
ATOM     14  C   UNL     1      40.662  35.215  15.669  1.00  0.00     0.002 C 
BRANCH  14  15
ATOM     15  C   UNL     1      40.443  35.005  14.249  1.00  0.00     0.139 C 
BRANCH  15  16
ATOM     16  O   UNL     1      41.104  33.838  13.771  1.00  0.00    -0.389 OA
ATOM     17  H   UNL     1      40.562  33.528  13.005  1.00  0.00     0.211 HD
ENDBRANCH  15  16
BRANCH  15  18
ATOM     18  C   UNL     1      39.110  35.179  13.590  1.00  0.00     0.063 CG0
ATOM     19  G   UNL     1      38.001  34.231  14.150  1.00  0.00     0.000 G0
ENDBRANCH  15  18
ENDBRANCH  14  15
ENDBRANCH   1  13
TORSDOF 3
BEGIN_RES LYS A 135
REMARK  4 active torsions:
REMARK  status: ('A' for Active; 'I' for Inactive)
REMARK    1  A    between atoms: CA   and  CB  
REMARK    2  A    between atoms: CB   and  CG  
REMARK    3  A    between atoms: CG   and  CD  
REMARK    4  A    between atoms: CD   and  CE  
ROOT
ATOM      1  CA  LYS A 135      33.193  34.663   9.290  1.00 25.02     0.186 C 
ENDROOT
BRANCH   1   2
ATOM      2  CB  LYS A 135      32.060  35.360  10.034  1.00 26.63     0.034 C 
BRANCH   2   3
ATOM      3  CG  LYS A 135      30.718  35.211   9.364  1.00 29.45     0.005 C 
BRANCH   3   4
ATOM      4  CD  LYS A 135      29.608  35.723  10.268  1.00 32.00     0.041 C 
BRANCH   4   5
ATOM      5  CE  LYS A 135      28.832  34.566  10.868  1.00 34.25     0.338 C 
ATOM      6  NZ  LYS A 135      28.440  34.854  12.275  1.00 35.99     0.618 N 
ENDBRANCH   4   5
ENDBRANCH   3   4
ENDBRANCH   2   3
ENDBRANCH   1   2
END_RES LYS A 135
BEGIN_RES TYR A 136
REMARK  2 active torsions:
REMARK  status: ('A' for Active; 'I' for Inactive)
REMARK    5  A    between atoms: CA   and  CB  
REMARK    6  A    between atoms: CB   and  CG  
ROOT
ATOM      7  CA  TYR A 136      36.583  36.399   8.994  1.00 26.14     0.191 C 
ENDROOT
BRANCH   7   8
ATOM      8  CB  TYR A 136      37.367  36.835  10.240  1.00 28.16     0.060 C 
BRANCH   8   9
ATOM      9  CG  TYR A 136      36.940  38.190  10.750  1.00 31.88    -0.020 A 
ATOM     10  CD2 TYR A 136      36.369  39.136   9.896  1.00 32.67    -0.002 A 
ATOM     11  CE2 TYR A 136      35.978  40.392  10.379  1.00 33.89     0.027 A 
ATOM     12  CZ  TYR A 136      36.159  40.704  11.729  1.00 34.34     0.131 A 
ATOM     13  OH  TYR A 136      35.772  41.939  12.230  1.00 35.14    -0.190 OA
ATOM     14  CE1 TYR A 136      36.726  39.776  12.590  1.00 35.01     0.027 A 
ATOM     15  CD1 TYR A 136      37.118  38.531  12.097  1.00 33.57    -0.002 A 
ENDBRANCH   8   9
ENDBRANCH   7   8
END_RES TYR A 136
BEGIN_RES ASN A 133
REMARK  2 active torsions:
REMARK  status: ('A' for Active; 'I' for Inactive)
REMARK    7  A    between atoms: CA   and  CB  
REMARK    8  A    between atoms: CB   and  CG  
ROOT
ATOM     16  CA  ASN A 133      31.225  30.257  11.749  1.00 18.15     0.196 C 
ENDROOT
BRANCH  16  17
ATOM     17  CB  ASN A 133      30.092  31.240  11.460  1.00 18.27     0.126 C 
BRANCH  17  18
ATOM     18  CG  ASN A 133      28.756  30.578  11.319  1.00 18.94     0.276 C 
ATOM     19  OD1 ASN A 133      28.591  29.633  10.545  1.00 18.09    -0.269 OA
ATOM     20  ND2 ASN A 133      27.777  31.076  12.073  1.00 18.93    -0.107 N 
ENDBRANCH  17  18
ENDBRANCH  16  17
END_RES ASN A 133
