REMARK VINA RESULT:    -5.462      5.935      9.440
REMARK INTER + INTRA:          -9.725
REMARK INTER:                  -5.613
REMARK INTRA:                  -4.112
REMARK UNBOUND:                -2.666
REMARK SMILES Cc1cn(C[C@@H](C)CN2CCN(c3ccc(Cl)cc3)CC2)nn1
REMARK SMILES IDX 6 1 7 2 5 3 4 4 1 5 2 6 3 7 23 8 22 9 8 10 9 11 10 12 21 13
REMARK SMILES IDX 11 14 20 15 12 16 13 17 14 18 19 19 15 20 18 21 16 22 17 23
REMARK H PARENT
REMARK Flexibility Score: inf
ROOT
ATOM      1  C   UNL     1      36.595  39.013   1.981  1.00  0.00     0.022 C 
ATOM      2  C   UNL     1      36.114  39.555   0.668  1.00  0.00     0.011 C 
ENDROOT
BRANCH   1   3
ATOM      3  C   UNL     1      37.652  37.983   1.778  1.00  0.00     0.150 C 
BRANCH   3   4
ATOM      4  N   UNL     1      38.678  38.062   2.792  1.00  0.00    -0.252 N 
ATOM      5  C   UNL     1      40.925  36.515   5.215  1.00  0.00     0.070 C 
ATOM      6  C   UNL     1      40.125  37.406   4.312  1.00  0.00     0.080 A 
ATOM      7  C   UNL     1      39.176  36.961   3.419  1.00  0.00     0.134 A 
ATOM      8  N   UNL     1      40.168  38.746   4.193  1.00  0.00    -0.136 NA
ATOM      9  N   UNL     1      39.277  39.124   3.261  1.00  0.00    -0.067 NA
ENDBRANCH   3   4
ENDBRANCH   1   3
BRANCH   1  10
ATOM     10  C   UNL     1      35.443  38.377   2.771  1.00  0.00     0.089 C 
BRANCH  10  11
ATOM     11  N   UNL     1      35.453  38.938   4.057  1.00  0.00    -0.299 NA
ATOM     12  C   UNL     1      34.915  40.209   4.282  1.00  0.00     0.106 C 
ATOM     13  C   UNL     1      35.983  38.224   5.140  1.00  0.00     0.106 C 
ATOM     14  C   UNL     1      35.848  41.116   5.076  1.00  0.00     0.132 C 
ATOM     15  C   UNL     1      35.738  39.057   6.408  1.00  0.00     0.132 C 
ATOM     16  N   UNL     1      36.399  40.317   6.155  1.00  0.00    -0.369 N 
BRANCH  16  17
ATOM     17  C   UNL     1      37.518  40.778   6.897  1.00  0.00     0.037 A 
ATOM     18  C   UNL     1      37.702  42.069   7.321  1.00  0.00     0.027 A 
ATOM     19  C   UNL     1      38.515  39.864   7.223  1.00  0.00     0.027 A 
ATOM     20  C   UNL     1      38.801  42.498   8.040  1.00  0.00     0.022 A 
ATOM     21  C   UNL     1      39.624  40.257   7.938  1.00  0.00     0.022 A 
ATOM     22  C   UNL     1      39.773  41.576   8.350  1.00  0.00     0.041 A 
ATOM     23  Cl  UNL     1      41.200  42.022   9.253  1.00  0.00    -0.084 Cl
ENDBRANCH  16  17
ENDBRANCH  10  11
ENDBRANCH   1  10
TORSDOF 5
BEGIN_RES LYS A 135
REMARK  4 active torsions:
REMARK  status: ('A' for Active; 'I' for Inactive)
REMARK    1  A    between atoms: CA   and  CB  
REMARK    2  A    between atoms: CB   and  CG  
REMARK    3  A    between atoms: CG   and  CD  
REMARK    4  A    between atoms: CD   and  CE  
ROOT
ATOM      1  CA  LYS A 135      33.193  34.663   9.290  1.00 25.02     0.186 C 
ENDROOT
BRANCH   1   2
ATOM      2  CB  LYS A 135      32.060  35.360  10.034  1.00 26.63     0.034 C 
BRANCH   2   3
ATOM      3  CG  LYS A 135      30.698  34.797   9.721  1.00 29.45     0.005 C 
BRANCH   3   4
ATOM      4  CD  LYS A 135      30.588  34.448   8.245  1.00 32.00     0.041 C 
BRANCH   4   5
ATOM      5  CE  LYS A 135      29.390  35.139   7.622  1.00 34.25     0.338 C 
ATOM      6  NZ  LYS A 135      28.119  34.670   8.241  1.00 35.99     0.618 N 
ENDBRANCH   4   5
ENDBRANCH   3   4
ENDBRANCH   2   3
ENDBRANCH   1   2
END_RES LYS A 135
BEGIN_RES TYR A 136
REMARK  2 active torsions:
REMARK  status: ('A' for Active; 'I' for Inactive)
REMARK    5  A    between atoms: CA   and  CB  
REMARK    6  A    between atoms: CB   and  CG  
ROOT
ATOM      7  CA  TYR A 136      36.583  36.399   8.994  1.00 26.14     0.191 C 
ENDROOT
BRANCH   7   8
ATOM      8  CB  TYR A 136      37.367  36.835  10.240  1.00 28.16     0.060 C 
BRANCH   8   9
ATOM      9  CG  TYR A 136      37.274  38.320  10.494  1.00 31.88    -0.020 A 
ATOM     10  CD2 TYR A 136      38.282  39.000  11.181  1.00 32.67    -0.002 A 
ATOM     11  CE2 TYR A 136      38.185  40.379  11.413  1.00 33.89     0.027 A 
ATOM     12  CZ  TYR A 136      37.070  41.083  10.954  1.00 34.34     0.131 A 
ATOM     13  OH  TYR A 136      36.956  42.450  11.166  1.00 35.14    -0.190 OA
ATOM     14  CE1 TYR A 136      36.059  40.423  10.270  1.00 35.01     0.027 A 
ATOM     15  CD1 TYR A 136      36.163  39.049  10.050  1.00 33.57    -0.002 A 
ENDBRANCH   8   9
ENDBRANCH   7   8
END_RES TYR A 136
BEGIN_RES ASN A 133
REMARK  2 active torsions:
REMARK  status: ('A' for Active; 'I' for Inactive)
REMARK    7  A    between atoms: CA   and  CB  
REMARK    8  A    between atoms: CB   and  CG  
ROOT
ATOM     16  CA  ASN A 133      31.225  30.257  11.749  1.00 18.15     0.196 C 
ENDROOT
BRANCH  16  17
ATOM     17  CB  ASN A 133      30.092  31.240  11.460  1.00 18.27     0.126 C 
BRANCH  17  18
ATOM     18  CG  ASN A 133      28.751  30.583  11.354  1.00 18.94     0.276 C 
ATOM     19  OD1 ASN A 133      28.576  29.604  10.626  1.00 18.09    -0.269 OA
ATOM     20  ND2 ASN A 133      27.778  31.122  12.087  1.00 18.93    -0.107 N 
ENDBRANCH  17  18
ENDBRANCH  16  17
END_RES ASN A 133
