REMARK VINA RESULT:    -3.374      8.096     11.679
REMARK INTER + INTRA:          -7.229
REMARK INTER:                  -3.892
REMARK INTRA:                  -3.337
REMARK UNBOUND:                -3.263
REMARK SMILES Cc1cn(CCN2CCCC2)nn1
REMARK SMILES IDX 5 1 4 2 1 3 2 4 3 5 13 6 12 7 6 8 7 9 8 10 11 11 9 12 10 13
REMARK H PARENT
REMARK Flexibility Score: inf
ROOT
ATOM      1  C   UNL     1      26.591  32.199  16.233  1.00  0.00     0.161 C 
ENDROOT
BRANCH   1   2
ATOM      2  N   UNL     1      25.777  31.983  15.056  1.00  0.00    -0.251 N 
ATOM      3  C   UNL     1      23.819  29.806  12.877  1.00  0.00     0.070 C 
ATOM      4  C   UNL     1      24.531  30.917  13.544  1.00  0.00     0.080 A 
ATOM      5  C   UNL     1      25.250  30.775  14.711  1.00  0.00     0.134 A 
ATOM      6  N   UNL     1      24.649  32.214  13.222  1.00  0.00    -0.136 NA
ATOM      7  N   UNL     1      25.392  32.830  14.130  1.00  0.00    -0.067 NA
ENDBRANCH   1   2
BRANCH   1   8
ATOM      8  C   UNL     1      27.947  32.763  15.880  1.00  0.00     0.108 C 
BRANCH   8   9
ATOM      9  N   UNL     1      28.760  31.855  15.140  1.00  0.00    -0.301 NA
ATOM     10  C   UNL     1      29.218  30.710  15.857  1.00  0.00     0.084 C 
ATOM     11  C   UNL     1      30.003  32.555  14.812  1.00  0.00     0.084 C 
ATOM     12  C   UNL     1      30.228  31.265  16.806  1.00  0.00     0.017 C 
ATOM     13  C   UNL     1      30.956  32.266  15.927  1.00  0.00     0.017 C 
ENDBRANCH   8   9
ENDBRANCH   1   8
TORSDOF 3
BEGIN_RES LYS A 135
REMARK  4 active torsions:
REMARK  status: ('A' for Active; 'I' for Inactive)
REMARK    1  A    between atoms: CA   and  CB  
REMARK    2  A    between atoms: CB   and  CG  
REMARK    3  A    between atoms: CG   and  CD  
REMARK    4  A    between atoms: CD   and  CE  
ROOT
ATOM      1  CA  LYS A 135      33.193  34.663   9.290  1.00 25.02     0.186 C 
ENDROOT
BRANCH   1   2
ATOM      2  CB  LYS A 135      32.060  35.360  10.034  1.00 26.63     0.034 C 
BRANCH   2   3
ATOM      3  CG  LYS A 135      30.736  34.649   9.919  1.00 29.45     0.005 C 
BRANCH   3   4
ATOM      4  CD  LYS A 135      30.344  34.478   8.460  1.00 32.00     0.041 C 
BRANCH   4   5
ATOM      5  CE  LYS A 135      28.837  34.553   8.301  1.00 34.25     0.338 C 
ATOM      6  NZ  LYS A 135      28.146  33.819   9.397  1.00 35.99     0.618 N 
ENDBRANCH   4   5
ENDBRANCH   3   4
ENDBRANCH   2   3
ENDBRANCH   1   2
END_RES LYS A 135
BEGIN_RES TYR A 136
REMARK  2 active torsions:
REMARK  status: ('A' for Active; 'I' for Inactive)
REMARK    5  A    between atoms: CA   and  CB  
REMARK    6  A    between atoms: CB   and  CG  
ROOT
ATOM      7  CA  TYR A 136      36.583  36.399   8.994  1.00 26.14     0.191 C 
ENDROOT
BRANCH   7   8
ATOM      8  CB  TYR A 136      37.367  36.835  10.240  1.00 28.16     0.060 C 
BRANCH   8   9
ATOM      9  CG  TYR A 136      37.285  38.321  10.486  1.00 31.88    -0.020 A 
ATOM     10  CD2 TYR A 136      36.091  39.021  10.300  1.00 32.67    -0.002 A 
ATOM     11  CE2 TYR A 136      36.026  40.402  10.530  1.00 33.89     0.027 A 
ATOM     12  CZ  TYR A 136      37.167  41.090  10.950  1.00 34.34     0.131 A 
ATOM     13  OH  TYR A 136      37.124  42.456  11.190  1.00 35.14    -0.190 OA
ATOM     14  CE1 TYR A 136      38.362  40.411  11.138  1.00 35.01     0.027 A 
ATOM     15  CD1 TYR A 136      38.416  39.037  10.900  1.00 33.57    -0.002 A 
ENDBRANCH   8   9
ENDBRANCH   7   8
END_RES TYR A 136
BEGIN_RES ASN A 133
REMARK  2 active torsions:
REMARK  status: ('A' for Active; 'I' for Inactive)
REMARK    7  A    between atoms: CA   and  CB  
REMARK    8  A    between atoms: CB   and  CG  
ROOT
ATOM     16  CA  ASN A 133      31.225  30.257  11.749  1.00 18.15     0.196 C 
ENDROOT
BRANCH  16  17
ATOM     17  CB  ASN A 133      30.092  31.240  11.460  1.00 18.27     0.126 C 
BRANCH  17  18
ATOM     18  CG  ASN A 133      28.762  30.575  11.283  1.00 18.94     0.276 C 
ATOM     19  OD1 ASN A 133      28.636  29.581  10.566  1.00 18.09    -0.269 OA
ATOM     20  ND2 ASN A 133      27.743  31.125  11.942  1.00 18.93    -0.107 N 
ENDBRANCH  17  18
ENDBRANCH  16  17
END_RES ASN A 133
