REMARK VINA RESULT:    -3.404      3.449      4.269
REMARK INTER + INTRA:          -7.699
REMARK INTER:                  -4.383
REMARK INTRA:                  -3.317
REMARK UNBOUND:                -3.201
REMARK SMILES CCOC(CCn1cc(C)nn1)OCC
REMARK SMILES IDX 5 1 6 2 7 3 10 4 9 5 8 6 11 7 12 8 4 9 3 10 2 11 1 12 13 13
REMARK SMILES IDX 14 14 15 15
REMARK H PARENT
REMARK Flexibility Score: inf
ROOT
ATOM      1  C   UNL     1      38.293  34.093  15.349  1.00  0.00     0.086 C 
ENDROOT
BRANCH   1   2
ATOM      2  C   UNL     1      38.692  34.978  16.437  1.00  0.00     0.151 C 
BRANCH   2   3
ATOM      3  N   UNL     1      38.224  34.596  17.741  1.00  0.00    -0.252 N 
ATOM      4  C   UNL     1      38.166  32.318  20.606  1.00  0.00     0.070 C 
ATOM      5  C   UNL     1      38.007  33.393  19.572  1.00  0.00     0.080 A 
ATOM      6  C   UNL     1      38.659  33.461  18.371  1.00  0.00     0.134 A 
ATOM      7  N   UNL     1      37.210  34.456  19.650  1.00  0.00    -0.136 NA
ATOM      8  N   UNL     1      37.376  35.138  18.536  1.00  0.00    -0.067 NA
ENDBRANCH   2   3
ENDBRANCH   1   2
BRANCH   1   9
ATOM      9  C   UNL     1      37.895  34.989  13.954  1.00  0.00     0.251 C 
BRANCH   9  10
ATOM     10  O   UNL     1      39.151  34.556  13.069  1.00  0.00    -0.353 OA
BRANCH  10  11
ATOM     11  C   UNL     1      39.530  35.503  12.252  1.00  0.00     0.160 C 
ATOM     12  C   UNL     1      39.572  36.806  13.109  1.00  0.00     0.035 C 
ENDBRANCH  10  11
ENDBRANCH   9  10
BRANCH   9  13
ATOM     13  O   UNL     1      37.137  34.099  13.508  1.00  0.00    -0.353 OA
BRANCH  13  14
ATOM     14  C   UNL     1      36.116  33.994  12.696  1.00  0.00     0.160 C 
ATOM     15  C   UNL     1      34.904  34.671  13.398  1.00  0.00     0.035 C 
ENDBRANCH  13  14
ENDBRANCH   9  13
ENDBRANCH   1   9
TORSDOF 7
BEGIN_RES LYS A 135
REMARK  4 active torsions:
REMARK  status: ('A' for Active; 'I' for Inactive)
REMARK    1  A    between atoms: CA   and  CB  
REMARK    2  A    between atoms: CB   and  CG  
REMARK    3  A    between atoms: CG   and  CD  
REMARK    4  A    between atoms: CD   and  CE  
ROOT
ATOM      1  CA  LYS A 135      33.193  34.663   9.290  1.00 25.02     0.186 C 
ENDROOT
BRANCH   1   2
ATOM      2  CB  LYS A 135      32.060  35.360  10.034  1.00 26.63     0.034 C 
BRANCH   2   3
ATOM      3  CG  LYS A 135      30.795  35.484   9.225  1.00 29.45     0.005 C 
BRANCH   3   4
ATOM      4  CD  LYS A 135      30.208  34.112   8.933  1.00 32.00     0.041 C 
BRANCH   4   5
ATOM      5  CE  LYS A 135      28.693  34.173   8.917  1.00 34.25     0.338 C 
ATOM      6  NZ  LYS A 135      28.201  35.015   7.791  1.00 35.99     0.618 N 
ENDBRANCH   4   5
ENDBRANCH   3   4
ENDBRANCH   2   3
ENDBRANCH   1   2
END_RES LYS A 135
BEGIN_RES TYR A 136
REMARK  2 active torsions:
REMARK  status: ('A' for Active; 'I' for Inactive)
REMARK    5  A    between atoms: CA   and  CB  
REMARK    6  A    between atoms: CB   and  CG  
ROOT
ATOM      7  CA  TYR A 136      36.583  36.399   8.994  1.00 26.14     0.191 C 
ENDROOT
BRANCH   7   8
ATOM      8  CB  TYR A 136      37.367  36.835  10.240  1.00 28.16     0.060 C 
BRANCH   8   9
ATOM      9  CG  TYR A 136      36.787  38.068  10.888  1.00 31.88    -0.020 A 
ATOM     10  CD2 TYR A 136      36.892  39.321  10.281  1.00 32.67    -0.002 A 
ATOM     11  CE2 TYR A 136      36.351  40.461  10.892  1.00 33.89     0.027 A 
ATOM     12  CZ  TYR A 136      35.700  40.345  12.123  1.00 34.34     0.131 A 
ATOM     13  OH  TYR A 136      35.151  41.459  12.743  1.00 35.14    -0.190 OA
ATOM     14  CE1 TYR A 136      35.589  39.108  12.741  1.00 35.01     0.027 A 
ATOM     15  CD1 TYR A 136      36.136  37.982  12.126  1.00 33.57    -0.002 A 
ENDBRANCH   8   9
ENDBRANCH   7   8
END_RES TYR A 136
BEGIN_RES ASN A 133
REMARK  2 active torsions:
REMARK  status: ('A' for Active; 'I' for Inactive)
REMARK    7  A    between atoms: CA   and  CB  
REMARK    8  A    between atoms: CB   and  CG  
ROOT
ATOM     16  CA  ASN A 133      31.225  30.257  11.749  1.00 18.15     0.196 C 
ENDROOT
BRANCH  16  17
ATOM     17  CB  ASN A 133      30.092  31.240  11.460  1.00 18.27     0.126 C 
BRANCH  17  18
ATOM     18  CG  ASN A 133      28.752  30.581  11.344  1.00 18.94     0.276 C 
ATOM     19  OD1 ASN A 133      28.583  29.604  10.613  1.00 18.09    -0.269 OA
ATOM     20  ND2 ASN A 133      27.774  31.118  12.072  1.00 18.93    -0.107 N 
ENDBRANCH  17  18
ENDBRANCH  16  17
END_RES ASN A 133
