REMARK VINA RESULT:    -3.769      2.809      4.671
REMARK INTER + INTRA:          -6.853
REMARK INTER:                  -3.989
REMARK INTRA:                  -2.865
REMARK UNBOUND:                -2.865
REMARK SMILES Cc1ccc(-n2cc(C)nn2)cc1
REMARK SMILES IDX 5 1 4 2 3 3 2 4 1 5 13 6 12 7 6 8 9 9 8 10 7 11 10 12 11 13
REMARK H PARENT
REMARK Flexibility Score: inf
ROOT
ATOM      1  C   UNL     1      29.380  31.989  15.442  1.00  0.00     0.066 A 
ATOM      2  C   UNL     1      29.226  33.011  14.541  1.00  0.00     0.029 A 
ATOM      3  C   UNL     1      30.271  33.882  14.303  1.00  0.00     0.005 A 
ATOM      4  C   UNL     1      31.489  33.774  14.941  1.00  0.00    -0.051 A 
ATOM      5  C   UNL     1      32.601  34.724  14.670  1.00  0.00     0.044 C 
ATOM      6  C   UNL     1      31.619  32.735  15.846  1.00  0.00     0.005 A 
ATOM      7  C   UNL     1      30.586  31.851  16.098  1.00  0.00     0.029 A 
ENDROOT
BRANCH   1   8
ATOM      8  N   UNL     1      28.333  31.090  15.699  1.00  0.00    -0.220 N 
ATOM      9  C   UNL     1      24.824  30.130  15.726  1.00  0.00     0.070 C 
ATOM     10  C   UNL     1      26.311  30.221  15.842  1.00  0.00     0.080 A 
ATOM     11  C   UNL     1      27.030  31.332  15.465  1.00  0.00     0.140 A 
ATOM     12  N   UNL     1      27.190  29.337  16.294  1.00  0.00    -0.135 NA
ATOM     13  N   UNL     1      28.399  29.857  16.207  1.00  0.00    -0.062 NA
ENDBRANCH   1   8
TORSDOF 1
BEGIN_RES LYS A 135
REMARK  4 active torsions:
REMARK  status: ('A' for Active; 'I' for Inactive)
REMARK    1  A    between atoms: CA   and  CB  
REMARK    2  A    between atoms: CB   and  CG  
REMARK    3  A    between atoms: CG   and  CD  
REMARK    4  A    between atoms: CD   and  CE  
ROOT
ATOM      1  CA  LYS A 135      33.193  34.663   9.290  1.00 25.02     0.186 C 
ENDROOT
BRANCH   1   2
ATOM      2  CB  LYS A 135      32.060  35.360  10.034  1.00 26.63     0.034 C 
BRANCH   2   3
ATOM      3  CG  LYS A 135      30.781  34.564  10.065  1.00 29.45     0.005 C 
BRANCH   3   4
ATOM      4  CD  LYS A 135      30.234  34.372   8.659  1.00 32.00     0.041 C 
BRANCH   4   5
ATOM      5  CE  LYS A 135      29.624  35.661   8.143  1.00 34.25     0.338 C 
ATOM      6  NZ  LYS A 135      28.797  35.415   6.929  1.00 35.99     0.618 N 
ENDBRANCH   4   5
ENDBRANCH   3   4
ENDBRANCH   2   3
ENDBRANCH   1   2
END_RES LYS A 135
BEGIN_RES TYR A 136
REMARK  2 active torsions:
REMARK  status: ('A' for Active; 'I' for Inactive)
REMARK    5  A    between atoms: CA   and  CB  
REMARK    6  A    between atoms: CB   and  CG  
ROOT
ATOM      7  CA  TYR A 136      36.583  36.399   8.994  1.00 26.14     0.191 C 
ENDROOT
BRANCH   7   8
ATOM      8  CB  TYR A 136      37.367  36.835  10.240  1.00 28.16     0.060 C 
BRANCH   8   9
ATOM      9  CG  TYR A 136      37.222  38.309  10.531  1.00 31.88    -0.020 A 
ATOM     10  CD2 TYR A 136      36.202  38.786  11.357  1.00 32.67    -0.002 A 
ATOM     11  CE2 TYR A 136      36.075  40.157  11.620  1.00 33.89     0.027 A 
ATOM     12  CZ  TYR A 136      36.977  41.059  11.049  1.00 34.34     0.131 A 
ATOM     13  OH  TYR A 136      36.874  42.420  11.300  1.00 35.14    -0.190 OA
ATOM     14  CE1 TYR A 136      37.995  40.602  10.224  1.00 35.01     0.027 A 
ATOM     15  CD1 TYR A 136      38.107  39.235   9.965  1.00 33.57    -0.002 A 
ENDBRANCH   8   9
ENDBRANCH   7   8
END_RES TYR A 136
BEGIN_RES ASN A 133
REMARK  2 active torsions:
REMARK  status: ('A' for Active; 'I' for Inactive)
REMARK    7  A    between atoms: CA   and  CB  
REMARK    8  A    between atoms: CB   and  CG  
ROOT
ATOM     16  CA  ASN A 133      31.225  30.257  11.749  1.00 18.15     0.196 C 
ENDROOT
BRANCH  16  17
ATOM     17  CB  ASN A 133      30.092  31.240  11.460  1.00 18.27     0.126 C 
BRANCH  17  18
ATOM     18  CG  ASN A 133      28.763  30.575  11.281  1.00 18.94     0.276 C 
ATOM     19  OD1 ASN A 133      28.638  29.580  10.565  1.00 18.09    -0.269 OA
ATOM     20  ND2 ASN A 133      27.742  31.125  11.938  1.00 18.93    -0.107 N 
ENDBRANCH  17  18
ENDBRANCH  16  17
END_RES ASN A 133
