REMARK VINA RESULT:    -3.502      1.921      3.262
REMARK INTER + INTRA:          -7.750
REMARK INTER:                  -3.961
REMARK INTRA:                  -3.789
REMARK UNBOUND:                -3.429
REMARK SMILES COCC(C(N)=O)n1cc(C)nn1
REMARK SMILES IDX 3 1 4 2 8 3 11 4 10 5 9 6 12 7 13 8 5 9 7 10 6 11 2 14 1 15
REMARK H PARENT 6 12 6 13
REMARK Flexibility Score: inf
ROOT
ATOM      1  C   UNL     1      35.199  36.758  14.904  1.00  0.00     0.197 C 
ENDROOT
BRANCH   1   2
ATOM      2  C   UNL     1      35.584  36.325  13.494  1.00  0.00     0.223 C 
BRANCH   2   3
ATOM      3  N   UNL     1      36.908  35.748  13.468  1.00  0.00    -0.237 N 
ATOM      4  C   UNL     1      40.250  34.807  14.573  1.00  0.00     0.070 C 
ATOM      5  C   UNL     1      38.946  35.062  13.885  1.00  0.00     0.080 A 
ATOM      6  C   UNL     1      37.873  35.746  14.399  1.00  0.00     0.135 A 
ATOM      7  N   UNL     1      38.581  34.675  12.646  1.00  0.00    -0.136 NA
ATOM      8  N   UNL     1      37.368  35.086  12.402  1.00  0.00    -0.066 NA
ENDBRANCH   2   3
BRANCH   2   9
ATOM      9  C   UNL     1      34.551  35.416  12.992  1.00  0.00     0.244 C 
ATOM     10  O   UNL     1      33.518  35.894  12.459  1.00  0.00    -0.273 OA
ATOM     11  N   UNL     1      34.687  34.009  13.092  1.00  0.00    -0.368 N 
ATOM     12  H   UNL     1      35.602  33.520  13.222  1.00  0.00     0.159 HD
ATOM     13  H   UNL     1      33.852  33.357  13.039  1.00  0.00     0.159 HD
ENDBRANCH   2   9
ENDBRANCH   1   2
BRANCH   1  14
ATOM     14  O   UNL     1      34.585  35.678  15.530  1.00  0.00    -0.382 OA
ATOM     15  C   UNL     1      33.991  36.118  16.725  1.00  0.00     0.195 C 
ENDBRANCH   1  14
TORSDOF 4
BEGIN_RES LYS A 135
REMARK  4 active torsions:
REMARK  status: ('A' for Active; 'I' for Inactive)
REMARK    1  A    between atoms: CA   and  CB  
REMARK    2  A    between atoms: CB   and  CG  
REMARK    3  A    between atoms: CG   and  CD  
REMARK    4  A    between atoms: CD   and  CE  
ROOT
ATOM      1  CA  LYS A 135      33.193  34.663   9.290  1.00 25.02     0.186 C 
ENDROOT
BRANCH   1   2
ATOM      2  CB  LYS A 135      32.060  35.360  10.034  1.00 26.63     0.034 C 
BRANCH   2   3
ATOM      3  CG  LYS A 135      30.728  34.671   9.886  1.00 29.45     0.005 C 
BRANCH   3   4
ATOM      4  CD  LYS A 135      30.348  34.547   8.419  1.00 32.00     0.041 C 
BRANCH   4   5
ATOM      5  CE  LYS A 135      28.840  34.574   8.255  1.00 34.25     0.338 C 
ATOM      6  NZ  LYS A 135      28.166  33.870   9.380  1.00 35.99     0.618 N 
ENDBRANCH   4   5
ENDBRANCH   3   4
ENDBRANCH   2   3
ENDBRANCH   1   2
END_RES LYS A 135
BEGIN_RES TYR A 136
REMARK  2 active torsions:
REMARK  status: ('A' for Active; 'I' for Inactive)
REMARK    5  A    between atoms: CA   and  CB  
REMARK    6  A    between atoms: CB   and  CG  
ROOT
ATOM      7  CA  TYR A 136      36.583  36.399   8.994  1.00 26.14     0.191 C 
ENDROOT
BRANCH   7   8
ATOM      8  CB  TYR A 136      37.367  36.835  10.240  1.00 28.16     0.060 C 
BRANCH   8   9
ATOM      9  CG  TYR A 136      37.183  38.298  10.558  1.00 31.88    -0.020 A 
ATOM     10  CD2 TYR A 136      37.728  38.861  11.715  1.00 32.67    -0.002 A 
ATOM     11  CE2 TYR A 136      37.550  40.221  12.002  1.00 33.89     0.027 A 
ATOM     12  CZ  TYR A 136      36.820  41.026  11.124  1.00 34.34     0.131 A 
ATOM     13  OH  TYR A 136      36.638  42.377  11.385  1.00 35.14    -0.190 OA
ATOM     14  CE1 TYR A 136      36.272  40.484   9.971  1.00 35.01     0.027 A 
ATOM     15  CD1 TYR A 136      36.450  39.126   9.699  1.00 33.57    -0.002 A 
ENDBRANCH   8   9
ENDBRANCH   7   8
END_RES TYR A 136
BEGIN_RES ASN A 133
REMARK  2 active torsions:
REMARK  status: ('A' for Active; 'I' for Inactive)
REMARK    7  A    between atoms: CA   and  CB  
REMARK    8  A    between atoms: CB   and  CG  
ROOT
ATOM     16  CA  ASN A 133      31.225  30.257  11.749  1.00 18.15     0.196 C 
ENDROOT
BRANCH  16  17
ATOM     17  CB  ASN A 133      30.092  31.240  11.460  1.00 18.27     0.126 C 
BRANCH  17  18
ATOM     18  CG  ASN A 133      28.750  30.583  11.361  1.00 18.94     0.276 C 
ATOM     19  OD1 ASN A 133      28.567  29.611  10.626  1.00 18.09    -0.269 OA
ATOM     20  ND2 ASN A 133      27.784  31.116  12.109  1.00 18.93    -0.107 N 
ENDBRANCH  17  18
ENDBRANCH  16  17
END_RES ASN A 133
