REMARK VINA RESULT:    -3.366      2.093      3.986
REMARK INTER + INTRA:          -7.267
REMARK INTER:                  -4.015
REMARK INTRA:                  -3.252
REMARK UNBOUND:                -3.113
REMARK SMILES CC(=O)OCCn1cc(C)nn1
REMARK SMILES IDX 5 1 6 2 7 3 10 4 9 5 8 6 11 7 12 8 4 9 2 10 3 11 1 12
REMARK H PARENT
REMARK Flexibility Score: inf
ROOT
ATOM      1  C   UNL     1      23.025  34.653  -2.621  1.00  0.00     0.256 C 
ENDROOT
BRANCH   1   2
ATOM      2  C   UNL     1      21.920  34.295  -1.679  1.00  0.00     0.187 C 
BRANCH   2   3
ATOM      3  N   UNL     1      22.176  33.055  -0.966  1.00  0.00    -0.249 N 
ATOM      4  C   UNL     1      22.470  29.441  -0.575  1.00  0.00     0.070 C 
ATOM      5  C   UNL     1      22.425  30.917  -0.459  1.00  0.00     0.080 A 
ATOM      6  C   UNL     1      22.107  31.817  -1.464  1.00  0.00     0.134 A 
ATOM      7  N   UNL     1      22.677  31.696   0.625  1.00  0.00    -0.136 NA
ATOM      8  N   UNL     1      22.525  32.968   0.303  1.00  0.00    -0.067 NA
ENDBRANCH   2   3
ENDBRANCH   1   2
BRANCH   1   9
ATOM      9  O   UNL     1      24.000  35.394  -1.945  1.00  0.00    -0.464 OA
BRANCH   9  10
ATOM     10  C   UNL     1      24.180  36.736  -2.109  1.00  0.00     0.302 C 
ATOM     11  O   UNL     1      24.961  37.189  -2.975  1.00  0.00    -0.253 OA
ATOM     12  C   UNL     1      23.458  37.756  -1.266  1.00  0.00     0.139 C 
ENDBRANCH   9  10
ENDBRANCH   1   9
TORSDOF 4
BEGIN_RES LYS A 135
REMARK  4 active torsions:
REMARK  status: ('A' for Active; 'I' for Inactive)
REMARK    1  A    between atoms: CA   and  CB  
REMARK    2  A    between atoms: CB   and  CG  
REMARK    3  A    between atoms: CG   and  CD  
REMARK    4  A    between atoms: CD   and  CE  
ROOT
ATOM      1  CA  LYS A 135      33.193  34.663   9.290  1.00 25.02     0.186 C 
ENDROOT
BRANCH   1   2
ATOM      2  CB  LYS A 135      32.060  35.360  10.034  1.00 26.63     0.034 C 
BRANCH   2   3
ATOM      3  CG  LYS A 135      30.805  35.513   9.214  1.00 29.45     0.005 C 
BRANCH   3   4
ATOM      4  CD  LYS A 135      30.123  34.168   9.021  1.00 32.00     0.041 C 
BRANCH   4   5
ATOM      5  CE  LYS A 135      28.667  34.359   8.641  1.00 34.25     0.338 C 
ATOM      6  NZ  LYS A 135      27.765  33.686   9.617  1.00 35.99     0.618 N 
ENDBRANCH   4   5
ENDBRANCH   3   4
ENDBRANCH   2   3
ENDBRANCH   1   2
END_RES LYS A 135
BEGIN_RES TYR A 136
REMARK  2 active torsions:
REMARK  status: ('A' for Active; 'I' for Inactive)
REMARK    5  A    between atoms: CA   and  CB  
REMARK    6  A    between atoms: CB   and  CG  
ROOT
ATOM      7  CA  TYR A 136      36.583  36.399   8.994  1.00 26.14     0.191 C 
ENDROOT
BRANCH   7   8
ATOM      8  CB  TYR A 136      37.367  36.835  10.240  1.00 28.16     0.060 C 
BRANCH   8   9
ATOM      9  CG  TYR A 136      36.982  38.215  10.714  1.00 31.88    -0.020 A 
ATOM     10  CD2 TYR A 136      36.652  39.225   9.808  1.00 32.67    -0.002 A 
ATOM     11  CE2 TYR A 136      36.298  40.504  10.259  1.00 33.89     0.027 A 
ATOM     12  CZ  TYR A 136      36.273  40.774  11.630  1.00 34.34     0.131 A 
ATOM     13  OH  TYR A 136      35.918  42.031  12.099  1.00 35.14    -0.190 OA
ATOM     14  CE1 TYR A 136      36.599  39.783  12.544  1.00 35.01     0.027 A 
ATOM     15  CD1 TYR A 136      36.957  38.515  12.082  1.00 33.57    -0.002 A 
ENDBRANCH   8   9
ENDBRANCH   7   8
END_RES TYR A 136
BEGIN_RES ASN A 133
REMARK  2 active torsions:
REMARK  status: ('A' for Active; 'I' for Inactive)
REMARK    7  A    between atoms: CA   and  CB  
REMARK    8  A    between atoms: CB   and  CG  
ROOT
ATOM     16  CA  ASN A 133      31.225  30.257  11.749  1.00 18.15     0.196 C 
ENDROOT
BRANCH  16  17
ATOM     17  CB  ASN A 133      30.092  31.240  11.460  1.00 18.27     0.126 C 
BRANCH  17  18
ATOM     18  CG  ASN A 133      28.749  30.585  11.369  1.00 18.94     0.276 C 
ATOM     19  OD1 ASN A 133      28.553  29.634  10.610  1.00 18.09    -0.269 OA
ATOM     20  ND2 ASN A 133      27.798  31.094  12.151  1.00 18.93    -0.107 N 
ENDBRANCH  17  18
ENDBRANCH  16  17
END_RES ASN A 133
