REMARK VINA RESULT:    -4.580      1.513      1.799
REMARK INTER + INTRA:          -7.590
REMARK INTER:                  -4.177
REMARK INTRA:                  -3.413
REMARK UNBOUND:                -2.340
REMARK SMILES Cc1cn([C@@H](C)C(=O)O)nn1
REMARK SMILES IDX 5 1 6 2 4 3 1 4 2 5 3 6 11 7 10 8 7 9 8 10 9 11
REMARK H PARENT 9 12
REMARK Flexibility Score: inf
ROOT
ATOM      1  C   UNL     1      36.567  34.918  14.240  1.00  0.00     0.215 C 
ATOM      2  C   UNL     1      36.896  36.336  14.631  1.00  0.00     0.046 C 
ENDROOT
BRANCH   1   3
ATOM      3  N   UNL     1      37.711  34.267  13.594  1.00  0.00    -0.238 N 
ATOM      4  C   UNL     1      41.159  33.869  12.517  1.00  0.00     0.070 C 
ATOM      5  C   UNL     1      39.699  33.758  12.818  1.00  0.00     0.080 A 
ATOM      6  C   UNL     1      38.971  34.701  13.523  1.00  0.00     0.135 A 
ATOM      7  N   UNL     1      38.854  32.788  12.489  1.00  0.00    -0.136 NA
ATOM      8  N   UNL     1      37.660  33.108  12.964  1.00  0.00    -0.066 NA
ENDBRANCH   1   3
BRANCH   1   9
ATOM      9  C   UNL     1      35.419  34.913  13.313  1.00  0.00     0.328 C 
ATOM     10  O   UNL     1      35.035  35.981  12.797  1.00  0.00    -0.250 OA
BRANCH   9  11
ATOM     11  O   UNL     1      34.728  33.758  12.976  1.00  0.00    -0.480 OA
ATOM     12  H   UNL     1      33.697  33.748  12.922  1.00  0.00     0.296 HD
ENDBRANCH   9  11
ENDBRANCH   1   9
TORSDOF 3
BEGIN_RES LYS A 135
REMARK  4 active torsions:
REMARK  status: ('A' for Active; 'I' for Inactive)
REMARK    1  A    between atoms: CA   and  CB  
REMARK    2  A    between atoms: CB   and  CG  
REMARK    3  A    between atoms: CG   and  CD  
REMARK    4  A    between atoms: CD   and  CE  
ROOT
ATOM      1  CA  LYS A 135      33.193  34.663   9.290  1.00 25.02     0.186 C 
ENDROOT
BRANCH   1   2
ATOM      2  CB  LYS A 135      32.060  35.360  10.034  1.00 26.63     0.034 C 
BRANCH   2   3
ATOM      3  CG  LYS A 135      30.801  35.503   9.218  1.00 29.45     0.005 C 
BRANCH   3   4
ATOM      4  CD  LYS A 135      30.118  34.155   9.044  1.00 32.00     0.041 C 
BRANCH   4   5
ATOM      5  CE  LYS A 135      28.666  34.341   8.648  1.00 34.25     0.338 C 
ATOM      6  NZ  LYS A 135      27.756  33.676   9.621  1.00 35.99     0.618 N 
ENDBRANCH   4   5
ENDBRANCH   3   4
ENDBRANCH   2   3
ENDBRANCH   1   2
END_RES LYS A 135
BEGIN_RES TYR A 136
REMARK  2 active torsions:
REMARK  status: ('A' for Active; 'I' for Inactive)
REMARK    5  A    between atoms: CA   and  CB  
REMARK    6  A    between atoms: CB   and  CG  
ROOT
ATOM      7  CA  TYR A 136      36.583  36.399   8.994  1.00 26.14     0.191 C 
ENDROOT
BRANCH   7   8
ATOM      8  CB  TYR A 136      37.367  36.835  10.240  1.00 28.16     0.060 C 
BRANCH   8   9
ATOM      9  CG  TYR A 136      37.191  38.301  10.553  1.00 31.88    -0.020 A 
ATOM     10  CD2 TYR A 136      37.191  38.764  11.870  1.00 32.67    -0.002 A 
ATOM     11  CE2 TYR A 136      37.026  40.127  12.150  1.00 33.89     0.027 A 
ATOM     12  CZ  TYR A 136      36.857  41.035  11.102  1.00 34.34     0.131 A 
ATOM     13  OH  TYR A 136      36.699  42.391  11.355  1.00 35.14    -0.190 OA
ATOM     14  CE1 TYR A 136      36.853  40.592   9.787  1.00 35.01     0.027 A 
ATOM     15  CD1 TYR A 136      37.013  39.231   9.521  1.00 33.57    -0.002 A 
ENDBRANCH   8   9
ENDBRANCH   7   8
END_RES TYR A 136
BEGIN_RES ASN A 133
REMARK  2 active torsions:
REMARK  status: ('A' for Active; 'I' for Inactive)
REMARK    7  A    between atoms: CA   and  CB  
REMARK    8  A    between atoms: CB   and  CG  
ROOT
ATOM     16  CA  ASN A 133      31.225  30.257  11.749  1.00 18.15     0.196 C 
ENDROOT
BRANCH  16  17
ATOM     17  CB  ASN A 133      30.092  31.240  11.460  1.00 18.27     0.126 C 
BRANCH  17  18
ATOM     18  CG  ASN A 133      28.749  30.584  11.365  1.00 18.94     0.276 C 
ATOM     19  OD1 ASN A 133      28.562  29.619  10.622  1.00 18.09    -0.269 OA
ATOM     20  ND2 ASN A 133      27.789  31.109  12.125  1.00 18.93    -0.107 N 
ENDBRANCH  17  18
ENDBRANCH  16  17
END_RES ASN A 133
