REMARK VINA RESULT:    -3.670      7.440     13.422
REMARK INTER + INTRA:          -7.032
REMARK INTER:                  -4.112
REMARK INTRA:                  -2.920
REMARK UNBOUND:                -3.147
REMARK SMILES Cc1cn(-c2ccncc2)nn1
REMARK SMILES IDX 1 1 2 2 3 3 4 4 11 5 12 6 5 7 6 8 10 9 7 10 9 11 8 12
REMARK H PARENT
REMARK Flexibility Score: inf
ROOT
ATOM      1  C   UNL     1      32.041  37.696  12.099  1.00  0.00     0.070 C 
ATOM      2  C   UNL     1      33.159  37.131  12.879  1.00  0.00     0.080 A 
ATOM      3  C   UNL     1      34.063  36.147  12.502  1.00  0.00     0.140 A 
ATOM      4  N   UNL     1      34.919  35.933  13.513  1.00  0.00    -0.220 N 
ATOM      5  N   UNL     1      34.567  36.754  14.488  1.00  0.00    -0.062 NA
ATOM      6  N   UNL     1      33.516  37.478  14.128  1.00  0.00    -0.135 NA
ENDROOT
BRANCH   4   7
ATOM      7  C   UNL     1      35.994  34.998  13.512  1.00  0.00     0.069 A 
ATOM      8  C   UNL     1      36.115  34.073  12.490  1.00  0.00     0.048 A 
ATOM      9  C   UNL     1      36.949  34.958  14.500  1.00  0.00     0.048 A 
ATOM     10  C   UNL     1      37.150  33.179  12.498  1.00  0.00     0.113 A 
ATOM     11  C   UNL     1      37.990  34.057  14.506  1.00  0.00     0.113 A 
ATOM     12  N   UNL     1      38.051  33.186  13.485  1.00  0.00    -0.265 NA
ENDBRANCH   4   7
TORSDOF 1
BEGIN_RES LYS A 135
REMARK  4 active torsions:
REMARK  status: ('A' for Active; 'I' for Inactive)
REMARK    1  A    between atoms: CA   and  CB  
REMARK    2  A    between atoms: CB   and  CG  
REMARK    3  A    between atoms: CG   and  CD  
REMARK    4  A    between atoms: CD   and  CE  
ROOT
ATOM      1  CA  LYS A 135      33.193  34.663   9.290  1.00 25.02     0.186 C 
ENDROOT
BRANCH   1   2
ATOM      2  CB  LYS A 135      32.060  35.360  10.034  1.00 26.63     0.034 C 
BRANCH   2   3
ATOM      3  CG  LYS A 135      30.707  34.748   9.781  1.00 29.45     0.005 C 
BRANCH   3   4
ATOM      4  CD  LYS A 135      30.437  34.639   8.288  1.00 32.00     0.041 C 
BRANCH   4   5
ATOM      5  CE  LYS A 135      29.010  35.043   7.973  1.00 34.25     0.338 C 
ATOM      6  NZ  LYS A 135      28.889  35.545   6.576  1.00 35.99     0.618 N 
ENDBRANCH   4   5
ENDBRANCH   3   4
ENDBRANCH   2   3
ENDBRANCH   1   2
END_RES LYS A 135
BEGIN_RES TYR A 136
REMARK  2 active torsions:
REMARK  status: ('A' for Active; 'I' for Inactive)
REMARK    5  A    between atoms: CA   and  CB  
REMARK    6  A    between atoms: CB   and  CG  
ROOT
ATOM      7  CA  TYR A 136      36.583  36.399   8.994  1.00 26.14     0.191 C 
ENDROOT
BRANCH   7   8
ATOM      8  CB  TYR A 136      37.367  36.835  10.240  1.00 28.16     0.060 C 
BRANCH   8   9
ATOM      9  CG  TYR A 136      36.721  37.996  10.955  1.00 31.88    -0.020 A 
ATOM     10  CD2 TYR A 136      37.108  38.355  12.248  1.00 32.67    -0.002 A 
ATOM     11  CE2 TYR A 136      36.501  39.434  12.905  1.00 33.89     0.027 A 
ATOM     12  CZ  TYR A 136      35.495  40.160  12.261  1.00 34.34     0.131 A 
ATOM     13  OH  TYR A 136      34.884  41.237  12.889  1.00 35.14    -0.190 OA
ATOM     14  CE1 TYR A 136      35.097  39.816  10.978  1.00 35.01     0.027 A 
ATOM     15  CD1 TYR A 136      35.705  38.736  10.336  1.00 33.57    -0.002 A 
ENDBRANCH   8   9
ENDBRANCH   7   8
END_RES TYR A 136
BEGIN_RES ASN A 133
REMARK  2 active torsions:
REMARK  status: ('A' for Active; 'I' for Inactive)
REMARK    7  A    between atoms: CA   and  CB  
REMARK    8  A    between atoms: CB   and  CG  
ROOT
ATOM     16  CA  ASN A 133      31.225  30.257  11.749  1.00 18.15     0.196 C 
ENDROOT
BRANCH  16  17
ATOM     17  CB  ASN A 133      30.092  31.240  11.460  1.00 18.27     0.126 C 
BRANCH  17  18
ATOM     18  CG  ASN A 133      28.755  30.579  11.329  1.00 18.94     0.276 C 
ATOM     19  OD1 ASN A 133      28.588  29.620  10.574  1.00 18.09    -0.269 OA
ATOM     20  ND2 ASN A 133      27.775  31.094  12.071  1.00 18.93    -0.107 N 
ENDBRANCH  17  18
ENDBRANCH  16  17
END_RES ASN A 133
