REMARK VINA RESULT:    -6.239      5.750     10.754
REMARK INTER + INTRA:          -9.101
REMARK INTER:                  -5.489
REMARK INTRA:                  -3.611
REMARK UNBOUND:                -1.768
REMARK SMILES Cc1cn(C(C)(C)C(=O)c2c[nH]c3ccccc23)nn1
REMARK SMILES IDX 5 1 6 2 7 3 4 4 1 5 2 6 3 7 20 8 19 9 8 10 9 11 10 12 11 13
REMARK SMILES IDX 18 14 12 15 13 16 17 17 14 19 16 20 15 21
REMARK H PARENT 12 18
REMARK Flexibility Score: inf
ROOT
ATOM      1  C   UNL     1      25.564  33.013  15.339  1.00  0.00     0.122 C 
ATOM      2  C   UNL     1      26.026  34.390  15.835  1.00  0.00     0.046 C 
ATOM      3  C   UNL     1      24.481  32.465  16.218  1.00  0.00     0.046 C 
ENDROOT
BRANCH   1   4
ATOM      4  N   UNL     1      26.749  32.159  15.530  1.00  0.00    -0.239 N 
ATOM      5  C   UNL     1      30.290  31.414  16.148  1.00  0.00     0.070 C 
ATOM      6  C   UNL     1      28.813  31.423  15.882  1.00  0.00     0.080 A 
ATOM      7  C   UNL     1      28.015  32.546  15.769  1.00  0.00     0.135 A 
ATOM      8  N   UNL     1      27.990  30.382  15.706  1.00  0.00    -0.136 NA
ATOM      9  N   UNL     1      26.774  30.842  15.499  1.00  0.00    -0.066 NA
ENDBRANCH   1   4
BRANCH   1  10
ATOM     10  C   UNL     1      25.219  33.142  13.928  1.00  0.00     0.192 C 
ATOM     11  O   UNL     1      25.996  33.641  13.052  1.00  0.00    -0.291 OA
BRANCH  10  12
ATOM     12  C   UNL     1      23.917  32.688  13.459  1.00  0.00     0.045 A 
ATOM     13  C   UNL     1      22.783  33.488  13.270  1.00  0.00     0.095 A 
ATOM     14  C   UNL     1      23.517  31.411  13.135  1.00  0.00     0.010 A 
ATOM     15  N   UNL     1      21.763  32.727  12.856  1.00  0.00    -0.360 N 
ATOM     16  C   UNL     1      22.182  31.442  12.762  1.00  0.00     0.046 A 
ATOM     17  C   UNL     1      24.146  30.202  13.104  1.00  0.00     0.011 A 
ATOM     18  H   UNL     1      20.776  33.036  12.628  1.00  0.00     0.166 HD
ATOM     19  C   UNL     1      21.498  30.312  12.377  1.00  0.00     0.027 A 
ATOM     20  C   UNL     1      23.479  29.043  12.718  1.00  0.00     0.001 A 
ATOM     21  C   UNL     1      22.161  29.119  12.359  1.00  0.00     0.002 A 
ENDBRANCH  10  12
ENDBRANCH   1  10
TORSDOF 3
BEGIN_RES LYS A 135
REMARK  4 active torsions:
REMARK  status: ('A' for Active; 'I' for Inactive)
REMARK    1  A    between atoms: CA   and  CB  
REMARK    2  A    between atoms: CB   and  CG  
REMARK    3  A    between atoms: CG   and  CD  
REMARK    4  A    between atoms: CD   and  CE  
ROOT
ATOM      1  CA  LYS A 135      33.193  34.663   9.290  1.00 25.02     0.186 C 
ENDROOT
BRANCH   1   2
ATOM      2  CB  LYS A 135      32.060  35.360  10.034  1.00 26.63     0.034 C 
BRANCH   2   3
ATOM      3  CG  LYS A 135      30.850  35.626   9.176  1.00 29.45     0.005 C 
BRANCH   3   4
ATOM      4  CD  LYS A 135      30.302  34.327   8.605  1.00 32.00     0.041 C 
BRANCH   4   5
ATOM      5  CE  LYS A 135      28.802  34.243   8.818  1.00 34.25     0.338 C 
ATOM      6  NZ  LYS A 135      28.067  34.999   7.766  1.00 35.99     0.618 N 
ENDBRANCH   4   5
ENDBRANCH   3   4
ENDBRANCH   2   3
ENDBRANCH   1   2
END_RES LYS A 135
BEGIN_RES TYR A 136
REMARK  2 active torsions:
REMARK  status: ('A' for Active; 'I' for Inactive)
REMARK    5  A    between atoms: CA   and  CB  
REMARK    6  A    between atoms: CB   and  CG  
ROOT
ATOM      7  CA  TYR A 136      36.583  36.399   8.994  1.00 26.14     0.191 C 
ENDROOT
BRANCH   7   8
ATOM      8  CB  TYR A 136      37.367  36.835  10.240  1.00 28.16     0.060 C 
BRANCH   8   9
ATOM      9  CG  TYR A 136      37.198  38.303  10.548  1.00 31.88    -0.020 A 
ATOM     10  CD2 TYR A 136      36.551  39.159   9.654  1.00 32.67    -0.002 A 
ATOM     11  CE2 TYR A 136      36.401  40.521   9.949  1.00 33.89     0.027 A 
ATOM     12  CZ  TYR A 136      36.903  41.031  11.148  1.00 34.34     0.131 A 
ATOM     13  OH  TYR A 136      36.760  42.375  11.464  1.00 35.14    -0.190 OA
ATOM     14  CE1 TYR A 136      37.550  40.195  12.047  1.00 35.01     0.027 A 
ATOM     15  CD1 TYR A 136      37.699  38.841  11.740  1.00 33.57    -0.002 A 
ENDBRANCH   8   9
ENDBRANCH   7   8
END_RES TYR A 136
BEGIN_RES ASN A 133
REMARK  2 active torsions:
REMARK  status: ('A' for Active; 'I' for Inactive)
REMARK    7  A    between atoms: CA   and  CB  
REMARK    8  A    between atoms: CB   and  CG  
ROOT
ATOM     16  CA  ASN A 133      31.225  30.257  11.749  1.00 18.15     0.196 C 
ENDROOT
BRANCH  16  17
ATOM     17  CB  ASN A 133      30.092  31.240  11.460  1.00 18.27     0.126 C 
BRANCH  17  18
ATOM     18  CG  ASN A 133      28.752  30.581  11.344  1.00 18.94     0.276 C 
ATOM     19  OD1 ASN A 133      28.558  29.667  10.541  1.00 18.09    -0.269 OA
ATOM     20  ND2 ASN A 133      27.802  31.046  12.155  1.00 18.93    -0.107 N 
ENDBRANCH  17  18
ENDBRANCH  16  17
END_RES ASN A 133
