REMARK VINA RESULT:    -2.885      7.939     15.123
REMARK INTER + INTRA:          -7.141
REMARK INTER:                  -3.862
REMARK INTRA:                  -3.279
REMARK UNBOUND:                -3.413
REMARK SMILES CCN(CC)CCn1cc(C)nn1
REMARK SMILES IDX 6 1 7 2 8 3 11 4 10 5 9 6 12 7 13 8 3 9 2 10 1 11 4 12 5 13
REMARK H PARENT
REMARK Flexibility Score: inf
ROOT
ATOM      1  C   UNL     1      41.073  34.995  12.458  1.00  0.00     0.108 C 
ENDROOT
BRANCH   1   2
ATOM      2  C   UNL     1      40.408  33.714  12.790  1.00  0.00     0.161 C 
BRANCH   2   3
ATOM      3  N   UNL     1      38.936  33.840  12.722  1.00  0.00    -0.251 N 
ATOM      4  C   UNL     1      35.665  35.468  12.921  1.00  0.00     0.070 C 
ATOM      5  C   UNL     1      36.861  34.622  12.783  1.00  0.00     0.080 A 
ATOM      6  C   UNL     1      38.192  34.935  12.957  1.00  0.00     0.134 A 
ATOM      7  N   UNL     1      36.845  33.325  12.442  1.00  0.00    -0.136 NA
ATOM      8  N   UNL     1      38.078  32.870  12.409  1.00  0.00    -0.067 NA
ENDBRANCH   2   3
ENDBRANCH   1   2
BRANCH   1   9
ATOM      9  N   UNL     1      41.732  35.131  11.225  1.00  0.00    -0.302 NA
BRANCH   9  10
ATOM     10  C   UNL     1      41.927  36.405  10.656  1.00  0.00     0.081 C 
ATOM     11  C   UNL     1      40.641  36.983  10.171  1.00  0.00     0.021 C 
ENDBRANCH   9  10
BRANCH   9  12
ATOM     12  C   UNL     1      42.825  34.192  11.054  1.00  0.00     0.081 C 
ATOM     13  C   UNL     1      43.792  34.615   9.988  1.00  0.00     0.021 C 
ENDBRANCH   9  12
ENDBRANCH   1   9
TORSDOF 5
BEGIN_RES LYS A 135
REMARK  4 active torsions:
REMARK  status: ('A' for Active; 'I' for Inactive)
REMARK    1  A    between atoms: CA   and  CB  
REMARK    2  A    between atoms: CB   and  CG  
REMARK    3  A    between atoms: CG   and  CD  
REMARK    4  A    between atoms: CD   and  CE  
ROOT
ATOM      1  CA  LYS A 135      33.193  34.663   9.290  1.00 25.02     0.186 C 
ENDROOT
BRANCH   1   2
ATOM      2  CB  LYS A 135      32.060  35.360  10.034  1.00 26.63     0.034 C 
BRANCH   2   3
ATOM      3  CG  LYS A 135      30.736  34.651   9.916  1.00 29.45     0.005 C 
BRANCH   3   4
ATOM      4  CD  LYS A 135      30.429  34.325   8.462  1.00 32.00     0.041 C 
BRANCH   4   5
ATOM      5  CE  LYS A 135      29.010  34.732   8.113  1.00 34.25     0.338 C 
ATOM      6  NZ  LYS A 135      28.982  35.584   6.892  1.00 35.99     0.618 N 
ENDBRANCH   4   5
ENDBRANCH   3   4
ENDBRANCH   2   3
ENDBRANCH   1   2
END_RES LYS A 135
BEGIN_RES TYR A 136
REMARK  2 active torsions:
REMARK  status: ('A' for Active; 'I' for Inactive)
REMARK    5  A    between atoms: CA   and  CB  
REMARK    6  A    between atoms: CB   and  CG  
ROOT
ATOM      7  CA  TYR A 136      36.583  36.399   8.994  1.00 26.14     0.191 C 
ENDROOT
BRANCH   7   8
ATOM      8  CB  TYR A 136      37.367  36.835  10.240  1.00 28.16     0.060 C 
BRANCH   8   9
ATOM      9  CG  TYR A 136      37.048  38.249  10.661  1.00 31.88    -0.020 A 
ATOM     10  CD2 TYR A 136      37.326  38.698  11.954  1.00 32.67    -0.002 A 
ATOM     11  CE2 TYR A 136      37.024  40.013  12.335  1.00 33.89     0.027 A 
ATOM     12  CZ  TYR A 136      36.439  40.885  11.414  1.00 34.34     0.131 A 
ATOM     13  OH  TYR A 136      36.138  42.193  11.768  1.00 35.14    -0.190 OA
ATOM     14  CE1 TYR A 136      36.155  40.455  10.126  1.00 35.01     0.027 A 
ATOM     15  CD1 TYR A 136      36.454  39.142   9.760  1.00 33.57    -0.002 A 
ENDBRANCH   8   9
ENDBRANCH   7   8
END_RES TYR A 136
BEGIN_RES ASN A 133
REMARK  2 active torsions:
REMARK  status: ('A' for Active; 'I' for Inactive)
REMARK    7  A    between atoms: CA   and  CB  
REMARK    8  A    between atoms: CB   and  CG  
ROOT
ATOM     16  CA  ASN A 133      31.225  30.257  11.749  1.00 18.15     0.196 C 
ENDROOT
BRANCH  16  17
ATOM     17  CB  ASN A 133      30.092  31.240  11.460  1.00 18.27     0.126 C 
BRANCH  17  18
ATOM     18  CG  ASN A 133      28.751  30.582  11.352  1.00 18.94     0.276 C 
ATOM     19  OD1 ASN A 133      28.577  29.604  10.623  1.00 18.09    -0.269 OA
ATOM     20  ND2 ASN A 133      27.777  31.121  12.084  1.00 18.93    -0.107 N 
ENDBRANCH  17  18
ENDBRANCH  16  17
END_RES ASN A 133
