REMARK VINA RESULT:    -3.749      8.457     11.894
REMARK INTER + INTRA:          -7.188
REMARK INTER:                  -3.923
REMARK INTRA:                  -3.265
REMARK UNBOUND:                -3.220
REMARK SMILES Cc1cn([C@@H]2C[C@H]3CC[C@@H](C2)N3C)nn1
REMARK SMILES IDX 5 1 11 2 10 3 12 4 13 5 7 6 6 7 8 8 9 9 4 10 1 11 2 12 3 13
REMARK SMILES IDX 15 14 14 15
REMARK H PARENT
REMARK Flexibility Score: inf
ROOT
ATOM      1  C   UNL     1      37.142  39.037   4.258  1.00  0.00     0.112 C 
ATOM      2  C   UNL     1      36.496  40.373   4.241  1.00  0.00     0.046 C 
ATOM      3  C   UNL     1      35.417  40.588   5.226  1.00  0.00     0.058 C 
ATOM      4  N   UNL     1      34.581  39.437   5.474  1.00  0.00    -0.300 NA
ATOM      5  C   UNL     1      33.527  39.782   6.372  1.00  0.00     0.105 C 
ATOM      6  C   UNL     1      35.560  38.526   6.090  1.00  0.00     0.058 C 
ATOM      7  C   UNL     1      36.334  37.954   4.903  1.00  0.00     0.046 C 
ATOM      8  C   UNL     1      36.431  39.375   6.965  1.00  0.00     0.021 C 
ATOM      9  C   UNL     1      36.030  40.805   6.615  1.00  0.00     0.021 C 
ENDROOT
BRANCH   1  10
ATOM     10  N   UNL     1      37.511  38.692   2.896  1.00  0.00    -0.249 N 
ATOM     11  C   UNL     1      38.694  39.205  -0.520  1.00  0.00     0.070 C 
ATOM     12  C   UNL     1      38.191  38.710   0.770  1.00  0.00     0.080 A 
ATOM     13  C   UNL     1      37.972  39.480   1.908  1.00  0.00     0.134 A 
ATOM     14  N   UNL     1      37.846  37.461   1.136  1.00  0.00    -0.136 NA
ATOM     15  N   UNL     1      37.452  37.471   2.379  1.00  0.00    -0.067 NA
ENDBRANCH   1  10
TORSDOF 1
BEGIN_RES LYS A 135
REMARK  4 active torsions:
REMARK  status: ('A' for Active; 'I' for Inactive)
REMARK    1  A    between atoms: CA   and  CB  
REMARK    2  A    between atoms: CB   and  CG  
REMARK    3  A    between atoms: CG   and  CD  
REMARK    4  A    between atoms: CD   and  CE  
ROOT
ATOM      1  CA  LYS A 135      33.193  34.663   9.290  1.00 25.02     0.186 C 
ENDROOT
BRANCH   1   2
ATOM      2  CB  LYS A 135      32.060  35.360  10.034  1.00 26.63     0.034 C 
BRANCH   2   3
ATOM      3  CG  LYS A 135      30.848  35.621   9.178  1.00 29.45     0.005 C 
BRANCH   3   4
ATOM      4  CD  LYS A 135      30.279  34.317   8.640  1.00 32.00     0.041 C 
BRANCH   4   5
ATOM      5  CE  LYS A 135      28.772  34.412   8.498  1.00 34.25     0.338 C 
ATOM      6  NZ  LYS A 135      28.083  33.715   9.619  1.00 35.99     0.618 N 
ENDBRANCH   4   5
ENDBRANCH   3   4
ENDBRANCH   2   3
ENDBRANCH   1   2
END_RES LYS A 135
BEGIN_RES TYR A 136
REMARK  2 active torsions:
REMARK  status: ('A' for Active; 'I' for Inactive)
REMARK    5  A    between atoms: CA   and  CB  
REMARK    6  A    between atoms: CB   and  CG  
ROOT
ATOM      7  CA  TYR A 136      36.583  36.399   8.994  1.00 26.14     0.191 C 
ENDROOT
BRANCH   7   8
ATOM      8  CB  TYR A 136      37.367  36.835  10.240  1.00 28.16     0.060 C 
BRANCH   8   9
ATOM      9  CG  TYR A 136      37.357  38.331  10.437  1.00 31.88    -0.020 A 
ATOM     10  CD2 TYR A 136      36.168  39.020  10.686  1.00 32.67    -0.002 A 
ATOM     11  CE2 TYR A 136      36.170  40.410  10.866  1.00 33.89     0.027 A 
ATOM     12  CZ  TYR A 136      37.373  41.117  10.797  1.00 34.34     0.131 A 
ATOM     13  OH  TYR A 136      37.400  42.493  10.979  1.00 35.14    -0.190 OA
ATOM     14  CE1 TYR A 136      38.563  40.449  10.550  1.00 35.01     0.027 A 
ATOM     15  CD1 TYR A 136      38.548  39.065  10.365  1.00 33.57    -0.002 A 
ENDBRANCH   8   9
ENDBRANCH   7   8
END_RES TYR A 136
BEGIN_RES ASN A 133
REMARK  2 active torsions:
REMARK  status: ('A' for Active; 'I' for Inactive)
REMARK    7  A    between atoms: CA   and  CB  
REMARK    8  A    between atoms: CB   and  CG  
ROOT
ATOM     16  CA  ASN A 133      31.225  30.257  11.749  1.00 18.15     0.196 C 
ENDROOT
BRANCH  16  17
ATOM     17  CB  ASN A 133      30.092  31.240  11.460  1.00 18.27     0.126 C 
BRANCH  17  18
ATOM     18  CG  ASN A 133      28.752  30.582  11.350  1.00 18.94     0.276 C 
ATOM     19  OD1 ASN A 133      28.578  29.606  10.618  1.00 18.09    -0.269 OA
ATOM     20  ND2 ASN A 133      27.777  31.118  12.084  1.00 18.93    -0.107 N 
ENDBRANCH  17  18
ENDBRANCH  16  17
END_RES ASN A 133
