REMARK VINA RESULT:    -5.151      1.632      4.058
REMARK INTER + INTRA:          -8.583
REMARK INTER:                  -5.367
REMARK INTRA:                  -3.216
REMARK UNBOUND:                -2.529
REMARK SMILES Cc1cn(Cc2cccc(C#N)c2)nn1
REMARK SMILES IDX 6 1 7 2 8 3 9 4 10 5 13 6 5 7 4 8 1 9 2 10 3 11 15 12 14 13
REMARK SMILES IDX 11 14 12 15
REMARK H PARENT
REMARK Flexibility Score: inf
ROOT
ATOM      1  C   UNL     1      33.038  35.103  15.254  1.00  0.00    -0.025 A 
ATOM      2  C   UNL     1      33.053  35.743  16.469  1.00  0.00     0.006 A 
ATOM      3  C   UNL     1      32.389  35.263  17.582  1.00  0.00     0.002 A 
ATOM      4  C   UNL     1      31.681  34.086  17.454  1.00  0.00     0.019 A 
ATOM      5  C   UNL     1      31.636  33.408  16.253  1.00  0.00     0.052 A 
ATOM      6  C   UNL     1      32.322  33.928  15.154  1.00  0.00     0.025 A 
ENDROOT
BRANCH   1   7
ATOM      7  C   UNL     1      33.747  35.612  14.064  1.00  0.00     0.181 C 
BRANCH   7   8
ATOM      8  N   UNL     1      35.071  35.096  13.924  1.00  0.00    -0.248 N 
ATOM      9  C   UNL     1      37.570  33.057  12.227  1.00  0.00     0.070 C 
ATOM     10  C   UNL     1      36.766  33.963  13.109  1.00  0.00     0.080 A 
ATOM     11  C   UNL     1      35.443  34.253  12.945  1.00  0.00     0.134 A 
ATOM     12  N   UNL     1      37.186  34.640  14.193  1.00  0.00    -0.136 NA
ATOM     13  N   UNL     1      36.155  35.313  14.667  1.00  0.00    -0.067 NA
ENDBRANCH   7   8
ENDBRANCH   1   7
BRANCH   5  14
ATOM     14  C   UNL     1      30.881  32.191  16.190  1.00  0.00     0.099 C 
ATOM     15  N   UNL     1      30.257  31.221  16.145  1.00  0.00    -0.192 NA
ENDBRANCH   5  14
TORSDOF 3
BEGIN_RES LYS A 135
REMARK  4 active torsions:
REMARK  status: ('A' for Active; 'I' for Inactive)
REMARK    1  A    between atoms: CA   and  CB  
REMARK    2  A    between atoms: CB   and  CG  
REMARK    3  A    between atoms: CG   and  CD  
REMARK    4  A    between atoms: CD   and  CE  
ROOT
ATOM      1  CA  LYS A 135      33.193  34.663   9.290  1.00 25.02     0.186 C 
ENDROOT
BRANCH   1   2
ATOM      2  CB  LYS A 135      32.060  35.360  10.034  1.00 26.63     0.034 C 
BRANCH   2   3
ATOM      3  CG  LYS A 135      30.707  34.747   9.782  1.00 29.45     0.005 C 
BRANCH   3   4
ATOM      4  CD  LYS A 135      30.466  34.573   8.290  1.00 32.00     0.041 C 
BRANCH   4   5
ATOM      5  CE  LYS A 135      29.017  34.863   7.948  1.00 34.25     0.338 C 
ATOM      6  NZ  LYS A 135      28.903  35.536   6.624  1.00 35.99     0.618 N 
ENDBRANCH   4   5
ENDBRANCH   3   4
ENDBRANCH   2   3
ENDBRANCH   1   2
END_RES LYS A 135
BEGIN_RES TYR A 136
REMARK  2 active torsions:
REMARK  status: ('A' for Active; 'I' for Inactive)
REMARK    5  A    between atoms: CA   and  CB  
REMARK    6  A    between atoms: CB   and  CG  
ROOT
ATOM      7  CA  TYR A 136      36.583  36.399   8.994  1.00 26.14     0.191 C 
ENDROOT
BRANCH   7   8
ATOM      8  CB  TYR A 136      37.367  36.835  10.240  1.00 28.16     0.060 C 
BRANCH   8   9
ATOM      9  CG  TYR A 136      36.759  38.039  10.916  1.00 31.88    -0.020 A 
ATOM     10  CD2 TYR A 136      36.328  37.983  12.243  1.00 32.67    -0.002 A 
ATOM     11  CE2 TYR A 136      35.763  39.106  12.862  1.00 33.89     0.027 A 
ATOM     12  CZ  TYR A 136      35.628  40.298  12.145  1.00 34.34     0.131 A 
ATOM     13  OH  TYR A 136      35.078  41.425  12.739  1.00 35.14    -0.190 OA
ATOM     14  CE1 TYR A 136      36.050  40.372  10.825  1.00 35.01     0.027 A 
ATOM     15  CD1 TYR A 136      36.605  39.244  10.218  1.00 33.57    -0.002 A 
ENDBRANCH   8   9
ENDBRANCH   7   8
END_RES TYR A 136
BEGIN_RES ASN A 133
REMARK  2 active torsions:
REMARK  status: ('A' for Active; 'I' for Inactive)
REMARK    7  A    between atoms: CA   and  CB  
REMARK    8  A    between atoms: CB   and  CG  
ROOT
ATOM     16  CA  ASN A 133      31.225  30.257  11.749  1.00 18.15     0.196 C 
ENDROOT
BRANCH  16  17
ATOM     17  CB  ASN A 133      30.092  31.240  11.460  1.00 18.27     0.126 C 
BRANCH  17  18
ATOM     18  CG  ASN A 133      28.751  30.582  11.352  1.00 18.94     0.276 C 
ATOM     19  OD1 ASN A 133      28.578  29.602  10.625  1.00 18.09    -0.269 OA
ATOM     20  ND2 ASN A 133      27.777  31.122  12.083  1.00 18.93    -0.107 N 
ENDBRANCH  17  18
ENDBRANCH  16  17
END_RES ASN A 133
