REMARK VINA RESULT:    -3.961      3.656      5.746
REMARK INTER + INTRA:          -8.155
REMARK INTER:                  -5.062
REMARK INTRA:                  -3.094
REMARK UNBOUND:                -3.500
REMARK SMILES Cc1cn(CS(=O)(=O)c2ccccc2)nn1
REMARK SMILES IDX 5 1 4 2 1 3 2 4 3 5 16 6 15 7 6 8 7 9 8 10 9 11 10 12 14 13
REMARK SMILES IDX 11 14 13 15 12 16
REMARK H PARENT
REMARK Flexibility Score: inf
ROOT
ATOM      1  C   UNL     1      33.296  34.639  14.516  1.00  0.00     0.287 C 
ENDROOT
BRANCH   1   2
ATOM      2  N   UNL     1      31.969  35.171  14.274  1.00  0.00    -0.237 N 
ATOM      3  C   UNL     1      28.589  35.273  12.850  1.00  0.00     0.070 C 
ATOM      4  C   UNL     1      29.876  35.496  13.561  1.00  0.00     0.080 A 
ATOM      5  C   UNL     1      30.987  34.659  13.510  1.00  0.00     0.135 A 
ATOM      6  N   UNL     1      30.246  36.501  14.374  1.00  0.00    -0.136 NA
ATOM      7  N   UNL     1      31.486  36.302  14.792  1.00  0.00    -0.066 NA
ENDBRANCH   1   2
BRANCH   1   8
ATOM      8  S   UNL     1      34.559  35.684  13.848  1.00  0.00     0.198 S 
ATOM      9  O   UNL     1      34.871  36.839  14.748  1.00  0.00    -0.222 OA
ATOM     10  O   UNL     1      34.106  36.259  12.535  1.00  0.00    -0.222 OA
BRANCH   8  11
ATOM     11  C   UNL     1      36.033  34.811  13.556  1.00  0.00     0.069 A 
ATOM     12  C   UNL     1      37.145  34.951  14.373  1.00  0.00     0.020 A 
ATOM     13  C   UNL     1      36.113  33.959  12.493  1.00  0.00     0.020 A 
ATOM     14  C   UNL     1      38.303  34.254  14.128  1.00  0.00     0.001 A 
ATOM     15  C   UNL     1      37.262  33.230  12.202  1.00  0.00     0.001 A 
ATOM     16  C   UNL     1      38.352  33.388  13.030  1.00  0.00     0.000 A 
ENDBRANCH   8  11
ENDBRANCH   1   8
TORSDOF 3
BEGIN_RES LYS A 135
REMARK  4 active torsions:
REMARK  status: ('A' for Active; 'I' for Inactive)
REMARK    1  A    between atoms: CA   and  CB  
REMARK    2  A    between atoms: CB   and  CG  
REMARK    3  A    between atoms: CG   and  CD  
REMARK    4  A    between atoms: CD   and  CE  
ROOT
ATOM      1  CA  LYS A 135      33.193  34.663   9.290  1.00 25.02     0.186 C 
ENDROOT
BRANCH   1   2
ATOM      2  CB  LYS A 135      32.060  35.360  10.034  1.00 26.63     0.034 C 
BRANCH   2   3
ATOM      3  CG  LYS A 135      30.699  34.787   9.733  1.00 29.45     0.005 C 
BRANCH   3   4
ATOM      4  CD  LYS A 135      30.540  34.538   8.241  1.00 32.00     0.041 C 
BRANCH   4   5
ATOM      5  CE  LYS A 135      29.141  34.907   7.786  1.00 34.25     0.338 C 
ATOM      6  NZ  LYS A 135      28.881  36.361   7.976  1.00 35.99     0.618 N 
ENDBRANCH   4   5
ENDBRANCH   3   4
ENDBRANCH   2   3
ENDBRANCH   1   2
END_RES LYS A 135
BEGIN_RES TYR A 136
REMARK  2 active torsions:
REMARK  status: ('A' for Active; 'I' for Inactive)
REMARK    5  A    between atoms: CA   and  CB  
REMARK    6  A    between atoms: CB   and  CG  
ROOT
ATOM      7  CA  TYR A 136      36.583  36.399   8.994  1.00 26.14     0.191 C 
ENDROOT
BRANCH   7   8
ATOM      8  CB  TYR A 136      37.367  36.835  10.240  1.00 28.16     0.060 C 
BRANCH   8   9
ATOM      9  CG  TYR A 136      36.743  38.021  10.933  1.00 31.88    -0.020 A 
ATOM     10  CD2 TYR A 136      35.869  38.876  10.257  1.00 32.67    -0.002 A 
ATOM     11  CE2 TYR A 136      35.296  39.976  10.909  1.00 33.89     0.027 A 
ATOM     12  CZ  TYR A 136      35.600  40.224  12.250  1.00 34.34     0.131 A 
ATOM     13  OH  TYR A 136      35.038  41.303  12.918  1.00 35.14    -0.190 OA
ATOM     14  CE1 TYR A 136      36.467  39.386  12.936  1.00 35.01     0.027 A 
ATOM     15  CD1 TYR A 136      37.036  38.297  12.274  1.00 33.57    -0.002 A 
ENDBRANCH   8   9
ENDBRANCH   7   8
END_RES TYR A 136
BEGIN_RES ASN A 133
REMARK  2 active torsions:
REMARK  status: ('A' for Active; 'I' for Inactive)
REMARK    7  A    between atoms: CA   and  CB  
REMARK    8  A    between atoms: CB   and  CG  
ROOT
ATOM     16  CA  ASN A 133      31.225  30.257  11.749  1.00 18.15     0.196 C 
ENDROOT
BRANCH  16  17
ATOM     17  CB  ASN A 133      30.092  31.240  11.460  1.00 18.27     0.126 C 
BRANCH  17  18
ATOM     18  CG  ASN A 133      28.756  30.579  11.322  1.00 18.94     0.276 C 
ATOM     19  OD1 ASN A 133      28.595  29.616  10.570  1.00 18.09    -0.269 OA
ATOM     20  ND2 ASN A 133      27.771  31.097  12.055  1.00 18.93    -0.107 N 
ENDBRANCH  17  18
ENDBRANCH  16  17
END_RES ASN A 133
