REMARK VINA RESULT:    -4.239      8.198     14.577
REMARK INTER + INTRA:          -7.838
REMARK INTER:                  -4.687
REMARK INTRA:                  -3.151
REMARK UNBOUND:                -3.228
REMARK SMILES Cc1cn(-c2nc(C)nc(N)n2)nn1
REMARK SMILES IDX 5 1 12 2 10 3 9 4 7 5 8 6 6 7 4 8 1 9 2 10 3 11 14 12 13 13
REMARK SMILES IDX 11 14
REMARK H PARENT 11 15 11 16
REMARK Flexibility Score: inf
ROOT
ATOM      1  C   UNL     1      36.200  34.748  13.693  1.00  0.00     0.257 A 
ATOM      2  N   UNL     1      35.084  34.590  12.980  1.00  0.00    -0.175 NA
ATOM      3  C   UNL     1      33.947  35.166  13.384  1.00  0.00     0.225 A 
ATOM      4  N   UNL     1      33.934  35.902  14.509  1.00  0.00    -0.198 NA
ATOM      5  C   UNL     1      35.054  36.073  15.241  1.00  0.00     0.133 A 
ATOM      6  C   UNL     1      35.041  36.890  16.491  1.00  0.00     0.090 C 
ATOM      7  N   UNL     1      36.171  35.481  14.804  1.00  0.00    -0.196 NA
ENDROOT
BRANCH   1   8
ATOM      8  N   UNL     1      37.403  34.131  13.254  1.00  0.00    -0.185 N 
ATOM      9  C   UNL     1      40.987  33.809  12.634  1.00  0.00     0.070 C 
ATOM     10  C   UNL     1      39.523  33.695  12.776  1.00  0.00     0.080 A 
ATOM     11  C   UNL     1      38.661  34.619  13.309  1.00  0.00     0.144 A 
ATOM     12  N   UNL     1      38.769  32.660  12.403  1.00  0.00    -0.135 NA
ATOM     13  N   UNL     1      37.513  32.947  12.699  1.00  0.00    -0.059 NA
ENDBRANCH   1   8
BRANCH   3  14
ATOM     14  N   UNL     1      32.791  34.961  12.584  1.00  0.00    -0.368 N 
ATOM     15  H   UNL     1      31.868  35.336  12.889  1.00  0.00     0.159 HD
ATOM     16  H   UNL     1      32.841  34.441  11.686  1.00  0.00     0.159 HD
ENDBRANCH   3  14
TORSDOF 2
BEGIN_RES LYS A 135
REMARK  4 active torsions:
REMARK  status: ('A' for Active; 'I' for Inactive)
REMARK    1  A    between atoms: CA   and  CB  
REMARK    2  A    between atoms: CB   and  CG  
REMARK    3  A    between atoms: CG   and  CD  
REMARK    4  A    between atoms: CD   and  CE  
ROOT
ATOM      1  CA  LYS A 135      33.193  34.663   9.290  1.00 25.02     0.186 C 
ENDROOT
BRANCH   1   2
ATOM      2  CB  LYS A 135      32.060  35.360  10.034  1.00 26.63     0.034 C 
BRANCH   2   3
ATOM      3  CG  LYS A 135      30.830  35.577   9.191  1.00 29.45     0.005 C 
BRANCH   3   4
ATOM      4  CD  LYS A 135      30.223  34.246   8.775  1.00 32.00     0.041 C 
BRANCH   4   5
ATOM      5  CE  LYS A 135      28.733  34.392   8.533  1.00 34.25     0.338 C 
ATOM      6  NZ  LYS A 135      27.947  33.696   9.589  1.00 35.99     0.618 N 
ENDBRANCH   4   5
ENDBRANCH   3   4
ENDBRANCH   2   3
ENDBRANCH   1   2
END_RES LYS A 135
BEGIN_RES TYR A 136
REMARK  2 active torsions:
REMARK  status: ('A' for Active; 'I' for Inactive)
REMARK    5  A    between atoms: CA   and  CB  
REMARK    6  A    between atoms: CB   and  CG  
ROOT
ATOM      7  CA  TYR A 136      36.583  36.399   8.994  1.00 26.14     0.191 C 
ENDROOT
BRANCH   7   8
ATOM      8  CB  TYR A 136      37.367  36.835  10.240  1.00 28.16     0.060 C 
BRANCH   8   9
ATOM      9  CG  TYR A 136      36.807  38.087  10.869  1.00 31.88    -0.020 A 
ATOM     10  CD2 TYR A 136      37.055  39.346  10.317  1.00 32.67    -0.002 A 
ATOM     11  CE2 TYR A 136      36.532  40.504  10.910  1.00 33.89     0.027 A 
ATOM     12  CZ  TYR A 136      35.754  40.400  12.066  1.00 34.34     0.131 A 
ATOM     13  OH  TYR A 136      35.220  41.532  12.666  1.00 35.14    -0.190 OA
ATOM     14  CE1 TYR A 136      35.499  39.158  12.628  1.00 35.01     0.027 A 
ATOM     15  CD1 TYR A 136      36.031  38.013  12.032  1.00 33.57    -0.002 A 
ENDBRANCH   8   9
ENDBRANCH   7   8
END_RES TYR A 136
BEGIN_RES ASN A 133
REMARK  2 active torsions:
REMARK  status: ('A' for Active; 'I' for Inactive)
REMARK    7  A    between atoms: CA   and  CB  
REMARK    8  A    between atoms: CB   and  CG  
ROOT
ATOM     16  CA  ASN A 133      31.225  30.257  11.749  1.00 18.15     0.196 C 
ENDROOT
BRANCH  16  17
ATOM     17  CB  ASN A 133      30.092  31.240  11.460  1.00 18.27     0.126 C 
BRANCH  17  18
ATOM     18  CG  ASN A 133      28.751  30.583  11.357  1.00 18.94     0.276 C 
ATOM     19  OD1 ASN A 133      28.571  29.612  10.620  1.00 18.09    -0.269 OA
ATOM     20  ND2 ASN A 133      27.782  31.114  12.102  1.00 18.93    -0.107 N 
ENDBRANCH  17  18
ENDBRANCH  16  17
END_RES ASN A 133
