REMARK VINA RESULT:    -4.396      4.439      8.491
REMARK INTER + INTRA:          -7.696
REMARK INTER:                  -4.653
REMARK INTRA:                  -3.043
REMARK UNBOUND:                -2.529
REMARK SMILES Cc1cn(Cc2cccc(C#N)c2)nn1
REMARK SMILES IDX 6 1 7 2 8 3 9 4 10 5 13 6 5 7 4 8 1 9 2 10 3 11 15 12 14 13
REMARK SMILES IDX 11 14 12 15
REMARK H PARENT
REMARK Flexibility Score: inf
ROOT
ATOM      1  C   UNL     1      28.314  38.180   6.183  1.00  0.00    -0.025 A 
ATOM      2  C   UNL     1      28.788  36.967   5.745  1.00  0.00     0.006 A 
ATOM      3  C   UNL     1      28.232  35.760   6.124  1.00  0.00     0.002 A 
ATOM      4  C   UNL     1      27.152  35.786   6.982  1.00  0.00     0.019 A 
ATOM      5  C   UNL     1      26.641  36.980   7.448  1.00  0.00     0.052 A 
ATOM      6  C   UNL     1      27.232  38.177   7.040  1.00  0.00     0.025 A 
ENDROOT
BRANCH   1   7
ATOM      7  C   UNL     1      28.904  39.470   5.780  1.00  0.00     0.181 C 
BRANCH   7   8
ATOM      8  N   UNL     1      30.265  39.627   6.185  1.00  0.00    -0.248 N 
ATOM      9  C   UNL     1      32.869  39.796   8.730  1.00  0.00     0.070 C 
ATOM     10  C   UNL     1      32.023  39.771   7.493  1.00  0.00     0.080 A 
ATOM     11  C   UNL     1      30.671  39.588   7.466  1.00  0.00     0.134 A 
ATOM     12  N   UNL     1      32.425  39.919   6.218  1.00  0.00    -0.136 NA
ATOM     13  N   UNL     1      31.357  39.829   5.450  1.00  0.00    -0.067 NA
ENDBRANCH   7   8
ENDBRANCH   1   7
BRANCH   5  14
ATOM     14  C   UNL     1      25.517  36.934   8.337  1.00  0.00     0.099 C 
ATOM     15  N   UNL     1      24.601  36.893   9.037  1.00  0.00    -0.192 NA
ENDBRANCH   5  14
TORSDOF 3
BEGIN_RES LYS A 135
REMARK  4 active torsions:
REMARK  status: ('A' for Active; 'I' for Inactive)
REMARK    1  A    between atoms: CA   and  CB  
REMARK    2  A    between atoms: CB   and  CG  
REMARK    3  A    between atoms: CG   and  CD  
REMARK    4  A    between atoms: CD   and  CE  
ROOT
ATOM      1  CA  LYS A 135      33.193  34.663   9.290  1.00 25.02     0.186 C 
ENDROOT
BRANCH   1   2
ATOM      2  CB  LYS A 135      32.060  35.360  10.034  1.00 26.63     0.034 C 
BRANCH   2   3
ATOM      3  CG  LYS A 135      30.835  35.589   9.187  1.00 29.45     0.005 C 
BRANCH   3   4
ATOM      4  CD  LYS A 135      30.275  34.268   8.684  1.00 32.00     0.041 C 
BRANCH   4   5
ATOM      5  CE  LYS A 135      29.002  33.911   9.426  1.00 34.25     0.338 C 
ATOM      6  NZ  LYS A 135      28.496  35.070  10.212  1.00 35.99     0.618 N 
ENDBRANCH   4   5
ENDBRANCH   3   4
ENDBRANCH   2   3
ENDBRANCH   1   2
END_RES LYS A 135
BEGIN_RES TYR A 136
REMARK  2 active torsions:
REMARK  status: ('A' for Active; 'I' for Inactive)
REMARK    5  A    between atoms: CA   and  CB  
REMARK    6  A    between atoms: CB   and  CG  
ROOT
ATOM      7  CA  TYR A 136      36.583  36.399   8.994  1.00 26.14     0.191 C 
ENDROOT
BRANCH   7   8
ATOM      8  CB  TYR A 136      37.367  36.835  10.240  1.00 28.16     0.060 C 
BRANCH   8   9
ATOM      9  CG  TYR A 136      37.214  38.307  10.536  1.00 31.88    -0.020 A 
ATOM     10  CD2 TYR A 136      37.737  38.867  11.704  1.00 32.67    -0.002 A 
ATOM     11  CE2 TYR A 136      37.588  40.235  11.970  1.00 33.89     0.027 A 
ATOM     12  CZ  TYR A 136      36.909  41.049  11.061  1.00 34.34     0.131 A 
ATOM     13  OH  TYR A 136      36.755  42.408  11.300  1.00 35.14    -0.190 OA
ATOM     14  CE1 TYR A 136      36.382  40.509   9.897  1.00 35.01     0.027 A 
ATOM     15  CD1 TYR A 136      36.531  39.144   9.645  1.00 33.57    -0.002 A 
ENDBRANCH   8   9
ENDBRANCH   7   8
END_RES TYR A 136
BEGIN_RES ASN A 133
REMARK  2 active torsions:
REMARK  status: ('A' for Active; 'I' for Inactive)
REMARK    7  A    between atoms: CA   and  CB  
REMARK    8  A    between atoms: CB   and  CG  
ROOT
ATOM     16  CA  ASN A 133      31.225  30.257  11.749  1.00 18.15     0.196 C 
ENDROOT
BRANCH  16  17
ATOM     17  CB  ASN A 133      30.092  31.240  11.460  1.00 18.27     0.126 C 
BRANCH  17  18
ATOM     18  CG  ASN A 133      28.757  30.578  11.313  1.00 18.94     0.276 C 
ATOM     19  OD1 ASN A 133      28.605  29.606  10.570  1.00 18.09    -0.269 OA
ATOM     20  ND2 ASN A 133      27.763  31.105  12.027  1.00 18.93    -0.107 N 
ENDBRANCH  17  18
ENDBRANCH  16  17
END_RES ASN A 133
