REMARK VINA RESULT:    -5.420      3.724      6.087
REMARK INTER + INTRA:          -9.058
REMARK INTER:                  -5.395
REMARK INTRA:                  -3.663
REMARK UNBOUND:                -2.688
REMARK SMILES Cc1cn(C(c2ccccc2)c2ccccc2)nn1
REMARK SMILES IDX 5 1 4 2 1 3 2 4 3 5 19 6 18 7 6 8 7 9 11 10 8 11 10 12 9 13
REMARK SMILES IDX 12 14 13 15 17 16 14 17 16 18 15 19
REMARK H PARENT
REMARK Flexibility Score: inf
ROOT
ATOM      1  C   UNL     1      39.418  36.000  14.115  1.00  0.00     0.169 C 
ENDROOT
BRANCH   1   2
ATOM      2  N   UNL     1      40.531  35.375  14.826  1.00  0.00    -0.240 N 
ATOM      3  C   UNL     1      43.956  34.235  15.400  1.00  0.00     0.070 C 
ATOM      4  C   UNL     1      42.534  34.596  15.392  1.00  0.00     0.080 A 
ATOM      5  C   UNL     1      41.805  35.258  14.411  1.00  0.00     0.135 A 
ATOM      6  N   UNL     1      41.648  34.338  16.371  1.00  0.00    -0.136 NA
ATOM      7  N   UNL     1      40.469  34.807  16.016  1.00  0.00    -0.066 NA
ENDBRANCH   1   2
BRANCH   1   8
ATOM      8  C   UNL     1      38.513  35.022  13.476  1.00  0.00    -0.019 A 
ATOM      9  C   UNL     1      38.917  33.790  13.038  1.00  0.00     0.006 A 
ATOM     10  C   UNL     1      37.167  35.332  13.299  1.00  0.00     0.006 A 
ATOM     11  C   UNL     1      38.000  32.913  12.447  1.00  0.00     0.000 A 
ATOM     12  C   UNL     1      36.267  34.474  12.719  1.00  0.00     0.000 A 
ATOM     13  C   UNL     1      36.678  33.245  12.284  1.00  0.00     0.000 A 
ENDBRANCH   1   8
BRANCH   1  14
ATOM     14  C   UNL     1      39.869  37.081  13.236  1.00  0.00    -0.019 A 
ATOM     15  C   UNL     1      40.319  36.902  11.946  1.00  0.00     0.006 A 
ATOM     16  C   UNL     1      39.843  38.388  13.686  1.00  0.00     0.006 A 
ATOM     17  C   UNL     1      40.710  37.958  11.180  1.00  0.00     0.000 A 
ATOM     18  C   UNL     1      40.231  39.473  12.932  1.00  0.00     0.000 A 
ATOM     19  C   UNL     1      40.669  39.242  11.663  1.00  0.00     0.000 A 
ENDBRANCH   1  14
TORSDOF 3
BEGIN_RES LYS A 135
REMARK  4 active torsions:
REMARK  status: ('A' for Active; 'I' for Inactive)
REMARK    1  A    between atoms: CA   and  CB  
REMARK    2  A    between atoms: CB   and  CG  
REMARK    3  A    between atoms: CG   and  CD  
REMARK    4  A    between atoms: CD   and  CE  
ROOT
ATOM      1  CA  LYS A 135      33.193  34.663   9.290  1.00 25.02     0.186 C 
ENDROOT
BRANCH   1   2
ATOM      2  CB  LYS A 135      32.060  35.360  10.034  1.00 26.63     0.034 C 
BRANCH   2   3
ATOM      3  CG  LYS A 135      30.852  35.631   9.175  1.00 29.45     0.005 C 
BRANCH   3   4
ATOM      4  CD  LYS A 135      30.303  34.335   8.597  1.00 32.00     0.041 C 
BRANCH   4   5
ATOM      5  CE  LYS A 135      28.796  34.415   8.447  1.00 34.25     0.338 C 
ATOM      6  NZ  LYS A 135      28.108  33.753   9.590  1.00 35.99     0.618 N 
ENDBRANCH   4   5
ENDBRANCH   3   4
ENDBRANCH   2   3
ENDBRANCH   1   2
END_RES LYS A 135
BEGIN_RES TYR A 136
REMARK  2 active torsions:
REMARK  status: ('A' for Active; 'I' for Inactive)
REMARK    5  A    between atoms: CA   and  CB  
REMARK    6  A    between atoms: CB   and  CG  
ROOT
ATOM      7  CA  TYR A 136      36.583  36.399   8.994  1.00 26.14     0.191 C 
ENDROOT
BRANCH   7   8
ATOM      8  CB  TYR A 136      37.367  36.835  10.240  1.00 28.16     0.060 C 
BRANCH   8   9
ATOM      9  CG  TYR A 136      37.191  38.300  10.553  1.00 31.88    -0.020 A 
ATOM     10  CD2 TYR A 136      37.525  39.285   9.621  1.00 32.67    -0.002 A 
ATOM     11  CE2 TYR A 136      37.359  40.643   9.922  1.00 33.89     0.027 A 
ATOM     12  CZ  TYR A 136      36.854  41.021  11.168  1.00 34.34     0.131 A 
ATOM     13  OH  TYR A 136      36.674  42.360  11.486  1.00 35.14    -0.190 OA
ATOM     14  CE1 TYR A 136      36.517  40.056  12.107  1.00 35.01     0.027 A 
ATOM     15  CD1 TYR A 136      36.693  38.707  11.798  1.00 33.57    -0.002 A 
ENDBRANCH   8   9
ENDBRANCH   7   8
END_RES TYR A 136
BEGIN_RES ASN A 133
REMARK  2 active torsions:
REMARK  status: ('A' for Active; 'I' for Inactive)
REMARK    7  A    between atoms: CA   and  CB  
REMARK    8  A    between atoms: CB   and  CG  
ROOT
ATOM     16  CA  ASN A 133      31.225  30.257  11.749  1.00 18.15     0.196 C 
ENDROOT
BRANCH  16  17
ATOM     17  CB  ASN A 133      30.092  31.240  11.460  1.00 18.27     0.126 C 
BRANCH  17  18
ATOM     18  CG  ASN A 133      28.751  30.583  11.356  1.00 18.94     0.276 C 
ATOM     19  OD1 ASN A 133      28.574  29.605  10.626  1.00 18.09    -0.269 OA
ATOM     20  ND2 ASN A 133      27.779  31.121  12.092  1.00 18.93    -0.107 N 
ENDBRANCH  17  18
ENDBRANCH  16  17
END_RES ASN A 133
