REMARK VINA RESULT:    -3.546      7.820     13.467
REMARK INTER + INTRA:          -6.900
REMARK INTER:                  -3.778
REMARK INTRA:                  -3.122
REMARK UNBOUND:                -3.147
REMARK SMILES Cc1cn(-c2ccncc2)nn1
REMARK SMILES IDX 1 1 2 2 3 3 4 4 11 5 12 6 5 7 6 8 10 9 7 10 9 11 8 12
REMARK H PARENT
REMARK Flexibility Score: inf
ROOT
ATOM      1  C   UNL     1      31.876  36.391  15.655  1.00  0.00     0.070 C 
ATOM      2  C   UNL     1      32.898  36.002  14.664  1.00  0.00     0.080 A 
ATOM      3  C   UNL     1      34.135  35.412  14.887  1.00  0.00     0.140 A 
ATOM      4  N   UNL     1      34.748  35.228  13.708  1.00  0.00    -0.220 N 
ATOM      5  N   UNL     1      33.925  35.684  12.778  1.00  0.00    -0.062 NA
ATOM      6  N   UNL     1      32.815  36.152  13.331  1.00  0.00    -0.135 NA
ENDROOT
BRANCH   4   7
ATOM      7  C   UNL     1      36.035  34.648  13.517  1.00  0.00     0.069 A 
ATOM      8  C   UNL     1      36.271  33.808  12.443  1.00  0.00     0.048 A 
ATOM      9  C   UNL     1      37.091  34.880  14.366  1.00  0.00     0.048 A 
ATOM     10  C   UNL     1      37.510  33.256  12.268  1.00  0.00     0.113 A 
ATOM     11  C   UNL     1      38.337  34.322  14.188  1.00  0.00     0.113 A 
ATOM     12  N   UNL     1      38.501  33.517  13.126  1.00  0.00    -0.265 NA
ENDBRANCH   4   7
TORSDOF 1
BEGIN_RES LYS A 135
REMARK  4 active torsions:
REMARK  status: ('A' for Active; 'I' for Inactive)
REMARK    1  A    between atoms: CA   and  CB  
REMARK    2  A    between atoms: CB   and  CG  
REMARK    3  A    between atoms: CG   and  CD  
REMARK    4  A    between atoms: CD   and  CE  
ROOT
ATOM      1  CA  LYS A 135      33.193  34.663   9.290  1.00 25.02     0.186 C 
ENDROOT
BRANCH   1   2
ATOM      2  CB  LYS A 135      32.060  35.360  10.034  1.00 26.63     0.034 C 
BRANCH   2   3
ATOM      3  CG  LYS A 135      30.804  35.510   9.215  1.00 29.45     0.005 C 
BRANCH   3   4
ATOM      4  CD  LYS A 135      30.143  34.158   8.994  1.00 32.00     0.041 C 
BRANCH   4   5
ATOM      5  CE  LYS A 135      28.676  34.333   8.649  1.00 34.25     0.338 C 
ATOM      6  NZ  LYS A 135      27.805  33.675   9.662  1.00 35.99     0.618 N 
ENDBRANCH   4   5
ENDBRANCH   3   4
ENDBRANCH   2   3
ENDBRANCH   1   2
END_RES LYS A 135
BEGIN_RES TYR A 136
REMARK  2 active torsions:
REMARK  status: ('A' for Active; 'I' for Inactive)
REMARK    5  A    between atoms: CA   and  CB  
REMARK    6  A    between atoms: CB   and  CG  
ROOT
ATOM      7  CA  TYR A 136      36.583  36.399   8.994  1.00 26.14     0.191 C 
ENDROOT
BRANCH   7   8
ATOM      8  CB  TYR A 136      37.367  36.835  10.240  1.00 28.16     0.060 C 
BRANCH   8   9
ATOM      9  CG  TYR A 136      36.763  38.044  10.912  1.00 31.88    -0.020 A 
ATOM     10  CD2 TYR A 136      36.279  39.120  10.165  1.00 32.67    -0.002 A 
ATOM     11  CE2 TYR A 136      35.721  40.238  10.799  1.00 33.89     0.027 A 
ATOM     12  CZ  TYR A 136      35.648  40.281  12.193  1.00 34.34     0.131 A 
ATOM     13  OH  TYR A 136      35.094  41.376  12.842  1.00 35.14    -0.190 OA
ATOM     14  CE1 TYR A 136      36.126  39.222  12.951  1.00 35.01     0.027 A 
ATOM     15  CD1 TYR A 136      36.685  38.116  12.309  1.00 33.57    -0.002 A 
ENDBRANCH   8   9
ENDBRANCH   7   8
END_RES TYR A 136
BEGIN_RES ASN A 133
REMARK  2 active torsions:
REMARK  status: ('A' for Active; 'I' for Inactive)
REMARK    7  A    between atoms: CA   and  CB  
REMARK    8  A    between atoms: CB   and  CG  
ROOT
ATOM     16  CA  ASN A 133      31.225  30.257  11.749  1.00 18.15     0.196 C 
ENDROOT
BRANCH  16  17
ATOM     17  CB  ASN A 133      30.092  31.240  11.460  1.00 18.27     0.126 C 
BRANCH  17  18
ATOM     18  CG  ASN A 133      28.748  30.585  11.372  1.00 18.94     0.276 C 
ATOM     19  OD1 ASN A 133      28.559  29.614  10.638  1.00 18.09    -0.269 OA
ATOM     20  ND2 ASN A 133      27.790  31.118  12.129  1.00 18.93    -0.107 N 
ENDBRANCH  17  18
ENDBRANCH  16  17
END_RES ASN A 133
