REMARK VINA RESULT:    -4.531      3.209      3.769
REMARK INTER + INTRA:          -8.201
REMARK INTER:                  -4.917
REMARK INTRA:                  -3.284
REMARK UNBOUND:                -3.139
REMARK SMILES Cc1cn(-c2cc(Cl)ccc2C(=O)N(C)C)nn1
REMARK SMILES IDX 5 1 6 2 7 3 8 4 9 5 10 6 11 7 4 8 1 9 2 10 3 11 18 12 17 13
REMARK SMILES IDX 12 14 13 15 14 16 15 17 16 18
REMARK H PARENT
REMARK Flexibility Score: inf
ROOT
ATOM      1  C   UNL     1      35.659  35.095  13.707  1.00  0.00     0.081 A 
ATOM      2  C   UNL     1      36.333  34.122  12.957  1.00  0.00     0.049 A 
ATOM      3  C   UNL     1      37.555  33.638  13.373  1.00  0.00     0.043 A 
ATOM      4  Cl  UNL     1      38.390  32.416  12.417  1.00  0.00    -0.084 Cl
ATOM      5  C   UNL     1      38.140  34.098  14.533  1.00  0.00     0.021 A 
ATOM      6  C   UNL     1      37.473  35.052  15.266  1.00  0.00     0.017 A 
ATOM      7  C   UNL     1      36.263  35.532  14.854  1.00  0.00     0.065 A 
ENDROOT
BRANCH   1   8
ATOM      8  N   UNL     1      34.399  35.586  13.268  1.00  0.00    -0.220 N 
ATOM      9  C   UNL     1      32.118  37.796  11.436  1.00  0.00     0.070 C 
ATOM     10  C   UNL     1      32.805  36.767  12.272  1.00  0.00     0.080 A 
ATOM     11  C   UNL     1      34.185  36.618  12.449  1.00  0.00     0.140 A 
ATOM     12  N   UNL     1      32.253  35.794  13.011  1.00  0.00    -0.135 NA
ATOM     13  N   UNL     1      33.226  35.116  13.585  1.00  0.00    -0.062 NA
ENDBRANCH   1   8
BRANCH   7  14
ATOM     14  C   UNL     1      35.579  36.549  15.659  1.00  0.00     0.255 C 
ATOM     15  O   UNL     1      34.747  36.231  16.541  1.00  0.00    -0.269 OA
ATOM     16  N   UNL     1      35.887  37.915  15.407  1.00  0.00    -0.345 N 
ATOM     17  C   UNL     1      35.211  38.950  16.202  1.00  0.00     0.146 C 
ATOM     18  C   UNL     1      36.829  38.317  14.408  1.00  0.00     0.146 C 
ENDBRANCH   7  14
TORSDOF 2
BEGIN_RES LYS A 135
REMARK  4 active torsions:
REMARK  status: ('A' for Active; 'I' for Inactive)
REMARK    1  A    between atoms: CA   and  CB  
REMARK    2  A    between atoms: CB   and  CG  
REMARK    3  A    between atoms: CG   and  CD  
REMARK    4  A    between atoms: CD   and  CE  
ROOT
ATOM      1  CA  LYS A 135      33.193  34.663   9.290  1.00 25.02     0.186 C 
ENDROOT
BRANCH   1   2
ATOM      2  CB  LYS A 135      32.060  35.360  10.034  1.00 26.63     0.034 C 
BRANCH   2   3
ATOM      3  CG  LYS A 135      30.731  34.662   9.899  1.00 29.45     0.005 C 
BRANCH   3   4
ATOM      4  CD  LYS A 135      30.326  34.556   8.437  1.00 32.00     0.041 C 
BRANCH   4   5
ATOM      5  CE  LYS A 135      28.816  34.534   8.303  1.00 34.25     0.338 C 
ATOM      6  NZ  LYS A 135      28.186  33.817   9.447  1.00 35.99     0.618 N 
ENDBRANCH   4   5
ENDBRANCH   3   4
ENDBRANCH   2   3
ENDBRANCH   1   2
END_RES LYS A 135
BEGIN_RES TYR A 136
REMARK  2 active torsions:
REMARK  status: ('A' for Active; 'I' for Inactive)
REMARK    5  A    between atoms: CA   and  CB  
REMARK    6  A    between atoms: CB   and  CG  
ROOT
ATOM      7  CA  TYR A 136      36.583  36.399   8.994  1.00 26.14     0.191 C 
ENDROOT
BRANCH   7   8
ATOM      8  CB  TYR A 136      37.367  36.835  10.240  1.00 28.16     0.060 C 
BRANCH   8   9
ATOM      9  CG  TYR A 136      37.217  38.307  10.534  1.00 31.88    -0.020 A 
ATOM     10  CD2 TYR A 136      36.010  38.971  10.304  1.00 32.67    -0.002 A 
ATOM     11  CE2 TYR A 136      35.881  40.340  10.579  1.00 33.89     0.027 A 
ATOM     12  CZ  TYR A 136      36.971  41.050  11.089  1.00 34.34     0.131 A 
ATOM     13  OH  TYR A 136      36.864  42.404  11.375  1.00 35.14    -0.190 OA
ATOM     14  CE1 TYR A 136      38.178  40.407  11.323  1.00 35.01     0.027 A 
ATOM     15  CD1 TYR A 136      38.295  39.045  11.039  1.00 33.57    -0.002 A 
ENDBRANCH   8   9
ENDBRANCH   7   8
END_RES TYR A 136
BEGIN_RES ASN A 133
REMARK  2 active torsions:
REMARK  status: ('A' for Active; 'I' for Inactive)
REMARK    7  A    between atoms: CA   and  CB  
REMARK    8  A    between atoms: CB   and  CG  
ROOT
ATOM     16  CA  ASN A 133      31.225  30.257  11.749  1.00 18.15     0.196 C 
ENDROOT
BRANCH  16  17
ATOM     17  CB  ASN A 133      30.092  31.240  11.460  1.00 18.27     0.126 C 
BRANCH  17  18
ATOM     18  CG  ASN A 133      28.752  30.581  11.344  1.00 18.94     0.276 C 
ATOM     19  OD1 ASN A 133      28.585  29.598  10.620  1.00 18.09    -0.269 OA
ATOM     20  ND2 ASN A 133      27.772  31.124  12.064  1.00 18.93    -0.107 N 
ENDBRANCH  17  18
ENDBRANCH  16  17
END_RES ASN A 133
