REMARK VINA RESULT:    -3.715      8.854     11.817
REMARK INTER + INTRA:          -7.171
REMARK INTER:                  -4.030
REMARK INTRA:                  -3.141
REMARK UNBOUND:                -3.239
REMARK SMILES Cc1cn([C@H]2C[C@H]3CC[C@@H](C2)N3C)nn1
REMARK SMILES IDX 5 1 11 2 10 3 12 4 13 5 7 6 6 7 8 8 9 9 4 10 1 11 2 12 3 13
REMARK SMILES IDX 15 14 14 15
REMARK H PARENT
REMARK Flexibility Score: inf
ROOT
ATOM      1  C   UNL     1      35.021  38.790   5.664  1.00  0.00     0.112 C 
ATOM      2  C   UNL     1      34.139  39.909   5.149  1.00  0.00     0.046 C 
ATOM      3  C   UNL     1      33.617  40.759   6.276  1.00  0.00     0.058 C 
ATOM      4  N   UNL     1      33.612  39.909   7.473  1.00  0.00    -0.300 NA
ATOM      5  C   UNL     1      32.743  40.547   8.426  1.00  0.00     0.105 C 
ATOM      6  C   UNL     1      35.004  39.964   7.876  1.00  0.00     0.058 C 
ATOM      7  C   UNL     1      35.848  39.340   6.793  1.00  0.00     0.046 C 
ATOM      8  C   UNL     1      35.299  41.459   7.852  1.00  0.00     0.021 C 
ATOM      9  C   UNL     1      34.515  41.896   6.638  1.00  0.00     0.021 C 
ENDROOT
BRANCH   1  10
ATOM     10  N   UNL     1      35.915  38.329   4.625  1.00  0.00    -0.249 N 
ATOM     11  C   UNL     1      39.017  36.985   3.255  1.00  0.00     0.070 C 
ATOM     12  C   UNL     1      37.663  37.532   3.505  1.00  0.00     0.080 A 
ATOM     13  C   UNL     1      37.164  37.866   4.759  1.00  0.00     0.134 A 
ATOM     14  N   UNL     1      36.678  37.814   2.649  1.00  0.00    -0.136 NA
ATOM     15  N   UNL     1      35.647  38.285   3.327  1.00  0.00    -0.067 NA
ENDBRANCH   1  10
TORSDOF 1
BEGIN_RES LYS A 135
REMARK  4 active torsions:
REMARK  status: ('A' for Active; 'I' for Inactive)
REMARK    1  A    between atoms: CA   and  CB  
REMARK    2  A    between atoms: CB   and  CG  
REMARK    3  A    between atoms: CG   and  CD  
REMARK    4  A    between atoms: CD   and  CE  
ROOT
ATOM      1  CA  LYS A 135      33.193  34.663   9.290  1.00 25.02     0.186 C 
ENDROOT
BRANCH   1   2
ATOM      2  CB  LYS A 135      32.060  35.360  10.034  1.00 26.63     0.034 C 
BRANCH   2   3
ATOM      3  CG  LYS A 135      30.837  35.596   9.185  1.00 29.45     0.005 C 
BRANCH   3   4
ATOM      4  CD  LYS A 135      30.295  34.280   8.648  1.00 32.00     0.041 C 
BRANCH   4   5
ATOM      5  CE  LYS A 135      28.914  34.004   9.210  1.00 34.25     0.338 C 
ATOM      6  NZ  LYS A 135      27.856  34.609   8.355  1.00 35.99     0.618 N 
ENDBRANCH   4   5
ENDBRANCH   3   4
ENDBRANCH   2   3
ENDBRANCH   1   2
END_RES LYS A 135
BEGIN_RES TYR A 136
REMARK  2 active torsions:
REMARK  status: ('A' for Active; 'I' for Inactive)
REMARK    5  A    between atoms: CA   and  CB  
REMARK    6  A    between atoms: CB   and  CG  
ROOT
ATOM      7  CA  TYR A 136      36.583  36.399   8.994  1.00 26.14     0.191 C 
ENDROOT
BRANCH   7   8
ATOM      8  CB  TYR A 136      37.367  36.835  10.240  1.00 28.16     0.060 C 
BRANCH   8   9
ATOM      9  CG  TYR A 136      37.241  38.313  10.517  1.00 31.88    -0.020 A 
ATOM     10  CD2 TYR A 136      38.189  39.221  10.042  1.00 32.67    -0.002 A 
ATOM     11  CE2 TYR A 136      38.063  40.592  10.306  1.00 33.89     0.027 A 
ATOM     12  CZ  TYR A 136      36.979  41.058  11.054  1.00 34.34     0.131 A 
ATOM     13  OH  TYR A 136      36.831  42.411  11.322  1.00 35.14    -0.190 OA
ATOM     14  CE1 TYR A 136      36.028  40.169  11.535  1.00 35.01     0.027 A 
ATOM     15  CD1 TYR A 136      36.167  38.806  11.270  1.00 33.57    -0.002 A 
ENDBRANCH   8   9
ENDBRANCH   7   8
END_RES TYR A 136
BEGIN_RES ASN A 133
REMARK  2 active torsions:
REMARK  status: ('A' for Active; 'I' for Inactive)
REMARK    7  A    between atoms: CA   and  CB  
REMARK    8  A    between atoms: CB   and  CG  
ROOT
ATOM     16  CA  ASN A 133      31.225  30.257  11.749  1.00 18.15     0.196 C 
ENDROOT
BRANCH  16  17
ATOM     17  CB  ASN A 133      30.092  31.240  11.460  1.00 18.27     0.126 C 
BRANCH  17  18
ATOM     18  CG  ASN A 133      28.757  30.578  11.316  1.00 18.94     0.276 C 
ATOM     19  OD1 ASN A 133      28.607  29.596  10.586  1.00 18.09    -0.269 OA
ATOM     20  ND2 ASN A 133      27.760  31.117  12.017  1.00 18.93    -0.107 N 
ENDBRANCH  17  18
ENDBRANCH  16  17
END_RES ASN A 133
