REMARK VINA RESULT:    -5.080      2.674      4.098
REMARK INTER + INTRA:          -8.363
REMARK INTER:                  -5.346
REMARK INTRA:                  -3.017
REMARK UNBOUND:                -2.985
REMARK SMILES Cc1cn(-c2c3ccccc3nc3ccccc23)nn1
REMARK SMILES IDX 5 1 6 2 7 3 8 4 9 5 10 6 11 7 12 8 13 9 14 10 15 11 16 12
REMARK SMILES IDX 17 13 18 14 4 15 1 16 2 17 3 18 20 19 19 20
REMARK H PARENT
REMARK Flexibility Score: inf
ROOT
ATOM      1  C   UNL     1      37.962  35.318  15.727  1.00  0.00     0.085 A 
ATOM      2  C   UNL     1      37.298  36.525  15.593  1.00  0.00     0.027 A 
ATOM      3  C   UNL     1      37.238  37.161  14.371  1.00  0.00     0.012 A 
ATOM      4  C   UNL     1      36.570  38.362  14.265  1.00  0.00     0.001 A 
ATOM      5  C   UNL     1      35.985  38.881  15.399  1.00  0.00     0.002 A 
ATOM      6  C   UNL     1      36.047  38.245  16.609  1.00  0.00     0.029 A 
ATOM      7  C   UNL     1      36.718  37.029  16.738  1.00  0.00     0.073 A 
ATOM      8  N   UNL     1      36.767  36.423  17.934  1.00  0.00    -0.248 NA
ATOM      9  C   UNL     1      37.421  35.232  18.074  1.00  0.00     0.073 A 
ATOM     10  C   UNL     1      37.476  34.601  19.302  1.00  0.00     0.029 A 
ATOM     11  C   UNL     1      38.151  33.402  19.377  1.00  0.00     0.002 A 
ATOM     12  C   UNL     1      38.756  32.838  18.270  1.00  0.00     0.001 A 
ATOM     13  C   UNL     1      38.690  33.473  17.072  1.00  0.00     0.012 A 
ATOM     14  C   UNL     1      38.022  34.672  16.971  1.00  0.00     0.027 A 
ENDROOT
BRANCH   1  15
ATOM     15  N   UNL     1      38.594  34.713  14.609  1.00  0.00    -0.219 N 
ATOM     16  C   UNL     1      41.373  33.960  12.336  1.00  0.00     0.070 C 
ATOM     17  C   UNL     1      40.083  34.101  13.101  1.00  0.00     0.080 A 
ATOM     18  C   UNL     1      39.871  34.851  14.235  1.00  0.00     0.140 A 
ATOM     19  N   UNL     1      38.915  33.517  12.803  1.00  0.00    -0.135 NA
ATOM     20  N   UNL     1      38.060  33.907  13.724  1.00  0.00    -0.062 NA
ENDBRANCH   1  15
TORSDOF 1
BEGIN_RES LYS A 135
REMARK  4 active torsions:
REMARK  status: ('A' for Active; 'I' for Inactive)
REMARK    1  A    between atoms: CA   and  CB  
REMARK    2  A    between atoms: CB   and  CG  
REMARK    3  A    between atoms: CG   and  CD  
REMARK    4  A    between atoms: CD   and  CE  
ROOT
ATOM      1  CA  LYS A 135      33.193  34.663   9.290  1.00 25.02     0.186 C 
ENDROOT
BRANCH   1   2
ATOM      2  CB  LYS A 135      32.060  35.360  10.034  1.00 26.63     0.034 C 
BRANCH   2   3
ATOM      3  CG  LYS A 135      30.706  34.750   9.778  1.00 29.45     0.005 C 
BRANCH   3   4
ATOM      4  CD  LYS A 135      30.475  34.564   8.286  1.00 32.00     0.041 C 
BRANCH   4   5
ATOM      5  CE  LYS A 135      29.024  34.834   7.934  1.00 34.25     0.338 C 
ATOM      6  NZ  LYS A 135      28.913  35.570   6.644  1.00 35.99     0.618 N 
ENDBRANCH   4   5
ENDBRANCH   3   4
ENDBRANCH   2   3
ENDBRANCH   1   2
END_RES LYS A 135
BEGIN_RES TYR A 136
REMARK  2 active torsions:
REMARK  status: ('A' for Active; 'I' for Inactive)
REMARK    5  A    between atoms: CA   and  CB  
REMARK    6  A    between atoms: CB   and  CG  
ROOT
ATOM      7  CA  TYR A 136      36.583  36.399   8.994  1.00 26.14     0.191 C 
ENDROOT
BRANCH   7   8
ATOM      8  CB  TYR A 136      37.367  36.835  10.240  1.00 28.16     0.060 C 
BRANCH   8   9
ATOM      9  CG  TYR A 136      37.108  38.274  10.615  1.00 31.88    -0.020 A 
ATOM     10  CD2 TYR A 136      38.155  39.131  10.961  1.00 32.67    -0.002 A 
ATOM     11  CE2 TYR A 136      37.903  40.465  11.309  1.00 33.89     0.027 A 
ATOM     12  CZ  TYR A 136      36.592  40.946  11.311  1.00 34.34     0.131 A 
ATOM     13  OH  TYR A 136      36.320  42.265  11.645  1.00 35.14    -0.190 OA
ATOM     14  CE1 TYR A 136      35.539  40.108  10.971  1.00 35.01     0.027 A 
ATOM     15  CD1 TYR A 136      35.802  38.779  10.632  1.00 33.57    -0.002 A 
ENDBRANCH   8   9
ENDBRANCH   7   8
END_RES TYR A 136
BEGIN_RES ASN A 133
REMARK  2 active torsions:
REMARK  status: ('A' for Active; 'I' for Inactive)
REMARK    7  A    between atoms: CA   and  CB  
REMARK    8  A    between atoms: CB   and  CG  
ROOT
ATOM     16  CA  ASN A 133      31.225  30.257  11.749  1.00 18.15     0.196 C 
ENDROOT
BRANCH  16  17
ATOM     17  CB  ASN A 133      30.092  31.240  11.460  1.00 18.27     0.126 C 
BRANCH  17  18
ATOM     18  CG  ASN A 133      28.756  30.579  11.321  1.00 18.94     0.276 C 
ATOM     19  OD1 ASN A 133      28.596  29.615  10.569  1.00 18.09    -0.269 OA
ATOM     20  ND2 ASN A 133      27.770  31.097  12.052  1.00 18.93    -0.107 N 
ENDBRANCH  17  18
ENDBRANCH  16  17
END_RES ASN A 133
