REMARK VINA RESULT:    -4.193      2.714      3.144
REMARK INTER + INTRA:          -9.180
REMARK INTER:                  -5.877
REMARK INTRA:                  -3.303
REMARK UNBOUND:                -3.640
REMARK SMILES Cc1cn(CC(O)Cn2ccnc2[N+](=O)[O-])nn1
REMARK SMILES IDX 8 1 6 2 5 3 4 4 1 5 2 6 3 7 18 8 17 9 7 10 9 12 10 13 13 14
REMARK SMILES IDX 11 15 12 16 14 17 15 18 16 19
REMARK H PARENT 7 11
REMARK Flexibility Score: inf
ROOT
ATOM      1  C   UNL     1      21.338  32.557  -1.134  1.00  0.00     0.239 C 
ENDROOT
BRANCH   1   2
ATOM      2  C   UNL     1      22.170  33.272  -0.100  1.00  0.00     0.170 C 
BRANCH   2   3
ATOM      3  C   UNL     1      21.768  34.729  -0.116  1.00  0.00     0.181 C 
BRANCH   3   4
ATOM      4  N   UNL     1      22.719  35.554  -0.838  1.00  0.00    -0.250 N 
ATOM      5  C   UNL     1      24.311  38.678  -1.787  1.00  0.00     0.070 C 
ATOM      6  C   UNL     1      23.819  37.278  -1.558  1.00  0.00     0.080 A 
ATOM      7  C   UNL     1      22.801  36.880  -0.716  1.00  0.00     0.134 A 
ATOM      8  N   UNL     1      24.317  36.184  -2.161  1.00  0.00    -0.136 NA
ATOM      9  N   UNL     1      23.633  35.161  -1.707  1.00  0.00    -0.067 NA
ENDBRANCH   3   4
ENDBRANCH   2   3
BRANCH   2  10
ATOM     10  O   UNL     1      21.889  32.735   1.142  1.00  0.00    -0.388 OA
ATOM     11  H   UNL     1      22.075  33.406   1.851  1.00  0.00     0.211 HD
ENDBRANCH   2  10
ENDBRANCH   1   2
BRANCH   1  12
ATOM     12  N   UNL     1      22.107  31.705  -2.014  1.00  0.00    -0.227 N 
ATOM     13  C   UNL     1      22.489  32.068  -3.245  1.00  0.00     0.204 A 
ATOM     14  C   UNL     1      22.559  30.481  -1.720  1.00  0.00     0.434 A 
ATOM     15  C   UNL     1      23.218  31.038  -3.767  1.00  0.00     0.245 A 
ATOM     16  N   UNL     1      23.254  30.084  -2.833  1.00  0.00    -0.074 NA
BRANCH  14  17
ATOM     17  N   UNL     1      22.395  29.683  -0.544  1.00  0.00    -0.047 N 
ATOM     18  O   UNL     1      21.691  28.659  -0.616  1.00  0.00    -0.390 OA
ATOM     19  O   UNL     1      22.959  29.972   0.660  1.00  0.00    -0.390 OA
ENDBRANCH  14  17
ENDBRANCH   1  12
TORSDOF 6
BEGIN_RES LYS A 135
REMARK  4 active torsions:
REMARK  status: ('A' for Active; 'I' for Inactive)
REMARK    1  A    between atoms: CA   and  CB  
REMARK    2  A    between atoms: CB   and  CG  
REMARK    3  A    between atoms: CG   and  CD  
REMARK    4  A    between atoms: CD   and  CE  
ROOT
ATOM      1  CA  LYS A 135      33.193  34.663   9.290  1.00 25.02     0.186 C 
ENDROOT
BRANCH   1   2
ATOM      2  CB  LYS A 135      32.060  35.360  10.034  1.00 26.63     0.034 C 
BRANCH   2   3
ATOM      3  CG  LYS A 135      30.821  35.556   9.199  1.00 29.45     0.005 C 
BRANCH   3   4
ATOM      4  CD  LYS A 135      30.076  34.241   9.027  1.00 32.00     0.041 C 
BRANCH   4   5
ATOM      5  CE  LYS A 135      28.736  34.472   8.356  1.00 34.25     0.338 C 
ATOM      6  NZ  LYS A 135      28.883  35.328   7.146  1.00 35.99     0.618 N 
ENDBRANCH   4   5
ENDBRANCH   3   4
ENDBRANCH   2   3
ENDBRANCH   1   2
END_RES LYS A 135
BEGIN_RES TYR A 136
REMARK  2 active torsions:
REMARK  status: ('A' for Active; 'I' for Inactive)
REMARK    5  A    between atoms: CA   and  CB  
REMARK    6  A    between atoms: CB   and  CG  
ROOT
ATOM      7  CA  TYR A 136      36.583  36.399   8.994  1.00 26.14     0.191 C 
ENDROOT
BRANCH   7   8
ATOM      8  CB  TYR A 136      37.367  36.835  10.240  1.00 28.16     0.060 C 
BRANCH   8   9
ATOM      9  CG  TYR A 136      37.453  35.747  11.282  1.00 31.88    -0.020 A 
ATOM     10  CD2 TYR A 136      36.312  35.288  11.944  1.00 32.67    -0.002 A 
ATOM     11  CE2 TYR A 136      36.402  34.278  12.912  1.00 33.89     0.027 A 
ATOM     12  CZ  TYR A 136      37.646  33.722  13.219  1.00 34.34     0.131 A 
ATOM     13  OH  TYR A 136      37.759  32.716  14.169  1.00 35.14    -0.190 OA
ATOM     14  CE1 TYR A 136      38.790  34.166  12.572  1.00 35.01     0.027 A 
ATOM     15  CD1 TYR A 136      38.688  35.177  11.615  1.00 33.57    -0.002 A 
ENDBRANCH   8   9
ENDBRANCH   7   8
END_RES TYR A 136
BEGIN_RES ASN A 133
REMARK  2 active torsions:
REMARK  status: ('A' for Active; 'I' for Inactive)
REMARK    7  A    between atoms: CA   and  CB  
REMARK    8  A    between atoms: CB   and  CG  
ROOT
ATOM     16  CA  ASN A 133      31.225  30.257  11.749  1.00 18.15     0.196 C 
ENDROOT
BRANCH  16  17
ATOM     17  CB  ASN A 133      30.092  31.240  11.460  1.00 18.27     0.126 C 
BRANCH  17  18
ATOM     18  CG  ASN A 133      28.754  30.580  11.335  1.00 18.94     0.276 C 
ATOM     19  OD1 ASN A 133      28.599  29.579  10.633  1.00 18.09    -0.269 OA
ATOM     20  ND2 ASN A 133      27.760  31.143  12.022  1.00 18.93    -0.107 N 
ENDBRANCH  17  18
ENDBRANCH  16  17
END_RES ASN A 133
