REMARK VINA RESULT:    -4.219     10.382     15.701
REMARK INTER + INTRA:         -10.232
REMARK INTER:                  -6.392
REMARK INTRA:                  -3.841
REMARK UNBOUND:                -4.164
REMARK SMILES Cc1cn(CC(=O)NCC(O)Cn2ccnc2[N+](=O)[O-])nn1
REMARK SMILES IDX 9 1 8 2 6 3 7 4 5 6 4 7 1 8 2 9 3 10 22 11 21 12 10 13 11 14
REMARK SMILES IDX 12 16 13 17 14 18 17 19 15 20 16 21 18 22 19 23 20 24
REMARK H PARENT 8 5 11 15
REMARK Flexibility Score: inf
ROOT
ATOM      1  C   UNL     1      27.498  37.663  -1.820  1.00  0.00     0.151 C 
ENDROOT
BRANCH   1   2
ATOM      2  N   UNL     1      26.293  36.951  -2.170  1.00  0.00    -0.352 N 
ATOM      3  C   UNL     1      25.015  37.536  -2.365  1.00  0.00     0.241 C 
ATOM      4  O   UNL     1      24.881  38.772  -2.240  1.00  0.00    -0.273 OA
ATOM      5  H   UNL     1      26.374  35.888  -2.290  1.00  0.00     0.163 HD
BRANCH   3   6
ATOM      6  C   UNL     1      23.880  36.635  -2.713  1.00  0.00     0.245 C 
BRANCH   6   7
ATOM      7  N   UNL     1      23.416  35.925  -1.555  1.00  0.00    -0.243 N 
ATOM      8  C   UNL     1      22.623  33.082   0.597  1.00  0.00     0.070 C 
ATOM      9  C   UNL     1      22.859  34.388  -0.090  1.00  0.00     0.080 A 
ATOM     10  C   UNL     1      23.382  34.598  -1.336  1.00  0.00     0.134 A 
ATOM     11  N   UNL     1      22.582  35.596   0.428  1.00  0.00    -0.136 NA
ATOM     12  N   UNL     1      22.926  36.507  -0.472  1.00  0.00    -0.067 NA
ENDBRANCH   6   7
ENDBRANCH   3   6
ENDBRANCH   1   2
BRANCH   1  13
ATOM     13  C   UNL     1      28.453  37.874  -2.926  1.00  0.00     0.168 C 
BRANCH  13  14
ATOM     14  O   UNL     1      29.783  38.074  -2.538  1.00  0.00    -0.388 OA
ATOM     15  H   UNL     1      30.140  37.334  -2.025  1.00  0.00     0.211 HD
ENDBRANCH  13  14
BRANCH  13  16
ATOM     16  C   UNL     1      28.119  38.943  -3.924  1.00  0.00     0.239 C 
BRANCH  16  17
ATOM     17  N   UNL     1      28.312  38.593  -5.298  1.00  0.00    -0.227 N 
ATOM     18  C   UNL     1      27.344  38.066  -6.123  1.00  0.00     0.204 A 
ATOM     19  C   UNL     1      29.471  38.681  -5.959  1.00  0.00     0.434 A 
ATOM     20  C   UNL     1      27.952  37.828  -7.329  1.00  0.00     0.245 A 
ATOM     21  N   UNL     1      29.221  38.195  -7.230  1.00  0.00    -0.074 NA
BRANCH  19  22
ATOM     22  N   UNL     1      30.750  39.174  -5.568  1.00  0.00    -0.047 N 
ATOM     23  O   UNL     1      31.540  38.533  -4.876  1.00  0.00    -0.390 OA
ATOM     24  O   UNL     1      31.145  40.433  -5.942  1.00  0.00    -0.390 OA
ENDBRANCH  19  22
ENDBRANCH  16  17
ENDBRANCH  13  16
ENDBRANCH   1  13
TORSDOF 8
BEGIN_RES LYS A 135
REMARK  4 active torsions:
REMARK  status: ('A' for Active; 'I' for Inactive)
REMARK    1  A    between atoms: CA   and  CB  
REMARK    2  A    between atoms: CB   and  CG  
REMARK    3  A    between atoms: CG   and  CD  
REMARK    4  A    between atoms: CD   and  CE  
ROOT
ATOM      1  CA  LYS A 135      33.193  34.663   9.290  1.00 25.02     0.186 C 
ENDROOT
BRANCH   1   2
ATOM      2  CB  LYS A 135      32.060  35.360  10.034  1.00 26.63     0.034 C 
BRANCH   2   3
ATOM      3  CG  LYS A 135      30.824  35.563   9.196  1.00 29.45     0.005 C 
BRANCH   3   4
ATOM      4  CD  LYS A 135      30.284  34.229   8.704  1.00 32.00     0.041 C 
BRANCH   4   5
ATOM      5  CE  LYS A 135      28.860  34.021   9.184  1.00 34.25     0.338 C 
ATOM      6  NZ  LYS A 135      28.091  35.296   9.150  1.00 35.99     0.618 N 
ENDBRANCH   4   5
ENDBRANCH   3   4
ENDBRANCH   2   3
ENDBRANCH   1   2
END_RES LYS A 135
BEGIN_RES TYR A 136
REMARK  2 active torsions:
REMARK  status: ('A' for Active; 'I' for Inactive)
REMARK    5  A    between atoms: CA   and  CB  
REMARK    6  A    between atoms: CB   and  CG  
ROOT
ATOM      7  CA  TYR A 136      36.583  36.399   8.994  1.00 26.14     0.191 C 
ENDROOT
BRANCH   7   8
ATOM      8  CB  TYR A 136      37.367  36.835  10.240  1.00 28.16     0.060 C 
BRANCH   8   9
ATOM      9  CG  TYR A 136      37.243  38.313  10.515  1.00 31.88    -0.020 A 
ATOM     10  CD2 TYR A 136      38.347  39.163  10.413  1.00 32.67    -0.002 A 
ATOM     11  CE2 TYR A 136      38.222  40.534  10.673  1.00 33.89     0.027 A 
ATOM     12  CZ  TYR A 136      36.981  41.061  11.039  1.00 34.34     0.131 A 
ATOM     13  OH  TYR A 136      36.832  42.417  11.294  1.00 35.14    -0.190 OA
ATOM     14  CE1 TYR A 136      35.874  40.231  11.146  1.00 35.01     0.027 A 
ATOM     15  CD1 TYR A 136      36.012  38.866  10.891  1.00 33.57    -0.002 A 
ENDBRANCH   8   9
ENDBRANCH   7   8
END_RES TYR A 136
BEGIN_RES ASN A 133
REMARK  2 active torsions:
REMARK  status: ('A' for Active; 'I' for Inactive)
REMARK    7  A    between atoms: CA   and  CB  
REMARK    8  A    between atoms: CB   and  CG  
ROOT
ATOM     16  CA  ASN A 133      31.225  30.257  11.749  1.00 18.15     0.196 C 
ENDROOT
BRANCH  16  17
ATOM     17  CB  ASN A 133      30.092  31.240  11.460  1.00 18.27     0.126 C 
BRANCH  17  18
ATOM     18  CG  ASN A 133      28.749  30.584  11.367  1.00 18.94     0.276 C 
ATOM     19  OD1 ASN A 133      28.571  29.593  10.657  1.00 18.09    -0.269 OA
ATOM     20  ND2 ASN A 133      27.778  31.140  12.091  1.00 18.93    -0.107 N 
ENDBRANCH  17  18
ENDBRANCH  16  17
END_RES ASN A 133
