REMARK VINA RESULT:    -3.370      1.758      2.644
REMARK INTER + INTRA:          -8.009
REMARK INTER:                  -4.573
REMARK INTRA:                  -3.436
REMARK UNBOUND:                -3.457
REMARK SMILES CC[N+](C)(CC)CCCn1cc(C)nn1
REMARK SMILES IDX 8 1 9 2 10 3 13 4 12 5 11 6 14 7 15 8 7 9 3 10 4 11 2 12
REMARK SMILES IDX 1 13 5 14 6 15
REMARK H PARENT
REMARK Flexibility Score: inf
ROOT
ATOM      1  C   UNL     1      33.745  35.607  14.742  1.00  0.00     0.085 C 
ENDROOT
BRANCH   1   2
ATOM      2  C   UNL     1      35.229  35.730  15.012  1.00  0.00     0.152 C 
BRANCH   2   3
ATOM      3  N   UNL     1      35.956  34.945  14.036  1.00  0.00    -0.252 N 
ATOM      4  C   UNL     1      39.025  33.453  12.737  1.00  0.00     0.070 C 
ATOM      5  C   UNL     1      37.636  33.917  13.002  1.00  0.00     0.080 A 
ATOM      6  C   UNL     1      37.297  34.698  14.092  1.00  0.00     0.134 A 
ATOM      7  N   UNL     1      36.510  33.716  12.323  1.00  0.00    -0.136 NA
ATOM      8  N   UNL     1      35.536  34.333  12.957  1.00  0.00    -0.067 NA
ENDBRANCH   2   3
ENDBRANCH   1   2
BRANCH   1   9
ATOM      9  C   UNL     1      33.197  36.960  14.410  1.00  0.00     0.265 C 
BRANCH   9  10
ATOM     10  N   UNL     1      32.184  36.905  13.374  1.00  0.00    -0.326 N 
ATOM     11  C   UNL     1      32.239  35.686  12.618  1.00  0.00     0.334 C 
BRANCH  10  12
ATOM     12  C   UNL     1      30.898  36.877  14.093  1.00  0.00     0.260 C 
ATOM     13  C   UNL     1      29.834  36.169  13.327  1.00  0.00     0.071 C 
ENDBRANCH  10  12
BRANCH  10  14
ATOM     14  C   UNL     1      32.190  38.093  12.600  1.00  0.00     0.260 C 
ATOM     15  C   UNL     1      32.790  38.009  11.254  1.00  0.00     0.071 C 
ENDBRANCH  10  14
ENDBRANCH   9  10
ENDBRANCH   1   9
TORSDOF 6
BEGIN_RES LYS A 135
REMARK  4 active torsions:
REMARK  status: ('A' for Active; 'I' for Inactive)
REMARK    1  A    between atoms: CA   and  CB  
REMARK    2  A    between atoms: CB   and  CG  
REMARK    3  A    between atoms: CG   and  CD  
REMARK    4  A    between atoms: CD   and  CE  
ROOT
ATOM      1  CA  LYS A 135      33.193  34.663   9.290  1.00 25.02     0.186 C 
ENDROOT
BRANCH   1   2
ATOM      2  CB  LYS A 135      32.060  35.360  10.034  1.00 26.63     0.034 C 
BRANCH   2   3
ATOM      3  CG  LYS A 135      30.802  35.503   9.218  1.00 29.45     0.005 C 
BRANCH   3   4
ATOM      4  CD  LYS A 135      30.159  34.146   8.979  1.00 32.00     0.041 C 
BRANCH   4   5
ATOM      5  CE  LYS A 135      28.687  34.304   8.647  1.00 34.25     0.338 C 
ATOM      6  NZ  LYS A 135      27.830  33.728   9.721  1.00 35.99     0.618 N 
ENDBRANCH   4   5
ENDBRANCH   3   4
ENDBRANCH   2   3
ENDBRANCH   1   2
END_RES LYS A 135
BEGIN_RES TYR A 136
REMARK  2 active torsions:
REMARK  status: ('A' for Active; 'I' for Inactive)
REMARK    5  A    between atoms: CA   and  CB  
REMARK    6  A    between atoms: CB   and  CG  
ROOT
ATOM      7  CA  TYR A 136      36.583  36.399   8.994  1.00 26.14     0.191 C 
ENDROOT
BRANCH   7   8
ATOM      8  CB  TYR A 136      37.367  36.835  10.240  1.00 28.16     0.060 C 
BRANCH   8   9
ATOM      9  CG  TYR A 136      36.744  38.023  10.931  1.00 31.88    -0.020 A 
ATOM     10  CD2 TYR A 136      36.363  39.159  10.214  1.00 32.67    -0.002 A 
ATOM     11  CE2 TYR A 136      35.787  40.258  10.866  1.00 33.89     0.027 A 
ATOM     12  CZ  TYR A 136      35.590  40.220  12.248  1.00 34.34     0.131 A 
ATOM     13  OH  TYR A 136      35.015  41.293  12.914  1.00 35.14    -0.190 OA
ATOM     14  CE1 TYR A 136      35.964  39.099  12.977  1.00 35.01     0.027 A 
ATOM     15  CD1 TYR A 136      36.543  38.014  12.317  1.00 33.57    -0.002 A 
ENDBRANCH   8   9
ENDBRANCH   7   8
END_RES TYR A 136
BEGIN_RES ASN A 133
REMARK  2 active torsions:
REMARK  status: ('A' for Active; 'I' for Inactive)
REMARK    7  A    between atoms: CA   and  CB  
REMARK    8  A    between atoms: CB   and  CG  
ROOT
ATOM     16  CA  ASN A 133      31.225  30.257  11.749  1.00 18.15     0.196 C 
ENDROOT
BRANCH  16  17
ATOM     17  CB  ASN A 133      30.092  31.240  11.460  1.00 18.27     0.126 C 
BRANCH  17  18
ATOM     18  CG  ASN A 133      28.753  30.581  11.339  1.00 18.94     0.276 C 
ATOM     19  OD1 ASN A 133      28.574  29.638  10.565  1.00 18.09    -0.269 OA
ATOM     20  ND2 ASN A 133      27.787  31.077  12.110  1.00 18.93    -0.107 N 
ENDBRANCH  17  18
ENDBRANCH  16  17
END_RES ASN A 133
