REMARK VINA RESULT:    -4.251      1.628      2.654
REMARK INTER + INTRA:          -8.547
REMARK INTER:                  -4.917
REMARK INTRA:                  -3.630
REMARK UNBOUND:                -3.053
REMARK SMILES Cc1cn([C@@H](CC(=O)O)C(=O)O)nn1
REMARK SMILES IDX 6 1 5 2 4 3 1 4 2 5 3 6 14 7 13 8 10 9 11 10 12 11 7 13 8 14
REMARK SMILES IDX 9 15
REMARK H PARENT 12 12 9 16
REMARK Flexibility Score: inf
ROOT
ATOM      1  C   UNL     1      37.765  37.236   3.876  1.00  0.00     0.161 C 
ENDROOT
BRANCH   1   2
ATOM      2  C   UNL     1      37.304  38.243   2.858  1.00  0.00     0.229 C 
BRANCH   2   3
ATOM      3  N   UNL     1      36.030  38.825   3.255  1.00  0.00    -0.237 N 
ATOM      4  C   UNL     1      33.409  39.791   5.547  1.00  0.00     0.070 C 
ATOM      5  C   UNL     1      34.304  39.515   4.401  1.00  0.00     0.080 A 
ATOM      6  C   UNL     1      35.521  38.898   4.503  1.00  0.00     0.135 A 
ATOM      7  N   UNL     1      34.078  39.811   3.123  1.00  0.00    -0.136 NA
ATOM      8  N   UNL     1      35.143  39.379   2.464  1.00  0.00    -0.066 NA
ENDBRANCH   2   3
BRANCH   2   9
ATOM      9  C   UNL     1      37.292  37.702   1.498  1.00  0.00     0.329 C 
ATOM     10  O   UNL     1      38.157  37.972   0.651  1.00  0.00    -0.250 OA
BRANCH   9  11
ATOM     11  O   UNL     1      36.283  36.839   1.092  1.00  0.00    -0.480 OA
ATOM     12  H   UNL     1      35.982  36.837   0.126  1.00  0.00     0.296 HD
ENDBRANCH   9  11
ENDBRANCH   2   9
ENDBRANCH   1   2
BRANCH   1  13
ATOM     13  C   UNL     1      39.214  37.040   3.685  1.00  0.00     0.306 C 
ATOM     14  O   UNL     1      40.019  38.002   3.758  1.00  0.00    -0.252 OA
BRANCH  13  15
ATOM     15  O   UNL     1      39.688  35.757   3.420  1.00  0.00    -0.481 OA
ATOM     16  H   UNL     1      39.639  35.029   4.148  1.00  0.00     0.296 HD
ENDBRANCH  13  15
ENDBRANCH   1  13
TORSDOF 6
BEGIN_RES LYS A 135
REMARK  4 active torsions:
REMARK  status: ('A' for Active; 'I' for Inactive)
REMARK    1  A    between atoms: CA   and  CB  
REMARK    2  A    between atoms: CB   and  CG  
REMARK    3  A    between atoms: CG   and  CD  
REMARK    4  A    between atoms: CD   and  CE  
ROOT
ATOM      1  CA  LYS A 135      33.193  34.663   9.290  1.00 25.02     0.186 C 
ENDROOT
BRANCH   1   2
ATOM      2  CB  LYS A 135      32.060  35.360  10.034  1.00 26.63     0.034 C 
BRANCH   2   3
ATOM      3  CG  LYS A 135      30.705  34.754   9.773  1.00 29.45     0.005 C 
BRANCH   3   4
ATOM      4  CD  LYS A 135      30.470  34.589   8.280  1.00 32.00     0.041 C 
BRANCH   4   5
ATOM      5  CE  LYS A 135      29.020  34.873   7.935  1.00 34.25     0.338 C 
ATOM      6  NZ  LYS A 135      28.908  35.578   6.628  1.00 35.99     0.618 N 
ENDBRANCH   4   5
ENDBRANCH   3   4
ENDBRANCH   2   3
ENDBRANCH   1   2
END_RES LYS A 135
BEGIN_RES TYR A 136
REMARK  2 active torsions:
REMARK  status: ('A' for Active; 'I' for Inactive)
REMARK    5  A    between atoms: CA   and  CB  
REMARK    6  A    between atoms: CB   and  CG  
ROOT
ATOM      7  CA  TYR A 136      36.583  36.399   8.994  1.00 26.14     0.191 C 
ENDROOT
BRANCH   7   8
ATOM      8  CB  TYR A 136      37.367  36.835  10.240  1.00 28.16     0.060 C 
BRANCH   8   9
ATOM      9  CG  TYR A 136      37.204  38.304  10.544  1.00 31.88    -0.020 A 
ATOM     10  CD2 TYR A 136      37.826  38.887  11.650  1.00 32.67    -0.002 A 
ATOM     11  CE2 TYR A 136      37.667  40.253  11.924  1.00 33.89     0.027 A 
ATOM     12  CZ  TYR A 136      36.877  41.041  11.083  1.00 34.34     0.131 A 
ATOM     13  OH  TYR A 136      36.711  42.397  11.331  1.00 35.14    -0.190 OA
ATOM     14  CE1 TYR A 136      36.251  40.478   9.981  1.00 35.01     0.027 A 
ATOM     15  CD1 TYR A 136      36.412  39.116   9.722  1.00 33.57    -0.002 A 
ENDBRANCH   8   9
ENDBRANCH   7   8
END_RES TYR A 136
BEGIN_RES ASN A 133
REMARK  2 active torsions:
REMARK  status: ('A' for Active; 'I' for Inactive)
REMARK    7  A    between atoms: CA   and  CB  
REMARK    8  A    between atoms: CB   and  CG  
ROOT
ATOM     16  CA  ASN A 133      31.225  30.257  11.749  1.00 18.15     0.196 C 
ENDROOT
BRANCH  16  17
ATOM     17  CB  ASN A 133      30.092  31.240  11.460  1.00 18.27     0.126 C 
BRANCH  17  18
ATOM     18  CG  ASN A 133      28.750  30.583  11.361  1.00 18.94     0.276 C 
ATOM     19  OD1 ASN A 133      28.572  29.602  10.637  1.00 18.09    -0.269 OA
ATOM     20  ND2 ASN A 133      27.780  31.127  12.095  1.00 18.93    -0.107 N 
ENDBRANCH  17  18
ENDBRANCH  16  17
END_RES ASN A 133
