REMARK VINA RESULT:    -3.895      8.154     13.713
REMARK INTER + INTRA:          -7.810
REMARK INTER:                  -4.415
REMARK INTRA:                  -3.395
REMARK UNBOUND:                -3.346
REMARK SMILES Cc1cn(C(C)(C)C(=O)O)nn1
REMARK SMILES IDX 5 1 6 2 7 3 4 4 1 5 2 6 3 7 12 8 11 9 8 10 9 11 10 12
REMARK H PARENT 10 13
REMARK Flexibility Score: inf
ROOT
ATOM      1  C   UNL     1      22.068  30.321  -1.551  1.00  0.00     0.155 C 
ATOM      2  C   UNL     1      23.039  30.273  -2.712  1.00  0.00     0.049 C 
ATOM      3  C   UNL     1      20.687  30.525  -2.141  1.00  0.00     0.049 C 
ENDROOT
BRANCH   1   4
ATOM      4  N   UNL     1      22.327  31.437  -0.668  1.00  0.00    -0.235 N 
ATOM      5  C   UNL     1      22.679  34.928   0.226  1.00  0.00     0.070 C 
ATOM      6  C   UNL     1      22.600  33.448   0.129  1.00  0.00     0.080 A 
ATOM      7  C   UNL     1      22.293  32.731  -1.004  1.00  0.00     0.135 A 
ATOM      8  N   UNL     1      22.812  32.571   1.124  1.00  0.00    -0.136 NA
ATOM      9  N   UNL     1      22.640  31.373   0.607  1.00  0.00    -0.066 NA
ENDBRANCH   1   4
BRANCH   1  10
ATOM     10  C   UNL     1      22.157  29.070  -0.774  1.00  0.00     0.331 C 
ATOM     11  O   UNL     1      21.163  28.303  -0.682  1.00  0.00    -0.250 OA
BRANCH  10  12
ATOM     12  O   UNL     1      23.365  28.775  -0.153  1.00  0.00    -0.479 OA
ATOM     13  H   UNL     1      23.537  27.790   0.076  1.00  0.00     0.296 HD
ENDBRANCH  10  12
ENDBRANCH   1  10
TORSDOF 3
BEGIN_RES LYS A 135
REMARK  4 active torsions:
REMARK  status: ('A' for Active; 'I' for Inactive)
REMARK    1  A    between atoms: CA   and  CB  
REMARK    2  A    between atoms: CB   and  CG  
REMARK    3  A    between atoms: CG   and  CD  
REMARK    4  A    between atoms: CD   and  CE  
ROOT
ATOM      1  CA  LYS A 135      33.193  34.663   9.290  1.00 25.02     0.186 C 
ENDROOT
BRANCH   1   2
ATOM      2  CB  LYS A 135      32.060  35.360  10.034  1.00 26.63     0.034 C 
BRANCH   2   3
ATOM      3  CG  LYS A 135      30.724  34.682   9.870  1.00 29.45     0.005 C 
BRANCH   3   4
ATOM      4  CD  LYS A 135      30.336  34.610   8.401  1.00 32.00     0.041 C 
BRANCH   4   5
ATOM      5  CE  LYS A 135      28.828  34.546   8.251  1.00 34.25     0.338 C 
ATOM      6  NZ  LYS A 135      28.201  33.868   9.419  1.00 35.99     0.618 N 
ENDBRANCH   4   5
ENDBRANCH   3   4
ENDBRANCH   2   3
ENDBRANCH   1   2
END_RES LYS A 135
BEGIN_RES TYR A 136
REMARK  2 active torsions:
REMARK  status: ('A' for Active; 'I' for Inactive)
REMARK    5  A    between atoms: CA   and  CB  
REMARK    6  A    between atoms: CB   and  CG  
ROOT
ATOM      7  CA  TYR A 136      36.583  36.399   8.994  1.00 26.14     0.191 C 
ENDROOT
BRANCH   7   8
ATOM      8  CB  TYR A 136      37.367  36.835  10.240  1.00 28.16     0.060 C 
BRANCH   8   9
ATOM      9  CG  TYR A 136      37.250  38.315  10.510  1.00 31.88    -0.020 A 
ATOM     10  CD2 TYR A 136      36.418  39.128   9.738  1.00 32.67    -0.002 A 
ATOM     11  CE2 TYR A 136      36.318  40.502   9.996  1.00 33.89     0.027 A 
ATOM     12  CZ  TYR A 136      37.059  41.068  11.037  1.00 34.34     0.131 A 
ATOM     13  OH  TYR A 136      36.970  42.424  11.315  1.00 35.14    -0.190 OA
ATOM     14  CE1 TYR A 136      37.892  40.275  11.813  1.00 35.01     0.027 A 
ATOM     15  CD1 TYR A 136      37.988  38.909  11.543  1.00 33.57    -0.002 A 
ENDBRANCH   8   9
ENDBRANCH   7   8
END_RES TYR A 136
BEGIN_RES ASN A 133
REMARK  2 active torsions:
REMARK  status: ('A' for Active; 'I' for Inactive)
REMARK    7  A    between atoms: CA   and  CB  
REMARK    8  A    between atoms: CB   and  CG  
ROOT
ATOM     16  CA  ASN A 133      31.225  30.257  11.749  1.00 18.15     0.196 C 
ENDROOT
BRANCH  16  17
ATOM     17  CB  ASN A 133      30.092  31.240  11.460  1.00 18.27     0.126 C 
BRANCH  17  18
ATOM     18  CG  ASN A 133      28.752  30.582  11.348  1.00 18.94     0.276 C 
ATOM     19  OD1 ASN A 133      28.583  29.596  10.628  1.00 18.09    -0.269 OA
ATOM     20  ND2 ASN A 133      27.772  31.128  12.068  1.00 18.93    -0.107 N 
ENDBRANCH  17  18
ENDBRANCH  16  17
END_RES ASN A 133
