REMARK VINA RESULT:    -4.582      4.086      7.541
REMARK INTER + INTRA:         -10.392
REMARK INTER:                  -6.427
REMARK INTRA:                  -3.965
REMARK UNBOUND:                -4.068
REMARK SMILES CCOCCc1c(-c2ccccc2)nc(N)nc1-n1cc(C)nn1
REMARK SMILES IDX 5 1 6 2 18 3 17 4 15 5 7 6 14 7 19 8 22 9 21 10 20 11 23 12
REMARK SMILES IDX 24 13 16 14 8 17 9 18 13 19 10 20 12 21 11 22 4 23 3 24 2 25
REMARK SMILES IDX 1 26
REMARK H PARENT 16 15 16 16
REMARK Flexibility Score: inf
ROOT
ATOM      1  C   UNL     1      40.505  35.224  14.856  1.00  0.00     0.070 C 
ENDROOT
BRANCH   1   2
ATOM      2  C   UNL     1      39.209  34.906  14.273  1.00  0.00     0.026 A 
ATOM      3  C   UNL     1      39.065  34.942  12.887  1.00  0.00     0.164 A 
ATOM      4  N   UNL     1      37.849  34.596  12.383  1.00  0.00    -0.193 NA
ATOM      5  C   UNL     1      36.804  34.230  13.111  1.00  0.00     0.222 A 
ATOM      6  C   UNL     1      38.138  34.532  15.035  1.00  0.00     0.081 A 
ATOM      7  N   UNL     1      36.941  34.195  14.448  1.00  0.00    -0.213 NA
BRANCH   3   8
ATOM      8  N   UNL     1      40.126  35.325  12.028  1.00  0.00    -0.202 N 
ATOM      9  C   UNL     1      43.400  35.150  10.375  1.00  0.00     0.070 C 
ATOM     10  C   UNL     1      42.041  35.458  10.890  1.00  0.00     0.080 A 
ATOM     11  C   UNL     1      41.303  34.721  11.829  1.00  0.00     0.142 A 
ATOM     12  N   UNL     1      41.238  36.492  10.573  1.00  0.00    -0.135 NA
ATOM     13  N   UNL     1      40.108  36.393  11.260  1.00  0.00    -0.061 NA
ENDBRANCH   3   8
BRANCH   5  14
ATOM     14  N   UNL     1      35.547  33.875  12.495  1.00  0.00    -0.368 N 
ATOM     15  H   UNL     1      35.031  34.598  11.976  1.00  0.00     0.159 HD
ATOM     16  H   UNL     1      35.149  32.921  12.557  1.00  0.00     0.159 HD
ENDBRANCH   5  14
BRANCH   6  17
ATOM     17  C   UNL     1      38.137  34.431  16.487  1.00  0.00     0.001 A 
ATOM     18  C   UNL     1      37.712  35.378  17.358  1.00  0.00     0.010 A 
ATOM     19  C   UNL     1      38.665  33.248  17.008  1.00  0.00     0.010 A 
ATOM     20  C   UNL     1      37.790  35.196  18.744  1.00  0.00     0.001 A 
ATOM     21  C   UNL     1      38.742  33.068  18.369  1.00  0.00     0.001 A 
ATOM     22  C   UNL     1      38.310  34.029  19.257  1.00  0.00     0.000 A 
ENDBRANCH   6  17
ENDBRANCH   1   2
BRANCH   1  23
ATOM     23  C   UNL     1      40.582  36.646  15.390  1.00  0.00     0.165 C 
BRANCH  23  24
ATOM     24  O   UNL     1      40.976  37.539  14.411  1.00  0.00    -0.381 OA
BRANCH  24  25
ATOM     25  C   UNL     1      40.016  38.537  14.256  1.00  0.00     0.156 C 
ATOM     26  C   UNL     1      39.019  38.512  15.407  1.00  0.00     0.035 C 
ENDBRANCH  24  25
ENDBRANCH  23  24
ENDBRANCH   1  23
TORSDOF 7
BEGIN_RES LYS A 135
REMARK  4 active torsions:
REMARK  status: ('A' for Active; 'I' for Inactive)
REMARK    1  A    between atoms: CA   and  CB  
REMARK    2  A    between atoms: CB   and  CG  
REMARK    3  A    between atoms: CG   and  CD  
REMARK    4  A    between atoms: CD   and  CE  
ROOT
ATOM      1  CA  LYS A 135      33.193  34.663   9.290  1.00 25.02     0.186 C 
ENDROOT
BRANCH   1   2
ATOM      2  CB  LYS A 135      32.060  35.360  10.034  1.00 26.63     0.034 C 
BRANCH   2   3
ATOM      3  CG  LYS A 135      30.705  34.756   9.771  1.00 29.45     0.005 C 
BRANCH   3   4
ATOM      4  CD  LYS A 135      30.450  34.640   8.276  1.00 32.00     0.041 C 
BRANCH   4   5
ATOM      5  CE  LYS A 135      29.014  35.000   7.950  1.00 34.25     0.338 C 
ATOM      6  NZ  LYS A 135      28.894  35.526   6.562  1.00 35.99     0.618 N 
ENDBRANCH   4   5
ENDBRANCH   3   4
ENDBRANCH   2   3
ENDBRANCH   1   2
END_RES LYS A 135
BEGIN_RES TYR A 136
REMARK  2 active torsions:
REMARK  status: ('A' for Active; 'I' for Inactive)
REMARK    5  A    between atoms: CA   and  CB  
REMARK    6  A    between atoms: CB   and  CG  
ROOT
ATOM      7  CA  TYR A 136      36.583  36.399   8.994  1.00 26.14     0.191 C 
ENDROOT
BRANCH   7   8
ATOM      8  CB  TYR A 136      37.367  36.835  10.240  1.00 28.16     0.060 C 
BRANCH   8   9
ATOM      9  CG  TYR A 136      36.761  38.041  10.914  1.00 31.88    -0.020 A 
ATOM     10  CD2 TYR A 136      36.145  39.051  10.172  1.00 32.67    -0.002 A 
ATOM     11  CE2 TYR A 136      35.587  40.169  10.807  1.00 33.89     0.027 A 
ATOM     12  CZ  TYR A 136      35.646  40.277  12.199  1.00 34.34     0.131 A 
ATOM     13  OH  TYR A 136      35.093  41.371  12.850  1.00 35.14    -0.190 OA
ATOM     14  CE1 TYR A 136      36.255  39.283  12.952  1.00 35.01     0.027 A 
ATOM     15  CD1 TYR A 136      36.813  38.178  12.307  1.00 33.57    -0.002 A 
ENDBRANCH   8   9
ENDBRANCH   7   8
END_RES TYR A 136
BEGIN_RES ASN A 133
REMARK  2 active torsions:
REMARK  status: ('A' for Active; 'I' for Inactive)
REMARK    7  A    between atoms: CA   and  CB  
REMARK    8  A    between atoms: CB   and  CG  
ROOT
ATOM     16  CA  ASN A 133      31.225  30.257  11.749  1.00 18.15     0.196 C 
ENDROOT
BRANCH  16  17
ATOM     17  CB  ASN A 133      30.092  31.240  11.460  1.00 18.27     0.126 C 
BRANCH  17  18
ATOM     18  CG  ASN A 133      28.750  30.583  11.361  1.00 18.94     0.276 C 
ATOM     19  OD1 ASN A 133      28.572  29.602  10.638  1.00 18.09    -0.269 OA
ATOM     20  ND2 ASN A 133      27.780  31.127  12.095  1.00 18.93    -0.107 N 
ENDBRANCH  17  18
ENDBRANCH  16  17
END_RES ASN A 133
