REMARK VINA RESULT:    -4.746      7.701     12.920
REMARK INTER + INTRA:          -7.402
REMARK INTER:                  -4.450
REMARK INTRA:                  -2.952
REMARK UNBOUND:                -2.379
REMARK SMILES Cc1cn(-c2ccccc2)nn1
REMARK SMILES IDX 5 1 6 2 7 3 8 4 9 5 10 6 4 7 1 8 2 9 3 10 12 11 11 12
REMARK H PARENT
REMARK Flexibility Score: inf
ROOT
ATOM      1  C   UNL     1      35.782  34.672  13.480  1.00  0.00     0.066 A 
ATOM      2  C   UNL     1      36.715  35.024  14.435  1.00  0.00     0.028 A 
ATOM      3  C   UNL     1      38.014  34.578  14.387  1.00  0.00     0.002 A 
ATOM      4  C   UNL     1      38.444  33.749  13.371  1.00  0.00     0.000 A 
ATOM      5  C   UNL     1      37.513  33.396  12.415  1.00  0.00     0.002 A 
ATOM      6  C   UNL     1      36.208  33.845  12.464  1.00  0.00     0.028 A 
ENDROOT
BRANCH   1   7
ATOM      7  N   UNL     1      34.429  35.130  13.519  1.00  0.00    -0.220 N 
ATOM      8  C   UNL     1      31.615  37.224  12.438  1.00  0.00     0.070 C 
ATOM      9  C   UNL     1      32.549  36.256  13.076  1.00  0.00     0.080 A 
ATOM     10  C   UNL     1      33.890  36.088  12.744  1.00  0.00     0.140 A 
ATOM     11  N   UNL     1      32.332  35.373  14.060  1.00  0.00    -0.135 NA
ATOM     12  N   UNL     1      33.452  34.716  14.310  1.00  0.00    -0.062 NA
ENDBRANCH   1   7
TORSDOF 1
BEGIN_RES LYS A 135
REMARK  4 active torsions:
REMARK  status: ('A' for Active; 'I' for Inactive)
REMARK    1  A    between atoms: CA   and  CB  
REMARK    2  A    between atoms: CB   and  CG  
REMARK    3  A    between atoms: CG   and  CD  
REMARK    4  A    between atoms: CD   and  CE  
ROOT
ATOM      1  CA  LYS A 135      33.193  34.663   9.290  1.00 25.02     0.186 C 
ENDROOT
BRANCH   1   2
ATOM      2  CB  LYS A 135      32.060  35.360  10.034  1.00 26.63     0.034 C 
BRANCH   2   3
ATOM      3  CG  LYS A 135      30.731  34.664   9.896  1.00 29.45     0.005 C 
BRANCH   3   4
ATOM      4  CD  LYS A 135      30.352  34.515   8.430  1.00 32.00     0.041 C 
BRANCH   4   5
ATOM      5  CE  LYS A 135      28.846  34.575   8.261  1.00 34.25     0.338 C 
ATOM      6  NZ  LYS A 135      28.152  33.874   9.377  1.00 35.99     0.618 N 
ENDBRANCH   4   5
ENDBRANCH   3   4
ENDBRANCH   2   3
ENDBRANCH   1   2
END_RES LYS A 135
BEGIN_RES TYR A 136
REMARK  2 active torsions:
REMARK  status: ('A' for Active; 'I' for Inactive)
REMARK    5  A    between atoms: CA   and  CB  
REMARK    6  A    between atoms: CB   and  CG  
ROOT
ATOM      7  CA  TYR A 136      36.583  36.399   8.994  1.00 26.14     0.191 C 
ENDROOT
BRANCH   7   8
ATOM      8  CB  TYR A 136      37.367  36.835  10.240  1.00 28.16     0.060 C 
BRANCH   8   9
ATOM      9  CG  TYR A 136      36.653  37.904  11.030  1.00 31.88    -0.020 A 
ATOM     10  CD2 TYR A 136      36.900  38.083  12.393  1.00 32.67    -0.002 A 
ATOM     11  CE2 TYR A 136      36.231  39.078  13.118  1.00 33.89     0.027 A 
ATOM     12  CZ  TYR A 136      35.305  39.902  12.473  1.00 34.34     0.131 A 
ATOM     13  OH  TYR A 136      34.636  40.899  13.169  1.00 35.14    -0.190 OA
ATOM     14  CE1 TYR A 136      35.046  39.738  11.120  1.00 35.01     0.027 A 
ATOM     15  CD1 TYR A 136      35.715  38.739  10.410  1.00 33.57    -0.002 A 
ENDBRANCH   8   9
ENDBRANCH   7   8
END_RES TYR A 136
BEGIN_RES ASN A 133
REMARK  2 active torsions:
REMARK  status: ('A' for Active; 'I' for Inactive)
REMARK    7  A    between atoms: CA   and  CB  
REMARK    8  A    between atoms: CB   and  CG  
ROOT
ATOM     16  CA  ASN A 133      31.225  30.257  11.749  1.00 18.15     0.196 C 
ENDROOT
BRANCH  16  17
ATOM     17  CB  ASN A 133      30.092  31.240  11.460  1.00 18.27     0.126 C 
BRANCH  17  18
ATOM     18  CG  ASN A 133      28.753  30.581  11.343  1.00 18.94     0.276 C 
ATOM     19  OD1 ASN A 133      28.586  29.598  10.619  1.00 18.09    -0.269 OA
ATOM     20  ND2 ASN A 133      27.771  31.125  12.062  1.00 18.93    -0.107 N 
ENDBRANCH  17  18
ENDBRANCH  16  17
END_RES ASN A 133
