REMARK VINA RESULT:    -4.525      3.233      5.028
REMARK INTER + INTRA:          -8.749
REMARK INTER:                  -5.567
REMARK INTRA:                  -3.183
REMARK UNBOUND:                -3.298
REMARK SMILES Cc1cn(Cc2ccc(C(=O)O)cc2)nn1
REMARK SMILES IDX 6 1 7 2 8 3 9 4 13 5 14 6 5 7 4 8 1 9 2 10 3 11 16 12 15 13
REMARK SMILES IDX 10 14 11 15 12 16
REMARK H PARENT 12 17
REMARK Flexibility Score: inf
ROOT
ATOM      1  C   UNL     1      37.256  34.673  14.333  1.00  0.00    -0.026 A 
ATOM      2  C   UNL     1      36.717  34.164  13.178  1.00  0.00     0.006 A 
ATOM      3  C   UNL     1      35.423  34.491  12.840  1.00  0.00     0.016 A 
ATOM      4  C   UNL     1      34.625  35.312  13.605  1.00  0.00     0.059 A 
ATOM      5  C   UNL     1      35.214  35.799  14.759  1.00  0.00     0.016 A 
ATOM      6  C   UNL     1      36.503  35.492  15.124  1.00  0.00     0.006 A 
ENDROOT
BRANCH   1   7
ATOM      7  C   UNL     1      38.654  34.348  14.743  1.00  0.00     0.181 C 
BRANCH   7   8
ATOM      8  N   UNL     1      39.566  34.901  13.754  1.00  0.00    -0.248 N 
ATOM      9  C   UNL     1      42.210  34.763  11.195  1.00  0.00     0.070 C 
ATOM     10  C   UNL     1      41.145  35.046  12.186  1.00  0.00     0.080 A 
ATOM     11  C   UNL     1      40.457  34.193  13.009  1.00  0.00     0.134 A 
ATOM     12  N   UNL     1      40.650  36.273  12.450  1.00  0.00    -0.136 NA
ATOM     13  N   UNL     1      39.714  36.162  13.385  1.00  0.00    -0.067 NA
ENDBRANCH   7   8
ENDBRANCH   1   7
BRANCH   4  14
ATOM     14  C   UNL     1      33.259  35.643  13.226  1.00  0.00     0.335 C 
ATOM     15  O   UNL     1      32.794  36.736  13.632  1.00  0.00    -0.246 OA
BRANCH  14  16
ATOM     16  O   UNL     1      32.465  34.833  12.459  1.00  0.00    -0.478 OA
ATOM     17  H   UNL     1      32.327  33.834  12.631  1.00  0.00     0.297 HD
ENDBRANCH  14  16
ENDBRANCH   4  14
TORSDOF 4
BEGIN_RES LYS A 135
REMARK  4 active torsions:
REMARK  status: ('A' for Active; 'I' for Inactive)
REMARK    1  A    between atoms: CA   and  CB  
REMARK    2  A    between atoms: CB   and  CG  
REMARK    3  A    between atoms: CG   and  CD  
REMARK    4  A    between atoms: CD   and  CE  
ROOT
ATOM      1  CA  LYS A 135      33.193  34.663   9.290  1.00 25.02     0.186 C 
ENDROOT
BRANCH   1   2
ATOM      2  CB  LYS A 135      32.060  35.360  10.034  1.00 26.63     0.034 C 
BRANCH   2   3
ATOM      3  CG  LYS A 135      30.785  35.457   9.236  1.00 29.45     0.005 C 
BRANCH   3   4
ATOM      4  CD  LYS A 135      30.228  34.072   8.944  1.00 32.00     0.041 C 
BRANCH   4   5
ATOM      5  CE  LYS A 135      28.754  34.006   9.295  1.00 34.25     0.338 C 
ATOM      6  NZ  LYS A 135      27.925  34.676   8.255  1.00 35.99     0.618 N 
ENDBRANCH   4   5
ENDBRANCH   3   4
ENDBRANCH   2   3
ENDBRANCH   1   2
END_RES LYS A 135
BEGIN_RES TYR A 136
REMARK  2 active torsions:
REMARK  status: ('A' for Active; 'I' for Inactive)
REMARK    5  A    between atoms: CA   and  CB  
REMARK    6  A    between atoms: CB   and  CG  
ROOT
ATOM      7  CA  TYR A 136      36.583  36.399   8.994  1.00 26.14     0.191 C 
ENDROOT
BRANCH   7   8
ATOM      8  CB  TYR A 136      37.367  36.835  10.240  1.00 28.16     0.060 C 
BRANCH   8   9
ATOM      9  CG  TYR A 136      36.674  37.935  11.006  1.00 31.88    -0.020 A 
ATOM     10  CD2 TYR A 136      35.856  38.863  10.358  1.00 32.67    -0.002 A 
ATOM     11  CE2 TYR A 136      35.218  39.882  11.078  1.00 33.89     0.027 A 
ATOM     12  CZ  TYR A 136      35.401  39.974  12.460  1.00 34.34     0.131 A 
ATOM     13  OH  TYR A 136      34.774  40.970  13.195  1.00 35.14    -0.190 OA
ATOM     14  CE1 TYR A 136      36.212  39.061  13.120  1.00 35.01     0.027 A 
ATOM     15  CD1 TYR A 136      36.847  38.054  12.391  1.00 33.57    -0.002 A 
ENDBRANCH   8   9
ENDBRANCH   7   8
END_RES TYR A 136
BEGIN_RES ASN A 133
REMARK  2 active torsions:
REMARK  status: ('A' for Active; 'I' for Inactive)
REMARK    7  A    between atoms: CA   and  CB  
REMARK    8  A    between atoms: CB   and  CG  
ROOT
ATOM     16  CA  ASN A 133      31.225  30.257  11.749  1.00 18.15     0.196 C 
ENDROOT
BRANCH  16  17
ATOM     17  CB  ASN A 133      30.092  31.240  11.460  1.00 18.27     0.126 C 
BRANCH  17  18
ATOM     18  CG  ASN A 133      28.752  30.581  11.343  1.00 18.94     0.276 C 
ATOM     19  OD1 ASN A 133      28.586  29.596  10.622  1.00 18.09    -0.269 OA
ATOM     20  ND2 ASN A 133      27.771  31.126  12.060  1.00 18.93    -0.107 N 
ENDBRANCH  17  18
ENDBRANCH  16  17
END_RES ASN A 133
