REMARK VINA RESULT:    -5.074      3.258      6.833
REMARK INTER + INTRA:          -9.455
REMARK INTER:                  -7.016
REMARK INTRA:                  -2.439
REMARK UNBOUND:                -3.343
REMARK SMILES Cc1cn(-c2ccc(S(=O)(=O)c3ccc(N)cc3)cc2)nn1
REMARK SMILES IDX 9 1 10 2 11 3 8 4 5 5 6 6 20 7 7 8 19 9 4 10 1 11 2 12 3 13
REMARK SMILES IDX 22 14 21 15 12 16 13 17 18 18 14 19 17 20 15 21 16 22
REMARK H PARENT 16 23 16 24
REMARK Flexibility Score: inf
ROOT
ATOM      1  S   UNL     1      26.735  35.578  11.170  1.00  0.00     0.206 S 
ATOM      2  O   UNL     1      25.902  36.654  11.843  1.00  0.00    -0.219 OA
ATOM      3  O   UNL     1      25.946  34.302  11.274  1.00  0.00    -0.219 OA
ENDROOT
BRANCH   1   4
ATOM      4  C   UNL     1      28.294  35.455  11.932  1.00  0.00     0.072 A 
ATOM      5  C   UNL     1      30.799  35.359  13.192  1.00  0.00     0.066 A 
ATOM      6  C   UNL     1      30.014  36.518  13.203  1.00  0.00     0.030 A 
ATOM      7  C   UNL     1      30.309  34.265  12.547  1.00  0.00     0.030 A 
ATOM      8  C   UNL     1      28.782  36.563  12.583  1.00  0.00     0.023 A 
ATOM      9  C   UNL     1      29.063  34.310  11.917  1.00  0.00     0.023 A 
BRANCH   5  10
ATOM     10  N   UNL     1      32.061  35.388  13.855  1.00  0.00    -0.220 N 
ATOM     11  C   UNL     1      35.670  35.467  14.353  1.00  0.00     0.070 C 
ATOM     12  C   UNL     1      34.198  35.435  14.373  1.00  0.00     0.080 A 
ATOM     13  C   UNL     1      33.285  35.414  13.341  1.00  0.00     0.140 A 
ATOM     14  N   UNL     1      33.466  35.420  15.514  1.00  0.00    -0.135 NA
ATOM     15  N   UNL     1      32.207  35.392  15.166  1.00  0.00    -0.062 NA
ENDBRANCH   5  10
ENDBRANCH   1   4
BRANCH   1  16
ATOM     16  C   UNL     1      26.887  35.961   9.461  1.00  0.00     0.072 A 
ATOM     17  C   UNL     1      27.411  35.068   8.551  1.00  0.00     0.023 A 
ATOM     18  C   UNL     1      26.477  37.194   8.978  1.00  0.00     0.023 A 
ATOM     19  C   UNL     1      27.529  35.378   7.200  1.00  0.00     0.027 A 
ATOM     20  C   UNL     1      26.596  37.501   7.626  1.00  0.00     0.027 A 
ATOM     21  C   UNL     1      27.122  36.599   6.726  1.00  0.00     0.031 A 
BRANCH  21  22
ATOM     22  N   UNL     1      27.253  36.894   5.338  1.00  0.00    -0.399 N 
ATOM     23  H   UNL     1      27.478  36.159   4.655  1.00  0.00     0.156 HD
ATOM     24  H   UNL     1      27.119  37.873   5.005  1.00  0.00     0.156 HD
ENDBRANCH  21  22
ENDBRANCH   1  16
TORSDOF 4
BEGIN_RES LYS A 135
REMARK  4 active torsions:
REMARK  status: ('A' for Active; 'I' for Inactive)
REMARK    1  A    between atoms: CA   and  CB  
REMARK    2  A    between atoms: CB   and  CG  
REMARK    3  A    between atoms: CG   and  CD  
REMARK    4  A    between atoms: CD   and  CE  
ROOT
ATOM      1  CA  LYS A 135      33.193  34.663   9.290  1.00 25.02     0.186 C 
ENDROOT
BRANCH   1   2
ATOM      2  CB  LYS A 135      32.060  35.360  10.034  1.00 26.63     0.034 C 
BRANCH   2   3
ATOM      3  CG  LYS A 135      30.910  35.756   9.145  1.00 29.45     0.005 C 
BRANCH   3   4
ATOM      4  CD  LYS A 135      30.459  37.177   9.451  1.00 32.00     0.041 C 
BRANCH   4   5
ATOM      5  CE  LYS A 135      30.272  37.964   8.168  1.00 34.25     0.338 C 
ATOM      6  NZ  LYS A 135      31.265  39.070   8.068  1.00 35.99     0.618 N 
ENDBRANCH   4   5
ENDBRANCH   3   4
ENDBRANCH   2   3
ENDBRANCH   1   2
END_RES LYS A 135
BEGIN_RES TYR A 136
REMARK  2 active torsions:
REMARK  status: ('A' for Active; 'I' for Inactive)
REMARK    5  A    between atoms: CA   and  CB  
REMARK    6  A    between atoms: CB   and  CG  
ROOT
ATOM      7  CA  TYR A 136      36.583  36.399   8.994  1.00 26.14     0.191 C 
ENDROOT
BRANCH   7   8
ATOM      8  CB  TYR A 136      37.367  36.835  10.240  1.00 28.16     0.060 C 
BRANCH   8   9
ATOM      9  CG  TYR A 136      36.921  38.177  10.766  1.00 31.88    -0.020 A 
ATOM     10  CD2 TYR A 136      37.082  38.517  12.111  1.00 32.67    -0.002 A 
ATOM     11  CE2 TYR A 136      36.663  39.766  12.589  1.00 33.89     0.027 A 
ATOM     12  CZ  TYR A 136      36.077  40.683  11.714  1.00 34.34     0.131 A 
ATOM     13  OH  TYR A 136      35.661  41.929  12.164  1.00 35.14    -0.190 OA
ATOM     14  CE1 TYR A 136      35.908  40.362  10.375  1.00 35.01     0.027 A 
ATOM     15  CD1 TYR A 136      36.324  39.113   9.911  1.00 33.57    -0.002 A 
ENDBRANCH   8   9
ENDBRANCH   7   8
END_RES TYR A 136
BEGIN_RES ASN A 133
REMARK  2 active torsions:
REMARK  status: ('A' for Active; 'I' for Inactive)
REMARK    7  A    between atoms: CA   and  CB  
REMARK    8  A    between atoms: CB   and  CG  
ROOT
ATOM     16  CA  ASN A 133      31.225  30.257  11.749  1.00 18.15     0.196 C 
ENDROOT
BRANCH  16  17
ATOM     17  CB  ASN A 133      30.092  31.240  11.460  1.00 18.27     0.126 C 
BRANCH  17  18
ATOM     18  CG  ASN A 133      28.753  30.581  11.341  1.00 18.94     0.276 C 
ATOM     19  OD1 ASN A 133      28.571  29.641  10.565  1.00 18.09    -0.269 OA
ATOM     20  ND2 ASN A 133      27.789  31.074  12.118  1.00 18.93    -0.107 N 
ENDBRANCH  17  18
ENDBRANCH  16  17
END_RES ASN A 133
