REMARK VINA RESULT:    -4.219      8.224     13.647
REMARK INTER + INTRA:          -7.817
REMARK INTER:                  -4.648
REMARK INTRA:                  -3.169
REMARK UNBOUND:                -3.228
REMARK SMILES Cc1cn(-c2nc(C)nc(N)n2)nn1
REMARK SMILES IDX 5 1 12 2 10 3 9 4 7 5 8 6 6 7 4 8 1 9 2 10 3 11 14 12 13 13
REMARK SMILES IDX 11 14
REMARK H PARENT 11 15 11 16
REMARK Flexibility Score: inf
ROOT
ATOM      1  C   UNL     1      35.038  34.879  13.713  1.00  0.00     0.257 A 
ATOM      2  N   UNL     1      35.547  34.316  12.617  1.00  0.00    -0.175 NA
ATOM      3  C   UNL     1      36.873  34.223  12.470  1.00  0.00     0.225 A 
ATOM      4  N   UNL     1      37.687  34.698  13.429  1.00  0.00    -0.198 NA
ATOM      5  C   UNL     1      37.187  35.270  14.544  1.00  0.00     0.133 A 
ATOM      6  C   UNL     1      38.089  35.799  15.610  1.00  0.00     0.090 C 
ATOM      7  N   UNL     1      35.856  35.345  14.654  1.00  0.00    -0.196 NA
ENDROOT
BRANCH   1   8
ATOM      8  N   UNL     1      33.627  34.973  13.859  1.00  0.00    -0.185 N 
ATOM      9  C   UNL     1      30.197  35.814  12.929  1.00  0.00     0.070 C 
ATOM     10  C   UNL     1      31.472  35.379  13.529  1.00  0.00     0.080 A 
ATOM     11  C   UNL     1      32.729  35.492  12.993  1.00  0.00     0.144 A 
ATOM     12  N   UNL     1      31.629  34.793  14.717  1.00  0.00    -0.135 NA
ATOM     13  N   UNL     1      32.920  34.563  14.887  1.00  0.00    -0.059 NA
ENDBRANCH   1   8
BRANCH   3  14
ATOM     14  N   UNL     1      37.357  33.614  11.282  1.00  0.00    -0.368 N 
ATOM     15  H   UNL     1      38.381  33.520  11.119  1.00  0.00     0.159 HD
ATOM     16  H   UNL     1      36.707  33.251  10.557  1.00  0.00     0.159 HD
ENDBRANCH   3  14
TORSDOF 2
BEGIN_RES LYS A 135
REMARK  4 active torsions:
REMARK  status: ('A' for Active; 'I' for Inactive)
REMARK    1  A    between atoms: CA   and  CB  
REMARK    2  A    between atoms: CB   and  CG  
REMARK    3  A    between atoms: CG   and  CD  
REMARK    4  A    between atoms: CD   and  CE  
ROOT
ATOM      1  CA  LYS A 135      33.193  34.663   9.290  1.00 25.02     0.186 C 
ENDROOT
BRANCH   1   2
ATOM      2  CB  LYS A 135      32.060  35.360  10.034  1.00 26.63     0.034 C 
BRANCH   2   3
ATOM      3  CG  LYS A 135      30.803  35.507   9.216  1.00 29.45     0.005 C 
BRANCH   3   4
ATOM      4  CD  LYS A 135      30.146  34.153   8.994  1.00 32.00     0.041 C 
BRANCH   4   5
ATOM      5  CE  LYS A 135      28.681  34.323   8.643  1.00 34.25     0.338 C 
ATOM      6  NZ  LYS A 135      27.807  33.678   9.663  1.00 35.99     0.618 N 
ENDBRANCH   4   5
ENDBRANCH   3   4
ENDBRANCH   2   3
ENDBRANCH   1   2
END_RES LYS A 135
BEGIN_RES TYR A 136
REMARK  2 active torsions:
REMARK  status: ('A' for Active; 'I' for Inactive)
REMARK    5  A    between atoms: CA   and  CB  
REMARK    6  A    between atoms: CB   and  CG  
ROOT
ATOM      7  CA  TYR A 136      36.583  36.399   8.994  1.00 26.14     0.191 C 
ENDROOT
BRANCH   7   8
ATOM      8  CB  TYR A 136      37.367  36.835  10.240  1.00 28.16     0.060 C 
BRANCH   8   9
ATOM      9  CG  TYR A 136      36.752  38.032  10.923  1.00 31.88    -0.020 A 
ATOM     10  CD2 TYR A 136      36.138  39.048  10.187  1.00 32.67    -0.002 A 
ATOM     11  CE2 TYR A 136      35.572  40.157  10.831  1.00 33.89     0.027 A 
ATOM     12  CZ  TYR A 136      35.620  40.249  12.224  1.00 34.34     0.131 A 
ATOM     13  OH  TYR A 136      35.059  41.334  12.884  1.00 35.14    -0.190 OA
ATOM     14  CE1 TYR A 136      36.227  39.249  12.971  1.00 35.01     0.027 A 
ATOM     15  CD1 TYR A 136      36.793  38.153  12.318  1.00 33.57    -0.002 A 
ENDBRANCH   8   9
ENDBRANCH   7   8
END_RES TYR A 136
BEGIN_RES ASN A 133
REMARK  2 active torsions:
REMARK  status: ('A' for Active; 'I' for Inactive)
REMARK    7  A    between atoms: CA   and  CB  
REMARK    8  A    between atoms: CB   and  CG  
ROOT
ATOM     16  CA  ASN A 133      31.225  30.257  11.749  1.00 18.15     0.196 C 
ENDROOT
BRANCH  16  17
ATOM     17  CB  ASN A 133      30.092  31.240  11.460  1.00 18.27     0.126 C 
BRANCH  17  18
ATOM     18  CG  ASN A 133      28.751  30.583  11.355  1.00 18.94     0.276 C 
ATOM     19  OD1 ASN A 133      28.568  29.621  10.606  1.00 18.09    -0.269 OA
ATOM     20  ND2 ASN A 133      27.786  31.102  12.113  1.00 18.93    -0.107 N 
ENDBRANCH  17  18
ENDBRANCH  16  17
END_RES ASN A 133
