REMARK VINA RESULT:    -4.653      2.340      3.605
REMARK INTER + INTRA:          -8.189
REMARK INTER:                  -5.024
REMARK INTRA:                  -3.165
REMARK UNBOUND:                -3.264
REMARK SMILES Cc1cn(-c2cnc3ccccc3c2)nn1
REMARK SMILES IDX 5 1 6 2 7 3 8 4 9 5 10 6 11 7 12 8 13 9 14 10 4 11 1 12 2 13
REMARK SMILES IDX 3 14 16 15 15 16
REMARK H PARENT
REMARK Flexibility Score: inf
ROOT
ATOM      1  C   UNL     1      35.601  36.333  13.764  1.00  0.00     0.085 A 
ATOM      2  C   UNL     1      35.653  37.375  14.647  1.00  0.00     0.140 A 
ATOM      3  N   UNL     1      34.777  38.394  14.548  1.00  0.00    -0.254 NA
ATOM      4  C   UNL     1      33.826  38.431  13.592  1.00  0.00     0.070 A 
ATOM      5  C   UNL     1      32.925  39.470  13.485  1.00  0.00     0.029 A 
ATOM      6  C   UNL     1      31.966  39.468  12.488  1.00  0.00     0.002 A 
ATOM      7  C   UNL     1      31.894  38.414  11.576  1.00  0.00     0.001 A 
ATOM      8  C   UNL     1      32.783  37.389  11.683  1.00  0.00     0.010 A 
ATOM      9  C   UNL     1      33.734  37.400  12.678  1.00  0.00     0.002 A 
ATOM     10  C   UNL     1      34.630  36.365  12.784  1.00  0.00     0.040 A 
ENDROOT
BRANCH   1  11
ATOM     11  N   UNL     1      36.516  35.221  13.828  1.00  0.00    -0.219 N 
ATOM     12  C   UNL     1      38.307  32.332  12.458  1.00  0.00     0.070 C 
ATOM     13  C   UNL     1      37.719  33.444  13.252  1.00  0.00     0.080 A 
ATOM     14  C   UNL     1      36.797  34.387  12.811  1.00  0.00     0.140 A 
ATOM     15  N   UNL     1      37.947  33.771  14.538  1.00  0.00    -0.135 NA
ATOM     16  N   UNL     1      37.226  34.829  14.870  1.00  0.00    -0.062 NA
ENDBRANCH   1  11
TORSDOF 1
BEGIN_RES LYS A 135
REMARK  4 active torsions:
REMARK  status: ('A' for Active; 'I' for Inactive)
REMARK    1  A    between atoms: CA   and  CB  
REMARK    2  A    between atoms: CB   and  CG  
REMARK    3  A    between atoms: CG   and  CD  
REMARK    4  A    between atoms: CD   and  CE  
ROOT
ATOM      1  CA  LYS A 135      33.193  34.663   9.290  1.00 25.02     0.186 C 
ENDROOT
BRANCH   1   2
ATOM      2  CB  LYS A 135      32.060  35.360  10.034  1.00 26.63     0.034 C 
BRANCH   2   3
ATOM      3  CG  LYS A 135      30.705  34.753   9.775  1.00 29.45     0.005 C 
BRANCH   3   4
ATOM      4  CD  LYS A 135      30.464  34.597   8.281  1.00 32.00     0.041 C 
BRANCH   4   5
ATOM      5  CE  LYS A 135      29.019  34.903   7.940  1.00 34.25     0.338 C 
ATOM      6  NZ  LYS A 135      28.908  35.546   6.602  1.00 35.99     0.618 N 
ENDBRANCH   4   5
ENDBRANCH   3   4
ENDBRANCH   2   3
ENDBRANCH   1   2
END_RES LYS A 135
BEGIN_RES TYR A 136
REMARK  2 active torsions:
REMARK  status: ('A' for Active; 'I' for Inactive)
REMARK    5  A    between atoms: CA   and  CB  
REMARK    6  A    between atoms: CB   and  CG  
ROOT
ATOM      7  CA  TYR A 136      36.583  36.399   8.994  1.00 26.14     0.191 C 
ENDROOT
BRANCH   7   8
ATOM      8  CB  TYR A 136      37.367  36.835  10.240  1.00 28.16     0.060 C 
BRANCH   8   9
ATOM      9  CG  TYR A 136      36.930  38.183  10.759  1.00 31.88    -0.020 A 
ATOM     10  CD2 TYR A 136      37.557  38.773  11.858  1.00 32.67    -0.002 A 
ATOM     11  CE2 TYR A 136      37.142  40.025  12.333  1.00 33.89     0.027 A 
ATOM     12  CZ  TYR A 136      36.089  40.692  11.702  1.00 34.34     0.131 A 
ATOM     13  OH  TYR A 136      35.666  41.935  12.151  1.00 35.14    -0.190 OA
ATOM     14  CE1 TYR A 136      35.453  40.119  10.610  1.00 35.01     0.027 A 
ATOM     15  CD1 TYR A 136      35.871  38.870  10.150  1.00 33.57    -0.002 A 
ENDBRANCH   8   9
ENDBRANCH   7   8
END_RES TYR A 136
BEGIN_RES ASN A 133
REMARK  2 active torsions:
REMARK  status: ('A' for Active; 'I' for Inactive)
REMARK    7  A    between atoms: CA   and  CB  
REMARK    8  A    between atoms: CB   and  CG  
ROOT
ATOM     16  CA  ASN A 133      31.225  30.257  11.749  1.00 18.15     0.196 C 
ENDROOT
BRANCH  16  17
ATOM     17  CB  ASN A 133      30.092  31.240  11.460  1.00 18.27     0.126 C 
BRANCH  17  18
ATOM     18  CG  ASN A 133      28.756  30.579  11.322  1.00 18.94     0.276 C 
ATOM     19  OD1 ASN A 133      28.595  29.616  10.569  1.00 18.09    -0.269 OA
ATOM     20  ND2 ASN A 133      27.771  31.096  12.054  1.00 18.93    -0.107 N 
ENDBRANCH  17  18
ENDBRANCH  16  17
END_RES ASN A 133
