REMARK VINA RESULT:    -4.013      0.000      0.000
REMARK INTER + INTRA:          -7.394
REMARK INTER:                  -4.183
REMARK INTRA:                  -3.211
REMARK UNBOUND:                -3.147
REMARK SMILES Cc1cn(-c2ccncc2)nn1
REMARK SMILES IDX 1 1 2 2 3 3 4 4 11 5 12 6 5 7 6 8 10 9 7 10 9 11 8 12
REMARK H PARENT
REMARK Flexibility Score: inf
ROOT
ATOM      1  C   UNL     1      23.439  29.436   1.417  1.00  0.00     0.070 C 
ATOM      2  C   UNL     1      22.893  30.507   0.561  1.00  0.00     0.080 A 
ATOM      3  C   UNL     1      22.742  31.855   0.858  1.00  0.00     0.140 A 
ATOM      4  N   UNL     1      22.205  32.476  -0.204  1.00  0.00    -0.220 N 
ATOM      5  N   UNL     1      22.027  31.552  -1.133  1.00  0.00    -0.062 NA
ATOM      6  N   UNL     1      22.431  30.368  -0.693  1.00  0.00    -0.135 NA
ENDROOT
BRANCH   4   7
ATOM      7  C   UNL     1      21.897  33.864  -0.292  1.00  0.00     0.069 A 
ATOM      8  C   UNL     1      20.705  34.281  -0.857  1.00  0.00     0.048 A 
ATOM      9  C   UNL     1      22.742  34.846   0.165  1.00  0.00     0.048 A 
ATOM     10  C   UNL     1      20.417  35.616  -0.938  1.00  0.00     0.113 A 
ATOM     11  C   UNL     1      22.451  36.190   0.083  1.00  0.00     0.113 A 
ATOM     12  N   UNL     1      21.278  36.528  -0.476  1.00  0.00    -0.265 NA
ENDBRANCH   4   7
TORSDOF 1
BEGIN_RES LYS A 135
REMARK  4 active torsions:
REMARK  status: ('A' for Active; 'I' for Inactive)
REMARK    1  A    between atoms: CA   and  CB  
REMARK    2  A    between atoms: CB   and  CG  
REMARK    3  A    between atoms: CG   and  CD  
REMARK    4  A    between atoms: CD   and  CE  
ROOT
ATOM      1  CA  LYS A 135      33.193  34.663   9.290  1.00 25.02     0.186 C 
ENDROOT
BRANCH   1   2
ATOM      2  CB  LYS A 135      32.060  35.360  10.034  1.00 26.63     0.034 C 
BRANCH   2   3
ATOM      3  CG  LYS A 135      30.832  35.584   9.189  1.00 29.45     0.005 C 
BRANCH   3   4
ATOM      4  CD  LYS A 135      30.222  34.256   8.767  1.00 32.00     0.041 C 
BRANCH   4   5
ATOM      5  CE  LYS A 135      28.739  34.414   8.494  1.00 34.25     0.338 C 
ATOM      6  NZ  LYS A 135      27.926  33.732   9.539  1.00 35.99     0.618 N 
ENDBRANCH   4   5
ENDBRANCH   3   4
ENDBRANCH   2   3
ENDBRANCH   1   2
END_RES LYS A 135
BEGIN_RES TYR A 136
REMARK  2 active torsions:
REMARK  status: ('A' for Active; 'I' for Inactive)
REMARK    5  A    between atoms: CA   and  CB  
REMARK    6  A    between atoms: CB   and  CG  
ROOT
ATOM      7  CA  TYR A 136      36.583  36.399   8.994  1.00 26.14     0.191 C 
ENDROOT
BRANCH   7   8
ATOM      8  CB  TYR A 136      37.367  36.835  10.240  1.00 28.16     0.060 C 
BRANCH   8   9
ATOM      9  CG  TYR A 136      37.271  38.319  10.496  1.00 31.88    -0.020 A 
ATOM     10  CD2 TYR A 136      38.154  38.961  11.366  1.00 32.67    -0.002 A 
ATOM     11  CE2 TYR A 136      38.056  40.340  11.599  1.00 33.89     0.027 A 
ATOM     12  CZ  TYR A 136      37.063  41.083  10.955  1.00 34.34     0.131 A 
ATOM     13  OH  TYR A 136      36.951  42.450  11.164  1.00 35.14    -0.190 OA
ATOM     14  CE1 TYR A 136      36.176  40.461  10.088  1.00 35.01     0.027 A 
ATOM     15  CD1 TYR A 136      36.280  39.086   9.869  1.00 33.57    -0.002 A 
ENDBRANCH   8   9
ENDBRANCH   7   8
END_RES TYR A 136
BEGIN_RES ASN A 133
REMARK  2 active torsions:
REMARK  status: ('A' for Active; 'I' for Inactive)
REMARK    7  A    between atoms: CA   and  CB  
REMARK    8  A    between atoms: CB   and  CG  
ROOT
ATOM     16  CA  ASN A 133      31.225  30.257  11.749  1.00 18.15     0.196 C 
ENDROOT
BRANCH  16  17
ATOM     17  CB  ASN A 133      30.092  31.240  11.460  1.00 18.27     0.126 C 
BRANCH  17  18
ATOM     18  CG  ASN A 133      28.754  30.580  11.330  1.00 18.94     0.276 C 
ATOM     19  OD1 ASN A 133      28.585  29.625  10.569  1.00 18.09    -0.269 OA
ATOM     20  ND2 ASN A 133      27.778  31.088  12.081  1.00 18.93    -0.107 N 
ENDBRANCH  17  18
ENDBRANCH  16  17
END_RES ASN A 133
