REMARK VINA RESULT:    -4.553      1.850      2.850
REMARK INTER + INTRA:          -7.113
REMARK INTER:                  -4.013
REMARK INTRA:                  -3.100
REMARK UNBOUND:                -2.028
REMARK SMILES Cc1cn(-c2ncccc2C#N)nn1
REMARK SMILES IDX 5 1 6 2 7 3 8 4 9 5 10 6 4 7 1 8 2 9 3 10 14 11 13 12 11 13
REMARK SMILES IDX 12 14
REMARK H PARENT
REMARK Flexibility Score: inf
ROOT
ATOM      1  C   UNL     1      38.548  34.437  15.129  1.00  0.00     0.173 A 
ATOM      2  N   UNL     1      38.443  33.915  16.364  1.00  0.00    -0.236 NA
ATOM      3  C   UNL     1      39.471  33.824  17.219  1.00  0.00     0.113 A 
ATOM      4  C   UNL     1      40.732  34.274  16.874  1.00  0.00     0.022 A 
ATOM      5  C   UNL     1      40.864  34.817  15.606  1.00  0.00     0.025 A 
ATOM      6  C   UNL     1      39.780  34.898  14.740  1.00  0.00     0.097 A 
ENDROOT
BRANCH   1   7
ATOM      7  N   UNL     1      37.416  34.509  14.258  1.00  0.00    -0.201 N 
ATOM      8  C   UNL     1      34.289  35.840  12.833  1.00  0.00     0.070 C 
ATOM      9  C   UNL     1      35.528  35.121  13.232  1.00  0.00     0.080 A 
ATOM     10  C   UNL     1      36.427  35.424  14.235  1.00  0.00     0.142 A 
ATOM     11  N   UNL     1      36.019  33.997  12.664  1.00  0.00    -0.135 NA
ATOM     12  N   UNL     1      37.139  33.653  13.288  1.00  0.00    -0.061 NA
ENDBRANCH   1   7
BRANCH   6  13
ATOM     13  C   UNL     1      39.911  35.460  13.424  1.00  0.00     0.103 C 
ATOM     14  N   UNL     1      40.004  35.893  12.374  1.00  0.00    -0.192 NA
ENDBRANCH   6  13
TORSDOF 2
BEGIN_RES LYS A 135
REMARK  4 active torsions:
REMARK  status: ('A' for Active; 'I' for Inactive)
REMARK    1  A    between atoms: CA   and  CB  
REMARK    2  A    between atoms: CB   and  CG  
REMARK    3  A    between atoms: CG   and  CD  
REMARK    4  A    between atoms: CD   and  CE  
ROOT
ATOM      1  CA  LYS A 135      33.193  34.663   9.290  1.00 25.02     0.186 C 
ENDROOT
BRANCH   1   2
ATOM      2  CB  LYS A 135      32.060  35.360  10.034  1.00 26.63     0.034 C 
BRANCH   2   3
ATOM      3  CG  LYS A 135      30.699  34.788   9.732  1.00 29.45     0.005 C 
BRANCH   3   4
ATOM      4  CD  LYS A 135      30.558  34.494   8.246  1.00 32.00     0.041 C 
BRANCH   4   5
ATOM      5  CE  LYS A 135      29.196  34.933   7.744  1.00 34.25     0.338 C 
ATOM      6  NZ  LYS A 135      28.108  34.407   8.614  1.00 35.99     0.618 N 
ENDBRANCH   4   5
ENDBRANCH   3   4
ENDBRANCH   2   3
ENDBRANCH   1   2
END_RES LYS A 135
BEGIN_RES TYR A 136
REMARK  2 active torsions:
REMARK  status: ('A' for Active; 'I' for Inactive)
REMARK    5  A    between atoms: CA   and  CB  
REMARK    6  A    between atoms: CB   and  CG  
ROOT
ATOM      7  CA  TYR A 136      36.583  36.399   8.994  1.00 26.14     0.191 C 
ENDROOT
BRANCH   7   8
ATOM      8  CB  TYR A 136      37.367  36.835  10.240  1.00 28.16     0.060 C 
BRANCH   8   9
ATOM      9  CG  TYR A 136      36.844  38.119  10.835  1.00 31.88    -0.020 A 
ATOM     10  CD2 TYR A 136      36.100  39.020  10.069  1.00 32.67    -0.002 A 
ATOM     11  CE2 TYR A 136      35.620  40.211  10.631  1.00 33.89     0.027 A 
ATOM     12  CZ  TYR A 136      35.888  40.504  11.970  1.00 34.34     0.131 A 
ATOM     13  OH  TYR A 136      35.416  41.674  12.549  1.00 35.14    -0.190 OA
ATOM     14  CE1 TYR A 136      36.626  39.621  12.745  1.00 35.01     0.027 A 
ATOM     15  CD1 TYR A 136      37.104  38.441  12.173  1.00 33.57    -0.002 A 
ENDBRANCH   8   9
ENDBRANCH   7   8
END_RES TYR A 136
BEGIN_RES ASN A 133
REMARK  2 active torsions:
REMARK  status: ('A' for Active; 'I' for Inactive)
REMARK    7  A    between atoms: CA   and  CB  
REMARK    8  A    between atoms: CB   and  CG  
ROOT
ATOM     16  CA  ASN A 133      31.225  30.257  11.749  1.00 18.15     0.196 C 
ENDROOT
BRANCH  16  17
ATOM     17  CB  ASN A 133      30.092  31.240  11.460  1.00 18.27     0.126 C 
BRANCH  17  18
ATOM     18  CG  ASN A 133      28.751  30.583  11.355  1.00 18.94     0.276 C 
ATOM     19  OD1 ASN A 133      28.575  29.604  10.627  1.00 18.09    -0.269 OA
ATOM     20  ND2 ASN A 133      27.778  31.122  12.089  1.00 18.93    -0.107 N 
ENDBRANCH  17  18
ENDBRANCH  16  17
END_RES ASN A 133
