REMARK VINA RESULT:    -3.262      8.355     11.575
REMARK INTER + INTRA:          -6.875
REMARK INTER:                  -3.664
REMARK INTRA:                  -3.211
REMARK UNBOUND:                -3.232
REMARK SMILES Cc1cn(Cc2ccsc2)nn1
REMARK SMILES IDX 5 1 4 2 1 3 2 4 3 5 12 6 11 7 6 8 7 9 10 10 8 11 9 12
REMARK H PARENT
REMARK Flexibility Score: inf
ROOT
ATOM      1  C   UNL     1      36.096  38.786   6.445  1.00  0.00     0.182 C 
ENDROOT
BRANCH   1   2
ATOM      2  N   UNL     1      36.325  38.372   5.087  1.00  0.00    -0.248 N 
ATOM      3  C   UNL     1      35.735  37.923   1.520  1.00  0.00     0.070 C 
ATOM      4  C   UNL     1      36.151  38.005   2.944  1.00  0.00     0.080 A 
ATOM      5  C   UNL     1      35.542  38.564   4.021  1.00  0.00     0.134 A 
ATOM      6  N   UNL     1      37.306  37.477   3.384  1.00  0.00    -0.136 NA
ATOM      7  N   UNL     1      37.381  37.713   4.668  1.00  0.00    -0.067 NA
ENDBRANCH   1   2
BRANCH   1   8
ATOM      8  C   UNL     1      36.924  40.016   6.787  1.00  0.00    -0.016 A 
ATOM      9  C   UNL     1      38.190  40.023   7.151  1.00  0.00     0.017 A 
ATOM     10  C   UNL     1      36.304  41.313   6.723  1.00  0.00     0.070 A 
ATOM     11  C   UNL     1      38.864  41.183   7.446  1.00  0.00     0.065 A 
ATOM     12  S   UNL     1      37.531  42.418   7.171  1.00  0.00    -0.152 S 
ENDBRANCH   1   8
TORSDOF 2
BEGIN_RES LYS A 135
REMARK  4 active torsions:
REMARK  status: ('A' for Active; 'I' for Inactive)
REMARK    1  A    between atoms: CA   and  CB  
REMARK    2  A    between atoms: CB   and  CG  
REMARK    3  A    between atoms: CG   and  CD  
REMARK    4  A    between atoms: CD   and  CE  
ROOT
ATOM      1  CA  LYS A 135      33.193  34.663   9.290  1.00 25.02     0.186 C 
ENDROOT
BRANCH   1   2
ATOM      2  CB  LYS A 135      32.060  35.360  10.034  1.00 26.63     0.034 C 
BRANCH   2   3
ATOM      3  CG  LYS A 135      30.803  35.507   9.216  1.00 29.45     0.005 C 
BRANCH   3   4
ATOM      4  CD  LYS A 135      30.119  34.161   9.037  1.00 32.00     0.041 C 
BRANCH   4   5
ATOM      5  CE  LYS A 135      28.664  34.350   8.652  1.00 34.25     0.338 C 
ATOM      6  NZ  LYS A 135      27.760  33.673   9.623  1.00 35.99     0.618 N 
ENDBRANCH   4   5
ENDBRANCH   3   4
ENDBRANCH   2   3
ENDBRANCH   1   2
END_RES LYS A 135
BEGIN_RES TYR A 136
REMARK  2 active torsions:
REMARK  status: ('A' for Active; 'I' for Inactive)
REMARK    5  A    between atoms: CA   and  CB  
REMARK    6  A    between atoms: CB   and  CG  
ROOT
ATOM      7  CA  TYR A 136      36.583  36.399   8.994  1.00 26.14     0.191 C 
ENDROOT
BRANCH   7   8
ATOM      8  CB  TYR A 136      37.367  36.835  10.240  1.00 28.16     0.060 C 
BRANCH   8   9
ATOM      9  CG  TYR A 136      37.343  38.329  10.447  1.00 31.88    -0.020 A 
ATOM     10  CD2 TYR A 136      36.171  39.067  10.260  1.00 32.67    -0.002 A 
ATOM     11  CE2 TYR A 136      36.160  40.455  10.453  1.00 33.89     0.027 A 
ATOM     12  CZ  TYR A 136      37.332  41.111  10.837  1.00 34.34     0.131 A 
ATOM     13  OH  TYR A 136      37.342  42.484  11.042  1.00 35.14    -0.190 OA
ATOM     14  CE1 TYR A 136      38.504  40.395  11.027  1.00 35.01     0.027 A 
ATOM     15  CD1 TYR A 136      38.505  39.014  10.825  1.00 33.57    -0.002 A 
ENDBRANCH   8   9
ENDBRANCH   7   8
END_RES TYR A 136
BEGIN_RES ASN A 133
REMARK  2 active torsions:
REMARK  status: ('A' for Active; 'I' for Inactive)
REMARK    7  A    between atoms: CA   and  CB  
REMARK    8  A    between atoms: CB   and  CG  
ROOT
ATOM     16  CA  ASN A 133      31.225  30.257  11.749  1.00 18.15     0.196 C 
ENDROOT
BRANCH  16  17
ATOM     17  CB  ASN A 133      30.092  31.240  11.460  1.00 18.27     0.126 C 
BRANCH  17  18
ATOM     18  CG  ASN A 133      28.750  30.583  11.361  1.00 18.94     0.276 C 
ATOM     19  OD1 ASN A 133      28.564  29.620  10.616  1.00 18.09    -0.269 OA
ATOM     20  ND2 ASN A 133      27.788  31.106  12.121  1.00 18.93    -0.107 N 
ENDBRANCH  17  18
ENDBRANCH  16  17
END_RES ASN A 133
