REMARK VINA RESULT:    -4.402      4.548      6.269
REMARK INTER + INTRA:          -8.057
REMARK INTER:                  -4.893
REMARK INTRA:                  -3.163
REMARK UNBOUND:                -3.139
REMARK SMILES Cc1cn(-c2cc(Cl)ccc2C(=O)N(C)C)nn1
REMARK SMILES IDX 5 1 6 2 7 3 8 4 9 5 10 6 11 7 4 8 1 9 2 10 3 11 18 12 17 13
REMARK SMILES IDX 12 14 13 15 14 16 15 17 16 18
REMARK H PARENT
REMARK Flexibility Score: inf
ROOT
ATOM      1  C   UNL     1      38.626  34.502  15.203  1.00  0.00     0.081 A 
ATOM      2  C   UNL     1      37.837  33.839  14.251  1.00  0.00     0.049 A 
ATOM      3  C   UNL     1      38.060  34.026  12.904  1.00  0.00     0.043 A 
ATOM      4  Cl  UNL     1      37.060  33.187  11.722  1.00  0.00    -0.084 Cl
ATOM      5  C   UNL     1      39.059  34.867  12.462  1.00  0.00     0.021 A 
ATOM      6  C   UNL     1      39.830  35.514  13.400  1.00  0.00     0.017 A 
ATOM      7  C   UNL     1      39.610  35.328  14.735  1.00  0.00     0.065 A 
ENDROOT
BRANCH   1   8
ATOM      8  N   UNL     1      38.387  34.299  16.589  1.00  0.00    -0.220 N 
ATOM      9  C   UNL     1      38.642  32.579  19.818  1.00  0.00     0.070 C 
ATOM     10  C   UNL     1      38.376  33.469  18.648  1.00  0.00     0.080 A 
ATOM     11  C   UNL     1      38.840  33.293  17.340  1.00  0.00     0.140 A 
ATOM     12  N   UNL     1      37.653  34.598  18.611  1.00  0.00    -0.135 NA
ATOM     13  N   UNL     1      37.681  35.060  17.378  1.00  0.00    -0.062 NA
ENDBRANCH   1   8
BRANCH   7  14
ATOM     14  C   UNL     1      40.450  36.033  15.709  1.00  0.00     0.255 C 
ATOM     15  O   UNL     1      40.116  37.150  16.171  1.00  0.00    -0.269 OA
ATOM     16  N   UNL     1      41.663  35.410  16.116  1.00  0.00    -0.345 N 
ATOM     17  C   UNL     1      42.520  36.100  17.090  1.00  0.00     0.146 C 
ATOM     18  C   UNL     1      42.078  34.138  15.610  1.00  0.00     0.146 C 
ENDBRANCH   7  14
TORSDOF 2
BEGIN_RES LYS A 135
REMARK  4 active torsions:
REMARK  status: ('A' for Active; 'I' for Inactive)
REMARK    1  A    between atoms: CA   and  CB  
REMARK    2  A    between atoms: CB   and  CG  
REMARK    3  A    between atoms: CG   and  CD  
REMARK    4  A    between atoms: CD   and  CE  
ROOT
ATOM      1  CA  LYS A 135      33.193  34.663   9.290  1.00 25.02     0.186 C 
ENDROOT
BRANCH   1   2
ATOM      2  CB  LYS A 135      32.060  35.360  10.034  1.00 26.63     0.034 C 
BRANCH   2   3
ATOM      3  CG  LYS A 135      30.824  35.562   9.196  1.00 29.45     0.005 C 
BRANCH   3   4
ATOM      4  CD  LYS A 135      30.202  34.224   8.826  1.00 32.00     0.041 C 
BRANCH   4   5
ATOM      5  CE  LYS A 135      28.716  34.381   8.567  1.00 34.25     0.338 C 
ATOM      6  NZ  LYS A 135      27.913  33.705   9.623  1.00 35.99     0.618 N 
ENDBRANCH   4   5
ENDBRANCH   3   4
ENDBRANCH   2   3
ENDBRANCH   1   2
END_RES LYS A 135
BEGIN_RES TYR A 136
REMARK  2 active torsions:
REMARK  status: ('A' for Active; 'I' for Inactive)
REMARK    5  A    between atoms: CA   and  CB  
REMARK    6  A    between atoms: CB   and  CG  
ROOT
ATOM      7  CA  TYR A 136      36.583  36.399   8.994  1.00 26.14     0.191 C 
ENDROOT
BRANCH   7   8
ATOM      8  CB  TYR A 136      37.367  36.835  10.240  1.00 28.16     0.060 C 
BRANCH   8   9
ATOM      9  CG  TYR A 136      36.564  37.738  11.144  1.00 31.88    -0.020 A 
ATOM     10  CD2 TYR A 136      36.436  37.467  12.508  1.00 32.67    -0.002 A 
ATOM     11  CE2 TYR A 136      35.687  38.312  13.339  1.00 33.89     0.027 A 
ATOM     12  CZ  TYR A 136      35.060  39.438  12.799  1.00 34.34     0.131 A 
ATOM     13  OH  TYR A 136      34.319  40.292  13.604  1.00 35.14    -0.190 OA
ATOM     14  CE1 TYR A 136      35.176  39.722  11.446  1.00 35.01     0.027 A 
ATOM     15  CD1 TYR A 136      35.920  38.870  10.628  1.00 33.57    -0.002 A 
ENDBRANCH   8   9
ENDBRANCH   7   8
END_RES TYR A 136
BEGIN_RES ASN A 133
REMARK  2 active torsions:
REMARK  status: ('A' for Active; 'I' for Inactive)
REMARK    7  A    between atoms: CA   and  CB  
REMARK    8  A    between atoms: CB   and  CG  
ROOT
ATOM     16  CA  ASN A 133      31.225  30.257  11.749  1.00 18.15     0.196 C 
ENDROOT
BRANCH  16  17
ATOM     17  CB  ASN A 133      30.092  31.240  11.460  1.00 18.27     0.126 C 
BRANCH  17  18
ATOM     18  CG  ASN A 133      28.750  30.583  11.358  1.00 18.94     0.276 C 
ATOM     19  OD1 ASN A 133      28.568  29.616  10.616  1.00 18.09    -0.269 OA
ATOM     20  ND2 ASN A 133      27.785  31.110  12.110  1.00 18.93    -0.107 N 
ENDBRANCH  17  18
ENDBRANCH  16  17
END_RES ASN A 133
