REMARK VINA RESULT:    -6.418      0.000      0.000
REMARK INTER + INTRA:          -9.798
REMARK INTER:                  -6.532
REMARK INTRA:                  -3.266
REMARK UNBOUND:                -1.880
REMARK SMILES Cc1cn(C(C)CC(=O)c2ccccc2)nn1
REMARK SMILES IDX 7 1 5 2 6 3 4 4 1 5 2 6 3 7 17 8 16 9 8 10 9 11 10 12 11 13
REMARK SMILES IDX 15 14 12 15 14 16 13 17
REMARK H PARENT
REMARK Flexibility Score: inf
ROOT
ATOM      1  C   UNL     1      32.696  34.597  14.386  1.00  0.00     0.108 C 
ENDROOT
BRANCH   1   2
ATOM      2  C   UNL     1      33.584  35.675  13.884  1.00  0.00     0.114 C 
ATOM      3  C   UNL     1      33.241  36.247  12.567  1.00  0.00     0.034 C 
BRANCH   2   4
ATOM      4  N   UNL     1      34.950  35.184  13.896  1.00  0.00    -0.249 N 
ATOM      5  C   UNL     1      37.594  33.186  12.412  1.00  0.00     0.070 C 
ATOM      6  C   UNL     1      36.744  34.065  13.229  1.00  0.00     0.080 A 
ATOM      7  C   UNL     1      35.423  34.352  12.948  1.00  0.00     0.134 A 
ATOM      8  N   UNL     1      37.028  34.744  14.356  1.00  0.00    -0.136 NA
ATOM      9  N   UNL     1      35.934  35.403  14.728  1.00  0.00    -0.067 NA
ENDBRANCH   2   4
ENDBRANCH   1   2
BRANCH   1  10
ATOM     10  C   UNL     1      32.428  34.634  15.830  1.00  0.00     0.164 C 
ATOM     11  O   UNL     1      32.811  35.533  16.602  1.00  0.00    -0.294 OA
BRANCH  10  12
ATOM     12  C   UNL     1      31.653  33.537  16.401  1.00  0.00     0.018 A 
ATOM     13  C   UNL     1      31.256  32.440  15.643  1.00  0.00     0.012 A 
ATOM     14  C   UNL     1      31.261  33.511  17.733  1.00  0.00     0.012 A 
ATOM     15  C   UNL     1      30.523  31.398  16.174  1.00  0.00     0.001 A 
ATOM     16  C   UNL     1      30.540  32.505  18.295  1.00  0.00     0.001 A 
ATOM     17  C   UNL     1      30.165  31.438  17.514  1.00  0.00     0.000 A 
ENDBRANCH  10  12
ENDBRANCH   1  10
TORSDOF 4
BEGIN_RES LYS A 135
REMARK  4 active torsions:
REMARK  status: ('A' for Active; 'I' for Inactive)
REMARK    1  A    between atoms: CA   and  CB  
REMARK    2  A    between atoms: CB   and  CG  
REMARK    3  A    between atoms: CG   and  CD  
REMARK    4  A    between atoms: CD   and  CE  
ROOT
ATOM      1  CA  LYS A 135      33.193  34.663   9.290  1.00 25.02     0.186 C 
ENDROOT
BRANCH   1   2
ATOM      2  CB  LYS A 135      32.060  35.360  10.034  1.00 26.63     0.034 C 
BRANCH   2   3
ATOM      3  CG  LYS A 135      30.834  35.588   9.188  1.00 29.45     0.005 C 
BRANCH   3   4
ATOM      4  CD  LYS A 135      30.292  34.267   8.662  1.00 32.00     0.041 C 
BRANCH   4   5
ATOM      5  CE  LYS A 135      28.777  34.251   8.726  1.00 34.25     0.338 C 
ATOM      6  NZ  LYS A 135      28.293  34.604  10.089  1.00 35.99     0.618 N 
ENDBRANCH   4   5
ENDBRANCH   3   4
ENDBRANCH   2   3
ENDBRANCH   1   2
END_RES LYS A 135
BEGIN_RES TYR A 136
REMARK  2 active torsions:
REMARK  status: ('A' for Active; 'I' for Inactive)
REMARK    5  A    between atoms: CA   and  CB  
REMARK    6  A    between atoms: CB   and  CG  
ROOT
ATOM      7  CA  TYR A 136      36.583  36.399   8.994  1.00 26.14     0.191 C 
ENDROOT
BRANCH   7   8
ATOM      8  CB  TYR A 136      37.367  36.835  10.240  1.00 28.16     0.060 C 
BRANCH   8   9
ATOM      9  CG  TYR A 136      36.761  38.042  10.914  1.00 31.88    -0.020 A 
ATOM     10  CD2 TYR A 136      36.501  38.049  12.286  1.00 32.67    -0.002 A 
ATOM     11  CE2 TYR A 136      35.937  39.174  12.902  1.00 33.89     0.027 A 
ATOM     12  CZ  TYR A 136      35.629  40.302  12.138  1.00 34.34     0.131 A 
ATOM     13  OH  TYR A 136      35.076  41.431  12.728  1.00 35.14    -0.190 OA
ATOM     14  CE1 TYR A 136      35.880  40.312  10.773  1.00 35.01     0.027 A 
ATOM     15  CD1 TYR A 136      36.436  39.183  10.170  1.00 33.57    -0.002 A 
ENDBRANCH   8   9
ENDBRANCH   7   8
END_RES TYR A 136
BEGIN_RES ASN A 133
REMARK  2 active torsions:
REMARK  status: ('A' for Active; 'I' for Inactive)
REMARK    7  A    between atoms: CA   and  CB  
REMARK    8  A    between atoms: CB   and  CG  
ROOT
ATOM     16  CA  ASN A 133      31.225  30.257  11.749  1.00 18.15     0.196 C 
ENDROOT
BRANCH  16  17
ATOM     17  CB  ASN A 133      30.092  31.240  11.460  1.00 18.27     0.126 C 
BRANCH  17  18
ATOM     18  CG  ASN A 133      28.757  30.578  11.314  1.00 18.94     0.276 C 
ATOM     19  OD1 ASN A 133      28.603  29.609  10.568  1.00 18.09    -0.269 OA
ATOM     20  ND2 ASN A 133      27.765  31.102  12.033  1.00 18.93    -0.107 N 
ENDBRANCH  17  18
ENDBRANCH  16  17
END_RES ASN A 133
