REMARK VINA RESULT:    -2.941      8.267     12.173
REMARK INTER + INTRA:          -8.168
REMARK INTER:                  -4.848
REMARK INTRA:                  -3.320
REMARK UNBOUND:                -4.110
REMARK SMILES Cc1cn(CCCCCC(=O)O)nn1
REMARK SMILES IDX 7 1 6 2 5 3 4 4 1 5 2 6 3 7 14 8 13 9 8 10 9 11 10 12 11 13
REMARK SMILES IDX 12 14
REMARK H PARENT 12 15
REMARK Flexibility Score: inf
ROOT
ATOM      1  C   UNL     1      35.140  39.101   4.125  1.00  0.00     0.002 C 
ENDROOT
BRANCH   1   2
ATOM      2  C   UNL     1      35.957  38.325   5.138  1.00  0.00     0.024 C 
BRANCH   2   3
ATOM      3  C   UNL     1      35.642  38.927   6.506  1.00  0.00     0.146 C 
BRANCH   3   4
ATOM      4  N   UNL     1      36.565  40.037   6.781  1.00  0.00    -0.252 N 
ATOM      5  C   UNL     1      39.901  41.406   7.464  1.00  0.00     0.070 C 
ATOM      6  C   UNL     1      38.452  41.130   7.205  1.00  0.00     0.080 A 
ATOM      7  C   UNL     1      37.891  39.885   6.971  1.00  0.00     0.134 A 
ATOM      8  N   UNL     1      37.433  41.992   7.146  1.00  0.00    -0.136 NA
ATOM      9  N   UNL     1      36.310  41.318   6.892  1.00  0.00    -0.067 NA
ENDBRANCH   3   4
ENDBRANCH   2   3
ENDBRANCH   1   2
BRANCH   1  10
ATOM     10  C   UNL     1      35.927  39.320   2.844  1.00  0.00     0.012 C 
BRANCH  10  11
ATOM     11  C   UNL     1      35.667  38.144   1.944  1.00  0.00     0.122 C 
BRANCH  11  12
ATOM     12  C   UNL     1      36.921  37.459   1.556  1.00  0.00     0.303 C 
ATOM     13  O   UNL     1      37.966  37.713   2.204  1.00  0.00    -0.252 OA
BRANCH  12  14
ATOM     14  O   UNL     1      36.990  36.554   0.514  1.00  0.00    -0.481 OA
ATOM     15  H   UNL     1      36.444  36.648  -0.334  1.00  0.00     0.296 HD
ENDBRANCH  12  14
ENDBRANCH  11  12
ENDBRANCH  10  11
ENDBRANCH   1  10
TORSDOF 7
BEGIN_RES LYS A 135
REMARK  4 active torsions:
REMARK  status: ('A' for Active; 'I' for Inactive)
REMARK    1  A    between atoms: CA   and  CB  
REMARK    2  A    between atoms: CB   and  CG  
REMARK    3  A    between atoms: CG   and  CD  
REMARK    4  A    between atoms: CD   and  CE  
ROOT
ATOM      1  CA  LYS A 135      33.193  34.663   9.290  1.00 25.02     0.186 C 
ENDROOT
BRANCH   1   2
ATOM      2  CB  LYS A 135      32.060  35.360  10.034  1.00 26.63     0.034 C 
BRANCH   2   3
ATOM      3  CG  LYS A 135      30.825  35.566   9.195  1.00 29.45     0.005 C 
BRANCH   3   4
ATOM      4  CD  LYS A 135      30.268  34.232   8.723  1.00 32.00     0.041 C 
BRANCH   4   5
ATOM      5  CE  LYS A 135      28.770  34.170   8.952  1.00 34.25     0.338 C 
ATOM      6  NZ  LYS A 135      28.033  34.896   7.880  1.00 35.99     0.618 N 
ENDBRANCH   4   5
ENDBRANCH   3   4
ENDBRANCH   2   3
ENDBRANCH   1   2
END_RES LYS A 135
BEGIN_RES TYR A 136
REMARK  2 active torsions:
REMARK  status: ('A' for Active; 'I' for Inactive)
REMARK    5  A    between atoms: CA   and  CB  
REMARK    6  A    between atoms: CB   and  CG  
ROOT
ATOM      7  CA  TYR A 136      36.583  36.399   8.994  1.00 26.14     0.191 C 
ENDROOT
BRANCH   7   8
ATOM      8  CB  TYR A 136      37.367  36.835  10.240  1.00 28.16     0.060 C 
BRANCH   8   9
ATOM      9  CG  TYR A 136      37.403  38.334  10.407  1.00 31.88    -0.020 A 
ATOM     10  CD2 TYR A 136      38.594  39.000  10.706  1.00 32.67    -0.002 A 
ATOM     11  CE2 TYR A 136      38.617  40.393  10.861  1.00 33.89     0.027 A 
ATOM     12  CZ  TYR A 136      37.437  41.126  10.717  1.00 34.34     0.131 A 
ATOM     13  OH  TYR A 136      37.437  42.507  10.859  1.00 35.14    -0.190 OA
ATOM     14  CE1 TYR A 136      36.245  40.481  10.421  1.00 35.01     0.027 A 
ATOM     15  CD1 TYR A 136      36.233  39.093  10.275  1.00 33.57    -0.002 A 
ENDBRANCH   8   9
ENDBRANCH   7   8
END_RES TYR A 136
BEGIN_RES ASN A 133
REMARK  2 active torsions:
REMARK  status: ('A' for Active; 'I' for Inactive)
REMARK    7  A    between atoms: CA   and  CB  
REMARK    8  A    between atoms: CB   and  CG  
ROOT
ATOM     16  CA  ASN A 133      31.225  30.257  11.749  1.00 18.15     0.196 C 
ENDROOT
BRANCH  16  17
ATOM     17  CB  ASN A 133      30.092  31.240  11.460  1.00 18.27     0.126 C 
BRANCH  17  18
ATOM     18  CG  ASN A 133      28.756  30.579  11.322  1.00 18.94     0.276 C 
ATOM     19  OD1 ASN A 133      28.595  29.616  10.570  1.00 18.09    -0.269 OA
ATOM     20  ND2 ASN A 133      27.771  31.096  12.055  1.00 18.93    -0.107 N 
ENDBRANCH  17  18
ENDBRANCH  16  17
END_RES ASN A 133
