REMARK VINA RESULT:    -3.516      3.970      7.779
REMARK INTER + INTRA:          -6.840
REMARK INTER:                  -4.026
REMARK INTRA:                  -2.814
REMARK UNBOUND:                -3.119
REMARK SMILES Cc1cn(C2CCCC2)nn1
REMARK SMILES IDX 5 1 6 2 7 3 8 4 9 5 4 6 1 7 2 8 3 9 11 10 10 11
REMARK H PARENT
REMARK Flexibility Score: inf
ROOT
ATOM      1  C   UNL     1      27.143  36.739   7.514  1.00  0.00     0.109 C 
ATOM      2  C   UNL     1      27.276  37.717   6.347  1.00  0.00     0.027 C 
ATOM      3  C   UNL     1      28.637  37.320   5.803  1.00  0.00     0.002 C 
ATOM      4  C   UNL     1      28.800  35.846   6.113  1.00  0.00     0.002 C 
ATOM      5  C   UNL     1      27.532  35.446   6.877  1.00  0.00     0.027 C 
ENDROOT
BRANCH   1   6
ATOM      6  N   UNL     1      25.782  36.730   8.031  1.00  0.00    -0.249 N 
ATOM      7  C   UNL     1      23.076  35.380  10.127  1.00  0.00     0.070 C 
ATOM      8  C   UNL     1      23.995  36.120   9.189  1.00  0.00     0.080 A 
ATOM      9  C   UNL     1      25.315  35.839   8.920  1.00  0.00     0.134 A 
ATOM     10  N   UNL     1      23.718  37.192   8.431  1.00  0.00    -0.136 NA
ATOM     11  N   UNL     1      24.788  37.541   7.751  1.00  0.00    -0.067 NA
ENDBRANCH   1   6
TORSDOF 1
BEGIN_RES LYS A 135
REMARK  4 active torsions:
REMARK  status: ('A' for Active; 'I' for Inactive)
REMARK    1  A    between atoms: CA   and  CB  
REMARK    2  A    between atoms: CB   and  CG  
REMARK    3  A    between atoms: CG   and  CD  
REMARK    4  A    between atoms: CD   and  CE  
ROOT
ATOM      1  CA  LYS A 135      33.193  34.663   9.290  1.00 25.02     0.186 C 
ENDROOT
BRANCH   1   2
ATOM      2  CB  LYS A 135      32.060  35.360  10.034  1.00 26.63     0.034 C 
BRANCH   2   3
ATOM      3  CG  LYS A 135      30.774  35.423   9.251  1.00 29.45     0.005 C 
BRANCH   3   4
ATOM      4  CD  LYS A 135      30.188  34.031   9.069  1.00 32.00     0.041 C 
BRANCH   4   5
ATOM      5  CE  LYS A 135      28.800  33.954   9.674  1.00 34.25     0.338 C 
ATOM      6  NZ  LYS A 135      28.521  35.140  10.530  1.00 35.99     0.618 N 
ENDBRANCH   4   5
ENDBRANCH   3   4
ENDBRANCH   2   3
ENDBRANCH   1   2
END_RES LYS A 135
BEGIN_RES TYR A 136
REMARK  2 active torsions:
REMARK  status: ('A' for Active; 'I' for Inactive)
REMARK    5  A    between atoms: CA   and  CB  
REMARK    6  A    between atoms: CB   and  CG  
ROOT
ATOM      7  CA  TYR A 136      36.583  36.399   8.994  1.00 26.14     0.191 C 
ENDROOT
BRANCH   7   8
ATOM      8  CB  TYR A 136      37.367  36.835  10.240  1.00 28.16     0.060 C 
BRANCH   8   9
ATOM      9  CG  TYR A 136      37.250  38.315  10.511  1.00 31.88    -0.020 A 
ATOM     10  CD2 TYR A 136      36.360  39.114   9.789  1.00 32.67    -0.002 A 
ATOM     11  CE2 TYR A 136      36.261  40.488  10.047  1.00 33.89     0.027 A 
ATOM     12  CZ  TYR A 136      37.059  41.068  11.036  1.00 34.34     0.131 A 
ATOM     13  OH  TYR A 136      36.972  42.425  11.314  1.00 35.14    -0.190 OA
ATOM     14  CE1 TYR A 136      37.949  40.289  11.762  1.00 35.01     0.027 A 
ATOM     15  CD1 TYR A 136      38.044  38.923  11.491  1.00 33.57    -0.002 A 
ENDBRANCH   8   9
ENDBRANCH   7   8
END_RES TYR A 136
BEGIN_RES ASN A 133
REMARK  2 active torsions:
REMARK  status: ('A' for Active; 'I' for Inactive)
REMARK    7  A    between atoms: CA   and  CB  
REMARK    8  A    between atoms: CB   and  CG  
ROOT
ATOM     16  CA  ASN A 133      31.225  30.257  11.749  1.00 18.15     0.196 C 
ENDROOT
BRANCH  16  17
ATOM     17  CB  ASN A 133      30.092  31.240  11.460  1.00 18.27     0.126 C 
BRANCH  17  18
ATOM     18  CG  ASN A 133      28.752  30.582  11.347  1.00 18.94     0.276 C 
ATOM     19  OD1 ASN A 133      28.581  29.602  10.618  1.00 18.09    -0.269 OA
ATOM     20  ND2 ASN A 133      27.775  31.121  12.075  1.00 18.93    -0.107 N 
ENDBRANCH  17  18
ENDBRANCH  16  17
END_RES ASN A 133
