REMARK VINA RESULT:    -4.293      3.298      4.893
REMARK INTER + INTRA:          -8.470
REMARK INTER:                  -5.134
REMARK INTRA:                  -3.336
REMARK UNBOUND:                -3.298
REMARK SMILES Cc1cn(Cc2ccc(C(=O)O)cc2)nn1
REMARK SMILES IDX 6 1 7 2 8 3 9 4 13 5 14 6 5 7 4 8 1 9 2 10 3 11 16 12 15 13
REMARK SMILES IDX 10 14 11 15 12 16
REMARK H PARENT 12 17
REMARK Flexibility Score: inf
ROOT
ATOM      1  C   UNL     1      34.254  36.419  13.666  1.00  0.00    -0.026 A 
ATOM      2  C   UNL     1      33.779  36.465  12.378  1.00  0.00     0.006 A 
ATOM      3  C   UNL     1      33.248  37.641  11.900  1.00  0.00     0.016 A 
ATOM      4  C   UNL     1      33.164  38.794  12.650  1.00  0.00     0.059 A 
ATOM      5  C   UNL     1      33.656  38.696  13.940  1.00  0.00     0.016 A 
ATOM      6  C   UNL     1      34.192  37.536  14.447  1.00  0.00     0.006 A 
ENDROOT
BRANCH   1   7
ATOM      7  C   UNL     1      34.839  35.167  14.229  1.00  0.00     0.181 C 
BRANCH   7   8
ATOM      8  N   UNL     1      36.023  34.822  13.458  1.00  0.00    -0.248 N 
ATOM      9  C   UNL     1      39.549  35.105  12.434  1.00  0.00     0.070 C 
ATOM     10  C   UNL     1      38.116  34.823  12.688  1.00  0.00     0.080 A 
ATOM     11  C   UNL     1      37.246  35.405  13.573  1.00  0.00     0.134 A 
ATOM     12  N   UNL     1      37.393  33.884  12.043  1.00  0.00    -0.136 NA
ATOM     13  N   UNL     1      36.153  33.902  12.517  1.00  0.00    -0.067 NA
ENDBRANCH   7   8
ENDBRANCH   1   7
BRANCH   4  14
ATOM     14  C   UNL     1      32.597  40.027  12.121  1.00  0.00     0.335 C 
ATOM     15  O   UNL     1      31.845  39.935  11.121  1.00  0.00    -0.246 OA
BRANCH  14  16
ATOM     16  O   UNL     1      32.841  41.265  12.653  1.00  0.00    -0.478 OA
ATOM     17  H   UNL     1      33.766  41.698  12.699  1.00  0.00     0.297 HD
ENDBRANCH  14  16
ENDBRANCH   4  14
TORSDOF 4
BEGIN_RES LYS A 135
REMARK  4 active torsions:
REMARK  status: ('A' for Active; 'I' for Inactive)
REMARK    1  A    between atoms: CA   and  CB  
REMARK    2  A    between atoms: CB   and  CG  
REMARK    3  A    between atoms: CG   and  CD  
REMARK    4  A    between atoms: CD   and  CE  
ROOT
ATOM      1  CA  LYS A 135      33.193  34.663   9.290  1.00 25.02     0.186 C 
ENDROOT
BRANCH   1   2
ATOM      2  CB  LYS A 135      32.060  35.360  10.034  1.00 26.63     0.034 C 
BRANCH   2   3
ATOM      3  CG  LYS A 135      30.705  34.754   9.773  1.00 29.45     0.005 C 
BRANCH   3   4
ATOM      4  CD  LYS A 135      30.483  34.559   8.282  1.00 32.00     0.041 C 
BRANCH   4   5
ATOM      5  CE  LYS A 135      29.032  34.819   7.921  1.00 34.25     0.338 C 
ATOM      6  NZ  LYS A 135      28.925  35.589   6.651  1.00 35.99     0.618 N 
ENDBRANCH   4   5
ENDBRANCH   3   4
ENDBRANCH   2   3
ENDBRANCH   1   2
END_RES LYS A 135
BEGIN_RES TYR A 136
REMARK  2 active torsions:
REMARK  status: ('A' for Active; 'I' for Inactive)
REMARK    5  A    between atoms: CA   and  CB  
REMARK    6  A    between atoms: CB   and  CG  
ROOT
ATOM      7  CA  TYR A 136      36.583  36.399   8.994  1.00 26.14     0.191 C 
ENDROOT
BRANCH   7   8
ATOM      8  CB  TYR A 136      37.367  36.835  10.240  1.00 28.16     0.060 C 
BRANCH   8   9
ATOM      9  CG  TYR A 136      36.939  38.189  10.751  1.00 31.88    -0.020 A 
ATOM     10  CD2 TYR A 136      36.215  39.070   9.944  1.00 32.67    -0.002 A 
ATOM     11  CE2 TYR A 136      35.824  40.326  10.428  1.00 33.89     0.027 A 
ATOM     12  CZ  TYR A 136      36.160  40.704  11.730  1.00 34.34     0.131 A 
ATOM     13  OH  TYR A 136      35.777  41.940  12.232  1.00 35.14    -0.190 OA
ATOM     14  CE1 TYR A 136      36.880  39.841  12.544  1.00 35.01     0.027 A 
ATOM     15  CD1 TYR A 136      37.269  38.596  12.050  1.00 33.57    -0.002 A 
ENDBRANCH   8   9
ENDBRANCH   7   8
END_RES TYR A 136
BEGIN_RES ASN A 133
REMARK  2 active torsions:
REMARK  status: ('A' for Active; 'I' for Inactive)
REMARK    7  A    between atoms: CA   and  CB  
REMARK    8  A    between atoms: CB   and  CG  
ROOT
ATOM     16  CA  ASN A 133      31.225  30.257  11.749  1.00 18.15     0.196 C 
ENDROOT
BRANCH  16  17
ATOM     17  CB  ASN A 133      30.092  31.240  11.460  1.00 18.27     0.126 C 
BRANCH  17  18
ATOM     18  CG  ASN A 133      28.756  30.579  11.321  1.00 18.94     0.276 C 
ATOM     19  OD1 ASN A 133      28.595  29.616  10.569  1.00 18.09    -0.269 OA
ATOM     20  ND2 ASN A 133      27.771  31.096  12.054  1.00 18.93    -0.107 N 
ENDBRANCH  17  18
ENDBRANCH  16  17
END_RES ASN A 133
