REMARK VINA RESULT:    -4.671      2.466      3.894
REMARK INTER + INTRA:          -9.097
REMARK INTER:                  -5.466
REMARK INTRA:                  -3.631
REMARK UNBOUND:                -3.335
REMARK SMILES Cc1cn(-c2ccc(S(=O)(=O)Nc3nccs3)cc2)nn1
REMARK SMILES IDX 9 1 10 2 11 3 8 4 5 5 6 6 19 7 7 8 18 9 4 10 1 11 2 12 3 13
REMARK SMILES IDX 21 14 20 15 12 16 13 18 14 19 17 20 15 21 16 22
REMARK H PARENT 12 17
REMARK Flexibility Score: inf
ROOT
ATOM      1  S   UNL     1      32.632  34.926  15.320  1.00  0.00     0.263 S 
ATOM      2  O   UNL     1      33.511  35.593  16.326  1.00  0.00    -0.201 OA
ATOM      3  O   UNL     1      33.508  34.248  14.286  1.00  0.00    -0.201 OA
ENDROOT
BRANCH   1   4
ATOM      4  C   UNL     1      31.731  33.681  16.157  1.00  0.00     0.088 A 
ATOM      5  C   UNL     1      30.328  31.802  17.565  1.00  0.00     0.066 A 
ATOM      6  C   UNL     1      30.725  32.959  18.178  1.00  0.00     0.030 A 
ATOM      7  C   UNL     1      30.632  31.586  16.251  1.00  0.00     0.030 A 
ATOM      8  C   UNL     1      31.427  33.913  17.495  1.00  0.00     0.024 A 
ATOM      9  C   UNL     1      31.335  32.527  15.549  1.00  0.00     0.024 A 
BRANCH   5  10
ATOM     10  N   UNL     1      29.590  30.855  18.367  1.00  0.00    -0.220 N 
ATOM     11  C   UNL     1      26.809  28.594  19.152  1.00  0.00     0.070 C 
ATOM     12  C   UNL     1      28.027  29.437  19.061  1.00  0.00     0.080 A 
ATOM     13  C   UNL     1      28.416  30.285  18.045  1.00  0.00     0.140 A 
ATOM     14  N   UNL     1      29.006  29.532  19.977  1.00  0.00    -0.135 NA
ATOM     15  N   UNL     1      29.923  30.379  19.545  1.00  0.00    -0.062 NA
ENDBRANCH   5  10
ENDBRANCH   1   4
BRANCH   1  16
ATOM     16  N   UNL     1      31.596  36.040  14.555  1.00  0.00    -0.255 N 
ATOM     17  H   UNL     1      31.988  36.993  14.320  1.00  0.00     0.182 HD
BRANCH  16  18
ATOM     18  C   UNL     1      30.240  35.687  14.248  1.00  0.00     0.196 A 
ATOM     19  N   UNL     1      29.185  35.832  14.628  1.00  0.00    -0.228 NA
ATOM     20  S   UNL     1      29.947  34.611  12.715  1.00  0.00    -0.105 S 
ATOM     21  C   UNL     1      28.040  35.390  14.161  1.00  0.00     0.125 A 
ATOM     22  C   UNL     1      28.115  34.633  13.037  1.00  0.00     0.089 A 
ENDBRANCH  16  18
ENDBRANCH   1  16
TORSDOF 4
BEGIN_RES LYS A 135
REMARK  4 active torsions:
REMARK  status: ('A' for Active; 'I' for Inactive)
REMARK    1  A    between atoms: CA   and  CB  
REMARK    2  A    between atoms: CB   and  CG  
REMARK    3  A    between atoms: CG   and  CD  
REMARK    4  A    between atoms: CD   and  CE  
ROOT
ATOM      1  CA  LYS A 135      33.193  34.663   9.290  1.00 25.02     0.186 C 
ENDROOT
BRANCH   1   2
ATOM      2  CB  LYS A 135      32.060  35.360  10.034  1.00 26.63     0.034 C 
BRANCH   2   3
ATOM      3  CG  LYS A 135      30.838  35.597   9.185  1.00 29.45     0.005 C 
BRANCH   3   4
ATOM      4  CD  LYS A 135      30.233  34.276   8.735  1.00 32.00     0.041 C 
BRANCH   4   5
ATOM      5  CE  LYS A 135      28.741  34.423   8.507  1.00 34.25     0.338 C 
ATOM      6  NZ  LYS A 135      27.964  33.706   9.556  1.00 35.99     0.618 N 
ENDBRANCH   4   5
ENDBRANCH   3   4
ENDBRANCH   2   3
ENDBRANCH   1   2
END_RES LYS A 135
BEGIN_RES TYR A 136
REMARK  2 active torsions:
REMARK  status: ('A' for Active; 'I' for Inactive)
REMARK    5  A    between atoms: CA   and  CB  
REMARK    6  A    between atoms: CB   and  CG  
ROOT
ATOM      7  CA  TYR A 136      36.583  36.399   8.994  1.00 26.14     0.191 C 
ENDROOT
BRANCH   7   8
ATOM      8  CB  TYR A 136      37.367  36.835  10.240  1.00 28.16     0.060 C 
BRANCH   8   9
ATOM      9  CG  TYR A 136      36.863  38.135  10.817  1.00 31.88    -0.020 A 
ATOM     10  CD2 TYR A 136      37.214  38.537  12.108  1.00 32.67    -0.002 A 
ATOM     11  CE2 TYR A 136      36.739  39.746  12.635  1.00 33.89     0.027 A 
ATOM     12  CZ  TYR A 136      35.905  40.559  11.864  1.00 34.34     0.131 A 
ATOM     13  OH  TYR A 136      35.428  41.763  12.363  1.00 35.14    -0.190 OA
ATOM     14  CE1 TYR A 136      35.545  40.174  10.581  1.00 35.01     0.027 A 
ATOM     15  CD1 TYR A 136      36.020  38.966  10.068  1.00 33.57    -0.002 A 
ENDBRANCH   8   9
ENDBRANCH   7   8
END_RES TYR A 136
BEGIN_RES ASN A 133
REMARK  2 active torsions:
REMARK  status: ('A' for Active; 'I' for Inactive)
REMARK    7  A    between atoms: CA   and  CB  
REMARK    8  A    between atoms: CB   and  CG  
ROOT
ATOM     16  CA  ASN A 133      31.225  30.257  11.749  1.00 18.15     0.196 C 
ENDROOT
BRANCH  16  17
ATOM     17  CB  ASN A 133      30.092  31.240  11.460  1.00 18.27     0.126 C 
BRANCH  17  18
ATOM     18  CG  ASN A 133      28.752  30.581  11.346  1.00 18.94     0.276 C 
ATOM     19  OD1 ASN A 133      28.584  29.597  10.623  1.00 18.09    -0.269 OA
ATOM     20  ND2 ASN A 133      27.772  31.126  12.065  1.00 18.93    -0.107 N 
ENDBRANCH  17  18
ENDBRANCH  16  17
END_RES ASN A 133
