REMARK VINA RESULT:    -3.024      1.715      2.462
REMARK INTER + INTRA:          -7.366
REMARK INTER:                  -3.681
REMARK INTRA:                  -3.686
REMARK UNBOUND:                -3.635
REMARK SMILES Cc1cn(CCNS(C)(=O)=O)nn1
REMARK SMILES IDX 6 1 5 2 4 3 1 4 2 5 3 6 13 7 12 8 7 9 8 11 10 12 11 13 9 14
REMARK H PARENT 7 10
REMARK Flexibility Score: inf
ROOT
ATOM      1  C   UNL     1      40.279  35.643  13.699  1.00  0.00     0.122 C 
ENDROOT
BRANCH   1   2
ATOM      2  C   UNL     1      39.678  35.414  12.307  1.00  0.00     0.162 C 
BRANCH   2   3
ATOM      3  N   UNL     1      38.374  34.771  12.524  1.00  0.00    -0.251 N 
ATOM      4  C   UNL     1      34.816  34.712  13.357  1.00  0.00     0.070 C 
ATOM      5  C   UNL     1      36.235  34.446  12.983  1.00  0.00     0.080 A 
ATOM      6  C   UNL     1      37.236  35.385  12.881  1.00  0.00     0.134 A 
ATOM      7  N   UNL     1      36.815  33.273  12.679  1.00  0.00    -0.136 NA
ATOM      8  N   UNL     1      38.087  33.490  12.408  1.00  0.00    -0.067 NA
ENDBRANCH   2   3
ENDBRANCH   1   2
BRANCH   1   9
ATOM      9  N   UNL     1      40.210  34.413  14.433  1.00  0.00    -0.214 NA
ATOM     10  H   UNL     1      41.114  33.931  14.480  1.00  0.00     0.141 HD
BRANCH   9  11
ATOM     11  S   UNL     1      39.509  34.665  15.979  1.00  0.00     0.208 S 
ATOM     12  O   UNL     1      38.363  33.723  16.198  1.00  0.00    -0.213 OA
ATOM     13  O   UNL     1      38.985  36.089  16.038  1.00  0.00    -0.213 OA
ATOM     14  C   UNL     1      40.744  34.493  17.217  1.00  0.00     0.176 C 
ENDBRANCH   9  11
ENDBRANCH   1   9
TORSDOF 4
BEGIN_RES LYS A 135
REMARK  4 active torsions:
REMARK  status: ('A' for Active; 'I' for Inactive)
REMARK    1  A    between atoms: CA   and  CB  
REMARK    2  A    between atoms: CB   and  CG  
REMARK    3  A    between atoms: CG   and  CD  
REMARK    4  A    between atoms: CD   and  CE  
ROOT
ATOM      1  CA  LYS A 135      33.193  34.663   9.290  1.00 25.02     0.186 C 
ENDROOT
BRANCH   1   2
ATOM      2  CB  LYS A 135      32.060  35.360  10.034  1.00 26.63     0.034 C 
BRANCH   2   3
ATOM      3  CG  LYS A 135      30.729  34.670   9.887  1.00 29.45     0.005 C 
BRANCH   3   4
ATOM      4  CD  LYS A 135      30.320  34.597   8.424  1.00 32.00     0.041 C 
BRANCH   4   5
ATOM      5  CE  LYS A 135      28.810  34.527   8.296  1.00 34.25     0.338 C 
ATOM      6  NZ  LYS A 135      28.206  33.806   9.450  1.00 35.99     0.618 N 
ENDBRANCH   4   5
ENDBRANCH   3   4
ENDBRANCH   2   3
ENDBRANCH   1   2
END_RES LYS A 135
BEGIN_RES TYR A 136
REMARK  2 active torsions:
REMARK  status: ('A' for Active; 'I' for Inactive)
REMARK    5  A    between atoms: CA   and  CB  
REMARK    6  A    between atoms: CB   and  CG  
ROOT
ATOM      7  CA  TYR A 136      36.583  36.399   8.994  1.00 26.14     0.191 C 
ENDROOT
BRANCH   7   8
ATOM      8  CB  TYR A 136      37.367  36.835  10.240  1.00 28.16     0.060 C 
BRANCH   8   9
ATOM      9  CG  TYR A 136      37.244  38.314  10.515  1.00 31.88    -0.020 A 
ATOM     10  CD2 TYR A 136      36.384  39.119   9.765  1.00 32.67    -0.002 A 
ATOM     11  CE2 TYR A 136      36.279  40.492  10.027  1.00 33.89     0.027 A 
ATOM     12  CZ  TYR A 136      37.042  41.064  11.049  1.00 34.34     0.131 A 
ATOM     13  OH  TYR A 136      36.948  42.420  11.330  1.00 35.14    -0.190 OA
ATOM     14  CE1 TYR A 136      37.902  40.279  11.802  1.00 35.01     0.027 A 
ATOM     15  CD1 TYR A 136      38.003  38.914  11.528  1.00 33.57    -0.002 A 
ENDBRANCH   8   9
ENDBRANCH   7   8
END_RES TYR A 136
BEGIN_RES ASN A 133
REMARK  2 active torsions:
REMARK  status: ('A' for Active; 'I' for Inactive)
REMARK    7  A    between atoms: CA   and  CB  
REMARK    8  A    between atoms: CB   and  CG  
ROOT
ATOM     16  CA  ASN A 133      31.225  30.257  11.749  1.00 18.15     0.196 C 
ENDROOT
BRANCH  16  17
ATOM     17  CB  ASN A 133      30.092  31.240  11.460  1.00 18.27     0.126 C 
BRANCH  17  18
ATOM     18  CG  ASN A 133      28.753  30.580  11.338  1.00 18.94     0.276 C 
ATOM     19  OD1 ASN A 133      28.589  29.599  10.610  1.00 18.09    -0.269 OA
ATOM     20  ND2 ASN A 133      27.770  31.121  12.056  1.00 18.93    -0.107 N 
ENDBRANCH  17  18
ENDBRANCH  16  17
END_RES ASN A 133
