REMARK VINA RESULT:    -4.207      5.450      9.425
REMARK INTER + INTRA:          -9.225
REMARK INTER:                  -5.417
REMARK INTRA:                  -3.808
REMARK UNBOUND:                -3.788
REMARK SMILES Cc1cn(CCNC(=O)NCc2ccco2)nn1
REMARK SMILES IDX 7 1 8 2 9 3 10 4 6 7 5 8 4 9 1 10 2 11 3 12 18 13 17 14
REMARK SMILES IDX 11 15 12 16 13 17 16 18 14 19 15 20
REMARK H PARENT 7 5 10 6
REMARK Flexibility Score: inf
ROOT
ATOM      1  N   UNL     1      40.127  36.530   4.949  1.00  0.00    -0.336 N 
ATOM      2  C   UNL     1      39.214  37.243   4.124  1.00  0.00     0.315 C 
ATOM      3  O   UNL     1      39.634  38.237   3.512  1.00  0.00    -0.249 OA
ATOM      4  N   UNL     1      37.846  36.834   3.999  1.00  0.00    -0.331 N 
ATOM      5  H   UNL     1      39.755  35.699   5.454  1.00  0.00     0.165 HD
ATOM      6  H   UNL     1      37.552  35.992   4.538  1.00  0.00     0.165 HD
ENDROOT
BRANCH   1   7
ATOM      7  C   UNL     1      41.496  36.907   5.098  1.00  0.00     0.141 C 
BRANCH   7   8
ATOM      8  C   UNL     1      41.998  36.853   6.518  1.00  0.00     0.167 C 
BRANCH   8   9
ATOM      9  N   UNL     1      41.484  38.024   7.200  1.00  0.00    -0.251 N 
ATOM     10  C   UNL     1      40.554  40.172   9.964  1.00  0.00     0.070 C 
ATOM     11  C   UNL     1      40.839  39.507   8.686  1.00  0.00     0.080 A 
ATOM     12  C   UNL     1      41.390  38.257   8.522  1.00  0.00     0.134 A 
ATOM     13  N   UNL     1      40.609  40.008   7.468  1.00  0.00    -0.136 NA
ATOM     14  N   UNL     1      41.005  39.099   6.600  1.00  0.00    -0.067 NA
ENDBRANCH   8   9
ENDBRANCH   7   8
ENDBRANCH   1   7
BRANCH   4  15
ATOM     15  C   UNL     1      36.958  37.589   3.153  1.00  0.00     0.193 C 
BRANCH  15  16
ATOM     16  C   UNL     1      35.938  38.305   3.955  1.00  0.00     0.122 A 
ATOM     17  C   UNL     1      35.738  38.228   5.315  1.00  0.00     0.047 A 
ATOM     18  O   UNL     1      35.030  39.157   3.483  1.00  0.00    -0.467 OA
ATOM     19  C   UNL     1      34.668  39.073   5.639  1.00  0.00     0.042 A 
ATOM     20  C   UNL     1      34.287  39.611   4.438  1.00  0.00     0.195 A 
ENDBRANCH  15  16
ENDBRANCH   4  15
TORSDOF 5
BEGIN_RES LYS A 135
REMARK  4 active torsions:
REMARK  status: ('A' for Active; 'I' for Inactive)
REMARK    1  A    between atoms: CA   and  CB  
REMARK    2  A    between atoms: CB   and  CG  
REMARK    3  A    between atoms: CG   and  CD  
REMARK    4  A    between atoms: CD   and  CE  
ROOT
ATOM      1  CA  LYS A 135      33.193  34.663   9.290  1.00 25.02     0.186 C 
ENDROOT
BRANCH   1   2
ATOM      2  CB  LYS A 135      32.060  35.360  10.034  1.00 26.63     0.034 C 
BRANCH   2   3
ATOM      3  CG  LYS A 135      30.802  35.503   9.218  1.00 29.45     0.005 C 
BRANCH   3   4
ATOM      4  CD  LYS A 135      30.042  34.187   9.166  1.00 32.00     0.041 C 
BRANCH   4   5
ATOM      5  CE  LYS A 135      28.631  34.405   8.655  1.00 34.25     0.338 C 
ATOM      6  NZ  LYS A 135      27.636  33.697   9.507  1.00 35.99     0.618 N 
ENDBRANCH   4   5
ENDBRANCH   3   4
ENDBRANCH   2   3
ENDBRANCH   1   2
END_RES LYS A 135
BEGIN_RES TYR A 136
REMARK  2 active torsions:
REMARK  status: ('A' for Active; 'I' for Inactive)
REMARK    5  A    between atoms: CA   and  CB  
REMARK    6  A    between atoms: CB   and  CG  
ROOT
ATOM      7  CA  TYR A 136      36.583  36.399   8.994  1.00 26.14     0.191 C 
ENDROOT
BRANCH   7   8
ATOM      8  CB  TYR A 136      37.367  36.835  10.240  1.00 28.16     0.060 C 
BRANCH   8   9
ATOM      9  CG  TYR A 136      37.254  38.316  10.508  1.00 31.88    -0.020 A 
ATOM     10  CD2 TYR A 136      37.537  38.846  11.768  1.00 32.67    -0.002 A 
ATOM     11  CE2 TYR A 136      37.428  40.223  12.007  1.00 33.89     0.027 A 
ATOM     12  CZ  TYR A 136      37.031  41.077  10.975  1.00 34.34     0.131 A 
ATOM     13  OH  TYR A 136      36.923  42.444  11.186  1.00 35.14    -0.190 OA
ATOM     14  CE1 TYR A 136      36.745  40.567   9.717  1.00 35.01     0.027 A 
ATOM     15  CD1 TYR A 136      36.851  39.193   9.493  1.00 33.57    -0.002 A 
ENDBRANCH   8   9
ENDBRANCH   7   8
END_RES TYR A 136
BEGIN_RES ASN A 133
REMARK  2 active torsions:
REMARK  status: ('A' for Active; 'I' for Inactive)
REMARK    7  A    between atoms: CA   and  CB  
REMARK    8  A    between atoms: CB   and  CG  
ROOT
ATOM     16  CA  ASN A 133      31.225  30.257  11.749  1.00 18.15     0.196 C 
ENDROOT
BRANCH  16  17
ATOM     17  CB  ASN A 133      30.092  31.240  11.460  1.00 18.27     0.126 C 
BRANCH  17  18
ATOM     18  CG  ASN A 133      28.751  30.583  11.357  1.00 18.94     0.276 C 
ATOM     19  OD1 ASN A 133      28.576  29.597  10.639  1.00 18.09    -0.269 OA
ATOM     20  ND2 ASN A 133      27.776  31.131  12.082  1.00 18.93    -0.107 N 
ENDBRANCH  17  18
ENDBRANCH  16  17
END_RES ASN A 133
