REMARK VINA RESULT:    -4.821      8.743     14.758
REMARK INTER + INTRA:          -8.195
REMARK INTER:                  -4.829
REMARK INTRA:                  -3.367
REMARK UNBOUND:                -2.529
REMARK SMILES Cc1cn(Cc2cccc(C#N)c2)nn1
REMARK SMILES IDX 6 1 7 2 8 3 9 4 10 5 13 6 5 7 4 8 1 9 2 10 3 11 15 12 14 13
REMARK SMILES IDX 11 14 12 15
REMARK H PARENT
REMARK Flexibility Score: inf
ROOT
ATOM      1  C   UNL     1      21.787  32.405  -1.000  1.00  0.00    -0.025 A 
ATOM      2  C   UNL     1      21.621  31.624  -2.118  1.00  0.00     0.006 A 
ATOM      3  C   UNL     1      21.980  30.291  -2.166  1.00  0.00     0.002 A 
ATOM      4  C   UNL     1      22.530  29.728  -1.033  1.00  0.00     0.019 A 
ATOM      5  C   UNL     1      22.717  30.473   0.114  1.00  0.00     0.052 A 
ATOM      6  C   UNL     1      22.340  31.817   0.120  1.00  0.00     0.025 A 
ENDROOT
BRANCH   1   7
ATOM      7  C   UNL     1      21.405  33.829  -0.945  1.00  0.00     0.181 C 
BRANCH   7   8
ATOM      8  N   UNL     1      22.297  34.687  -1.657  1.00  0.00    -0.248 N 
ATOM      9  C   UNL     1      23.088  36.936  -4.415  1.00  0.00     0.070 C 
ATOM     10  C   UNL     1      23.043  36.065  -3.196  1.00  0.00     0.080 A 
ATOM     11  C   UNL     1      21.962  35.341  -2.784  1.00  0.00     0.134 A 
ATOM     12  N   UNL     1      24.028  35.843  -2.307  1.00  0.00    -0.136 NA
ATOM     13  N   UNL     1      23.561  35.015  -1.393  1.00  0.00    -0.067 NA
ENDBRANCH   7   8
ENDBRANCH   1   7
BRANCH   5  14
ATOM     14  C   UNL     1      23.293  29.825   1.256  1.00  0.00     0.099 C 
ATOM     15  N   UNL     1      23.741  29.293   2.176  1.00  0.00    -0.192 NA
ENDBRANCH   5  14
TORSDOF 3
BEGIN_RES LYS A 135
REMARK  4 active torsions:
REMARK  status: ('A' for Active; 'I' for Inactive)
REMARK    1  A    between atoms: CA   and  CB  
REMARK    2  A    between atoms: CB   and  CG  
REMARK    3  A    between atoms: CG   and  CD  
REMARK    4  A    between atoms: CD   and  CE  
ROOT
ATOM      1  CA  LYS A 135      33.193  34.663   9.290  1.00 25.02     0.186 C 
ENDROOT
BRANCH   1   2
ATOM      2  CB  LYS A 135      32.060  35.360  10.034  1.00 26.63     0.034 C 
BRANCH   2   3
ATOM      3  CG  LYS A 135      30.803  35.508   9.216  1.00 29.45     0.005 C 
BRANCH   3   4
ATOM      4  CD  LYS A 135      30.118  34.162   9.037  1.00 32.00     0.041 C 
BRANCH   4   5
ATOM      5  CE  LYS A 135      28.663  34.353   8.653  1.00 34.25     0.338 C 
ATOM      6  NZ  LYS A 135      27.759  33.671   9.621  1.00 35.99     0.618 N 
ENDBRANCH   4   5
ENDBRANCH   3   4
ENDBRANCH   2   3
ENDBRANCH   1   2
END_RES LYS A 135
BEGIN_RES TYR A 136
REMARK  2 active torsions:
REMARK  status: ('A' for Active; 'I' for Inactive)
REMARK    5  A    between atoms: CA   and  CB  
REMARK    6  A    between atoms: CB   and  CG  
ROOT
ATOM      7  CA  TYR A 136      36.583  36.399   8.994  1.00 26.14     0.191 C 
ENDROOT
BRANCH   7   8
ATOM      8  CB  TYR A 136      37.367  36.835  10.240  1.00 28.16     0.060 C 
BRANCH   8   9
ATOM      9  CG  TYR A 136      37.222  38.309  10.531  1.00 31.88    -0.020 A 
ATOM     10  CD2 TYR A 136      36.482  39.142   9.689  1.00 32.67    -0.002 A 
ATOM     11  CE2 TYR A 136      36.354  40.510   9.967  1.00 33.89     0.027 A 
ATOM     12  CZ  TYR A 136      36.974  41.049  11.098  1.00 34.34     0.131 A 
ATOM     13  OH  TYR A 136      36.856  42.399  11.396  1.00 35.14    -0.190 OA
ATOM     14  CE1 TYR A 136      37.714  40.235  11.944  1.00 35.01     0.027 A 
ATOM     15  CD1 TYR A 136      37.839  38.876  11.653  1.00 33.57    -0.002 A 
ENDBRANCH   8   9
ENDBRANCH   7   8
END_RES TYR A 136
BEGIN_RES ASN A 133
REMARK  2 active torsions:
REMARK  status: ('A' for Active; 'I' for Inactive)
REMARK    7  A    between atoms: CA   and  CB  
REMARK    8  A    between atoms: CB   and  CG  
ROOT
ATOM     16  CA  ASN A 133      31.225  30.257  11.749  1.00 18.15     0.196 C 
ENDROOT
BRANCH  16  17
ATOM     17  CB  ASN A 133      30.092  31.240  11.460  1.00 18.27     0.126 C 
BRANCH  17  18
ATOM     18  CG  ASN A 133      28.749  30.585  11.369  1.00 18.94     0.276 C 
ATOM     19  OD1 ASN A 133      28.560  29.616  10.631  1.00 18.09    -0.269 OA
ATOM     20  ND2 ASN A 133      27.789  31.114  12.127  1.00 18.93    -0.107 N 
ENDBRANCH  17  18
ENDBRANCH  16  17
END_RES ASN A 133
