REMARK VINA RESULT:    -5.483      3.060      5.153
REMARK INTER + INTRA:         -10.104
REMARK INTER:                  -6.636
REMARK INTRA:                  -3.468
REMARK UNBOUND:                -3.499
REMARK SMILES Cc1cn(-c2cc(C(=O)O)nc(-c3ccccc3)c2)nn1
REMARK SMILES IDX 5 1 6 2 7 3 11 4 12 5 19 6 4 7 1 8 2 9 3 10 21 11 20 12 8 13
REMARK SMILES IDX 9 14 10 15 13 17 14 18 18 19 15 20 17 21 16 22
REMARK H PARENT 10 16
REMARK Flexibility Score: inf
ROOT
ATOM      1  C   UNL     1      32.415  34.924  14.182  1.00  0.00     0.071 A 
ATOM      2  C   UNL     1      32.071  36.019  13.423  1.00  0.00     0.064 A 
ATOM      3  C   UNL     1      33.020  36.680  12.649  1.00  0.00     0.151 A 
ATOM      4  N   UNL     1      34.279  36.223  12.662  1.00  0.00    -0.241 NA
ATOM      5  C   UNL     1      34.697  35.155  13.381  1.00  0.00     0.073 A 
ATOM      6  C   UNL     1      33.743  34.514  14.139  1.00  0.00     0.057 A 
ENDROOT
BRANCH   1   7
ATOM      7  N   UNL     1      31.480  34.221  14.985  1.00  0.00    -0.220 N 
ATOM      8  C   UNL     1      30.213  31.444  17.024  1.00  0.00     0.070 C 
ATOM      9  C   UNL     1      30.470  32.688  16.255  1.00  0.00     0.080 A 
ATOM     10  C   UNL     1      31.615  33.006  15.555  1.00  0.00     0.140 A 
ATOM     11  N   UNL     1      29.654  33.753  16.080  1.00  0.00    -0.135 NA
ATOM     12  N   UNL     1      30.272  34.645  15.327  1.00  0.00    -0.062 NA
ENDBRANCH   1   7
BRANCH   3  13
ATOM     13  C   UNL     1      32.603  37.832  11.864  1.00  0.00     0.354 C 
ATOM     14  O   UNL     1      32.427  38.922  12.463  1.00  0.00    -0.245 OA
BRANCH  13  15
ATOM     15  O   UNL     1      32.394  37.776  10.499  1.00  0.00    -0.477 OA
ATOM     16  H   UNL     1      32.598  38.577   9.884  1.00  0.00     0.297 HD
ENDBRANCH  13  15
ENDBRANCH   3  13
BRANCH   5  17
ATOM     17  C   UNL     1      36.094  34.755  13.311  1.00  0.00     0.000 A 
ATOM     18  C   UNL     1      37.057  35.305  14.100  1.00  0.00     0.010 A 
ATOM     19  C   UNL     1      36.479  33.782  12.416  1.00  0.00     0.010 A 
ATOM     20  C   UNL     1      38.381  34.868  13.974  1.00  0.00     0.001 A 
ATOM     21  C   UNL     1      37.768  33.350  12.287  1.00  0.00     0.001 A 
ATOM     22  C   UNL     1      38.742  33.904  13.083  1.00  0.00     0.000 A 
ENDBRANCH   5  17
TORSDOF 4
BEGIN_RES LYS A 135
REMARK  4 active torsions:
REMARK  status: ('A' for Active; 'I' for Inactive)
REMARK    1  A    between atoms: CA   and  CB  
REMARK    2  A    between atoms: CB   and  CG  
REMARK    3  A    between atoms: CG   and  CD  
REMARK    4  A    between atoms: CD   and  CE  
ROOT
ATOM      1  CA  LYS A 135      33.193  34.663   9.290  1.00 25.02     0.186 C 
ENDROOT
BRANCH   1   2
ATOM      2  CB  LYS A 135      32.060  35.360  10.034  1.00 26.63     0.034 C 
BRANCH   2   3
ATOM      3  CG  LYS A 135      30.711  34.730   9.803  1.00 29.45     0.005 C 
BRANCH   3   4
ATOM      4  CD  LYS A 135      30.464  34.519   8.318  1.00 32.00     0.041 C 
BRANCH   4   5
ATOM      5  CE  LYS A 135      29.018  34.818   7.969  1.00 34.25     0.338 C 
ATOM      6  NZ  LYS A 135      28.090  34.188   8.949  1.00 35.99     0.618 N 
ENDBRANCH   4   5
ENDBRANCH   3   4
ENDBRANCH   2   3
ENDBRANCH   1   2
END_RES LYS A 135
BEGIN_RES TYR A 136
REMARK  2 active torsions:
REMARK  status: ('A' for Active; 'I' for Inactive)
REMARK    5  A    between atoms: CA   and  CB  
REMARK    6  A    between atoms: CB   and  CG  
ROOT
ATOM      7  CA  TYR A 136      36.583  36.399   8.994  1.00 26.14     0.191 C 
ENDROOT
BRANCH   7   8
ATOM      8  CB  TYR A 136      37.367  36.835  10.240  1.00 28.16     0.060 C 
BRANCH   8   9
ATOM      9  CG  TYR A 136      36.782  38.063  10.893  1.00 31.88    -0.020 A 
ATOM     10  CD2 TYR A 136      37.071  38.382  12.222  1.00 32.67    -0.002 A 
ATOM     11  CE2 TYR A 136      36.521  39.524  12.820  1.00 33.89     0.027 A 
ATOM     12  CZ  TYR A 136      35.673  40.354  12.082  1.00 34.34     0.131 A 
ATOM     13  OH  TYR A 136      35.123  41.494  12.652  1.00 35.14    -0.190 OA
ATOM     14  CE1 TYR A 136      35.374  40.051  10.762  1.00 35.01     0.027 A 
ATOM     15  CD1 TYR A 136      35.923  38.908  10.179  1.00 33.57    -0.002 A 
ENDBRANCH   8   9
ENDBRANCH   7   8
END_RES TYR A 136
BEGIN_RES ASN A 133
REMARK  2 active torsions:
REMARK  status: ('A' for Active; 'I' for Inactive)
REMARK    7  A    between atoms: CA   and  CB  
REMARK    8  A    between atoms: CB   and  CG  
ROOT
ATOM     16  CA  ASN A 133      31.225  30.257  11.749  1.00 18.15     0.196 C 
ENDROOT
BRANCH  16  17
ATOM     17  CB  ASN A 133      30.092  31.240  11.460  1.00 18.27     0.126 C 
BRANCH  17  18
ATOM     18  CG  ASN A 133      28.752  30.582  11.349  1.00 18.94     0.276 C 
ATOM     19  OD1 ASN A 133      28.582  29.597  10.628  1.00 18.09    -0.269 OA
ATOM     20  ND2 ASN A 133      27.773  31.127  12.071  1.00 18.93    -0.107 N 
ENDBRANCH  17  18
ENDBRANCH  16  17
END_RES ASN A 133
