REMARK VINA RESULT:    -5.646      3.360      5.906
REMARK INTER + INTRA:         -10.144
REMARK INTER:                  -6.542
REMARK INTRA:                  -3.602
REMARK UNBOUND:                -3.343
REMARK SMILES Cc1cn(-c2ccc(S(=O)(=O)c3ccc(N)cc3)cc2)nn1
REMARK SMILES IDX 9 1 10 2 11 3 8 4 5 5 6 6 20 7 7 8 19 9 4 10 1 11 2 12 3 13
REMARK SMILES IDX 22 14 21 15 12 16 13 17 18 18 14 19 17 20 15 21 16 22
REMARK H PARENT 16 23 16 24
REMARK Flexibility Score: inf
ROOT
ATOM      1  S   UNL     1      34.414  35.572  14.472  1.00  0.00     0.206 S 
ATOM      2  O   UNL     1      33.319  34.520  14.448  1.00  0.00    -0.219 OA
ATOM      3  O   UNL     1      34.640  35.918  15.918  1.00  0.00    -0.219 OA
ENDROOT
BRANCH   1   4
ATOM      4  C   UNL     1      33.944  36.955  13.527  1.00  0.00     0.072 A 
ATOM      5  C   UNL     1      33.193  39.244  12.090  1.00  0.00     0.066 A 
ATOM      6  C   UNL     1      33.471  39.295  13.461  1.00  0.00     0.030 A 
ATOM      7  C   UNL     1      33.298  38.041  11.463  1.00  0.00     0.030 A 
ATOM      8  C   UNL     1      33.840  38.168  14.165  1.00  0.00     0.023 A 
ATOM      9  C   UNL     1      33.671  36.899  12.176  1.00  0.00     0.023 A 
BRANCH   5  10
ATOM     10  N   UNL     1      32.817  40.451  11.429  1.00  0.00    -0.220 N 
ATOM     11  C   UNL     1      31.832  42.738   8.770  1.00  0.00     0.070 C 
ATOM     12  C   UNL     1      32.219  41.991   9.977  1.00  0.00     0.080 A 
ATOM     13  C   UNL     1      32.526  40.659  10.151  1.00  0.00     0.140 A 
ATOM     14  N   UNL     1      32.340  42.561  11.202  1.00  0.00    -0.135 NA
ATOM     15  N   UNL     1      32.695  41.617  12.033  1.00  0.00    -0.062 NA
ENDBRANCH   5  10
ENDBRANCH   1   4
BRANCH   1  16
ATOM     16  C   UNL     1      35.902  34.859  13.866  1.00  0.00     0.072 A 
ATOM     17  C   UNL     1      35.927  34.044  12.754  1.00  0.00     0.023 A 
ATOM     18  C   UNL     1      37.109  35.103  14.502  1.00  0.00     0.023 A 
ATOM     19  C   UNL     1      37.108  33.483  12.279  1.00  0.00     0.027 A 
ATOM     20  C   UNL     1      38.289  34.541  14.025  1.00  0.00     0.027 A 
ATOM     21  C   UNL     1      38.300  33.727  12.912  1.00  0.00     0.031 A 
BRANCH  21  22
ATOM     22  N   UNL     1      39.497  33.141  12.407  1.00  0.00    -0.399 N 
ATOM     23  H   UNL     1      40.182  33.697  11.878  1.00  0.00     0.156 HD
ATOM     24  H   UNL     1      39.685  32.129  12.575  1.00  0.00     0.156 HD
ENDBRANCH  21  22
ENDBRANCH   1  16
TORSDOF 4
BEGIN_RES LYS A 135
REMARK  4 active torsions:
REMARK  status: ('A' for Active; 'I' for Inactive)
REMARK    1  A    between atoms: CA   and  CB  
REMARK    2  A    between atoms: CB   and  CG  
REMARK    3  A    between atoms: CG   and  CD  
REMARK    4  A    between atoms: CD   and  CE  
ROOT
ATOM      1  CA  LYS A 135      33.193  34.663   9.290  1.00 25.02     0.186 C 
ENDROOT
BRANCH   1   2
ATOM      2  CB  LYS A 135      32.060  35.360  10.034  1.00 26.63     0.034 C 
BRANCH   2   3
ATOM      3  CG  LYS A 135      30.704  34.757   9.769  1.00 29.45     0.005 C 
BRANCH   3   4
ATOM      4  CD  LYS A 135      30.474  34.591   8.274  1.00 32.00     0.041 C 
BRANCH   4   5
ATOM      5  CE  LYS A 135      29.025  34.872   7.924  1.00 34.25     0.338 C 
ATOM      6  NZ  LYS A 135      28.915  35.561   6.609  1.00 35.99     0.618 N 
ENDBRANCH   4   5
ENDBRANCH   3   4
ENDBRANCH   2   3
ENDBRANCH   1   2
END_RES LYS A 135
BEGIN_RES TYR A 136
REMARK  2 active torsions:
REMARK  status: ('A' for Active; 'I' for Inactive)
REMARK    5  A    between atoms: CA   and  CB  
REMARK    6  A    between atoms: CB   and  CG  
ROOT
ATOM      7  CA  TYR A 136      36.583  36.399   8.994  1.00 26.14     0.191 C 
ENDROOT
BRANCH   7   8
ATOM      8  CB  TYR A 136      37.367  36.835  10.240  1.00 28.16     0.060 C 
BRANCH   8   9
ATOM      9  CG  TYR A 136      37.026  38.238  10.678  1.00 31.88    -0.020 A 
ATOM     10  CD2 TYR A 136      37.196  38.643  12.004  1.00 32.67    -0.002 A 
ATOM     11  CE2 TYR A 136      36.875  39.948  12.401  1.00 33.89     0.027 A 
ATOM     12  CZ  TYR A 136      36.379  40.857  11.463  1.00 34.34     0.131 A 
ATOM     13  OH  TYR A 136      36.061  42.156  11.832  1.00 35.14    -0.190 OA
ATOM     14  CE1 TYR A 136      36.203  40.471  10.142  1.00 35.01     0.027 A 
ATOM     15  CD1 TYR A 136      36.520  39.167   9.760  1.00 33.57    -0.002 A 
ENDBRANCH   8   9
ENDBRANCH   7   8
END_RES TYR A 136
BEGIN_RES ASN A 133
REMARK  2 active torsions:
REMARK  status: ('A' for Active; 'I' for Inactive)
REMARK    7  A    between atoms: CA   and  CB  
REMARK    8  A    between atoms: CB   and  CG  
ROOT
ATOM     16  CA  ASN A 133      31.225  30.257  11.749  1.00 18.15     0.196 C 
ENDROOT
BRANCH  16  17
ATOM     17  CB  ASN A 133      30.092  31.240  11.460  1.00 18.27     0.126 C 
BRANCH  17  18
ATOM     18  CG  ASN A 133      28.750  30.583  11.361  1.00 18.94     0.276 C 
ATOM     19  OD1 ASN A 133      28.568  29.611  10.626  1.00 18.09    -0.269 OA
ATOM     20  ND2 ASN A 133      27.784  31.116  12.108  1.00 18.93    -0.107 N 
ENDBRANCH  17  18
ENDBRANCH  16  17
END_RES ASN A 133
