REMARK VINA RESULT:    -4.316      2.648      4.992
REMARK INTER + INTRA:          -8.697
REMARK INTER:                  -5.635
REMARK INTRA:                  -3.063
REMARK UNBOUND:                -3.372
REMARK SMILES COc1ccc(Cn2cc(C)nn2)cc1OC
REMARK SMILES IDX 6 1 14 2 15 3 3 4 4 5 5 6 7 7 8 8 11 9 10 10 9 11 12 12
REMARK SMILES IDX 13 13 16 14 17 15 2 16 1 17
REMARK H PARENT
REMARK Flexibility Score: inf
ROOT
ATOM      1  C   UNL     1      32.467  34.978  14.526  1.00  0.00    -0.023 A 
ATOM      2  C   UNL     1      31.483  35.001  13.562  1.00  0.00     0.056 A 
ATOM      3  C   UNL     1      30.415  34.117  13.573  1.00  0.00     0.161 A 
ATOM      4  C   UNL     1      30.313  33.176  14.571  1.00  0.00     0.160 A 
ATOM      5  C   UNL     1      31.308  33.170  15.525  1.00  0.00     0.051 A 
ATOM      6  C   UNL     1      32.373  34.043  15.524  1.00  0.00     0.010 A 
ENDROOT
BRANCH   1   7
ATOM      7  C   UNL     1      33.560  35.964  14.419  1.00  0.00     0.181 C 
BRANCH   7   8
ATOM      8  N   UNL     1      34.838  35.350  14.077  1.00  0.00    -0.248 N 
ATOM      9  C   UNL     1      37.166  33.269  12.143  1.00  0.00     0.070 C 
ATOM     10  C   UNL     1      36.421  34.166  13.075  1.00  0.00     0.080 A 
ATOM     11  C   UNL     1      35.091  34.523  13.048  1.00  0.00     0.134 A 
ATOM     12  N   UNL     1      36.934  34.801  14.138  1.00  0.00    -0.136 NA
ATOM     13  N   UNL     1      35.982  35.494  14.714  1.00  0.00    -0.067 NA
ENDBRANCH   7   8
ENDBRANCH   1   7
BRANCH   3  14
ATOM     14  O   UNL     1      29.432  34.147  12.603  1.00  0.00    -0.493 OA
ATOM     15  C   UNL     1      28.613  35.298  12.519  1.00  0.00     0.278 C 
ENDBRANCH   3  14
BRANCH   4  16
ATOM     16  O   UNL     1      29.271  32.279  14.623  1.00  0.00    -0.493 OA
ATOM     17  C   UNL     1      29.099  31.320  15.626  1.00  0.00     0.278 C 
ENDBRANCH   4  16
TORSDOF 4
BEGIN_RES LYS A 135
REMARK  4 active torsions:
REMARK  status: ('A' for Active; 'I' for Inactive)
REMARK    1  A    between atoms: CA   and  CB  
REMARK    2  A    between atoms: CB   and  CG  
REMARK    3  A    between atoms: CG   and  CD  
REMARK    4  A    between atoms: CD   and  CE  
ROOT
ATOM      1  CA  LYS A 135      33.193  34.663   9.290  1.00 25.02     0.186 C 
ENDROOT
BRANCH   1   2
ATOM      2  CB  LYS A 135      32.060  35.360  10.034  1.00 26.63     0.034 C 
BRANCH   2   3
ATOM      3  CG  LYS A 135      30.785  35.456   9.237  1.00 29.45     0.005 C 
BRANCH   3   4
ATOM      4  CD  LYS A 135      30.162  34.081   9.054  1.00 32.00     0.041 C 
BRANCH   4   5
ATOM      5  CE  LYS A 135      28.657  34.194   8.902  1.00 34.25     0.338 C 
ATOM      6  NZ  LYS A 135      28.225  35.619   8.884  1.00 35.99     0.618 N 
ENDBRANCH   4   5
ENDBRANCH   3   4
ENDBRANCH   2   3
ENDBRANCH   1   2
END_RES LYS A 135
BEGIN_RES TYR A 136
REMARK  2 active torsions:
REMARK  status: ('A' for Active; 'I' for Inactive)
REMARK    5  A    between atoms: CA   and  CB  
REMARK    6  A    between atoms: CB   and  CG  
ROOT
ATOM      7  CA  TYR A 136      36.583  36.399   8.994  1.00 26.14     0.191 C 
ENDROOT
BRANCH   7   8
ATOM      8  CB  TYR A 136      37.367  36.835  10.240  1.00 28.16     0.060 C 
BRANCH   8   9
ATOM      9  CG  TYR A 136      36.789  38.070  10.887  1.00 31.88    -0.020 A 
ATOM     10  CD2 TYR A 136      35.778  37.978  11.846  1.00 32.67    -0.002 A 
ATOM     11  CE2 TYR A 136      35.247  39.131  12.439  1.00 33.89     0.027 A 
ATOM     12  CZ  TYR A 136      35.731  40.388  12.069  1.00 34.34     0.131 A 
ATOM     13  OH  TYR A 136      35.225  41.543  12.648  1.00 35.14    -0.190 OA
ATOM     14  CE1 TYR A 136      36.734  40.498  11.117  1.00 35.01     0.027 A 
ATOM     15  CD1 TYR A 136      37.251  39.343  10.528  1.00 33.57    -0.002 A 
ENDBRANCH   8   9
ENDBRANCH   7   8
END_RES TYR A 136
BEGIN_RES ASN A 133
REMARK  2 active torsions:
REMARK  status: ('A' for Active; 'I' for Inactive)
REMARK    7  A    between atoms: CA   and  CB  
REMARK    8  A    between atoms: CB   and  CG  
ROOT
ATOM     16  CA  ASN A 133      31.225  30.257  11.749  1.00 18.15     0.196 C 
ENDROOT
BRANCH  16  17
ATOM     17  CB  ASN A 133      30.092  31.240  11.460  1.00 18.27     0.126 C 
BRANCH  17  18
ATOM     18  CG  ASN A 133      28.761  30.575  11.289  1.00 18.94     0.276 C 
ATOM     19  OD1 ASN A 133      28.630  29.587  10.566  1.00 18.09    -0.269 OA
ATOM     20  ND2 ASN A 133      27.747  31.120  11.961  1.00 18.93    -0.107 N 
ENDBRANCH  17  18
ENDBRANCH  16  17
END_RES ASN A 133
