REMARK VINA RESULT:    -5.750      3.669      6.686
REMARK INTER + INTRA:         -10.762
REMARK INTER:                  -7.048
REMARK INTRA:                  -3.715
REMARK UNBOUND:                -3.836
REMARK SMILES Cc1cn(-c2ccc(-c3c4ccc(=O)cc-4oc4cc(O)ccc34)c(C(=O)[O-])c2)nn1
REMARK SMILES IDX 9 1 24 2 23 3 22 4 20 5 19 6 18 7 17 8 16 9 15 10 13 11
REMARK SMILES IDX 14 12 12 13 11 14 10 15 8 16 5 17 29 18 6 19 25 20 7 21 4 22
REMARK SMILES IDX 1 23 2 24 3 25 31 26 30 27 26 28 27 29 28 30 21 31
REMARK H PARENT 21 32
REMARK Flexibility Score: inf
ROOT
ATOM      1  C   UNL     1      29.143  31.061  17.772  1.00  0.00     0.004 A 
ATOM      2  C   UNL     1      27.948  30.639  17.229  1.00  0.00     0.026 A 
ATOM      3  C   UNL     1      27.525  31.151  16.022  1.00  0.00     0.016 A 
ATOM      4  C   UNL     1      26.330  30.755  15.440  1.00  0.00     0.047 A 
ATOM      5  C   UNL     1      25.564  29.823  16.106  1.00  0.00     0.119 A 
ATOM      6  C   UNL     1      25.987  29.309  17.314  1.00  0.00     0.093 A 
ATOM      7  C   UNL     1      27.187  29.699  17.910  1.00  0.00     0.139 A 
ATOM      8  O   UNL     1      27.560  29.189  19.062  1.00  0.00    -0.456 OA
ATOM      9  C   UNL     1      28.664  29.522  19.651  1.00  0.00     0.139 A 
ATOM     10  C   UNL     1      29.086  29.010  20.854  1.00  0.00     0.099 A 
ATOM     11  C   UNL     1      30.281  29.444  21.378  1.00  0.00     0.182 A 
ATOM     12  O   UNL     1      30.658  28.971  22.479  1.00  0.00    -0.290 OA
ATOM     13  C   UNL     1      31.077  30.378  20.740  1.00  0.00     0.053 A 
ATOM     14  C   UNL     1      30.717  30.933  19.532  1.00  0.00     0.016 A 
ATOM     15  C   UNL     1      29.517  30.514  18.980  1.00  0.00     0.026 A 
ENDROOT
BRANCH   1  16
ATOM     16  C   UNL     1      29.931  32.041  17.054  1.00  0.00    -0.008 A 
ATOM     17  C   UNL     1      31.418  33.986  15.708  1.00  0.00     0.067 A 
ATOM     18  C   UNL     1      30.504  34.362  16.669  1.00  0.00     0.039 A 
ATOM     19  C   UNL     1      31.599  32.643  15.411  1.00  0.00     0.029 A 
ATOM     20  C   UNL     1      29.777  33.384  17.325  1.00  0.00     0.007 A 
ATOM     21  C   UNL     1      30.854  31.690  16.086  1.00  0.00     0.012 A 
BRANCH  17  22
ATOM     22  N   UNL     1      32.193  34.946  15.002  1.00  0.00    -0.220 N 
ATOM     23  C   UNL     1      32.917  37.009  12.040  1.00  0.00     0.070 C 
ATOM     24  C   UNL     1      32.857  36.298  13.351  1.00  0.00     0.080 A 
ATOM     25  C   UNL     1      31.912  35.370  13.735  1.00  0.00     0.140 A 
ATOM     26  N   UNL     1      33.687  36.411  14.403  1.00  0.00    -0.135 NA
ATOM     27  N   UNL     1      33.264  35.593  15.366  1.00  0.00    -0.062 NA
ENDBRANCH  17  22
BRANCH  20  28
ATOM     28  C   UNL     1      28.814  33.797  18.339  1.00  0.00     0.072 C 
ATOM     29  O   UNL     1      27.610  34.002  18.062  1.00  0.00    -0.545 OA
ATOM     30  O   UNL     1      29.200  33.975  19.660  1.00  0.00    -0.545 OA
ENDBRANCH  20  28
ENDBRANCH   1  16
BRANCH   5  31
ATOM     31  O   UNL     1      24.353  29.415  15.524  1.00  0.00    -0.508 OA
ATOM     32  H   UNL     1      23.947  29.955  14.773  1.00  0.00     0.293 HD
ENDBRANCH   5  31
TORSDOF 4
BEGIN_RES LYS A 135
REMARK  4 active torsions:
REMARK  status: ('A' for Active; 'I' for Inactive)
REMARK    1  A    between atoms: CA   and  CB  
REMARK    2  A    between atoms: CB   and  CG  
REMARK    3  A    between atoms: CG   and  CD  
REMARK    4  A    between atoms: CD   and  CE  
ROOT
ATOM      1  CA  LYS A 135      33.193  34.663   9.290  1.00 25.02     0.186 C 
ENDROOT
BRANCH   1   2
ATOM      2  CB  LYS A 135      32.060  35.360  10.034  1.00 26.63     0.034 C 
BRANCH   2   3
ATOM      3  CG  LYS A 135      30.802  35.504   9.217  1.00 29.45     0.005 C 
BRANCH   3   4
ATOM      4  CD  LYS A 135      30.152  34.149   8.988  1.00 32.00     0.041 C 
BRANCH   4   5
ATOM      5  CE  LYS A 135      28.691  34.314   8.616  1.00 34.25     0.338 C 
ATOM      6  NZ  LYS A 135      27.803  33.703   9.643  1.00 35.99     0.618 N 
ENDBRANCH   4   5
ENDBRANCH   3   4
ENDBRANCH   2   3
ENDBRANCH   1   2
END_RES LYS A 135
BEGIN_RES TYR A 136
REMARK  2 active torsions:
REMARK  status: ('A' for Active; 'I' for Inactive)
REMARK    5  A    between atoms: CA   and  CB  
REMARK    6  A    between atoms: CB   and  CG  
ROOT
ATOM      7  CA  TYR A 136      36.583  36.399   8.994  1.00 26.14     0.191 C 
ENDROOT
BRANCH   7   8
ATOM      8  CB  TYR A 136      37.367  36.835  10.240  1.00 28.16     0.060 C 
BRANCH   8   9
ATOM      9  CG  TYR A 136      36.673  37.933  11.007  1.00 31.88    -0.020 A 
ATOM     10  CD2 TYR A 136      36.056  38.998  10.347  1.00 32.67    -0.002 A 
ATOM     11  CE2 TYR A 136      35.415  40.014  11.069  1.00 33.89     0.027 A 
ATOM     12  CZ  TYR A 136      35.392  39.965  12.465  1.00 34.34     0.131 A 
ATOM     13  OH  TYR A 136      34.758  40.956  13.200  1.00 35.14    -0.190 OA
ATOM     14  CE1 TYR A 136      36.002  38.915  13.137  1.00 35.01     0.027 A 
ATOM     15  CD1 TYR A 136      36.642  37.912  12.408  1.00 33.57    -0.002 A 
ENDBRANCH   8   9
ENDBRANCH   7   8
END_RES TYR A 136
BEGIN_RES ASN A 133
REMARK  2 active torsions:
REMARK  status: ('A' for Active; 'I' for Inactive)
REMARK    7  A    between atoms: CA   and  CB  
REMARK    8  A    between atoms: CB   and  CG  
ROOT
ATOM     16  CA  ASN A 133      31.225  30.257  11.749  1.00 18.15     0.196 C 
ENDROOT
BRANCH  16  17
ATOM     17  CB  ASN A 133      30.092  31.240  11.460  1.00 18.27     0.126 C 
BRANCH  17  18
ATOM     18  CG  ASN A 133      28.754  30.580  11.330  1.00 18.94     0.276 C 
ATOM     19  OD1 ASN A 133      28.585  29.626  10.567  1.00 18.09    -0.269 OA
ATOM     20  ND2 ASN A 133      27.778  31.087  12.082  1.00 18.93    -0.107 N 
ENDBRANCH  17  18
ENDBRANCH  16  17
END_RES ASN A 133
