REMARK VINA RESULT:    -5.024      3.479      5.855
REMARK INTER + INTRA:         -10.561
REMARK INTER:                  -6.924
REMARK INTRA:                  -3.638
REMARK UNBOUND:                -3.628
REMARK SMILES Cc1cn(C[C@@H](C(=O)O)C(c2ccccc2)c2ccccc2)nn1
REMARK SMILES IDX 6 1 5 2 4 3 1 4 2 5 3 6 24 7 23 8 7 9 8 10 9 11 10 13 11 14
REMARK SMILES IDX 12 15 16 16 13 17 15 18 14 19 17 20 18 21 22 22 19 23 21 24
REMARK SMILES IDX 20 25
REMARK H PARENT 9 12
REMARK Flexibility Score: inf
ROOT
ATOM      1  C   UNL     1      37.190  35.377  13.577  1.00  0.00     0.132 C 
ENDROOT
BRANCH   1   2
ATOM      2  C   UNL     1      37.077  34.508  14.786  1.00  0.00     0.162 C 
BRANCH   2   3
ATOM      3  N   UNL     1      38.178  34.720  15.695  1.00  0.00    -0.251 N 
ATOM      4  C   UNL     1      41.713  35.056  16.557  1.00  0.00     0.070 C 
ATOM      5  C   UNL     1      40.230  34.956  16.406  1.00  0.00     0.080 A 
ATOM      6  C   UNL     1      39.481  34.710  15.303  1.00  0.00     0.134 A 
ATOM      7  N   UNL     1      39.379  35.109  17.438  1.00  0.00    -0.136 NA
ATOM      8  N   UNL     1      38.159  34.965  16.995  1.00  0.00    -0.067 NA
ENDBRANCH   2   3
ENDBRANCH   1   2
BRANCH   1   9
ATOM      9  C   UNL     1      37.244  34.584  12.349  1.00  0.00     0.309 C 
ATOM     10  O   UNL     1      36.591  33.504  12.291  1.00  0.00    -0.252 OA
BRANCH   9  11
ATOM     11  O   UNL     1      37.997  34.991  11.237  1.00  0.00    -0.481 OA
ATOM     12  H   UNL     1      38.997  35.178  11.401  1.00  0.00     0.296 HD
ENDBRANCH   9  11
ENDBRANCH   1   9
BRANCH   1  13
ATOM     13  C   UNL     1      35.964  36.284  13.499  1.00  0.00     0.065 C 
BRANCH  13  14
ATOM     14  C   UNL     1      34.883  35.847  14.424  1.00  0.00    -0.040 A 
ATOM     15  C   UNL     1      34.813  36.199  15.751  1.00  0.00     0.004 A 
ATOM     16  C   UNL     1      33.892  35.031  13.888  1.00  0.00     0.004 A 
ATOM     17  C   UNL     1      33.760  35.735  16.524  1.00  0.00     0.000 A 
ATOM     18  C   UNL     1      32.851  34.582  14.686  1.00  0.00     0.000 A 
ATOM     19  C   UNL     1      32.783  34.932  16.001  1.00  0.00     0.000 A 
ENDBRANCH  13  14
BRANCH  13  20
ATOM     20  C   UNL     1      36.363  37.684  13.782  1.00  0.00    -0.040 A 
ATOM     21  C   UNL     1      35.467  38.719  13.606  1.00  0.00     0.004 A 
ATOM     22  C   UNL     1      37.624  37.995  14.240  1.00  0.00     0.004 A 
ATOM     23  C   UNL     1      35.759  40.036  13.858  1.00  0.00     0.000 A 
ATOM     24  C   UNL     1      37.949  39.319  14.503  1.00  0.00     0.000 A 
ATOM     25  C   UNL     1      37.041  40.311  14.317  1.00  0.00     0.000 A 
ENDBRANCH  13  20
ENDBRANCH   1  13
TORSDOF 7
BEGIN_RES LYS A 135
REMARK  4 active torsions:
REMARK  status: ('A' for Active; 'I' for Inactive)
REMARK    1  A    between atoms: CA   and  CB  
REMARK    2  A    between atoms: CB   and  CG  
REMARK    3  A    between atoms: CG   and  CD  
REMARK    4  A    between atoms: CD   and  CE  
ROOT
ATOM      1  CA  LYS A 135      33.193  34.663   9.290  1.00 25.02     0.186 C 
ENDROOT
BRANCH   1   2
ATOM      2  CB  LYS A 135      32.060  35.360  10.034  1.00 26.63     0.034 C 
BRANCH   2   3
ATOM      3  CG  LYS A 135      30.821  35.555   9.199  1.00 29.45     0.005 C 
BRANCH   3   4
ATOM      4  CD  LYS A 135      29.978  34.289   9.186  1.00 32.00     0.041 C 
BRANCH   4   5
ATOM      5  CE  LYS A 135      28.777  34.440  10.101  1.00 34.25     0.338 C 
ATOM      6  NZ  LYS A 135      27.620  33.645   9.603  1.00 35.99     0.618 N 
ENDBRANCH   4   5
ENDBRANCH   3   4
ENDBRANCH   2   3
ENDBRANCH   1   2
END_RES LYS A 135
BEGIN_RES TYR A 136
REMARK  2 active torsions:
REMARK  status: ('A' for Active; 'I' for Inactive)
REMARK    5  A    between atoms: CA   and  CB  
REMARK    6  A    between atoms: CB   and  CG  
ROOT
ATOM      7  CA  TYR A 136      36.583  36.399   8.994  1.00 26.14     0.191 C 
ENDROOT
BRANCH   7   8
ATOM      8  CB  TYR A 136      37.367  36.835  10.240  1.00 28.16     0.060 C 
BRANCH   8   9
ATOM      9  CG  TYR A 136      37.424  38.335  10.394  1.00 31.88    -0.020 A 
ATOM     10  CD2 TYR A 136      36.320  39.135  10.095  1.00 32.67    -0.002 A 
ATOM     11  CE2 TYR A 136      36.384  40.528  10.240  1.00 33.89     0.027 A 
ATOM     12  CZ  TYR A 136      37.565  41.125  10.687  1.00 34.34     0.131 A 
ATOM     13  OH  TYR A 136      37.649  42.502  10.845  1.00 35.14    -0.190 OA
ATOM     14  CE1 TYR A 136      38.672  40.345  10.988  1.00 35.01     0.027 A 
ATOM     15  CD1 TYR A 136      38.598  38.960  10.834  1.00 33.57    -0.002 A 
ENDBRANCH   8   9
ENDBRANCH   7   8
END_RES TYR A 136
BEGIN_RES ASN A 133
REMARK  2 active torsions:
REMARK  status: ('A' for Active; 'I' for Inactive)
REMARK    7  A    between atoms: CA   and  CB  
REMARK    8  A    between atoms: CB   and  CG  
ROOT
ATOM     16  CA  ASN A 133      31.225  30.257  11.749  1.00 18.15     0.196 C 
ENDROOT
BRANCH  16  17
ATOM     17  CB  ASN A 133      30.092  31.240  11.460  1.00 18.27     0.126 C 
BRANCH  17  18
ATOM     18  CG  ASN A 133      28.752  30.582  11.348  1.00 18.94     0.276 C 
ATOM     19  OD1 ASN A 133      28.579  29.607  10.613  1.00 18.09    -0.269 OA
ATOM     20  ND2 ASN A 133      27.777  31.115  12.083  1.00 18.93    -0.107 N 
ENDBRANCH  17  18
ENDBRANCH  16  17
END_RES ASN A 133
