REMARK VINA RESULT:    -3.681      8.231     11.450
REMARK INTER + INTRA:          -7.346
REMARK INTER:                  -4.100
REMARK INTRA:                  -3.247
REMARK UNBOUND:                -3.235
REMARK SMILES Cc1cn(-c2ccc([N+](=O)[O-])cc2)nn1
REMARK SMILES IDX 5 1 6 2 7 3 8 4 12 5 13 6 4 7 1 8 2 9 3 10 15 11 14 12 9 13
REMARK SMILES IDX 10 14 11 15
REMARK H PARENT
REMARK Flexibility Score: inf
ROOT
ATOM      1  C   UNL     1      35.525  38.840   3.973  1.00  0.00     0.067 A 
ATOM      2  C   UNL     1      35.119  38.865   5.286  1.00  0.00     0.035 A 
ATOM      3  C   UNL     1      33.918  39.491   5.652  1.00  0.00     0.088 A 
ATOM      4  C   UNL     1      33.134  40.092   4.693  1.00  0.00     0.269 A 
ATOM      5  C   UNL     1      33.530  40.072   3.395  1.00  0.00     0.088 A 
ATOM      6  C   UNL     1      34.726  39.446   3.034  1.00  0.00     0.035 A 
ENDROOT
BRANCH   1   7
ATOM      7  N   UNL     1      36.738  38.201   3.638  1.00  0.00    -0.220 N 
ATOM      8  C   UNL     1      39.851  36.357   4.228  1.00  0.00     0.070 C 
ATOM      9  C   UNL     1      38.651  37.097   3.793  1.00  0.00     0.080 A 
ATOM     10  C   UNL     1      37.591  37.599   4.502  1.00  0.00     0.140 A 
ATOM     11  N   UNL     1      38.416  37.407   2.495  1.00  0.00    -0.135 NA
ATOM     12  N   UNL     1      37.277  38.062   2.423  1.00  0.00    -0.062 NA
ENDBRANCH   1   7
BRANCH   4  13
ATOM     13  N   UNL     1      31.912  40.726   5.101  1.00  0.00     0.062 N 
ATOM     14  O   UNL     1      31.232  41.337   4.269  1.00  0.00    -0.258 OA
ATOM     15  O   UNL     1      31.490  40.662   6.387  1.00  0.00    -0.258 OA
ENDBRANCH   4  13
TORSDOF 2
BEGIN_RES LYS A 135
REMARK  4 active torsions:
REMARK  status: ('A' for Active; 'I' for Inactive)
REMARK    1  A    between atoms: CA   and  CB  
REMARK    2  A    between atoms: CB   and  CG  
REMARK    3  A    between atoms: CG   and  CD  
REMARK    4  A    between atoms: CD   and  CE  
ROOT
ATOM      1  CA  LYS A 135      33.193  34.663   9.290  1.00 25.02     0.186 C 
ENDROOT
BRANCH   1   2
ATOM      2  CB  LYS A 135      32.060  35.360  10.034  1.00 26.63     0.034 C 
BRANCH   2   3
ATOM      3  CG  LYS A 135      30.696  34.808   9.709  1.00 29.45     0.005 C 
BRANCH   3   4
ATOM      4  CD  LYS A 135      30.588  34.483   8.227  1.00 32.00     0.041 C 
BRANCH   4   5
ATOM      5  CE  LYS A 135      29.368  35.151   7.623  1.00 34.25     0.338 C 
ATOM      6  NZ  LYS A 135      28.114  34.646   8.248  1.00 35.99     0.618 N 
ENDBRANCH   4   5
ENDBRANCH   3   4
ENDBRANCH   2   3
ENDBRANCH   1   2
END_RES LYS A 135
BEGIN_RES TYR A 136
REMARK  2 active torsions:
REMARK  status: ('A' for Active; 'I' for Inactive)
REMARK    5  A    between atoms: CA   and  CB  
REMARK    6  A    between atoms: CB   and  CG  
ROOT
ATOM      7  CA  TYR A 136      36.583  36.399   8.994  1.00 26.14     0.191 C 
ENDROOT
BRANCH   7   8
ATOM      8  CB  TYR A 136      37.367  36.835  10.240  1.00 28.16     0.060 C 
BRANCH   8   9
ATOM      9  CG  TYR A 136      37.271  38.319  10.496  1.00 31.88    -0.020 A 
ATOM     10  CD2 TYR A 136      36.562  39.157   9.633  1.00 32.67    -0.002 A 
ATOM     11  CE2 TYR A 136      36.480  40.535   9.879  1.00 33.89     0.027 A 
ATOM     12  CZ  TYR A 136      37.114  41.078  10.999  1.00 34.34     0.131 A 
ATOM     13  OH  TYR A 136      37.041  42.438  11.266  1.00 35.14    -0.190 OA
ATOM     14  CE1 TYR A 136      37.824  40.260  11.866  1.00 35.01     0.027 A 
ATOM     15  CD1 TYR A 136      37.904  38.891  11.607  1.00 33.57    -0.002 A 
ENDBRANCH   8   9
ENDBRANCH   7   8
END_RES TYR A 136
BEGIN_RES ASN A 133
REMARK  2 active torsions:
REMARK  status: ('A' for Active; 'I' for Inactive)
REMARK    7  A    between atoms: CA   and  CB  
REMARK    8  A    between atoms: CB   and  CG  
ROOT
ATOM     16  CA  ASN A 133      31.225  30.257  11.749  1.00 18.15     0.196 C 
ENDROOT
BRANCH  16  17
ATOM     17  CB  ASN A 133      30.092  31.240  11.460  1.00 18.27     0.126 C 
BRANCH  17  18
ATOM     18  CG  ASN A 133      28.756  30.579  11.322  1.00 18.94     0.276 C 
ATOM     19  OD1 ASN A 133      28.595  29.616  10.569  1.00 18.09    -0.269 OA
ATOM     20  ND2 ASN A 133      27.771  31.096  12.055  1.00 18.93    -0.107 N 
ENDBRANCH  17  18
ENDBRANCH  16  17
END_RES ASN A 133
