REMARK VINA RESULT:    -5.499      5.130      7.991
REMARK INTER + INTRA:          -8.153
REMARK INTER:                  -4.932
REMARK INTRA:                  -3.221
REMARK UNBOUND:                -1.368
REMARK SMILES Cc1cn(COCc2ccccc2)nn1
REMARK SMILES IDX 6 1 5 2 4 3 1 4 2 5 3 6 15 7 14 8 7 9 8 10 9 11 13 12 10 13
REMARK SMILES IDX 12 14 11 15
REMARK H PARENT
REMARK Flexibility Score: inf
ROOT
ATOM      1  O   UNL     1      24.960  33.168  12.474  1.00  0.00    -0.355 OA
ENDROOT
BRANCH   1   2
ATOM      2  C   UNL     1      24.672  34.530  12.526  1.00  0.00     0.307 C 
BRANCH   2   3
ATOM      3  N   UNL     1      24.268  35.072  11.268  1.00  0.00    -0.226 N 
ATOM      4  C   UNL     1      24.706  36.912   8.173  1.00  0.00     0.070 C 
ATOM      5  C   UNL     1      24.278  36.125   9.340  1.00  0.00     0.080 A 
ATOM      6  C   UNL     1      25.031  35.796  10.437  1.00  0.00     0.137 A 
ATOM      7  N   UNL     1      23.065  35.585   9.537  1.00  0.00    -0.136 NA
ATOM      8  N   UNL     1      23.086  34.963  10.694  1.00  0.00    -0.065 NA
ENDBRANCH   2   3
ENDBRANCH   1   2
BRANCH   1   9
ATOM      9  C   UNL     1      24.325  32.567  13.552  1.00  0.00     0.198 C 
BRANCH   9  10
ATOM     10  C   UNL     1      23.572  31.348  13.125  1.00  0.00    -0.022 A 
ATOM     11  C   UNL     1      24.143  30.109  13.035  1.00  0.00     0.006 A 
ATOM     12  C   UNL     1      22.244  31.513  12.812  1.00  0.00     0.006 A 
ATOM     13  C   UNL     1      23.368  29.043  12.630  1.00  0.00     0.000 A 
ATOM     14  C   UNL     1      21.462  30.439  12.404  1.00  0.00     0.000 A 
ATOM     15  C   UNL     1      22.027  29.181  12.311  1.00  0.00     0.000 A 
ENDBRANCH   9  10
ENDBRANCH   1   9
TORSDOF 4
BEGIN_RES LYS A 135
REMARK  4 active torsions:
REMARK  status: ('A' for Active; 'I' for Inactive)
REMARK    1  A    between atoms: CA   and  CB  
REMARK    2  A    between atoms: CB   and  CG  
REMARK    3  A    between atoms: CG   and  CD  
REMARK    4  A    between atoms: CD   and  CE  
ROOT
ATOM      1  CA  LYS A 135      33.193  34.663   9.290  1.00 25.02     0.186 C 
ENDROOT
BRANCH   1   2
ATOM      2  CB  LYS A 135      32.060  35.360  10.034  1.00 26.63     0.034 C 
BRANCH   2   3
ATOM      3  CG  LYS A 135      30.818  35.548   9.201  1.00 29.45     0.005 C 
BRANCH   3   4
ATOM      4  CD  LYS A 135      30.306  34.210   8.692  1.00 32.00     0.041 C 
BRANCH   4   5
ATOM      5  CE  LYS A 135      28.852  34.014   9.079  1.00 34.25     0.338 C 
ATOM      6  NZ  LYS A 135      27.967  34.946   8.327  1.00 35.99     0.618 N 
ENDBRANCH   4   5
ENDBRANCH   3   4
ENDBRANCH   2   3
ENDBRANCH   1   2
END_RES LYS A 135
BEGIN_RES TYR A 136
REMARK  2 active torsions:
REMARK  status: ('A' for Active; 'I' for Inactive)
REMARK    5  A    between atoms: CA   and  CB  
REMARK    6  A    between atoms: CB   and  CG  
ROOT
ATOM      7  CA  TYR A 136      36.583  36.399   8.994  1.00 26.14     0.191 C 
ENDROOT
BRANCH   7   8
ATOM      8  CB  TYR A 136      37.367  36.835  10.240  1.00 28.16     0.060 C 
BRANCH   8   9
ATOM      9  CG  TYR A 136      37.204  38.304  10.544  1.00 31.88    -0.020 A 
ATOM     10  CD2 TYR A 136      36.050  38.791  11.161  1.00 32.67    -0.002 A 
ATOM     11  CE2 TYR A 136      35.907  40.158  11.437  1.00 33.89     0.027 A 
ATOM     12  CZ  TYR A 136      36.929  41.045  11.092  1.00 34.34     0.131 A 
ATOM     13  OH  TYR A 136      36.813  42.402  11.362  1.00 35.14    -0.190 OA
ATOM     14  CE1 TYR A 136      38.082  40.579  10.477  1.00 35.01     0.027 A 
ATOM     15  CD1 TYR A 136      38.210  39.217  10.201  1.00 33.57    -0.002 A 
ENDBRANCH   8   9
ENDBRANCH   7   8
END_RES TYR A 136
BEGIN_RES ASN A 133
REMARK  2 active torsions:
REMARK  status: ('A' for Active; 'I' for Inactive)
REMARK    7  A    between atoms: CA   and  CB  
REMARK    8  A    between atoms: CB   and  CG  
ROOT
ATOM     16  CA  ASN A 133      31.225  30.257  11.749  1.00 18.15     0.196 C 
ENDROOT
BRANCH  16  17
ATOM     17  CB  ASN A 133      30.092  31.240  11.460  1.00 18.27     0.126 C 
BRANCH  17  18
ATOM     18  CG  ASN A 133      28.750  30.583  11.358  1.00 18.94     0.276 C 
ATOM     19  OD1 ASN A 133      28.578  29.591  10.648  1.00 18.09    -0.269 OA
ATOM     20  ND2 ASN A 133      27.774  31.138  12.075  1.00 18.93    -0.107 N 
ENDBRANCH  17  18
ENDBRANCH  16  17
END_RES ASN A 133
