REMARK VINA RESULT:    -3.676      2.738      3.172
REMARK INTER + INTRA:          -7.471
REMARK INTER:                  -4.258
REMARK INTRA:                  -3.214
REMARK UNBOUND:                -3.259
REMARK SMILES Cc1cn(-c2ccc(CO)cn2)nn1
REMARK SMILES IDX 5 1 6 2 7 3 8 4 11 5 12 6 4 7 1 8 2 9 3 10 14 11 13 12 9 13
REMARK SMILES IDX 10 14
REMARK H PARENT 10 15
REMARK Flexibility Score: inf
ROOT
ATOM      1  C   UNL     1      23.651  35.814  -2.163  1.00  0.00     0.155 A 
ATOM      2  C   UNL     1      23.282  35.909  -0.832  1.00  0.00     0.049 A 
ATOM      3  C   UNL     1      22.523  34.931  -0.203  1.00  0.00     0.011 A 
ATOM      4  C   UNL     1      22.143  33.848  -0.962  1.00  0.00    -0.004 A 
ATOM      5  C   UNL     1      22.520  33.769  -2.292  1.00  0.00     0.119 A 
ATOM      6  N   UNL     1      23.258  34.739  -2.865  1.00  0.00    -0.237 NA
ENDROOT
BRANCH   1   7
ATOM      7  N   UNL     1      24.433  36.834  -2.788  1.00  0.00    -0.202 N 
ATOM      8  C   UNL     1      25.223  39.536  -5.157  1.00  0.00     0.070 C 
ATOM      9  C   UNL     1      25.161  38.488  -4.102  1.00  0.00     0.080 A 
ATOM     10  C   UNL     1      24.099  37.643  -3.814  1.00  0.00     0.142 A 
ATOM     11  N   UNL     1      26.120  38.146  -3.218  1.00  0.00    -0.135 NA
ATOM     12  N   UNL     1      25.670  37.155  -2.438  1.00  0.00    -0.061 NA
ENDBRANCH   1   7
BRANCH   4  13
ATOM     13  C   UNL     1      21.328  32.766  -0.346  1.00  0.00     0.193 C 
BRANCH  13  14
ATOM     14  O   UNL     1      21.668  32.614   0.980  1.00  0.00    -0.392 OA
ATOM     15  H   UNL     1      21.017  32.006   1.420  1.00  0.00     0.211 HD
ENDBRANCH  13  14
ENDBRANCH   4  13
TORSDOF 3
BEGIN_RES LYS A 135
REMARK  4 active torsions:
REMARK  status: ('A' for Active; 'I' for Inactive)
REMARK    1  A    between atoms: CA   and  CB  
REMARK    2  A    between atoms: CB   and  CG  
REMARK    3  A    between atoms: CG   and  CD  
REMARK    4  A    between atoms: CD   and  CE  
ROOT
ATOM      1  CA  LYS A 135      33.193  34.663   9.290  1.00 25.02     0.186 C 
ENDROOT
BRANCH   1   2
ATOM      2  CB  LYS A 135      32.060  35.360  10.034  1.00 26.63     0.034 C 
BRANCH   2   3
ATOM      3  CG  LYS A 135      30.724  34.684   9.867  1.00 29.45     0.005 C 
BRANCH   3   4
ATOM      4  CD  LYS A 135      30.351  34.588   8.396  1.00 32.00     0.041 C 
BRANCH   4   5
ATOM      5  CE  LYS A 135      28.844  34.580   8.228  1.00 34.25     0.338 C 
ATOM      6  NZ  LYS A 135      28.180  33.887   9.366  1.00 35.99     0.618 N 
ENDBRANCH   4   5
ENDBRANCH   3   4
ENDBRANCH   2   3
ENDBRANCH   1   2
END_RES LYS A 135
BEGIN_RES TYR A 136
REMARK  2 active torsions:
REMARK  status: ('A' for Active; 'I' for Inactive)
REMARK    5  A    between atoms: CA   and  CB  
REMARK    6  A    between atoms: CB   and  CG  
ROOT
ATOM      7  CA  TYR A 136      36.583  36.399   8.994  1.00 26.14     0.191 C 
ENDROOT
BRANCH   7   8
ATOM      8  CB  TYR A 136      37.367  36.835  10.240  1.00 28.16     0.060 C 
BRANCH   8   9
ATOM      9  CG  TYR A 136      37.219  38.308  10.532  1.00 31.88    -0.020 A 
ATOM     10  CD2 TYR A 136      37.827  38.888  11.648  1.00 32.67    -0.002 A 
ATOM     11  CE2 TYR A 136      37.682  40.257  11.912  1.00 33.89     0.027 A 
ATOM     12  CZ  TYR A 136      36.922  41.053  11.051  1.00 34.34     0.131 A 
ATOM     13  OH  TYR A 136      36.771  42.412  11.289  1.00 35.14    -0.190 OA
ATOM     14  CE1 TYR A 136      36.310  40.493   9.939  1.00 35.01     0.027 A 
ATOM     15  CD1 TYR A 136      36.457  39.127   9.690  1.00 33.57    -0.002 A 
ENDBRANCH   8   9
ENDBRANCH   7   8
END_RES TYR A 136
BEGIN_RES ASN A 133
REMARK  2 active torsions:
REMARK  status: ('A' for Active; 'I' for Inactive)
REMARK    7  A    between atoms: CA   and  CB  
REMARK    8  A    between atoms: CB   and  CG  
ROOT
ATOM     16  CA  ASN A 133      31.225  30.257  11.749  1.00 18.15     0.196 C 
ENDROOT
BRANCH  16  17
ATOM     17  CB  ASN A 133      30.092  31.240  11.460  1.00 18.27     0.126 C 
BRANCH  17  18
ATOM     18  CG  ASN A 133      28.753  30.581  11.343  1.00 18.94     0.276 C 
ATOM     19  OD1 ASN A 133      28.587  29.596  10.621  1.00 18.09    -0.269 OA
ATOM     20  ND2 ASN A 133      27.770  31.127  12.059  1.00 18.93    -0.107 N 
ENDBRANCH  17  18
ENDBRANCH  16  17
END_RES ASN A 133
