REMARK VINA RESULT:    -5.193      2.392      4.250
REMARK INTER + INTRA:          -8.523
REMARK INTER:                  -5.733
REMARK INTRA:                  -2.790
REMARK UNBOUND:                -2.723
REMARK SMILES Cc1cn(-c2ncn3c2c(=O)n(C(C)C)c2ccccc23)nn1
REMARK SMILES IDX 5 1 6 2 7 3 8 4 21 5 20 6 19 7 18 8 17 9 16 10 12 11 10 12
REMARK SMILES IDX 11 13 9 14 4 15 1 16 2 17 3 18 23 19 22 20 13 21 14 22 15 23
REMARK H PARENT
REMARK Flexibility Score: inf
ROOT
ATOM      1  C   UNL     1      36.890  36.825  17.044  1.00  0.00     0.186 A 
ATOM      2  N   UNL     1      38.189  36.540  17.215  1.00  0.00    -0.216 NA
ATOM      3  C   UNL     1      38.630  35.714  16.252  1.00  0.00     0.207 A 
ATOM      4  N   UNL     1      37.572  35.464  15.439  1.00  0.00    -0.291 N 
ATOM      5  C   UNL     1      37.434  34.709  14.321  1.00  0.00     0.071 A 
ATOM      6  C   UNL     1      38.570  34.056  13.897  1.00  0.00     0.029 A 
ATOM      7  C   UNL     1      38.458  33.287  12.762  1.00  0.00     0.002 A 
ATOM      8  C   UNL     1      37.274  33.169  12.077  1.00  0.00     0.002 A 
ATOM      9  C   UNL     1      36.157  33.825  12.513  1.00  0.00     0.028 A 
ATOM     10  C   UNL     1      36.241  34.601  13.647  1.00  0.00     0.068 A 
ATOM     11  N   UNL     1      35.167  35.294  14.149  1.00  0.00    -0.302 N 
ATOM     12  C   UNL     1      35.289  36.047  15.255  1.00  0.00     0.279 A 
ATOM     13  O   UNL     1      34.351  36.710  15.769  1.00  0.00    -0.267 OA
ATOM     14  C   UNL     1      36.501  36.135  15.909  1.00  0.00     0.158 A 
ENDROOT
BRANCH   1  15
ATOM     15  N   UNL     1      36.060  37.671  17.865  1.00  0.00    -0.200 N 
ATOM     16  C   UNL     1      34.567  40.810  18.920  1.00  0.00     0.070 C 
ATOM     17  C   UNL     1      35.024  39.405  18.714  1.00  0.00     0.080 A 
ATOM     18  C   UNL     1      35.889  38.999  17.733  1.00  0.00     0.142 A 
ATOM     19  N   UNL     1      34.686  38.329  19.422  1.00  0.00    -0.135 NA
ATOM     20  N   UNL     1      35.322  37.292  18.893  1.00  0.00    -0.061 NA
ENDBRANCH   1  15
BRANCH  11  21
ATOM     21  C   UNL     1      33.935  35.173  13.452  1.00  0.00     0.085 C 
ATOM     22  C   UNL     1      32.824  34.734  14.377  1.00  0.00     0.031 C 
ATOM     23  C   UNL     1      33.482  36.456  12.787  1.00  0.00     0.031 C 
ENDBRANCH  11  21
TORSDOF 2
BEGIN_RES LYS A 135
REMARK  4 active torsions:
REMARK  status: ('A' for Active; 'I' for Inactive)
REMARK    1  A    between atoms: CA   and  CB  
REMARK    2  A    between atoms: CB   and  CG  
REMARK    3  A    between atoms: CG   and  CD  
REMARK    4  A    between atoms: CD   and  CE  
ROOT
ATOM      1  CA  LYS A 135      33.193  34.663   9.290  1.00 25.02     0.186 C 
ENDROOT
BRANCH   1   2
ATOM      2  CB  LYS A 135      32.060  35.360  10.034  1.00 26.63     0.034 C 
BRANCH   2   3
ATOM      3  CG  LYS A 135      30.731  34.662   9.898  1.00 29.45     0.005 C 
BRANCH   3   4
ATOM      4  CD  LYS A 135      30.445  34.332   8.442  1.00 32.00     0.041 C 
BRANCH   4   5
ATOM      5  CE  LYS A 135      29.015  34.691   8.085  1.00 34.25     0.338 C 
ATOM      6  NZ  LYS A 135      28.964  35.528   6.854  1.00 35.99     0.618 N 
ENDBRANCH   4   5
ENDBRANCH   3   4
ENDBRANCH   2   3
ENDBRANCH   1   2
END_RES LYS A 135
BEGIN_RES TYR A 136
REMARK  2 active torsions:
REMARK  status: ('A' for Active; 'I' for Inactive)
REMARK    5  A    between atoms: CA   and  CB  
REMARK    6  A    between atoms: CB   and  CG  
ROOT
ATOM      7  CA  TYR A 136      36.583  36.399   8.994  1.00 26.14     0.191 C 
ENDROOT
BRANCH   7   8
ATOM      8  CB  TYR A 136      37.367  36.835  10.240  1.00 28.16     0.060 C 
BRANCH   8   9
ATOM      9  CG  TYR A 136      36.652  37.902  11.032  1.00 31.88    -0.020 A 
ATOM     10  CD2 TYR A 136      35.780  38.800  10.412  1.00 32.67    -0.002 A 
ATOM     11  CE2 TYR A 136      35.122  39.789  11.156  1.00 33.89     0.027 A 
ATOM     12  CZ  TYR A 136      35.338  39.879  12.533  1.00 34.34     0.131 A 
ATOM     13  OH  TYR A 136      34.692  40.846  13.291  1.00 35.14    -0.190 OA
ATOM     14  CE1 TYR A 136      36.201  38.996  13.165  1.00 35.01     0.027 A 
ATOM     15  CD1 TYR A 136      36.856  38.020  12.412  1.00 33.57    -0.002 A 
ENDBRANCH   8   9
ENDBRANCH   7   8
END_RES TYR A 136
BEGIN_RES ASN A 133
REMARK  2 active torsions:
REMARK  status: ('A' for Active; 'I' for Inactive)
REMARK    7  A    between atoms: CA   and  CB  
REMARK    8  A    between atoms: CB   and  CG  
ROOT
ATOM     16  CA  ASN A 133      31.225  30.257  11.749  1.00 18.15     0.196 C 
ENDROOT
BRANCH  16  17
ATOM     17  CB  ASN A 133      30.092  31.240  11.460  1.00 18.27     0.126 C 
BRANCH  17  18
ATOM     18  CG  ASN A 133      28.749  30.584  11.366  1.00 18.94     0.276 C 
ATOM     19  OD1 ASN A 133      28.569  29.598  10.649  1.00 18.09    -0.269 OA
ATOM     20  ND2 ASN A 133      27.780  31.133  12.098  1.00 18.93    -0.107 N 
ENDBRANCH  17  18
ENDBRANCH  16  17
END_RES ASN A 133
