REMARK VINA RESULT:    -4.151      8.631     17.647
REMARK INTER + INTRA:          -7.691
REMARK INTER:                  -4.611
REMARK INTRA:                  -3.080
REMARK UNBOUND:                -3.297
REMARK SMILES Cc1cn(C23CC4CC(CC(C4)C2)C3)nn1
REMARK SMILES IDX 5 1 14 2 9 3 8 4 7 5 12 6 11 7 10 8 13 9 6 10 4 11 1 12 2 13
REMARK SMILES IDX 3 14 16 15 15 16
REMARK H PARENT
REMARK Flexibility Score: inf
ROOT
ATOM      1  C   UNL     1      38.772  34.693  16.469  1.00  0.00     0.065 C 
ATOM      2  C   UNL     1      38.753  33.337  17.166  1.00  0.00     0.034 C 
ATOM      3  C   UNL     1      38.779  33.571  18.672  1.00  0.00    -0.008 C 
ATOM      4  C   UNL     1      37.551  34.369  19.012  1.00  0.00     0.007 C 
ATOM      5  C   UNL     1      37.646  35.725  18.367  1.00  0.00    -0.008 C 
ATOM      6  C   UNL     1      38.900  36.453  18.726  1.00  0.00     0.007 C 
ATOM      7  C   UNL     1      40.098  35.646  18.288  1.00  0.00    -0.008 C 
ATOM      8  C   UNL     1      40.031  34.314  19.037  1.00  0.00     0.007 C 
ATOM      9  C   UNL     1      40.091  35.338  16.829  1.00  0.00     0.034 C 
ATOM     10  C   UNL     1      37.587  35.533  16.870  1.00  0.00     0.034 C 
ENDROOT
BRANCH   1  11
ATOM     11  N   UNL     1      38.795  34.434  15.037  1.00  0.00    -0.246 N 
ATOM     12  C   UNL     1      37.186  33.237  12.018  1.00  0.00     0.070 C 
ATOM     13  C   UNL     1      38.071  33.781  13.066  1.00  0.00     0.080 A 
ATOM     14  C   UNL     1      37.743  33.900  14.391  1.00  0.00     0.134 A 
ATOM     15  N   UNL     1      39.337  34.260  12.963  1.00  0.00    -0.136 NA
ATOM     16  N   UNL     1      39.744  34.643  14.164  1.00  0.00    -0.067 NA
ENDBRANCH   1  11
TORSDOF 1
BEGIN_RES LYS A 135
REMARK  4 active torsions:
REMARK  status: ('A' for Active; 'I' for Inactive)
REMARK    1  A    between atoms: CA   and  CB  
REMARK    2  A    between atoms: CB   and  CG  
REMARK    3  A    between atoms: CG   and  CD  
REMARK    4  A    between atoms: CD   and  CE  
ROOT
ATOM      1  CA  LYS A 135      33.193  34.663   9.290  1.00 25.02     0.186 C 
ENDROOT
BRANCH   1   2
ATOM      2  CB  LYS A 135      32.060  35.360  10.034  1.00 26.63     0.034 C 
BRANCH   2   3
ATOM      3  CG  LYS A 135      30.834  35.587   9.188  1.00 29.45     0.005 C 
BRANCH   3   4
ATOM      4  CD  LYS A 135      30.235  34.261   8.744  1.00 32.00     0.041 C 
BRANCH   4   5
ATOM      5  CE  LYS A 135      28.743  34.401   8.511  1.00 34.25     0.338 C 
ATOM      6  NZ  LYS A 135      27.967  33.725   9.587  1.00 35.99     0.618 N 
ENDBRANCH   4   5
ENDBRANCH   3   4
ENDBRANCH   2   3
ENDBRANCH   1   2
END_RES LYS A 135
BEGIN_RES TYR A 136
REMARK  2 active torsions:
REMARK  status: ('A' for Active; 'I' for Inactive)
REMARK    5  A    between atoms: CA   and  CB  
REMARK    6  A    between atoms: CB   and  CG  
ROOT
ATOM      7  CA  TYR A 136      36.583  36.399   8.994  1.00 26.14     0.191 C 
ENDROOT
BRANCH   7   8
ATOM      8  CB  TYR A 136      37.367  36.835  10.240  1.00 28.16     0.060 C 
BRANCH   8   9
ATOM      9  CG  TYR A 136      36.503  37.554  11.247  1.00 31.88    -0.020 A 
ATOM     10  CD2 TYR A 136      35.821  38.725  10.909  1.00 32.67    -0.002 A 
ATOM     11  CE2 TYR A 136      35.023  39.386  11.852  1.00 33.89     0.027 A 
ATOM     12  CZ  TYR A 136      34.906  38.872  13.145  1.00 34.34     0.131 A 
ATOM     13  OH  TYR A 136      34.115  39.506  14.094  1.00 35.14    -0.190 OA
ATOM     14  CE1 TYR A 136      35.578  37.710  13.499  1.00 35.01     0.027 A 
ATOM     15  CD1 TYR A 136      36.375  37.064  12.553  1.00 33.57    -0.002 A 
ENDBRANCH   8   9
ENDBRANCH   7   8
END_RES TYR A 136
BEGIN_RES ASN A 133
REMARK  2 active torsions:
REMARK  status: ('A' for Active; 'I' for Inactive)
REMARK    7  A    between atoms: CA   and  CB  
REMARK    8  A    between atoms: CB   and  CG  
ROOT
ATOM     16  CA  ASN A 133      31.225  30.257  11.749  1.00 18.15     0.196 C 
ENDROOT
BRANCH  16  17
ATOM     17  CB  ASN A 133      30.092  31.240  11.460  1.00 18.27     0.126 C 
BRANCH  17  18
ATOM     18  CG  ASN A 133      28.751  30.582  11.353  1.00 18.94     0.276 C 
ATOM     19  OD1 ASN A 133      28.576  29.606  10.622  1.00 18.09    -0.269 OA
ATOM     20  ND2 ASN A 133      27.778  31.119  12.088  1.00 18.93    -0.107 N 
ENDBRANCH  17  18
ENDBRANCH  16  17
END_RES ASN A 133
