REMARK VINA RESULT:    -3.873      2.864      4.526
REMARK INTER + INTRA:          -7.778
REMARK INTER:                  -4.425
REMARK INTRA:                  -3.353
REMARK UNBOUND:                -3.226
REMARK SMILES COc1ccc(Cn2cc(C)nn2)cc1
REMARK SMILES IDX 6 1 5 2 4 3 3 4 15 5 14 6 7 7 8 8 11 9 10 10 9 11 12 12
REMARK SMILES IDX 13 13 2 14 1 15
REMARK H PARENT
REMARK Flexibility Score: inf
ROOT
ATOM      1  C   UNL     1      34.025  37.275  13.242  1.00  0.00    -0.026 A 
ATOM      2  C   UNL     1      33.267  36.960  12.122  1.00  0.00     0.009 A 
ATOM      3  C   UNL     1      32.846  37.978  11.266  1.00  0.00     0.047 A 
ATOM      4  C   UNL     1      33.198  39.279  11.557  1.00  0.00     0.118 A 
ATOM      5  C   UNL     1      33.952  39.552  12.678  1.00  0.00     0.047 A 
ATOM      6  C   UNL     1      34.381  38.564  13.543  1.00  0.00     0.009 A 
ENDROOT
BRANCH   1   7
ATOM      7  C   UNL     1      34.455  36.169  14.132  1.00  0.00     0.181 C 
BRANCH   7   8
ATOM      8  N   UNL     1      35.569  35.419  13.528  1.00  0.00    -0.248 N 
ATOM      9  C   UNL     1      39.030  34.793  12.530  1.00  0.00     0.070 C 
ATOM     10  C   UNL     1      37.557  34.808  12.824  1.00  0.00     0.080 A 
ATOM     11  C   UNL     1      36.855  35.795  13.472  1.00  0.00     0.134 A 
ATOM     12  N   UNL     1      36.674  33.853  12.501  1.00  0.00    -0.136 NA
ATOM     13  N   UNL     1      35.510  34.244  12.930  1.00  0.00    -0.067 NA
ENDBRANCH   7   8
ENDBRANCH   1   7
BRANCH   4  14
ATOM     14  O   UNL     1      32.760  40.259  10.679  1.00  0.00    -0.497 OA
ATOM     15  C   UNL     1      32.691  39.925   9.305  1.00  0.00     0.278 C 
ENDBRANCH   4  14
TORSDOF 3
BEGIN_RES LYS A 135
REMARK  4 active torsions:
REMARK  status: ('A' for Active; 'I' for Inactive)
REMARK    1  A    between atoms: CA   and  CB  
REMARK    2  A    between atoms: CB   and  CG  
REMARK    3  A    between atoms: CG   and  CD  
REMARK    4  A    between atoms: CD   and  CE  
ROOT
ATOM      1  CA  LYS A 135      33.193  34.663   9.290  1.00 25.02     0.186 C 
ENDROOT
BRANCH   1   2
ATOM      2  CB  LYS A 135      32.060  35.360  10.034  1.00 26.63     0.034 C 
BRANCH   2   3
ATOM      3  CG  LYS A 135      30.732  34.661   9.901  1.00 29.45     0.005 C 
BRANCH   3   4
ATOM      4  CD  LYS A 135      30.326  34.553   8.439  1.00 32.00     0.041 C 
BRANCH   4   5
ATOM      5  CE  LYS A 135      28.815  34.531   8.306  1.00 34.25     0.338 C 
ATOM      6  NZ  LYS A 135      28.186  33.821   9.453  1.00 35.99     0.618 N 
ENDBRANCH   4   5
ENDBRANCH   3   4
ENDBRANCH   2   3
ENDBRANCH   1   2
END_RES LYS A 135
BEGIN_RES TYR A 136
REMARK  2 active torsions:
REMARK  status: ('A' for Active; 'I' for Inactive)
REMARK    5  A    between atoms: CA   and  CB  
REMARK    6  A    between atoms: CB   and  CG  
ROOT
ATOM      7  CA  TYR A 136      36.583  36.399   8.994  1.00 26.14     0.191 C 
ENDROOT
BRANCH   7   8
ATOM      8  CB  TYR A 136      37.367  36.835  10.240  1.00 28.16     0.060 C 
BRANCH   8   9
ATOM      9  CG  TYR A 136      37.194  38.301  10.551  1.00 31.88    -0.020 A 
ATOM     10  CD2 TYR A 136      36.485  39.144   9.691  1.00 32.67    -0.002 A 
ATOM     11  CE2 TYR A 136      36.331  40.505   9.989  1.00 33.89     0.027 A 
ATOM     12  CZ  TYR A 136      36.892  41.028  11.156  1.00 34.34     0.131 A 
ATOM     13  OH  TYR A 136      36.747  42.371  11.474  1.00 35.14    -0.190 OA
ATOM     14  CE1 TYR A 136      37.601  40.206  12.021  1.00 35.01     0.027 A 
ATOM     15  CD1 TYR A 136      37.752  38.853  11.711  1.00 33.57    -0.002 A 
ENDBRANCH   8   9
ENDBRANCH   7   8
END_RES TYR A 136
BEGIN_RES ASN A 133
REMARK  2 active torsions:
REMARK  status: ('A' for Active; 'I' for Inactive)
REMARK    7  A    between atoms: CA   and  CB  
REMARK    8  A    between atoms: CB   and  CG  
ROOT
ATOM     16  CA  ASN A 133      31.225  30.257  11.749  1.00 18.15     0.196 C 
ENDROOT
BRANCH  16  17
ATOM     17  CB  ASN A 133      30.092  31.240  11.460  1.00 18.27     0.126 C 
BRANCH  17  18
ATOM     18  CG  ASN A 133      28.756  30.578  11.317  1.00 18.94     0.276 C 
ATOM     19  OD1 ASN A 133      28.600  29.610  10.571  1.00 18.09    -0.269 OA
ATOM     20  ND2 ASN A 133      27.767  31.102  12.039  1.00 18.93    -0.107 N 
ENDBRANCH  17  18
ENDBRANCH  16  17
END_RES ASN A 133
