REMARK VINA RESULT:    -5.919      0.000      0.000
REMARK INTER + INTRA:         -11.796
REMARK INTER:                  -8.031
REMARK INTRA:                  -3.765
REMARK UNBOUND:                -3.628
REMARK SMILES Cc1cn(C[C@@H](C(=O)O)C(c2ccccc2)c2ccccc2)nn1
REMARK SMILES IDX 6 1 5 2 4 3 1 4 2 5 3 6 24 7 23 8 7 9 8 10 9 11 10 13 11 14
REMARK SMILES IDX 12 15 16 16 13 17 15 18 14 19 17 20 18 21 22 22 19 23 21 24
REMARK SMILES IDX 20 25
REMARK H PARENT 9 12
REMARK Flexibility Score: inf
ROOT
ATOM      1  C   UNL     1      32.143  36.107  13.546  1.00  0.00     0.132 C 
ENDROOT
BRANCH   1   2
ATOM      2  C   UNL     1      30.694  36.255  13.875  1.00  0.00     0.162 C 
BRANCH   2   3
ATOM      3  N   UNL     1      29.863  35.526  12.946  1.00  0.00    -0.251 N 
ATOM      4  C   UNL     1      26.837  34.976  10.973  1.00  0.00     0.070 C 
ATOM      5  C   UNL     1      28.145  35.025  11.693  1.00  0.00     0.080 A 
ATOM      6  C   UNL     1      28.618  35.936  12.579  1.00  0.00     0.134 A 
ATOM      7  N   UNL     1      29.100  34.088  11.538  1.00  0.00    -0.136 NA
ATOM      8  N   UNL     1      30.117  34.405  12.293  1.00  0.00    -0.067 NA
ENDBRANCH   2   3
ENDBRANCH   1   2
BRANCH   1   9
ATOM      9  C   UNL     1      32.699  37.348  13.007  1.00  0.00     0.309 C 
ATOM     10  O   UNL     1      32.713  38.379  13.737  1.00  0.00    -0.252 OA
BRANCH   9  11
ATOM     11  O   UNL     1      33.218  37.421  11.705  1.00  0.00    -0.481 OA
ATOM     12  H   UNL     1      32.538  37.561  10.944  1.00  0.00     0.296 HD
ENDBRANCH   9  11
ENDBRANCH   1   9
BRANCH   1  13
ATOM     13  C   UNL     1      32.910  35.762  14.821  1.00  0.00     0.065 C 
BRANCH  13  14
ATOM     14  C   UNL     1      32.259  34.666  15.589  1.00  0.00    -0.040 A 
ATOM     15  C   UNL     1      31.931  33.440  15.060  1.00  0.00     0.004 A 
ATOM     16  C   UNL     1      31.974  34.923  16.927  1.00  0.00     0.004 A 
ATOM     17  C   UNL     1      31.326  32.490  15.867  1.00  0.00     0.000 A 
ATOM     18  C   UNL     1      31.368  33.953  17.709  1.00  0.00     0.000 A 
ATOM     19  C   UNL     1      31.043  32.738  17.183  1.00  0.00     0.000 A 
ENDBRANCH  13  14
BRANCH  13  20
ATOM     20  C   UNL     1      34.307  35.403  14.476  1.00  0.00    -0.040 A 
ATOM     21  C   UNL     1      35.354  35.811  15.277  1.00  0.00     0.004 A 
ATOM     22  C   UNL     1      34.604  34.646  13.365  1.00  0.00     0.004 A 
ATOM     23  C   UNL     1      36.671  35.509  15.030  1.00  0.00     0.000 A 
ATOM     24  C   UNL     1      35.926  34.324  13.089  1.00  0.00     0.000 A 
ATOM     25  C   UNL     1      36.931  34.745  13.900  1.00  0.00     0.000 A 
ENDBRANCH  13  20
ENDBRANCH   1  13
TORSDOF 7
BEGIN_RES LYS A 135
REMARK  4 active torsions:
REMARK  status: ('A' for Active; 'I' for Inactive)
REMARK    1  A    between atoms: CA   and  CB  
REMARK    2  A    between atoms: CB   and  CG  
REMARK    3  A    between atoms: CG   and  CD  
REMARK    4  A    between atoms: CD   and  CE  
ROOT
ATOM      1  CA  LYS A 135      33.193  34.663   9.290  1.00 25.02     0.186 C 
ENDROOT
BRANCH   1   2
ATOM      2  CB  LYS A 135      32.060  35.360  10.034  1.00 26.63     0.034 C 
BRANCH   2   3
ATOM      3  CG  LYS A 135      30.930  35.797   9.138  1.00 29.45     0.005 C 
BRANCH   3   4
ATOM      4  CD  LYS A 135      30.453  34.640   8.273  1.00 32.00     0.041 C 
BRANCH   4   5
ATOM      5  CE  LYS A 135      28.986  34.805   7.925  1.00 34.25     0.338 C 
ATOM      6  NZ  LYS A 135      28.818  35.556   6.650  1.00 35.99     0.618 N 
ENDBRANCH   4   5
ENDBRANCH   3   4
ENDBRANCH   2   3
ENDBRANCH   1   2
END_RES LYS A 135
BEGIN_RES TYR A 136
REMARK  2 active torsions:
REMARK  status: ('A' for Active; 'I' for Inactive)
REMARK    5  A    between atoms: CA   and  CB  
REMARK    6  A    between atoms: CB   and  CG  
ROOT
ATOM      7  CA  TYR A 136      36.583  36.399   8.994  1.00 26.14     0.191 C 
ENDROOT
BRANCH   7   8
ATOM      8  CB  TYR A 136      37.367  36.835  10.240  1.00 28.16     0.060 C 
BRANCH   8   9
ATOM      9  CG  TYR A 136      36.708  37.980  10.969  1.00 31.88    -0.020 A 
ATOM     10  CD2 TYR A 136      36.106  39.030  10.272  1.00 32.67    -0.002 A 
ATOM     11  CE2 TYR A 136      35.499  40.091  10.958  1.00 33.89     0.027 A 
ATOM     12  CZ  TYR A 136      35.493  40.100  12.355  1.00 34.34     0.131 A 
ATOM     13  OH  TYR A 136      34.891  41.136  13.055  1.00 35.14    -0.190 OA
ATOM     14  CE1 TYR A 136      36.088  39.066  13.063  1.00 35.01     0.027 A 
ATOM     15  CD1 TYR A 136      36.695  38.019  12.369  1.00 33.57    -0.002 A 
ENDBRANCH   8   9
ENDBRANCH   7   8
END_RES TYR A 136
BEGIN_RES ASN A 133
REMARK  2 active torsions:
REMARK  status: ('A' for Active; 'I' for Inactive)
REMARK    7  A    between atoms: CA   and  CB  
REMARK    8  A    between atoms: CB   and  CG  
ROOT
ATOM     16  CA  ASN A 133      31.225  30.257  11.749  1.00 18.15     0.196 C 
ENDROOT
BRANCH  16  17
ATOM     17  CB  ASN A 133      30.092  31.240  11.460  1.00 18.27     0.126 C 
BRANCH  17  18
ATOM     18  CG  ASN A 133      28.752  30.582  11.347  1.00 18.94     0.276 C 
ATOM     19  OD1 ASN A 133      28.575  29.617  10.600  1.00 18.09    -0.269 OA
ATOM     20  ND2 ASN A 133      27.781  31.104  12.096  1.00 18.93    -0.107 N 
ENDBRANCH  17  18
ENDBRANCH  16  17
END_RES ASN A 133
