REMARK VINA RESULT:    -4.489      2.591      4.152
REMARK INTER + INTRA:          -7.805
REMARK INTER:                  -4.778
REMARK INTRA:                  -3.027
REMARK UNBOUND:                -2.529
REMARK SMILES Cc1cn(Cc2cccc(C#N)c2)nn1
REMARK SMILES IDX 6 1 7 2 8 3 9 4 10 5 13 6 5 7 4 8 1 9 2 10 3 11 15 12 14 13
REMARK SMILES IDX 11 14 12 15
REMARK H PARENT
REMARK Flexibility Score: inf
ROOT
ATOM      1  C   UNL     1      33.757  37.258  13.128  1.00  0.00    -0.025 A 
ATOM      2  C   UNL     1      33.824  38.277  14.045  1.00  0.00     0.006 A 
ATOM      3  C   UNL     1      33.689  39.609  13.703  1.00  0.00     0.002 A 
ATOM      4  C   UNL     1      33.479  39.917  12.375  1.00  0.00     0.019 A 
ATOM      5  C   UNL     1      33.406  38.927  11.417  1.00  0.00     0.052 A 
ATOM      6  C   UNL     1      33.546  37.594  11.806  1.00  0.00     0.025 A 
ENDROOT
BRANCH   1   7
ATOM      7  C   UNL     1      33.900  35.835  13.490  1.00  0.00     0.181 C 
BRANCH   7   8
ATOM      8  N   UNL     1      35.250  35.370  13.457  1.00  0.00    -0.248 N 
ATOM      9  C   UNL     1      37.779  32.877  12.636  1.00  0.00     0.070 C 
ATOM     10  C   UNL     1      36.970  34.058  13.078  1.00  0.00     0.080 A 
ATOM     11  C   UNL     1      35.617  34.180  12.949  1.00  0.00     0.134 A 
ATOM     12  N   UNL     1      37.412  35.185  13.667  1.00  0.00    -0.136 NA
ATOM     13  N   UNL     1      36.366  35.957  13.886  1.00  0.00    -0.067 NA
ENDBRANCH   7   8
ENDBRANCH   1   7
BRANCH   5  14
ATOM     14  C   UNL     1      33.185  39.318  10.055  1.00  0.00     0.099 C 
ATOM     15  N   UNL     1      33.007  39.651   8.964  1.00  0.00    -0.192 NA
ENDBRANCH   5  14
TORSDOF 3
BEGIN_RES LYS A 135
REMARK  4 active torsions:
REMARK  status: ('A' for Active; 'I' for Inactive)
REMARK    1  A    between atoms: CA   and  CB  
REMARK    2  A    between atoms: CB   and  CG  
REMARK    3  A    between atoms: CG   and  CD  
REMARK    4  A    between atoms: CD   and  CE  
ROOT
ATOM      1  CA  LYS A 135      33.193  34.663   9.290  1.00 25.02     0.186 C 
ENDROOT
BRANCH   1   2
ATOM      2  CB  LYS A 135      32.060  35.360  10.034  1.00 26.63     0.034 C 
BRANCH   2   3
ATOM      3  CG  LYS A 135      30.777  35.432   9.247  1.00 29.45     0.005 C 
BRANCH   3   4
ATOM      4  CD  LYS A 135      30.234  34.037   8.978  1.00 32.00     0.041 C 
BRANCH   4   5
ATOM      5  CE  LYS A 135      28.721  34.024   9.085  1.00 34.25     0.338 C 
ATOM      6  NZ  LYS A 135      28.248  35.000  10.106  1.00 35.99     0.618 N 
ENDBRANCH   4   5
ENDBRANCH   3   4
ENDBRANCH   2   3
ENDBRANCH   1   2
END_RES LYS A 135
BEGIN_RES TYR A 136
REMARK  2 active torsions:
REMARK  status: ('A' for Active; 'I' for Inactive)
REMARK    5  A    between atoms: CA   and  CB  
REMARK    6  A    between atoms: CB   and  CG  
ROOT
ATOM      7  CA  TYR A 136      36.583  36.399   8.994  1.00 26.14     0.191 C 
ENDROOT
BRANCH   7   8
ATOM      8  CB  TYR A 136      37.367  36.835  10.240  1.00 28.16     0.060 C 
BRANCH   8   9
ATOM      9  CG  TYR A 136      37.162  38.292  10.574  1.00 31.88    -0.020 A 
ATOM     10  CD2 TYR A 136      36.807  39.217   9.590  1.00 32.67    -0.002 A 
ATOM     11  CE2 TYR A 136      36.620  40.568   9.910  1.00 33.89     0.027 A 
ATOM     12  CZ  TYR A 136      36.791  40.999  11.228  1.00 34.34     0.131 A 
ATOM     13  OH  TYR A 136      36.604  42.331  11.570  1.00 35.14    -0.190 OA
ATOM     14  CE1 TYR A 136      37.144  40.094  12.219  1.00 35.01     0.027 A 
ATOM     15  CD1 TYR A 136      37.333  38.751  11.886  1.00 33.57    -0.002 A 
ENDBRANCH   8   9
ENDBRANCH   7   8
END_RES TYR A 136
BEGIN_RES ASN A 133
REMARK  2 active torsions:
REMARK  status: ('A' for Active; 'I' for Inactive)
REMARK    7  A    between atoms: CA   and  CB  
REMARK    8  A    between atoms: CB   and  CG  
ROOT
ATOM     16  CA  ASN A 133      31.225  30.257  11.749  1.00 18.15     0.196 C 
ENDROOT
BRANCH  16  17
ATOM     17  CB  ASN A 133      30.092  31.240  11.460  1.00 18.27     0.126 C 
BRANCH  17  18
ATOM     18  CG  ASN A 133      28.751  30.582  11.353  1.00 18.94     0.276 C 
ATOM     19  OD1 ASN A 133      28.574  29.609  10.618  1.00 18.09    -0.269 OA
ATOM     20  ND2 ASN A 133      27.780  31.116  12.093  1.00 18.93    -0.107 N 
ENDBRANCH  17  18
ENDBRANCH  16  17
END_RES ASN A 133
