REMARK VINA RESULT:    -5.413      2.734      3.933
REMARK INTER + INTRA:          -6.973
REMARK INTER:                  -4.119
REMARK INTRA:                  -2.854
REMARK UNBOUND:                -1.243
REMARK SMILES Cc1cn(-c2ccccc2Br)nn1
REMARK SMILES IDX 5 1 6 2 7 3 8 4 9 5 10 6 11 7 4 8 1 9 2 10 3 11 13 12 12 13
REMARK H PARENT
REMARK Flexibility Score: inf
ROOT
ATOM      1  C   UNL     1      31.444  35.883  12.933  1.00  0.00     0.081 A 
ATOM      2  C   UNL     1      32.779  35.936  12.595  1.00  0.00     0.029 A 
ATOM      3  C   UNL     1      33.294  37.078  12.017  1.00  0.00     0.002 A 
ATOM      4  C   UNL     1      32.472  38.161  11.780  1.00  0.00     0.001 A 
ATOM      5  C   UNL     1      31.144  38.086  12.125  1.00  0.00     0.018 A 
ATOM      6  C   UNL     1      30.595  36.958  12.706  1.00  0.00     0.043 A 
ATOM      7  Br  UNL     1      28.744  36.881  13.175  1.00  0.00    -0.048 Br
ENDROOT
BRANCH   1   8
ATOM      8  N   UNL     1      30.951  34.698  13.522  1.00  0.00    -0.219 N 
ATOM      9  C   UNL     1      30.919  32.310  16.270  1.00  0.00     0.070 C 
ATOM     10  C   UNL     1      30.721  33.094  15.028  1.00  0.00     0.080 A 
ATOM     11  C   UNL     1      31.375  34.249  14.737  1.00  0.00     0.140 A 
ATOM     12  N   UNL     1      29.906  32.843  13.994  1.00  0.00    -0.135 NA
ATOM     13  N   UNL     1      30.067  33.824  13.104  1.00  0.00    -0.062 NA
ENDBRANCH   1   8
TORSDOF 1
BEGIN_RES LYS A 135
REMARK  4 active torsions:
REMARK  status: ('A' for Active; 'I' for Inactive)
REMARK    1  A    between atoms: CA   and  CB  
REMARK    2  A    between atoms: CB   and  CG  
REMARK    3  A    between atoms: CG   and  CD  
REMARK    4  A    between atoms: CD   and  CE  
ROOT
ATOM      1  CA  LYS A 135      33.193  34.663   9.290  1.00 25.02     0.186 C 
ENDROOT
BRANCH   1   2
ATOM      2  CB  LYS A 135      32.060  35.360  10.034  1.00 26.63     0.034 C 
BRANCH   2   3
ATOM      3  CG  LYS A 135      30.793  35.478   9.227  1.00 29.45     0.005 C 
BRANCH   3   4
ATOM      4  CD  LYS A 135      29.962  34.210   9.344  1.00 32.00     0.041 C 
BRANCH   4   5
ATOM      5  CE  LYS A 135      28.611  34.395   8.679  1.00 34.25     0.338 C 
ATOM      6  NZ  LYS A 135      27.524  33.788   9.496  1.00 35.99     0.618 N 
ENDBRANCH   4   5
ENDBRANCH   3   4
ENDBRANCH   2   3
ENDBRANCH   1   2
END_RES LYS A 135
BEGIN_RES TYR A 136
REMARK  2 active torsions:
REMARK  status: ('A' for Active; 'I' for Inactive)
REMARK    5  A    between atoms: CA   and  CB  
REMARK    6  A    between atoms: CB   and  CG  
ROOT
ATOM      7  CA  TYR A 136      36.583  36.399   8.994  1.00 26.14     0.191 C 
ENDROOT
BRANCH   7   8
ATOM      8  CB  TYR A 136      37.367  36.835  10.240  1.00 28.16     0.060 C 
BRANCH   8   9
ATOM      9  CG  TYR A 136      36.752  38.032  10.923  1.00 31.88    -0.020 A 
ATOM     10  CD2 TYR A 136      36.088  39.020  10.192  1.00 32.67    -0.002 A 
ATOM     11  CE2 TYR A 136      35.522  40.129  10.835  1.00 33.89     0.027 A 
ATOM     12  CZ  TYR A 136      35.622  40.251  12.223  1.00 34.34     0.131 A 
ATOM     13  OH  TYR A 136      35.064  41.337  12.882  1.00 35.14    -0.190 OA
ATOM     14  CE1 TYR A 136      36.280  39.280  12.965  1.00 35.01     0.027 A 
ATOM     15  CD1 TYR A 136      36.845  38.183  12.312  1.00 33.57    -0.002 A 
ENDBRANCH   8   9
ENDBRANCH   7   8
END_RES TYR A 136
BEGIN_RES ASN A 133
REMARK  2 active torsions:
REMARK  status: ('A' for Active; 'I' for Inactive)
REMARK    7  A    between atoms: CA   and  CB  
REMARK    8  A    between atoms: CB   and  CG  
ROOT
ATOM     16  CA  ASN A 133      31.225  30.257  11.749  1.00 18.15     0.196 C 
ENDROOT
BRANCH  16  17
ATOM     17  CB  ASN A 133      30.092  31.240  11.460  1.00 18.27     0.126 C 
BRANCH  17  18
ATOM     18  CG  ASN A 133      28.765  30.573  11.267  1.00 18.94     0.276 C 
ATOM     19  OD1 ASN A 133      28.652  29.567  10.565  1.00 18.09    -0.269 OA
ATOM     20  ND2 ASN A 133      27.734  31.136  11.896  1.00 18.93    -0.107 N 
ENDBRANCH  17  18
ENDBRANCH  16  17
END_RES ASN A 133
