REMARK VINA RESULT:    -4.325      3.484      4.633
REMARK INTER + INTRA:          -7.805
REMARK INTER:                  -4.738
REMARK INTRA:                  -3.066
REMARK UNBOUND:                -2.722
REMARK SMILES Cc1cn(Cc2ccc(C#N)cc2)nn1
REMARK SMILES IDX 6 1 7 2 8 3 9 4 12 5 13 6 5 7 4 8 1 9 2 10 3 11 15 12 14 13
REMARK SMILES IDX 10 14 11 15
REMARK H PARENT
REMARK Flexibility Score: inf
ROOT
ATOM      1  C   UNL     1      38.431  34.588  17.563  1.00  0.00    -0.026 A 
ATOM      2  C   UNL     1      37.615  35.103  18.549  1.00  0.00     0.007 A 
ATOM      3  C   UNL     1      37.311  34.371  19.679  1.00  0.00     0.020 A 
ATOM      4  C   UNL     1      37.805  33.092  19.878  1.00  0.00     0.052 A 
ATOM      5  C   UNL     1      38.620  32.587  18.885  1.00  0.00     0.020 A 
ATOM      6  C   UNL     1      38.927  33.317  17.753  1.00  0.00     0.007 A 
ENDROOT
BRANCH   1   7
ATOM      7  C   UNL     1      38.764  35.380  16.337  1.00  0.00     0.181 C 
BRANCH   7   8
ATOM      8  N   UNL     1      37.929  34.953  15.211  1.00  0.00    -0.248 N 
ATOM      9  C   UNL     1      37.082  33.168  12.105  1.00  0.00     0.070 C 
ATOM     10  C   UNL     1      37.165  33.996  13.357  1.00  0.00     0.080 A 
ATOM     11  C   UNL     1      38.251  34.123  14.201  1.00  0.00     0.134 A 
ATOM     12  N   UNL     1      36.203  34.767  13.894  1.00  0.00    -0.136 NA
ATOM     13  N   UNL     1      36.688  35.324  14.996  1.00  0.00    -0.067 NA
ENDBRANCH   7   8
ENDBRANCH   1   7
BRANCH   4  14
ATOM     14  C   UNL     1      37.481  32.339  21.057  1.00  0.00     0.099 C 
ATOM     15  N   UNL     1      37.219  31.717  21.998  1.00  0.00    -0.192 NA
ENDBRANCH   4  14
TORSDOF 3
BEGIN_RES LYS A 135
REMARK  4 active torsions:
REMARK  status: ('A' for Active; 'I' for Inactive)
REMARK    1  A    between atoms: CA   and  CB  
REMARK    2  A    between atoms: CB   and  CG  
REMARK    3  A    between atoms: CG   and  CD  
REMARK    4  A    between atoms: CD   and  CE  
ROOT
ATOM      1  CA  LYS A 135      33.193  34.663   9.290  1.00 25.02     0.186 C 
ENDROOT
BRANCH   1   2
ATOM      2  CB  LYS A 135      32.060  35.360  10.034  1.00 26.63     0.034 C 
BRANCH   2   3
ATOM      3  CG  LYS A 135      30.818  35.548   9.201  1.00 29.45     0.005 C 
BRANCH   3   4
ATOM      4  CD  LYS A 135      30.174  34.206   8.888  1.00 32.00     0.041 C 
BRANCH   4   5
ATOM      5  CE  LYS A 135      28.720  34.391   8.499  1.00 34.25     0.338 C 
ATOM      6  NZ  LYS A 135      28.022  35.301   9.448  1.00 35.99     0.618 N 
ENDBRANCH   4   5
ENDBRANCH   3   4
ENDBRANCH   2   3
ENDBRANCH   1   2
END_RES LYS A 135
BEGIN_RES TYR A 136
REMARK  2 active torsions:
REMARK  status: ('A' for Active; 'I' for Inactive)
REMARK    5  A    between atoms: CA   and  CB  
REMARK    6  A    between atoms: CB   and  CG  
ROOT
ATOM      7  CA  TYR A 136      36.583  36.399   8.994  1.00 26.14     0.191 C 
ENDROOT
BRANCH   7   8
ATOM      8  CB  TYR A 136      37.367  36.835  10.240  1.00 28.16     0.060 C 
BRANCH   8   9
ATOM      9  CG  TYR A 136      37.180  38.298  10.561  1.00 31.88    -0.020 A 
ATOM     10  CD2 TYR A 136      36.481  39.144   9.697  1.00 32.67    -0.002 A 
ATOM     11  CE2 TYR A 136      36.315  40.501  10.003  1.00 33.89     0.027 A 
ATOM     12  CZ  TYR A 136      36.853  41.017  11.185  1.00 34.34     0.131 A 
ATOM     13  OH  TYR A 136      36.694  42.356  11.512  1.00 35.14    -0.190 OA
ATOM     14  CE1 TYR A 136      37.551  40.191  12.054  1.00 35.01     0.027 A 
ATOM     15  CD1 TYR A 136      37.716  38.842  11.735  1.00 33.57    -0.002 A 
ENDBRANCH   8   9
ENDBRANCH   7   8
END_RES TYR A 136
BEGIN_RES ASN A 133
REMARK  2 active torsions:
REMARK  status: ('A' for Active; 'I' for Inactive)
REMARK    7  A    between atoms: CA   and  CB  
REMARK    8  A    between atoms: CB   and  CG  
ROOT
ATOM     16  CA  ASN A 133      31.225  30.257  11.749  1.00 18.15     0.196 C 
ENDROOT
BRANCH  16  17
ATOM     17  CB  ASN A 133      30.092  31.240  11.460  1.00 18.27     0.126 C 
BRANCH  17  18
ATOM     18  CG  ASN A 133      28.751  30.582  11.353  1.00 18.94     0.276 C 
ATOM     19  OD1 ASN A 133      28.576  29.605  10.622  1.00 18.09    -0.269 OA
ATOM     20  ND2 ASN A 133      27.778  31.120  12.087  1.00 18.93    -0.107 N 
ENDBRANCH  17  18
ENDBRANCH  16  17
END_RES ASN A 133
