REMARK VINA RESULT:    -4.713      3.073      4.027
REMARK INTER + INTRA:          -7.853
REMARK INTER:                  -4.754
REMARK INTRA:                  -3.099
REMARK UNBOUND:                -2.865
REMARK SMILES Cc1ccc(-n2cc(C)nn2)cc1
REMARK SMILES IDX 5 1 4 2 3 3 2 4 1 5 13 6 12 7 6 8 9 9 8 10 7 11 10 12 11 13
REMARK H PARENT
REMARK Flexibility Score: inf
ROOT
ATOM      1  C   UNL     1      35.258  36.204  13.737  1.00  0.00     0.066 A 
ATOM      2  C   UNL     1      34.351  36.179  12.709  1.00  0.00     0.029 A 
ATOM      3  C   UNL     1      33.372  37.149  12.631  1.00  0.00     0.005 A 
ATOM      4  C   UNL     1      33.257  38.167  13.556  1.00  0.00    -0.051 A 
ATOM      5  C   UNL     1      32.195  39.202  13.453  1.00  0.00     0.044 C 
ATOM      6  C   UNL     1      34.184  38.170  14.584  1.00  0.00     0.005 A 
ATOM      7  C   UNL     1      35.173  37.208  14.680  1.00  0.00     0.029 A 
ENDROOT
BRANCH   1   8
ATOM      8  N   UNL     1      36.263  35.229  13.837  1.00  0.00    -0.220 N 
ATOM      9  C   UNL     1      38.201  32.434  12.546  1.00  0.00     0.070 C 
ATOM     10  C   UNL     1      37.599  33.547  13.342  1.00  0.00     0.080 A 
ATOM     11  C   UNL     1      36.565  34.329  12.883  1.00  0.00     0.140 A 
ATOM     12  N   UNL     1      37.898  33.988  14.557  1.00  0.00    -0.135 NA
ATOM     13  N   UNL     1      37.098  34.994  14.851  1.00  0.00    -0.062 NA
ENDBRANCH   1   8
TORSDOF 1
BEGIN_RES LYS A 135
REMARK  4 active torsions:
REMARK  status: ('A' for Active; 'I' for Inactive)
REMARK    1  A    between atoms: CA   and  CB  
REMARK    2  A    between atoms: CB   and  CG  
REMARK    3  A    between atoms: CG   and  CD  
REMARK    4  A    between atoms: CD   and  CE  
ROOT
ATOM      1  CA  LYS A 135      33.193  34.663   9.290  1.00 25.02     0.186 C 
ENDROOT
BRANCH   1   2
ATOM      2  CB  LYS A 135      32.060  35.360  10.034  1.00 26.63     0.034 C 
BRANCH   2   3
ATOM      3  CG  LYS A 135      30.814  35.537   9.205  1.00 29.45     0.005 C 
BRANCH   3   4
ATOM      4  CD  LYS A 135      30.174  34.191   8.903  1.00 32.00     0.041 C 
BRANCH   4   5
ATOM      5  CE  LYS A 135      28.700  34.361   8.589  1.00 34.25     0.338 C 
ATOM      6  NZ  LYS A 135      27.853  33.692   9.615  1.00 35.99     0.618 N 
ENDBRANCH   4   5
ENDBRANCH   3   4
ENDBRANCH   2   3
ENDBRANCH   1   2
END_RES LYS A 135
BEGIN_RES TYR A 136
REMARK  2 active torsions:
REMARK  status: ('A' for Active; 'I' for Inactive)
REMARK    5  A    between atoms: CA   and  CB  
REMARK    6  A    between atoms: CB   and  CG  
ROOT
ATOM      7  CA  TYR A 136      36.583  36.399   8.994  1.00 26.14     0.191 C 
ENDROOT
BRANCH   7   8
ATOM      8  CB  TYR A 136      37.367  36.835  10.240  1.00 28.16     0.060 C 
BRANCH   8   9
ATOM      9  CG  TYR A 136      36.817  38.096  10.859  1.00 31.88    -0.020 A 
ATOM     10  CD2 TYR A 136      35.741  38.775  10.284  1.00 32.67    -0.002 A 
ATOM     11  CE2 TYR A 136      35.239  39.947  10.866  1.00 33.89     0.027 A 
ATOM     12  CZ  TYR A 136      35.820  40.445  12.035  1.00 34.34     0.131 A 
ATOM     13  OH  TYR A 136      35.335  41.600  12.633  1.00 35.14    -0.190 OA
ATOM     14  CE1 TYR A 136      36.891  39.784  12.619  1.00 35.01     0.027 A 
ATOM     15  CD1 TYR A 136      37.386  38.621  12.027  1.00 33.57    -0.002 A 
ENDBRANCH   8   9
ENDBRANCH   7   8
END_RES TYR A 136
BEGIN_RES ASN A 133
REMARK  2 active torsions:
REMARK  status: ('A' for Active; 'I' for Inactive)
REMARK    7  A    between atoms: CA   and  CB  
REMARK    8  A    between atoms: CB   and  CG  
ROOT
ATOM     16  CA  ASN A 133      31.225  30.257  11.749  1.00 18.15     0.196 C 
ENDROOT
BRANCH  16  17
ATOM     17  CB  ASN A 133      30.092  31.240  11.460  1.00 18.27     0.126 C 
BRANCH  17  18
ATOM     18  CG  ASN A 133      28.750  30.583  11.357  1.00 18.94     0.276 C 
ATOM     19  OD1 ASN A 133      28.569  29.616  10.615  1.00 18.09    -0.269 OA
ATOM     20  ND2 ASN A 133      27.785  31.109  12.109  1.00 18.93    -0.107 N 
ENDBRANCH  17  18
ENDBRANCH  16  17
END_RES ASN A 133
