REMARK VINA RESULT:    -3.601      7.967     13.683
REMARK INTER + INTRA:          -7.495
REMARK INTER:                  -4.184
REMARK INTRA:                  -3.312
REMARK UNBOUND:                -3.263
REMARK SMILES Cc1cn(CCN2CCCC2)nn1
REMARK SMILES IDX 5 1 4 2 1 3 2 4 3 5 13 6 12 7 6 8 7 9 8 10 11 11 9 12 10 13
REMARK H PARENT
REMARK Flexibility Score: inf
ROOT
ATOM      1  C   UNL     1      34.678  34.614  13.549  1.00  0.00     0.161 C 
ENDROOT
BRANCH   1   2
ATOM      2  N   UNL     1      33.937  35.706  12.951  1.00  0.00    -0.251 N 
ATOM      3  C   UNL     1      33.769  39.078  11.568  1.00  0.00     0.070 C 
ATOM      4  C   UNL     1      33.519  37.707  12.060  1.00  0.00     0.080 A 
ATOM      5  C   UNL     1      34.495  36.897  12.600  1.00  0.00     0.134 A 
ATOM      6  N   UNL     1      32.398  36.971  12.105  1.00  0.00    -0.136 NA
ATOM      7  N   UNL     1      32.666  35.788  12.636  1.00  0.00    -0.067 NA
ENDBRANCH   1   2
BRANCH   1   8
ATOM      8  C   UNL     1      36.032  35.063  14.045  1.00  0.00     0.108 C 
BRANCH   8   9
ATOM      9  N   UNL     1      37.072  34.126  13.773  1.00  0.00    -0.301 NA
ATOM     10  C   UNL     1      38.368  34.485  14.249  1.00  0.00     0.084 C 
ATOM     11  C   UNL     1      37.255  34.090  12.321  1.00  0.00     0.084 C 
ATOM     12  C   UNL     1      38.777  35.609  13.355  1.00  0.00     0.017 C 
ATOM     13  C   UNL     1      38.298  35.113  12.002  1.00  0.00     0.017 C 
ENDBRANCH   8   9
ENDBRANCH   1   8
TORSDOF 3
BEGIN_RES LYS A 135
REMARK  4 active torsions:
REMARK  status: ('A' for Active; 'I' for Inactive)
REMARK    1  A    between atoms: CA   and  CB  
REMARK    2  A    between atoms: CB   and  CG  
REMARK    3  A    between atoms: CG   and  CD  
REMARK    4  A    between atoms: CD   and  CE  
ROOT
ATOM      1  CA  LYS A 135      33.193  34.663   9.290  1.00 25.02     0.186 C 
ENDROOT
BRANCH   1   2
ATOM      2  CB  LYS A 135      32.060  35.360  10.034  1.00 26.63     0.034 C 
BRANCH   2   3
ATOM      3  CG  LYS A 135      30.705  34.756   9.771  1.00 29.45     0.005 C 
BRANCH   3   4
ATOM      4  CD  LYS A 135      30.478  34.577   8.278  1.00 32.00     0.041 C 
BRANCH   4   5
ATOM      5  CE  LYS A 135      29.025  34.832   7.925  1.00 34.25     0.338 C 
ATOM      6  NZ  LYS A 135      28.113  34.184   8.908  1.00 35.99     0.618 N 
ENDBRANCH   4   5
ENDBRANCH   3   4
ENDBRANCH   2   3
ENDBRANCH   1   2
END_RES LYS A 135
BEGIN_RES TYR A 136
REMARK  2 active torsions:
REMARK  status: ('A' for Active; 'I' for Inactive)
REMARK    5  A    between atoms: CA   and  CB  
REMARK    6  A    between atoms: CB   and  CG  
ROOT
ATOM      7  CA  TYR A 136      36.583  36.399   8.994  1.00 26.14     0.191 C 
ENDROOT
BRANCH   7   8
ATOM      8  CB  TYR A 136      37.367  36.835  10.240  1.00 28.16     0.060 C 
BRANCH   8   9
ATOM      9  CG  TYR A 136      37.266  38.318  10.500  1.00 31.88    -0.020 A 
ATOM     10  CD2 TYR A 136      36.888  39.205   9.489  1.00 32.67    -0.002 A 
ATOM     11  CE2 TYR A 136      36.799  40.581   9.740  1.00 33.89     0.027 A 
ATOM     12  CZ  TYR A 136      37.091  41.074  11.014  1.00 34.34     0.131 A 
ATOM     13  OH  TYR A 136      37.002  42.432  11.287  1.00 35.14    -0.190 OA
ATOM     14  CE1 TYR A 136      37.469  40.207  12.030  1.00 35.01     0.027 A 
ATOM     15  CD1 TYR A 136      37.560  38.840  11.766  1.00 33.57    -0.002 A 
ENDBRANCH   8   9
ENDBRANCH   7   8
END_RES TYR A 136
BEGIN_RES ASN A 133
REMARK  2 active torsions:
REMARK  status: ('A' for Active; 'I' for Inactive)
REMARK    7  A    between atoms: CA   and  CB  
REMARK    8  A    between atoms: CB   and  CG  
ROOT
ATOM     16  CA  ASN A 133      31.225  30.257  11.749  1.00 18.15     0.196 C 
ENDROOT
BRANCH  16  17
ATOM     17  CB  ASN A 133      30.092  31.240  11.460  1.00 18.27     0.126 C 
BRANCH  17  18
ATOM     18  CG  ASN A 133      28.755  30.580  11.329  1.00 18.94     0.276 C 
ATOM     19  OD1 ASN A 133      28.602  29.582  10.622  1.00 18.09    -0.269 OA
ATOM     20  ND2 ASN A 133      27.759  31.137  12.018  1.00 18.93    -0.107 N 
ENDBRANCH  17  18
ENDBRANCH  16  17
END_RES ASN A 133
