REMARK VINA RESULT:    -3.883      4.509      8.961
REMARK INTER + INTRA:          -8.294
REMARK INTER:                  -5.728
REMARK INTRA:                  -2.566
REMARK UNBOUND:                -3.502
REMARK SMILES CCOC(=O)c1cccc(-n2cc(C)nn2)c1
REMARK SMILES IDX 4 1 5 2 6 3 10 4 17 5 9 6 8 7 7 8 11 9 14 10 13 11 12 12
REMARK SMILES IDX 15 13 16 14 3 15 2 16 1 17
REMARK H PARENT
REMARK Flexibility Score: inf
ROOT
ATOM      1  C   UNL     1      24.577  36.175  10.118  1.00  0.00     0.338 C 
ATOM      2  O   UNL     1      24.811  35.986  11.339  1.00  0.00    -0.246 OA
ENDROOT
BRANCH   1   3
ATOM      3  C   UNL     1      25.590  36.021   9.087  1.00  0.00     0.062 A 
ATOM      4  C   UNL     1      26.823  36.885   7.198  1.00  0.00     0.067 A 
ATOM      5  C   UNL     1      25.864  37.028   8.176  1.00  0.00     0.044 A 
ATOM      6  C   UNL     1      27.515  35.700   7.143  1.00  0.00     0.028 A 
ATOM      7  C   UNL     1      27.284  34.654   8.029  1.00  0.00     0.003 A 
ATOM      8  C   UNL     1      26.313  34.852   8.989  1.00  0.00     0.016 A 
BRANCH   4   9
ATOM      9  N   UNL     1      27.107  37.914   6.262  1.00  0.00    -0.220 N 
ATOM     10  C   UNL     1      27.039  41.360   4.962  1.00  0.00     0.070 C 
ATOM     11  C   UNL     1      27.220  39.909   5.234  1.00  0.00     0.080 A 
ATOM     12  C   UNL     1      26.763  39.222   6.339  1.00  0.00     0.140 A 
ATOM     13  N   UNL     1      27.849  38.973   4.495  1.00  0.00    -0.135 NA
ATOM     14  N   UNL     1      27.777  37.805   5.108  1.00  0.00    -0.062 NA
ENDBRANCH   4   9
ENDBRANCH   1   3
BRANCH   1  15
ATOM     15  O   UNL     1      23.283  36.544   9.787  1.00  0.00    -0.462 OA
BRANCH  15  16
ATOM     16  C   UNL     1      22.463  35.713   8.992  1.00  0.00     0.230 C 
ATOM     17  C   UNL     1      21.903  36.525   7.864  1.00  0.00     0.049 C 
ENDBRANCH  15  16
ENDBRANCH   1  15
TORSDOF 4
BEGIN_RES LYS A 135
REMARK  4 active torsions:
REMARK  status: ('A' for Active; 'I' for Inactive)
REMARK    1  A    between atoms: CA   and  CB  
REMARK    2  A    between atoms: CB   and  CG  
REMARK    3  A    between atoms: CG   and  CD  
REMARK    4  A    between atoms: CD   and  CE  
ROOT
ATOM      1  CA  LYS A 135      33.193  34.663   9.290  1.00 25.02     0.186 C 
ENDROOT
BRANCH   1   2
ATOM      2  CB  LYS A 135      32.060  35.360  10.034  1.00 26.63     0.034 C 
BRANCH   2   3
ATOM      3  CG  LYS A 135      30.807  35.518   9.212  1.00 29.45     0.005 C 
BRANCH   3   4
ATOM      4  CD  LYS A 135      30.058  36.780   9.613  1.00 32.00     0.041 C 
BRANCH   4   5
ATOM      5  CE  LYS A 135      30.154  37.826   8.519  1.00 34.25     0.338 C 
ATOM      6  NZ  LYS A 135      31.389  38.646   8.668  1.00 35.99     0.618 N 
ENDBRANCH   4   5
ENDBRANCH   3   4
ENDBRANCH   2   3
ENDBRANCH   1   2
END_RES LYS A 135
BEGIN_RES TYR A 136
REMARK  2 active torsions:
REMARK  status: ('A' for Active; 'I' for Inactive)
REMARK    5  A    between atoms: CA   and  CB  
REMARK    6  A    between atoms: CB   and  CG  
ROOT
ATOM      7  CA  TYR A 136      36.583  36.399   8.994  1.00 26.14     0.191 C 
ENDROOT
BRANCH   7   8
ATOM      8  CB  TYR A 136      37.367  36.835  10.240  1.00 28.16     0.060 C 
BRANCH   8   9
ATOM      9  CG  TYR A 136      37.281  38.321  10.489  1.00 31.88    -0.020 A 
ATOM     10  CD2 TYR A 136      36.163  39.057  10.091  1.00 32.67    -0.002 A 
ATOM     11  CE2 TYR A 136      36.093  40.437  10.326  1.00 33.89     0.027 A 
ATOM     12  CZ  TYR A 136      37.152  41.086  10.965  1.00 34.34     0.131 A 
ATOM     13  OH  TYR A 136      37.102  42.451  11.214  1.00 35.14    -0.190 OA
ATOM     14  CE1 TYR A 136      38.271  40.371  11.367  1.00 35.01     0.027 A 
ATOM     15  CD1 TYR A 136      38.331  38.998  11.121  1.00 33.57    -0.002 A 
ENDBRANCH   8   9
ENDBRANCH   7   8
END_RES TYR A 136
BEGIN_RES ASN A 133
REMARK  2 active torsions:
REMARK  status: ('A' for Active; 'I' for Inactive)
REMARK    7  A    between atoms: CA   and  CB  
REMARK    8  A    between atoms: CB   and  CG  
ROOT
ATOM     16  CA  ASN A 133      31.225  30.257  11.749  1.00 18.15     0.196 C 
ENDROOT
BRANCH  16  17
ATOM     17  CB  ASN A 133      30.092  31.240  11.460  1.00 18.27     0.126 C 
BRANCH  17  18
ATOM     18  CG  ASN A 133      28.756  30.579  11.323  1.00 18.94     0.276 C 
ATOM     19  OD1 ASN A 133      28.594  29.616  10.572  1.00 18.09    -0.269 OA
ATOM     20  ND2 ASN A 133      27.771  31.097  12.057  1.00 18.93    -0.107 N 
ENDBRANCH  17  18
ENDBRANCH  16  17
END_RES ASN A 133
