REMARK VINA RESULT:    -4.276      0.796      1.837
REMARK INTER + INTRA:          -8.103
REMARK INTER:                  -4.914
REMARK INTRA:                  -3.189
REMARK UNBOUND:                -3.328
REMARK SMILES Cc1cn(CC2=CC[C@H]3C[C@@H]2C3(C)C)nn1
REMARK SMILES IDX 5 1 4 2 1 3 2 4 3 5 16 6 15 7 6 8 7 9 11 10 8 11 10 12 12 13
REMARK SMILES IDX 9 14 13 15 14 16
REMARK H PARENT
REMARK Flexibility Score: inf
ROOT
ATOM      1  C   UNL     1      35.026  36.483  13.649  1.00  0.00     0.177 C 
ENDROOT
BRANCH   1   2
ATOM      2  N   UNL     1      34.155  35.833  14.601  1.00  0.00    -0.248 N 
ATOM      3  C   UNL     1      31.615  33.437  15.722  1.00  0.00     0.070 C 
ATOM      4  C   UNL     1      32.644  34.488  15.533  1.00  0.00     0.080 A 
ATOM      5  C   UNL     1      33.298  34.831  14.342  1.00  0.00     0.134 A 
ATOM      6  N   UNL     1      33.162  35.325  16.451  1.00  0.00    -0.136 NA
ATOM      7  N   UNL     1      34.060  36.123  15.886  1.00  0.00    -0.067 NA
ENDBRANCH   1   2
BRANCH   1   8
ATOM      8  C   UNL     1      36.431  36.078  13.824  1.00  0.00    -0.049 C 
ATOM      9  C   UNL     1      37.438  36.922  13.970  1.00  0.00    -0.025 C 
ATOM     10  C   UNL     1      36.758  34.631  13.841  1.00  0.00     0.023 C 
ATOM     11  C   UNL     1      38.847  36.386  14.055  1.00  0.00     0.031 C 
ATOM     12  C   UNL     1      37.671  34.458  15.069  1.00  0.00     0.013 C 
ATOM     13  C   UNL     1      37.987  34.326  13.012  1.00  0.00    -0.026 C 
ATOM     14  C   UNL     1      38.809  34.890  14.134  1.00  0.00    -0.000 C 
ATOM     15  C   UNL     1      38.078  35.012  11.693  1.00  0.00     0.012 C 
ATOM     16  C   UNL     1      38.103  32.822  12.832  1.00  0.00     0.012 C 
ENDBRANCH   1   8
TORSDOF 2
BEGIN_RES LYS A 135
REMARK  4 active torsions:
REMARK  status: ('A' for Active; 'I' for Inactive)
REMARK    1  A    between atoms: CA   and  CB  
REMARK    2  A    between atoms: CB   and  CG  
REMARK    3  A    between atoms: CG   and  CD  
REMARK    4  A    between atoms: CD   and  CE  
ROOT
ATOM      1  CA  LYS A 135      33.193  34.663   9.290  1.00 25.02     0.186 C 
ENDROOT
BRANCH   1   2
ATOM      2  CB  LYS A 135      32.060  35.360  10.034  1.00 26.63     0.034 C 
BRANCH   2   3
ATOM      3  CG  LYS A 135      30.850  35.626   9.176  1.00 29.45     0.005 C 
BRANCH   3   4
ATOM      4  CD  LYS A 135      30.282  34.324   8.632  1.00 32.00     0.041 C 
BRANCH   4   5
ATOM      5  CE  LYS A 135      28.971  33.987   9.317  1.00 34.25     0.338 C 
ATOM      6  NZ  LYS A 135      27.812  34.520   8.549  1.00 35.99     0.618 N 
ENDBRANCH   4   5
ENDBRANCH   3   4
ENDBRANCH   2   3
ENDBRANCH   1   2
END_RES LYS A 135
BEGIN_RES TYR A 136
REMARK  2 active torsions:
REMARK  status: ('A' for Active; 'I' for Inactive)
REMARK    5  A    between atoms: CA   and  CB  
REMARK    6  A    between atoms: CB   and  CG  
ROOT
ATOM      7  CA  TYR A 136      36.583  36.399   8.994  1.00 26.14     0.191 C 
ENDROOT
BRANCH   7   8
ATOM      8  CB  TYR A 136      37.367  36.835  10.240  1.00 28.16     0.060 C 
BRANCH   8   9
ATOM      9  CG  TYR A 136      37.124  38.279  10.603  1.00 31.88    -0.020 A 
ATOM     10  CD2 TYR A 136      35.830  38.768  10.796  1.00 32.67    -0.002 A 
ATOM     11  CE2 TYR A 136      35.614  40.112  11.131  1.00 33.89     0.027 A 
ATOM     12  CZ  TYR A 136      36.704  40.975  11.273  1.00 34.34     0.131 A 
ATOM     13  OH  TYR A 136      36.515  42.308  11.611  1.00 35.14    -0.190 OA
ATOM     14  CE1 TYR A 136      37.996  40.506  11.084  1.00 35.01     0.027 A 
ATOM     15  CD1 TYR A 136      38.198  39.167  10.744  1.00 33.57    -0.002 A 
ENDBRANCH   8   9
ENDBRANCH   7   8
END_RES TYR A 136
BEGIN_RES ASN A 133
REMARK  2 active torsions:
REMARK  status: ('A' for Active; 'I' for Inactive)
REMARK    7  A    between atoms: CA   and  CB  
REMARK    8  A    between atoms: CB   and  CG  
ROOT
ATOM     16  CA  ASN A 133      31.225  30.257  11.749  1.00 18.15     0.196 C 
ENDROOT
BRANCH  16  17
ATOM     17  CB  ASN A 133      30.092  31.240  11.460  1.00 18.27     0.126 C 
BRANCH  17  18
ATOM     18  CG  ASN A 133      28.757  30.578  11.316  1.00 18.94     0.276 C 
ATOM     19  OD1 ASN A 133      28.601  29.611  10.567  1.00 18.09    -0.269 OA
ATOM     20  ND2 ASN A 133      27.767  31.099  12.039  1.00 18.93    -0.107 N 
ENDBRANCH  17  18
ENDBRANCH  16  17
END_RES ASN A 133
