REMARK VINA RESULT:    -3.845      8.900     13.641
REMARK INTER + INTRA:          -7.308
REMARK INTER:                  -4.275
REMARK INTRA:                  -3.033
REMARK UNBOUND:                -3.239
REMARK SMILES Cc1cn([C@H]2C[C@H]3CC[C@@H](C2)N3C)nn1
REMARK SMILES IDX 5 1 11 2 10 3 12 4 13 5 7 6 6 7 8 8 9 9 4 10 1 11 2 12 3 13
REMARK SMILES IDX 15 14 14 15
REMARK H PARENT
REMARK Flexibility Score: inf
ROOT
ATOM      1  C   UNL     1      30.532  33.491  14.539  1.00  0.00     0.112 C 
ATOM      2  C   UNL     1      29.186  33.800  15.162  1.00  0.00     0.046 C 
ATOM      3  C   UNL     1      28.687  32.646  15.990  1.00  0.00     0.058 C 
ATOM      4  N   UNL     1      29.320  31.437  15.447  1.00  0.00    -0.300 NA
ATOM      5  C   UNL     1      28.550  30.321  15.927  1.00  0.00     0.105 C 
ATOM      6  C   UNL     1      30.636  31.499  16.054  1.00  0.00     0.058 C 
ATOM      7  C   UNL     1      31.344  32.733  15.553  1.00  0.00     0.046 C 
ATOM      8  C   UNL     1      30.314  31.748  17.523  1.00  0.00     0.021 C 
ATOM      9  C   UNL     1      29.137  32.688  17.414  1.00  0.00     0.021 C 
ENDROOT
BRANCH   1  10
ATOM     10  N   UNL     1      31.233  34.713  14.214  1.00  0.00    -0.249 N 
ATOM     11  C   UNL     1      32.887  37.123  12.033  1.00  0.00     0.070 C 
ATOM     12  C   UNL     1      32.287  36.356  13.148  1.00  0.00     0.080 A 
ATOM     13  C   UNL     1      31.660  35.123  13.013  1.00  0.00     0.134 A 
ATOM     14  N   UNL     1      32.213  36.646  14.450  1.00  0.00    -0.136 NA
ATOM     15  N   UNL     1      31.585  35.663  15.069  1.00  0.00    -0.067 NA
ENDBRANCH   1  10
TORSDOF 1
BEGIN_RES LYS A 135
REMARK  4 active torsions:
REMARK  status: ('A' for Active; 'I' for Inactive)
REMARK    1  A    between atoms: CA   and  CB  
REMARK    2  A    between atoms: CB   and  CG  
REMARK    3  A    between atoms: CG   and  CD  
REMARK    4  A    between atoms: CD   and  CE  
ROOT
ATOM      1  CA  LYS A 135      33.193  34.663   9.290  1.00 25.02     0.186 C 
ENDROOT
BRANCH   1   2
ATOM      2  CB  LYS A 135      32.060  35.360  10.034  1.00 26.63     0.034 C 
BRANCH   2   3
ATOM      3  CG  LYS A 135      30.848  35.622   9.177  1.00 29.45     0.005 C 
BRANCH   3   4
ATOM      4  CD  LYS A 135      30.321  34.326   8.582  1.00 32.00     0.041 C 
BRANCH   4   5
ATOM      5  CE  LYS A 135      28.805  34.299   8.623  1.00 34.25     0.338 C 
ATOM      6  NZ  LYS A 135      28.310  34.067  10.009  1.00 35.99     0.618 N 
ENDBRANCH   4   5
ENDBRANCH   3   4
ENDBRANCH   2   3
ENDBRANCH   1   2
END_RES LYS A 135
BEGIN_RES TYR A 136
REMARK  2 active torsions:
REMARK  status: ('A' for Active; 'I' for Inactive)
REMARK    5  A    between atoms: CA   and  CB  
REMARK    6  A    between atoms: CB   and  CG  
ROOT
ATOM      7  CA  TYR A 136      36.583  36.399   8.994  1.00 26.14     0.191 C 
ENDROOT
BRANCH   7   8
ATOM      8  CB  TYR A 136      37.367  36.835  10.240  1.00 28.16     0.060 C 
BRANCH   8   9
ATOM      9  CG  TYR A 136      36.699  37.968  10.979  1.00 31.88    -0.020 A 
ATOM     10  CD2 TYR A 136      36.021  38.979  10.293  1.00 32.67    -0.002 A 
ATOM     11  CE2 TYR A 136      35.405  40.028  10.989  1.00 33.89     0.027 A 
ATOM     12  CZ  TYR A 136      35.468  40.067  12.384  1.00 34.34     0.131 A 
ATOM     13  OH  TYR A 136      34.859  41.092  13.094  1.00 35.14    -0.190 OA
ATOM     14  CE1 TYR A 136      36.138  39.072  13.081  1.00 35.01     0.027 A 
ATOM     15  CD1 TYR A 136      36.753  38.035  12.377  1.00 33.57    -0.002 A 
ENDBRANCH   8   9
ENDBRANCH   7   8
END_RES TYR A 136
BEGIN_RES ASN A 133
REMARK  2 active torsions:
REMARK  status: ('A' for Active; 'I' for Inactive)
REMARK    7  A    between atoms: CA   and  CB  
REMARK    8  A    between atoms: CB   and  CG  
ROOT
ATOM     16  CA  ASN A 133      31.225  30.257  11.749  1.00 18.15     0.196 C 
ENDROOT
BRANCH  16  17
ATOM     17  CB  ASN A 133      30.092  31.240  11.460  1.00 18.27     0.126 C 
BRANCH  17  18
ATOM     18  CG  ASN A 133      28.747  30.587  11.386  1.00 18.94     0.276 C 
ATOM     19  OD1 ASN A 133      28.544  29.625  10.643  1.00 18.09    -0.269 OA
ATOM     20  ND2 ASN A 133      27.801  31.112  12.165  1.00 18.93    -0.107 N 
ENDBRANCH  17  18
ENDBRANCH  16  17
END_RES ASN A 133
