REMARK VINA RESULT:    -4.424      4.948     10.153
REMARK INTER + INTRA:          -7.445
REMARK INTER:                  -5.416
REMARK INTRA:                  -2.028
REMARK UNBOUND:                -2.762
REMARK SMILES Cc1cc(C)c(-n2cc(C)nn2)c(C)c1
REMARK SMILES IDX 6 1 4 2 5 3 3 4 2 5 1 6 15 7 13 8 14 9 7 10 10 11 9 12 8 13
REMARK SMILES IDX 11 14 12 15
REMARK H PARENT
REMARK Flexibility Score: inf
ROOT
ATOM      1  C   UNL     1      25.926  36.446   8.424  1.00  0.00     0.072 A 
ATOM      2  C   UNL     1      25.910  37.667   7.780  1.00  0.00    -0.025 A 
ATOM      3  C   UNL     1      24.924  38.717   8.192  1.00  0.00     0.047 C 
ATOM      4  C   UNL     1      26.805  37.934   6.747  1.00  0.00     0.009 A 
ATOM      5  C   UNL     1      27.729  36.996   6.337  1.00  0.00    -0.050 A 
ATOM      6  C   UNL     1      28.688  37.291   5.224  1.00  0.00     0.044 C 
ATOM      7  C   UNL     1      27.754  35.782   6.969  1.00  0.00     0.009 A 
ATOM      8  C   UNL     1      26.869  35.514   7.992  1.00  0.00    -0.025 A 
ATOM      9  C   UNL     1      26.910  34.193   8.666  1.00  0.00     0.047 C 
ENDROOT
BRANCH   1  10
ATOM     10  N   UNL     1      25.022  36.145   9.484  1.00  0.00    -0.220 N 
ATOM     11  C   UNL     1      21.974  34.967  11.124  1.00  0.00     0.070 C 
ATOM     12  C   UNL     1      23.288  35.498  10.698  1.00  0.00     0.080 A 
ATOM     13  C   UNL     1      23.796  35.610   9.422  1.00  0.00     0.140 A 
ATOM     14  N   UNL     1      24.249  35.981  11.516  1.00  0.00    -0.135 NA
ATOM     15  N   UNL     1      25.269  36.360  10.781  1.00  0.00    -0.062 NA
ENDBRANCH   1  10
TORSDOF 1
BEGIN_RES LYS A 135
REMARK  4 active torsions:
REMARK  status: ('A' for Active; 'I' for Inactive)
REMARK    1  A    between atoms: CA   and  CB  
REMARK    2  A    between atoms: CB   and  CG  
REMARK    3  A    between atoms: CG   and  CD  
REMARK    4  A    between atoms: CD   and  CE  
ROOT
ATOM      1  CA  LYS A 135      33.193  34.663   9.290  1.00 25.02     0.186 C 
ENDROOT
BRANCH   1   2
ATOM      2  CB  LYS A 135      32.060  35.360  10.034  1.00 26.63     0.034 C 
BRANCH   2   3
ATOM      3  CG  LYS A 135      30.791  35.475   9.229  1.00 29.45     0.005 C 
BRANCH   3   4
ATOM      4  CD  LYS A 135      30.400  36.933   9.049  1.00 32.00     0.041 C 
BRANCH   4   5
ATOM      5  CE  LYS A 135      29.346  37.331  10.065  1.00 34.25     0.338 C 
ATOM      6  NZ  LYS A 135      28.788  38.678   9.760  1.00 35.99     0.618 N 
ENDBRANCH   4   5
ENDBRANCH   3   4
ENDBRANCH   2   3
ENDBRANCH   1   2
END_RES LYS A 135
BEGIN_RES TYR A 136
REMARK  2 active torsions:
REMARK  status: ('A' for Active; 'I' for Inactive)
REMARK    5  A    between atoms: CA   and  CB  
REMARK    6  A    between atoms: CB   and  CG  
ROOT
ATOM      7  CA  TYR A 136      36.583  36.399   8.994  1.00 26.14     0.191 C 
ENDROOT
BRANCH   7   8
ATOM      8  CB  TYR A 136      37.367  36.835  10.240  1.00 28.16     0.060 C 
BRANCH   8   9
ATOM      9  CG  TYR A 136      36.922  38.178  10.765  1.00 31.88    -0.020 A 
ATOM     10  CD2 TYR A 136      36.980  38.477  12.128  1.00 32.67    -0.002 A 
ATOM     11  CE2 TYR A 136      36.563  39.727  12.606  1.00 33.89     0.027 A 
ATOM     12  CZ  TYR A 136      36.082  40.686  11.711  1.00 34.34     0.131 A 
ATOM     13  OH  TYR A 136      35.670  41.933  12.161  1.00 35.14    -0.190 OA
ATOM     14  CE1 TYR A 136      36.017  40.406  10.354  1.00 35.01     0.027 A 
ATOM     15  CD1 TYR A 136      36.429  39.155   9.891  1.00 33.57    -0.002 A 
ENDBRANCH   8   9
ENDBRANCH   7   8
END_RES TYR A 136
BEGIN_RES ASN A 133
REMARK  2 active torsions:
REMARK  status: ('A' for Active; 'I' for Inactive)
REMARK    7  A    between atoms: CA   and  CB  
REMARK    8  A    between atoms: CB   and  CG  
ROOT
ATOM     16  CA  ASN A 133      31.225  30.257  11.749  1.00 18.15     0.196 C 
ENDROOT
BRANCH  16  17
ATOM     17  CB  ASN A 133      30.092  31.240  11.460  1.00 18.27     0.126 C 
BRANCH  17  18
ATOM     18  CG  ASN A 133      28.751  30.583  11.355  1.00 18.94     0.276 C 
ATOM     19  OD1 ASN A 133      28.575  29.603  10.628  1.00 18.09    -0.269 OA
ATOM     20  ND2 ASN A 133      27.778  31.123  12.088  1.00 18.93    -0.107 N 
ENDBRANCH  17  18
ENDBRANCH  16  17
END_RES ASN A 133
