REMARK VINA RESULT:    -4.874      2.554      4.115
REMARK INTER + INTRA:          -7.921
REMARK INTER:                  -4.955
REMARK INTRA:                  -2.966
REMARK UNBOUND:                -2.762
REMARK SMILES Cc1cc(C)c(-n2cc(C)nn2)c(C)c1
REMARK SMILES IDX 6 1 4 2 5 3 3 4 2 5 1 6 15 7 13 8 14 9 7 10 10 11 9 12 8 13
REMARK SMILES IDX 11 14 12 15
REMARK H PARENT
REMARK Flexibility Score: inf
ROOT
ATOM      1  C   UNL     1      35.471  35.457  14.277  1.00  0.00     0.072 A 
ATOM      2  C   UNL     1      35.756  36.159  15.432  1.00  0.00    -0.025 A 
ATOM      3  C   UNL     1      34.722  37.060  16.034  1.00  0.00     0.047 C 
ATOM      4  C   UNL     1      37.000  36.037  16.044  1.00  0.00     0.009 A 
ATOM      5  C   UNL     1      37.981  35.218  15.522  1.00  0.00    -0.050 A 
ATOM      6  C   UNL     1      39.318  35.093  16.187  1.00  0.00     0.044 C 
ATOM      7  C   UNL     1      37.708  34.518  14.378  1.00  0.00     0.009 A 
ATOM      8  C   UNL     1      36.477  34.637  13.769  1.00  0.00    -0.025 A 
ATOM      9  C   UNL     1      36.198  33.870  12.529  1.00  0.00     0.047 C 
ENDROOT
BRANCH   1  10
ATOM     10  N   UNL     1      34.206  35.562  13.628  1.00  0.00    -0.220 N 
ATOM     11  C   UNL     1      30.687  34.882  12.905  1.00  0.00     0.070 C 
ATOM     12  C   UNL     1      32.095  35.325  13.005  1.00  0.00     0.080 A 
ATOM     13  C   UNL     1      33.069  34.903  13.883  1.00  0.00     0.140 A 
ATOM     14  N   UNL     1      32.689  36.254  12.223  1.00  0.00    -0.135 NA
ATOM     15  N   UNL     1      33.939  36.382  12.605  1.00  0.00    -0.062 NA
ENDBRANCH   1  10
TORSDOF 1
BEGIN_RES LYS A 135
REMARK  4 active torsions:
REMARK  status: ('A' for Active; 'I' for Inactive)
REMARK    1  A    between atoms: CA   and  CB  
REMARK    2  A    between atoms: CB   and  CG  
REMARK    3  A    between atoms: CG   and  CD  
REMARK    4  A    between atoms: CD   and  CE  
ROOT
ATOM      1  CA  LYS A 135      33.193  34.663   9.290  1.00 25.02     0.186 C 
ENDROOT
BRANCH   1   2
ATOM      2  CB  LYS A 135      32.060  35.360  10.034  1.00 26.63     0.034 C 
BRANCH   2   3
ATOM      3  CG  LYS A 135      30.803  35.507   9.216  1.00 29.45     0.005 C 
BRANCH   3   4
ATOM      4  CD  LYS A 135      30.124  34.159   9.028  1.00 32.00     0.041 C 
BRANCH   4   5
ATOM      5  CE  LYS A 135      28.667  34.344   8.651  1.00 34.25     0.338 C 
ATOM      6  NZ  LYS A 135      27.770  33.678   9.636  1.00 35.99     0.618 N 
ENDBRANCH   4   5
ENDBRANCH   3   4
ENDBRANCH   2   3
ENDBRANCH   1   2
END_RES LYS A 135
BEGIN_RES TYR A 136
REMARK  2 active torsions:
REMARK  status: ('A' for Active; 'I' for Inactive)
REMARK    5  A    between atoms: CA   and  CB  
REMARK    6  A    between atoms: CB   and  CG  
ROOT
ATOM      7  CA  TYR A 136      36.583  36.399   8.994  1.00 26.14     0.191 C 
ENDROOT
BRANCH   7   8
ATOM      8  CB  TYR A 136      37.367  36.835  10.240  1.00 28.16     0.060 C 
BRANCH   8   9
ATOM      9  CG  TYR A 136      36.688  37.954  10.991  1.00 31.88    -0.020 A 
ATOM     10  CD2 TYR A 136      35.793  38.815  10.352  1.00 32.67    -0.002 A 
ATOM     11  CE2 TYR A 136      35.169  39.852  11.058  1.00 33.89     0.027 A 
ATOM     12  CZ  TYR A 136      35.442  40.029  12.417  1.00 34.34     0.131 A 
ATOM     13  OH  TYR A 136      34.830  41.045  13.138  1.00 35.14    -0.190 OA
ATOM     14  CE1 TYR A 136      36.329  39.183  13.067  1.00 35.01     0.027 A 
ATOM     15  CD1 TYR A 136      36.949  38.158  12.352  1.00 33.57    -0.002 A 
ENDBRANCH   8   9
ENDBRANCH   7   8
END_RES TYR A 136
BEGIN_RES ASN A 133
REMARK  2 active torsions:
REMARK  status: ('A' for Active; 'I' for Inactive)
REMARK    7  A    between atoms: CA   and  CB  
REMARK    8  A    between atoms: CB   and  CG  
ROOT
ATOM     16  CA  ASN A 133      31.225  30.257  11.749  1.00 18.15     0.196 C 
ENDROOT
BRANCH  16  17
ATOM     17  CB  ASN A 133      30.092  31.240  11.460  1.00 18.27     0.126 C 
BRANCH  17  18
ATOM     18  CG  ASN A 133      28.749  30.584  11.365  1.00 18.94     0.276 C 
ATOM     19  OD1 ASN A 133      28.563  29.617  10.624  1.00 18.09    -0.269 OA
ATOM     20  ND2 ASN A 133      27.788  31.111  12.122  1.00 18.93    -0.107 N 
ENDBRANCH  17  18
ENDBRANCH  16  17
END_RES ASN A 133
