REMARK VINA RESULT:    -5.138      3.503      7.013
REMARK INTER + INTRA:          -9.674
REMARK INTER:                  -6.397
REMARK INTRA:                  -3.277
REMARK UNBOUND:                -3.335
REMARK SMILES Cc1cn(-c2ccc(S(=O)(=O)Nc3nccs3)cc2)nn1
REMARK SMILES IDX 9 1 10 2 11 3 8 4 5 5 6 6 19 7 7 8 18 9 4 10 1 11 2 12 3 13
REMARK SMILES IDX 21 14 20 15 12 16 13 18 14 19 17 20 15 21 16 22
REMARK H PARENT 12 17
REMARK Flexibility Score: inf
ROOT
ATOM      1  S   UNL     1      29.599  31.068  18.714  1.00  0.00     0.263 S 
ATOM      2  O   UNL     1      30.636  30.490  19.621  1.00  0.00    -0.201 OA
ATOM      3  O   UNL     1      28.734  32.021  19.515  1.00  0.00    -0.201 OA
ENDROOT
BRANCH   1   4
ATOM      4  C   UNL     1      30.435  32.003  17.493  1.00  0.00     0.088 A 
ATOM      5  C   UNL     1      31.759  33.549  15.668  1.00  0.00     0.066 A 
ATOM      6  C   UNL     1      31.623  33.982  16.958  1.00  0.00     0.030 A 
ATOM      7  C   UNL     1      31.234  32.346  15.292  1.00  0.00     0.030 A 
ATOM      8  C   UNL     1      30.966  33.227  17.888  1.00  0.00     0.024 A 
ATOM      9  C   UNL     1      30.572  31.574  16.206  1.00  0.00     0.024 A 
BRANCH   5  10
ATOM     10  N   UNL     1      32.470  34.415  14.756  1.00  0.00    -0.220 N 
ATOM     11  C   UNL     1      32.797  36.877  12.055  1.00  0.00     0.070 C 
ATOM     12  C   UNL     1      32.919  35.888  13.155  1.00  0.00     0.080 A 
ATOM     13  C   UNL     1      31.920  35.219  13.830  1.00  0.00     0.140 A 
ATOM     14  N   UNL     1      34.060  35.451  13.716  1.00  0.00    -0.135 NA
ATOM     15  N   UNL     1      33.770  34.577  14.663  1.00  0.00    -0.062 NA
ENDBRANCH   5  10
ENDBRANCH   1   4
BRANCH   1  16
ATOM     16  N   UNL     1      28.628  29.855  18.018  1.00  0.00    -0.255 N 
ATOM     17  H   UNL     1      28.562  29.824  16.963  1.00  0.00     0.182 HD
BRANCH  16  18
ATOM     18  C   UNL     1      27.926  28.915  18.844  1.00  0.00     0.196 A 
ATOM     19  N   UNL     1      28.084  28.236  19.734  1.00  0.00    -0.228 NA
ATOM     20  S   UNL     1      26.105  28.588  18.435  1.00  0.00    -0.105 S 
ATOM     21  C   UNL     1      27.254  27.424  20.348  1.00  0.00     0.125 A 
ATOM     22  C   UNL     1      25.995  27.379  19.845  1.00  0.00     0.089 A 
ENDBRANCH  16  18
ENDBRANCH   1  16
TORSDOF 4
BEGIN_RES LYS A 135
REMARK  4 active torsions:
REMARK  status: ('A' for Active; 'I' for Inactive)
REMARK    1  A    between atoms: CA   and  CB  
REMARK    2  A    between atoms: CB   and  CG  
REMARK    3  A    between atoms: CG   and  CD  
REMARK    4  A    between atoms: CD   and  CE  
ROOT
ATOM      1  CA  LYS A 135      33.193  34.663   9.290  1.00 25.02     0.186 C 
ENDROOT
BRANCH   1   2
ATOM      2  CB  LYS A 135      32.060  35.360  10.034  1.00 26.63     0.034 C 
BRANCH   2   3
ATOM      3  CG  LYS A 135      30.722  34.689   9.859  1.00 29.45     0.005 C 
BRANCH   3   4
ATOM      4  CD  LYS A 135      30.351  34.606   8.387  1.00 32.00     0.041 C 
BRANCH   4   5
ATOM      5  CE  LYS A 135      28.844  34.591   8.217  1.00 34.25     0.338 C 
ATOM      6  NZ  LYS A 135      28.182  33.910   9.363  1.00 35.99     0.618 N 
ENDBRANCH   4   5
ENDBRANCH   3   4
ENDBRANCH   2   3
ENDBRANCH   1   2
END_RES LYS A 135
BEGIN_RES TYR A 136
REMARK  2 active torsions:
REMARK  status: ('A' for Active; 'I' for Inactive)
REMARK    5  A    between atoms: CA   and  CB  
REMARK    6  A    between atoms: CB   and  CG  
ROOT
ATOM      7  CA  TYR A 136      36.583  36.399   8.994  1.00 26.14     0.191 C 
ENDROOT
BRANCH   7   8
ATOM      8  CB  TYR A 136      37.367  36.835  10.240  1.00 28.16     0.060 C 
BRANCH   8   9
ATOM      9  CG  TYR A 136      36.626  37.861  11.062  1.00 31.88    -0.020 A 
ATOM     10  CD2 TYR A 136      35.963  38.931  10.457  1.00 32.67    -0.002 A 
ATOM     11  CE2 TYR A 136      35.279  39.879  11.230  1.00 33.89     0.027 A 
ATOM     12  CZ  TYR A 136      35.259  39.755  12.622  1.00 34.34     0.131 A 
ATOM     13  OH  TYR A 136      34.582  40.679  13.407  1.00 35.14    -0.190 OA
ATOM     14  CE1 TYR A 136      35.913  38.700  13.239  1.00 35.01     0.027 A 
ATOM     15  CD1 TYR A 136      36.596  37.765  12.459  1.00 33.57    -0.002 A 
ENDBRANCH   8   9
ENDBRANCH   7   8
END_RES TYR A 136
BEGIN_RES ASN A 133
REMARK  2 active torsions:
REMARK  status: ('A' for Active; 'I' for Inactive)
REMARK    7  A    between atoms: CA   and  CB  
REMARK    8  A    between atoms: CB   and  CG  
ROOT
ATOM     16  CA  ASN A 133      31.225  30.257  11.749  1.00 18.15     0.196 C 
ENDROOT
BRANCH  16  17
ATOM     17  CB  ASN A 133      30.092  31.240  11.460  1.00 18.27     0.126 C 
BRANCH  17  18
ATOM     18  CG  ASN A 133      28.757  30.578  11.314  1.00 18.94     0.276 C 
ATOM     19  OD1 ASN A 133      28.603  29.608  10.570  1.00 18.09    -0.269 OA
ATOM     20  ND2 ASN A 133      27.765  31.103  12.032  1.00 18.93    -0.107 N 
ENDBRANCH  17  18
ENDBRANCH  16  17
END_RES ASN A 133
