REMARK VINA RESULT:    -4.702      7.753     14.690
REMARK INTER + INTRA:          -7.356
REMARK INTER:                  -4.269
REMARK INTRA:                  -3.087
REMARK UNBOUND:                -2.379
REMARK SMILES Cc1cn(-c2ccccc2)nn1
REMARK SMILES IDX 5 1 6 2 7 3 8 4 9 5 10 6 4 7 1 8 2 9 3 10 12 11 11 12
REMARK H PARENT
REMARK Flexibility Score: inf
ROOT
ATOM      1  C   UNL     1      37.370  34.908  14.024  1.00  0.00     0.066 A 
ATOM      2  C   UNL     1      36.820  35.653  15.049  1.00  0.00     0.028 A 
ATOM      3  C   UNL     1      35.465  35.844  15.167  1.00  0.00     0.002 A 
ATOM      4  C   UNL     1      34.587  35.294  14.255  1.00  0.00     0.000 A 
ATOM      5  C   UNL     1      35.135  34.550  13.230  1.00  0.00     0.002 A 
ATOM      6  C   UNL     1      36.497  34.358  13.112  1.00  0.00     0.028 A 
ENDROOT
BRANCH   1   7
ATOM      7  N   UNL     1      38.778  34.703  13.892  1.00  0.00    -0.220 N 
ATOM      8  C   UNL     1      41.813  33.642  12.119  1.00  0.00     0.070 C 
ATOM      9  C   UNL     1      40.780  34.146  13.066  1.00  0.00     0.080 A 
ATOM     10  C   UNL     1      39.411  34.190  12.821  1.00  0.00     0.140 A 
ATOM     11  N   UNL     1      40.918  34.645  14.302  1.00  0.00    -0.135 NA
ATOM     12  N   UNL     1      39.726  34.969  14.776  1.00  0.00    -0.062 NA
ENDBRANCH   1   7
TORSDOF 1
BEGIN_RES LYS A 135
REMARK  4 active torsions:
REMARK  status: ('A' for Active; 'I' for Inactive)
REMARK    1  A    between atoms: CA   and  CB  
REMARK    2  A    between atoms: CB   and  CG  
REMARK    3  A    between atoms: CG   and  CD  
REMARK    4  A    between atoms: CD   and  CE  
ROOT
ATOM      1  CA  LYS A 135      33.193  34.663   9.290  1.00 25.02     0.186 C 
ENDROOT
BRANCH   1   2
ATOM      2  CB  LYS A 135      32.060  35.360  10.034  1.00 26.63     0.034 C 
BRANCH   2   3
ATOM      3  CG  LYS A 135      30.806  35.515   9.213  1.00 29.45     0.005 C 
BRANCH   3   4
ATOM      4  CD  LYS A 135      30.159  34.162   8.960  1.00 32.00     0.041 C 
BRANCH   4   5
ATOM      5  CE  LYS A 135      28.688  34.327   8.632  1.00 34.25     0.338 C 
ATOM      6  NZ  LYS A 135      27.832  33.665   9.655  1.00 35.99     0.618 N 
ENDBRANCH   4   5
ENDBRANCH   3   4
ENDBRANCH   2   3
ENDBRANCH   1   2
END_RES LYS A 135
BEGIN_RES TYR A 136
REMARK  2 active torsions:
REMARK  status: ('A' for Active; 'I' for Inactive)
REMARK    5  A    between atoms: CA   and  CB  
REMARK    6  A    between atoms: CB   and  CG  
ROOT
ATOM      7  CA  TYR A 136      36.583  36.399   8.994  1.00 26.14     0.191 C 
ENDROOT
BRANCH   7   8
ATOM      8  CB  TYR A 136      37.367  36.835  10.240  1.00 28.16     0.060 C 
BRANCH   8   9
ATOM      9  CG  TYR A 136      36.763  38.043  10.912  1.00 31.88    -0.020 A 
ATOM     10  CD2 TYR A 136      36.464  39.200  10.189  1.00 32.67    -0.002 A 
ATOM     11  CE2 TYR A 136      35.904  40.317  10.823  1.00 33.89     0.027 A 
ATOM     12  CZ  TYR A 136      35.642  40.277  12.195  1.00 34.34     0.131 A 
ATOM     13  OH  TYR A 136      35.081  41.369  12.842  1.00 35.14    -0.190 OA
ATOM     14  CE1 TYR A 136      35.934  39.137  12.929  1.00 35.01     0.027 A 
ATOM     15  CD1 TYR A 136      36.497  38.033  12.288  1.00 33.57    -0.002 A 
ENDBRANCH   8   9
ENDBRANCH   7   8
END_RES TYR A 136
BEGIN_RES ASN A 133
REMARK  2 active torsions:
REMARK  status: ('A' for Active; 'I' for Inactive)
REMARK    7  A    between atoms: CA   and  CB  
REMARK    8  A    between atoms: CB   and  CG  
ROOT
ATOM     16  CA  ASN A 133      31.225  30.257  11.749  1.00 18.15     0.196 C 
ENDROOT
BRANCH  16  17
ATOM     17  CB  ASN A 133      30.092  31.240  11.460  1.00 18.27     0.126 C 
BRANCH  17  18
ATOM     18  CG  ASN A 133      28.749  30.585  11.370  1.00 18.94     0.276 C 
ATOM     19  OD1 ASN A 133      28.561  29.612  10.638  1.00 18.09    -0.269 OA
ATOM     20  ND2 ASN A 133      27.788  31.119  12.124  1.00 18.93    -0.107 N 
ENDBRANCH  17  18
ENDBRANCH  16  17
END_RES ASN A 133
