REMARK VINA RESULT:    -4.229      2.860      4.248
REMARK INTER + INTRA:          -7.776
REMARK INTER:                  -4.670
REMARK INTRA:                  -3.106
REMARK UNBOUND:                -3.052
REMARK SMILES Cc1cn(Cc2ccc(Br)cc2)nn1
REMARK SMILES IDX 5 1 4 2 1 3 2 4 3 5 14 6 13 7 6 8 7 9 12 10 8 11 11 12 9 13
REMARK SMILES IDX 10 14
REMARK H PARENT
REMARK Flexibility Score: inf
ROOT
ATOM      1  C   UNL     1      34.830  35.165  14.159  1.00  0.00     0.181 C 
ENDROOT
BRANCH   1   2
ATOM      2  N   UNL     1      36.051  34.824  13.419  1.00  0.00    -0.248 N 
ATOM      3  C   UNL     1      39.588  35.106  12.432  1.00  0.00     0.070 C 
ATOM      4  C   UNL     1      38.134  34.781  12.647  1.00  0.00     0.080 A 
ATOM      5  C   UNL     1      37.261  35.404  13.520  1.00  0.00     0.134 A 
ATOM      6  N   UNL     1      37.405  33.831  12.040  1.00  0.00    -0.136 NA
ATOM      7  N   UNL     1      36.177  33.880  12.516  1.00  0.00    -0.067 NA
ENDBRANCH   1   2
BRANCH   1   8
ATOM      8  C   UNL     1      34.275  36.431  13.633  1.00  0.00    -0.026 A 
ATOM      9  C   UNL     1      33.741  36.458  12.369  1.00  0.00     0.007 A 
ATOM     10  C   UNL     1      34.285  37.582  14.386  1.00  0.00     0.007 A 
ATOM     11  C   UNL     1      33.232  37.648  11.904  1.00  0.00     0.016 A 
ATOM     12  C   UNL     1      33.761  38.777  13.889  1.00  0.00     0.016 A 
ATOM     13  C   UNL     1      33.222  38.821  12.624  1.00  0.00     0.017 A 
ATOM     14  Br  UNL     1      32.520  40.464  11.984  1.00  0.00    -0.051 Br
ENDBRANCH   1   8
TORSDOF 2
BEGIN_RES LYS A 135
REMARK  4 active torsions:
REMARK  status: ('A' for Active; 'I' for Inactive)
REMARK    1  A    between atoms: CA   and  CB  
REMARK    2  A    between atoms: CB   and  CG  
REMARK    3  A    between atoms: CG   and  CD  
REMARK    4  A    between atoms: CD   and  CE  
ROOT
ATOM      1  CA  LYS A 135      33.193  34.663   9.290  1.00 25.02     0.186 C 
ENDROOT
BRANCH   1   2
ATOM      2  CB  LYS A 135      32.060  35.360  10.034  1.00 26.63     0.034 C 
BRANCH   2   3
ATOM      3  CG  LYS A 135      30.709  34.736   9.796  1.00 29.45     0.005 C 
BRANCH   3   4
ATOM      4  CD  LYS A 135      30.466  34.533   8.308  1.00 32.00     0.041 C 
BRANCH   4   5
ATOM      5  CE  LYS A 135      29.020  34.828   7.960  1.00 34.25     0.338 C 
ATOM      6  NZ  LYS A 135      28.369  35.648   9.019  1.00 35.99     0.618 N 
ENDBRANCH   4   5
ENDBRANCH   3   4
ENDBRANCH   2   3
ENDBRANCH   1   2
END_RES LYS A 135
BEGIN_RES TYR A 136
REMARK  2 active torsions:
REMARK  status: ('A' for Active; 'I' for Inactive)
REMARK    5  A    between atoms: CA   and  CB  
REMARK    6  A    between atoms: CB   and  CG  
ROOT
ATOM      7  CA  TYR A 136      36.583  36.399   8.994  1.00 26.14     0.191 C 
ENDROOT
BRANCH   7   8
ATOM      8  CB  TYR A 136      37.367  36.835  10.240  1.00 28.16     0.060 C 
BRANCH   8   9
ATOM      9  CG  TYR A 136      36.975  38.211  10.720  1.00 31.88    -0.020 A 
ATOM     10  CD2 TYR A 136      37.303  38.649  12.005  1.00 32.67    -0.002 A 
ATOM     11  CE2 TYR A 136      36.933  39.928  12.443  1.00 33.89     0.027 A 
ATOM     12  CZ  TYR A 136      36.226  40.776  11.586  1.00 34.34     0.131 A 
ATOM     13  OH  TYR A 136      35.855  42.049  11.995  1.00 35.14    -0.190 OA
ATOM     14  CE1 TYR A 136      35.891  40.357  10.307  1.00 35.01     0.027 A 
ATOM     15  CD1 TYR A 136      36.260  39.078   9.885  1.00 33.57    -0.002 A 
ENDBRANCH   8   9
ENDBRANCH   7   8
END_RES TYR A 136
BEGIN_RES ASN A 133
REMARK  2 active torsions:
REMARK  status: ('A' for Active; 'I' for Inactive)
REMARK    7  A    between atoms: CA   and  CB  
REMARK    8  A    between atoms: CB   and  CG  
ROOT
ATOM     16  CA  ASN A 133      31.225  30.257  11.749  1.00 18.15     0.196 C 
ENDROOT
BRANCH  16  17
ATOM     17  CB  ASN A 133      30.092  31.240  11.460  1.00 18.27     0.126 C 
BRANCH  17  18
ATOM     18  CG  ASN A 133      28.750  30.583  11.359  1.00 18.94     0.276 C 
ATOM     19  OD1 ASN A 133      28.572  29.603  10.632  1.00 18.09    -0.269 OA
ATOM     20  ND2 ASN A 133      27.780  31.124  12.094  1.00 18.93    -0.107 N 
ENDBRANCH  17  18
ENDBRANCH  16  17
END_RES ASN A 133
