REMARK VINA RESULT:    -9.011      1.787      2.653
REMARK INTER + INTRA:          -6.308
REMARK INTER:                  -3.811
REMARK INTRA:                  -2.497
REMARK UNBOUND:                 6.391
REMARK SMILES Cc1cn(C2CC(O)C=C[C@@H](O)C2)nn1
REMARK SMILES IDX 7 1 6 2 5 3 4 5 1 6 2 7 3 8 15 9 14 10 8 11 9 13 10 14 11 15
REMARK SMILES IDX 12 16 13 18
REMARK H PARENT 8 12 12 17
REMARK Flexibility Score: 80.00
ROOT
ATOM      1  C   UNL     1      37.505  36.461  14.898  1.00  0.00     0.139 C 
ENDROOT
BRANCH   1   2
ATOM      2  C   UNL     1      38.667  36.323  14.080  1.00  0.00     0.063 C 
BRANCH   2   3
ATOM      3  C   UNL     1      39.582  36.098  13.027  1.00  0.00     0.115 CG0
ATOM      4  G   UNL     1      38.816  35.388  11.864  1.00  0.00     0.000 G0
BRANCH   3   5
ATOM      5  N   UNL     1      40.710  35.223  13.397  1.00  0.00    -0.249 N 
ATOM      6  C   UNL     1      42.923  33.540  15.813  1.00  0.00     0.070 C 
ATOM      7  C   UNL     1      42.182  34.096  14.629  1.00  0.00     0.080 A 
ATOM      8  C   UNL     1      41.088  34.953  14.660  1.00  0.00     0.134 A 
ATOM      9  N   UNL     1      42.421  33.883  13.324  1.00  0.00    -0.136 NA
ATOM     10  N   UNL     1      41.526  34.569  12.620  1.00  0.00    -0.067 NA
ENDBRANCH   3   5
ENDBRANCH   2   3
ENDBRANCH   1   2
BRANCH   1  11
ATOM     11  O   UNL     1      37.073  37.765  15.219  1.00  0.00    -0.389 OA
ATOM     12  H   UNL     1      36.108  37.716  15.415  1.00  0.00     0.211 HD
ENDBRANCH   1  11
BRANCH   1  13
ATOM     13  C   UNL     1      36.315  35.854  14.127  1.00  0.00     0.002 C 
ATOM     14  C   UNL     1      36.531  35.063  13.058  1.00  0.00     0.002 C 
BRANCH  14  15
ATOM     15  C   UNL     1      37.666  34.541  12.317  1.00  0.00     0.139 C 
BRANCH  15  16
ATOM     16  O   UNL     1      37.269  33.625  11.302  1.00  0.00    -0.389 OA
ATOM     17  H   UNL     1      37.613  34.007  10.458  1.00  0.00     0.211 HD
ENDBRANCH  15  16
BRANCH  15  18
ATOM     18  C   UNL     1      38.809  35.392  11.858  1.00  0.00     0.063 CG0
ATOM     19  G   UNL     1      39.575  36.101  13.023  1.00  0.00     0.000 G0
ENDBRANCH  15  18
ENDBRANCH  14  15
ENDBRANCH   1  13
TORSDOF 3
BEGIN_RES LYS A 135
REMARK  4 active torsions:
REMARK  status: ('A' for Active; 'I' for Inactive)
REMARK    1  A    between atoms: CA   and  CB  
REMARK    2  A    between atoms: CB   and  CG  
REMARK    3  A    between atoms: CG   and  CD  
REMARK    4  A    between atoms: CD   and  CE  
ROOT
ATOM      1  CA  LYS A 135      33.193  34.663   9.290  1.00 25.02     0.186 C 
ENDROOT
BRANCH   1   2
ATOM      2  CB  LYS A 135      32.060  35.360  10.034  1.00 26.63     0.034 C 
BRANCH   2   3
ATOM      3  CG  LYS A 135      30.798  35.493   9.221  1.00 29.45     0.005 C 
BRANCH   3   4
ATOM      4  CD  LYS A 135      30.247  34.124   8.857  1.00 32.00     0.041 C 
BRANCH   4   5
ATOM      5  CE  LYS A 135      28.812  33.984   9.327  1.00 34.25     0.338 C 
ATOM      6  NZ  LYS A 135      27.874  34.673   8.398  1.00 35.99     0.618 N 
ENDBRANCH   4   5
ENDBRANCH   3   4
ENDBRANCH   2   3
ENDBRANCH   1   2
END_RES LYS A 135
BEGIN_RES TYR A 136
REMARK  2 active torsions:
REMARK  status: ('A' for Active; 'I' for Inactive)
REMARK    5  A    between atoms: CA   and  CB  
REMARK    6  A    between atoms: CB   and  CG  
ROOT
ATOM      7  CA  TYR A 136      36.583  36.399   8.994  1.00 26.14     0.191 C 
ENDROOT
BRANCH   7   8
ATOM      8  CB  TYR A 136      37.367  36.835  10.240  1.00 28.16     0.060 C 
BRANCH   8   9
ATOM      9  CG  TYR A 136      37.516  38.333  10.337  1.00 31.88    -0.020 A 
ATOM     10  CD2 TYR A 136      38.653  38.912  10.906  1.00 32.67    -0.002 A 
ATOM     11  CE2 TYR A 136      38.782  40.305  10.992  1.00 33.89     0.027 A 
ATOM     12  CZ  TYR A 136      37.762  41.127  10.505  1.00 34.34     0.131 A 
ATOM     13  OH  TYR A 136      37.871  42.509  10.574  1.00 35.14    -0.190 OA
ATOM     14  CE1 TYR A 136      36.625  40.569   9.938  1.00 35.01     0.027 A 
ATOM     15  CD1 TYR A 136      36.506  39.181   9.863  1.00 33.57    -0.002 A 
ENDBRANCH   8   9
ENDBRANCH   7   8
END_RES TYR A 136
BEGIN_RES ASN A 133
REMARK  2 active torsions:
REMARK  status: ('A' for Active; 'I' for Inactive)
REMARK    7  A    between atoms: CA   and  CB  
REMARK    8  A    between atoms: CB   and  CG  
ROOT
ATOM     16  CA  ASN A 133      31.225  30.257  11.749  1.00 18.15     0.196 C 
ENDROOT
BRANCH  16  17
ATOM     17  CB  ASN A 133      30.092  31.240  11.460  1.00 18.27     0.126 C 
BRANCH  17  18
ATOM     18  CG  ASN A 133      28.756  30.578  11.320  1.00 18.94     0.276 C 
ATOM     19  OD1 ASN A 133      28.588  29.638  10.541  1.00 18.09    -0.269 OA
ATOM     20  ND2 ASN A 133      27.779  31.071  12.081  1.00 18.93    -0.107 N 
ENDBRANCH  17  18
ENDBRANCH  16  17
END_RES ASN A 133
