REMARK VINA RESULT:    -4.938      2.465      3.463
REMARK INTER + INTRA:          -7.222
REMARK INTER:                  -4.340
REMARK INTRA:                  -2.883
REMARK UNBOUND:                -1.996
REMARK SMILES Cc1cn(-c2ccccc2I)nn1
REMARK SMILES IDX 5 1 6 2 7 3 8 4 9 5 10 6 11 7 4 8 1 9 2 10 3 11 13 12 12 13
REMARK H PARENT
REMARK Flexibility Score: inf
ROOT
ATOM      1  C   UNL     1      32.577  34.856  14.382  1.00  0.00     0.080 A 
ATOM      2  C   UNL     1      33.927  34.811  14.106  1.00  0.00     0.029 A 
ATOM      3  C   UNL     1      34.512  35.620  13.143  1.00  0.00     0.002 A 
ATOM      4  C   UNL     1      33.726  36.512  12.419  1.00  0.00     0.001 A 
ATOM      5  C   UNL     1      32.371  36.571  12.681  1.00  0.00     0.017 A 
ATOM      6  C   UNL     1      31.816  35.756  13.644  1.00  0.00     0.039 A 
ATOM      7  I   UNL     1      29.743  35.872  14.019  1.00  0.00    -0.042 I 
ENDROOT
BRANCH   1   8
ATOM      8  N   UNL     1      31.992  34.014  15.379  1.00  0.00    -0.219 N 
ATOM      9  C   UNL     1      30.316  31.149  16.851  1.00  0.00     0.070 C 
ATOM     10  C   UNL     1      31.014  32.423  16.489  1.00  0.00     0.080 A 
ATOM     11  C   UNL     1      31.418  32.822  15.240  1.00  0.00     0.140 A 
ATOM     12  N   UNL     1      31.366  33.402  17.339  1.00  0.00    -0.135 NA
ATOM     13  N   UNL     1      31.950  34.347  16.659  1.00  0.00    -0.062 NA
ENDBRANCH   1   8
TORSDOF 1
BEGIN_RES LYS A 135
REMARK  4 active torsions:
REMARK  status: ('A' for Active; 'I' for Inactive)
REMARK    1  A    between atoms: CA   and  CB  
REMARK    2  A    between atoms: CB   and  CG  
REMARK    3  A    between atoms: CG   and  CD  
REMARK    4  A    between atoms: CD   and  CE  
ROOT
ATOM      1  CA  LYS A 135      33.193  34.663   9.290  1.00 25.02     0.186 C 
ENDROOT
BRANCH   1   2
ATOM      2  CB  LYS A 135      32.060  35.360  10.034  1.00 26.63     0.034 C 
BRANCH   2   3
ATOM      3  CG  LYS A 135      30.715  34.714   9.824  1.00 29.45     0.005 C 
BRANCH   3   4
ATOM      4  CD  LYS A 135      30.537  34.304   8.371  1.00 32.00     0.041 C 
BRANCH   4   5
ATOM      5  CE  LYS A 135      29.429  35.111   7.721  1.00 34.25     0.338 C 
ATOM      6  NZ  LYS A 135      28.092  34.682   8.217  1.00 35.99     0.618 N 
ENDBRANCH   4   5
ENDBRANCH   3   4
ENDBRANCH   2   3
ENDBRANCH   1   2
END_RES LYS A 135
BEGIN_RES TYR A 136
REMARK  2 active torsions:
REMARK  status: ('A' for Active; 'I' for Inactive)
REMARK    5  A    between atoms: CA   and  CB  
REMARK    6  A    between atoms: CB   and  CG  
ROOT
ATOM      7  CA  TYR A 136      36.583  36.399   8.994  1.00 26.14     0.191 C 
ENDROOT
BRANCH   7   8
ATOM      8  CB  TYR A 136      37.367  36.835  10.240  1.00 28.16     0.060 C 
BRANCH   8   9
ATOM      9  CG  TYR A 136      36.739  38.017  10.937  1.00 31.88    -0.020 A 
ATOM     10  CD2 TYR A 136      37.006  38.290  12.280  1.00 32.67    -0.002 A 
ATOM     11  CE2 TYR A 136      36.416  39.390  12.918  1.00 33.89     0.027 A 
ATOM     12  CZ  TYR A 136      35.550  40.223  12.206  1.00 34.34     0.131 A 
ATOM     13  OH  TYR A 136      34.960  41.321  12.816  1.00 35.14    -0.190 OA
ATOM     14  CE1 TYR A 136      35.272  39.965  10.871  1.00 35.01     0.027 A 
ATOM     15  CD1 TYR A 136      35.861  38.864  10.248  1.00 33.57    -0.002 A 
ENDBRANCH   8   9
ENDBRANCH   7   8
END_RES TYR A 136
BEGIN_RES ASN A 133
REMARK  2 active torsions:
REMARK  status: ('A' for Active; 'I' for Inactive)
REMARK    7  A    between atoms: CA   and  CB  
REMARK    8  A    between atoms: CB   and  CG  
ROOT
ATOM     16  CA  ASN A 133      31.225  30.257  11.749  1.00 18.15     0.196 C 
ENDROOT
BRANCH  16  17
ATOM     17  CB  ASN A 133      30.092  31.240  11.460  1.00 18.27     0.126 C 
BRANCH  17  18
ATOM     18  CG  ASN A 133      28.756  30.579  11.320  1.00 18.94     0.276 C 
ATOM     19  OD1 ASN A 133      28.596  29.615  10.568  1.00 18.09    -0.269 OA
ATOM     20  ND2 ASN A 133      27.770  31.096  12.052  1.00 18.93    -0.107 N 
ENDBRANCH  17  18
ENDBRANCH  16  17
END_RES ASN A 133
