REMARK VINA RESULT:    -3.200      8.010     11.930
REMARK INTER + INTRA:          -6.602
REMARK INTER:                  -3.415
REMARK INTRA:                  -3.186
REMARK UNBOUND:                -3.214
REMARK SMILES Cc1cn(C2CCN(C)CC2)nn1
REMARK SMILES IDX 5 1 6 2 7 3 8 4 9 5 10 6 11 7 4 8 1 9 2 10 3 11 13 12 12 13
REMARK H PARENT
REMARK Flexibility Score: inf
ROOT
ATOM      1  C   UNL     1      26.336  30.729  16.179  1.00  0.00     0.111 C 
ATOM      2  C   UNL     1      27.333  29.621  16.346  1.00  0.00     0.043 C 
ATOM      3  C   UNL     1      28.653  30.116  15.752  1.00  0.00     0.086 C 
ATOM      4  N   UNL     1      28.973  31.331  16.401  1.00  0.00    -0.306 NA
ATOM      5  C   UNL     1      30.336  31.601  16.632  1.00  0.00     0.105 C 
ATOM      6  C   UNL     1      28.124  32.428  16.149  1.00  0.00     0.086 C 
ATOM      7  C   UNL     1      26.878  31.911  15.419  1.00  0.00     0.043 C 
ENDROOT
BRANCH   1   8
ATOM      8  N   UNL     1      25.194  30.189  15.469  1.00  0.00    -0.249 N 
ATOM      9  C   UNL     1      22.985  29.831  12.642  1.00  0.00     0.070 C 
ATOM     10  C   UNL     1      23.706  29.773  13.935  1.00  0.00     0.080 A 
ATOM     11  C   UNL     1      24.834  30.500  14.225  1.00  0.00     0.134 A 
ATOM     12  N   UNL     1      23.412  29.036  15.016  1.00  0.00    -0.136 NA
ATOM     13  N   UNL     1      24.329  29.313  15.920  1.00  0.00    -0.067 NA
ENDBRANCH   1   8
TORSDOF 1
BEGIN_RES LYS A 135
REMARK  4 active torsions:
REMARK  status: ('A' for Active; 'I' for Inactive)
REMARK    1  A    between atoms: CA   and  CB  
REMARK    2  A    between atoms: CB   and  CG  
REMARK    3  A    between atoms: CG   and  CD  
REMARK    4  A    between atoms: CD   and  CE  
ROOT
ATOM      1  CA  LYS A 135      33.193  34.663   9.290  1.00 25.02     0.186 C 
ENDROOT
BRANCH   1   2
ATOM      2  CB  LYS A 135      32.060  35.360  10.034  1.00 26.63     0.034 C 
BRANCH   2   3
ATOM      3  CG  LYS A 135      30.835  35.590   9.187  1.00 29.45     0.005 C 
BRANCH   3   4
ATOM      4  CD  LYS A 135      30.277  34.270   8.679  1.00 32.00     0.041 C 
BRANCH   4   5
ATOM      5  CE  LYS A 135      28.762  34.274   8.738  1.00 34.25     0.338 C 
ATOM      6  NZ  LYS A 135      28.184  35.099   7.642  1.00 35.99     0.618 N 
ENDBRANCH   4   5
ENDBRANCH   3   4
ENDBRANCH   2   3
ENDBRANCH   1   2
END_RES LYS A 135
BEGIN_RES TYR A 136
REMARK  2 active torsions:
REMARK  status: ('A' for Active; 'I' for Inactive)
REMARK    5  A    between atoms: CA   and  CB  
REMARK    6  A    between atoms: CB   and  CG  
ROOT
ATOM      7  CA  TYR A 136      36.583  36.399   8.994  1.00 26.14     0.191 C 
ENDROOT
BRANCH   7   8
ATOM      8  CB  TYR A 136      37.367  36.835  10.240  1.00 28.16     0.060 C 
BRANCH   8   9
ATOM      9  CG  TYR A 136      37.204  38.304  10.543  1.00 31.88    -0.020 A 
ATOM     10  CD2 TYR A 136      37.760  38.871  11.692  1.00 32.67    -0.002 A 
ATOM     11  CE2 TYR A 136      37.601  40.237  11.966  1.00 33.89     0.027 A 
ATOM     12  CZ  TYR A 136      36.880  41.042  11.081  1.00 34.34     0.131 A 
ATOM     13  OH  TYR A 136      36.717  42.398  11.327  1.00 35.14    -0.190 OA
ATOM     14  CE1 TYR A 136      36.321  40.495   9.935  1.00 35.01     0.027 A 
ATOM     15  CD1 TYR A 136      36.480  39.133   9.677  1.00 33.57    -0.002 A 
ENDBRANCH   8   9
ENDBRANCH   7   8
END_RES TYR A 136
BEGIN_RES ASN A 133
REMARK  2 active torsions:
REMARK  status: ('A' for Active; 'I' for Inactive)
REMARK    7  A    between atoms: CA   and  CB  
REMARK    8  A    between atoms: CB   and  CG  
ROOT
ATOM     16  CA  ASN A 133      31.225  30.257  11.749  1.00 18.15     0.196 C 
ENDROOT
BRANCH  16  17
ATOM     17  CB  ASN A 133      30.092  31.240  11.460  1.00 18.27     0.126 C 
BRANCH  17  18
ATOM     18  CG  ASN A 133      28.755  30.579  11.329  1.00 18.94     0.276 C 
ATOM     19  OD1 ASN A 133      28.603  29.578  10.627  1.00 18.09    -0.269 OA
ATOM     20  ND2 ASN A 133      27.758  31.142  12.011  1.00 18.93    -0.107 N 
ENDBRANCH  17  18
ENDBRANCH  16  17
END_RES ASN A 133
