REMARK VINA RESULT:    -3.468      4.924      7.728
REMARK INTER + INTRA:          -6.859
REMARK INTER:                  -4.704
REMARK INTRA:                  -2.155
REMARK UNBOUND:                -3.188
REMARK SMILES Cc1cn(-c2ccc(Cl)cc2)nn1
REMARK SMILES IDX 5 1 6 2 7 3 8 4 9 5 10 6 11 7 4 8 1 9 2 10 3 11 13 12 12 13
REMARK H PARENT
REMARK Flexibility Score: inf
ROOT
ATOM      1  C   UNL     1      25.420  35.634   8.983  1.00  0.00     0.066 A 
ATOM      2  C   UNL     1      26.381  34.645   8.935  1.00  0.00     0.030 A 
ATOM      3  C   UNL     1      27.435  34.658   8.059  1.00  0.00     0.023 A 
ATOM      4  C   UNL     1      27.564  35.713   7.161  1.00  0.00     0.041 A 
ATOM      5  Cl  UNL     1      28.903  35.755   6.028  1.00  0.00    -0.084 Cl
ATOM      6  C   UNL     1      26.607  36.719   7.192  1.00  0.00     0.023 A 
ATOM      7  C   UNL     1      25.556  36.676   8.088  1.00  0.00     0.030 A 
ENDROOT
BRANCH   1   8
ATOM      8  N   UNL     1      24.333  35.598   9.902  1.00  0.00    -0.220 N 
ATOM      9  C   UNL     1      20.784  35.346  10.826  1.00  0.00     0.070 C 
ATOM     10  C   UNL     1      22.255  35.468  10.711  1.00  0.00     0.080 A 
ATOM     11  C   UNL     1      23.023  35.461   9.567  1.00  0.00     0.140 A 
ATOM     12  N   UNL     1      23.121  35.610  11.725  1.00  0.00    -0.135 NA
ATOM     13  N   UNL     1      24.342  35.685  11.222  1.00  0.00    -0.062 NA
ENDBRANCH   1   8
TORSDOF 1
BEGIN_RES LYS A 135
REMARK  4 active torsions:
REMARK  status: ('A' for Active; 'I' for Inactive)
REMARK    1  A    between atoms: CA   and  CB  
REMARK    2  A    between atoms: CB   and  CG  
REMARK    3  A    between atoms: CG   and  CD  
REMARK    4  A    between atoms: CD   and  CE  
ROOT
ATOM      1  CA  LYS A 135      33.193  34.663   9.290  1.00 25.02     0.186 C 
ENDROOT
BRANCH   1   2
ATOM      2  CB  LYS A 135      32.060  35.360  10.034  1.00 26.63     0.034 C 
BRANCH   2   3
ATOM      3  CG  LYS A 135      30.831  35.582   9.190  1.00 29.45     0.005 C 
BRANCH   3   4
ATOM      4  CD  LYS A 135      30.037  36.774   9.701  1.00 32.00     0.041 C 
BRANCH   4   5
ATOM      5  CE  LYS A 135      30.080  37.911   8.698  1.00 34.25     0.338 C 
ATOM      6  NZ  LYS A 135      31.353  38.676   8.809  1.00 35.99     0.618 N 
ENDBRANCH   4   5
ENDBRANCH   3   4
ENDBRANCH   2   3
ENDBRANCH   1   2
END_RES LYS A 135
BEGIN_RES TYR A 136
REMARK  2 active torsions:
REMARK  status: ('A' for Active; 'I' for Inactive)
REMARK    5  A    between atoms: CA   and  CB  
REMARK    6  A    between atoms: CB   and  CG  
ROOT
ATOM      7  CA  TYR A 136      36.583  36.399   8.994  1.00 26.14     0.191 C 
ENDROOT
BRANCH   7   8
ATOM      8  CB  TYR A 136      37.367  36.835  10.240  1.00 28.16     0.060 C 
BRANCH   8   9
ATOM      9  CG  TYR A 136      37.213  38.306  10.537  1.00 31.88    -0.020 A 
ATOM     10  CD2 TYR A 136      36.473  39.140   9.696  1.00 32.67    -0.002 A 
ATOM     11  CE2 TYR A 136      36.337  40.506   9.980  1.00 33.89     0.027 A 
ATOM     12  CZ  TYR A 136      36.947  41.042  11.117  1.00 34.34     0.131 A 
ATOM     13  OH  TYR A 136      36.820  42.390  11.422  1.00 35.14    -0.190 OA
ATOM     14  CE1 TYR A 136      37.687  40.229  11.963  1.00 35.01     0.027 A 
ATOM     15  CD1 TYR A 136      37.821  38.871  11.666  1.00 33.57    -0.002 A 
ENDBRANCH   8   9
ENDBRANCH   7   8
END_RES TYR A 136
BEGIN_RES ASN A 133
REMARK  2 active torsions:
REMARK  status: ('A' for Active; 'I' for Inactive)
REMARK    7  A    between atoms: CA   and  CB  
REMARK    8  A    between atoms: CB   and  CG  
ROOT
ATOM     16  CA  ASN A 133      31.225  30.257  11.749  1.00 18.15     0.196 C 
ENDROOT
BRANCH  16  17
ATOM     17  CB  ASN A 133      30.092  31.240  11.460  1.00 18.27     0.126 C 
BRANCH  17  18
ATOM     18  CG  ASN A 133      28.749  30.585  11.369  1.00 18.94     0.276 C 
ATOM     19  OD1 ASN A 133      28.563  29.609  10.640  1.00 18.09    -0.269 OA
ATOM     20  ND2 ASN A 133      27.786  31.122  12.117  1.00 18.93    -0.107 N 
ENDBRANCH  17  18
ENDBRANCH  16  17
END_RES ASN A 133
