REMARK VINA RESULT:    -3.468      1.312      3.507
REMARK INTER + INTRA:          -6.818
REMARK INTER:                  -4.190
REMARK INTRA:                  -2.628
REMARK UNBOUND:                -3.147
REMARK SMILES Cc1cn(-c2ccncc2)nn1
REMARK SMILES IDX 1 1 2 2 3 3 4 4 11 5 12 6 5 7 6 8 10 9 7 10 9 11 8 12
REMARK H PARENT
REMARK Flexibility Score: inf
ROOT
ATOM      1  C   UNL     1      21.042  36.573  -0.840  1.00  0.00     0.070 C 
ATOM      2  C   UNL     1      21.740  35.363  -0.364  1.00  0.00     0.080 A 
ATOM      3  C   UNL     1      21.485  34.037  -0.689  1.00  0.00     0.140 A 
ATOM      4  N   UNL     1      22.356  33.255  -0.034  1.00  0.00    -0.220 N 
ATOM      5  N   UNL     1      23.130  34.060   0.675  1.00  0.00    -0.062 NA
ATOM      6  N   UNL     1      22.776  35.324   0.490  1.00  0.00    -0.135 NA
ENDROOT
BRANCH   4   7
ATOM      7  C   UNL     1      22.418  31.834  -0.104  1.00  0.00     0.069 A 
ATOM      8  C   UNL     1      21.884  31.164  -1.192  1.00  0.00     0.048 A 
ATOM      9  C   UNL     1      22.993  31.061   0.876  1.00  0.00     0.048 A 
ATOM     10  C   UNL     1      21.948  29.799  -1.251  1.00  0.00     0.113 A 
ATOM     11  C   UNL     1      23.055  29.687   0.814  1.00  0.00     0.113 A 
ATOM     12  N   UNL     1      22.520  29.099  -0.267  1.00  0.00    -0.265 NA
ENDBRANCH   4   7
TORSDOF 1
BEGIN_RES LYS A 135
REMARK  4 active torsions:
REMARK  status: ('A' for Active; 'I' for Inactive)
REMARK    1  A    between atoms: CA   and  CB  
REMARK    2  A    between atoms: CB   and  CG  
REMARK    3  A    between atoms: CG   and  CD  
REMARK    4  A    between atoms: CD   and  CE  
ROOT
ATOM      1  CA  LYS A 135      33.193  34.663   9.290  1.00 25.02     0.186 C 
ENDROOT
BRANCH   1   2
ATOM      2  CB  LYS A 135      32.060  35.360  10.034  1.00 26.63     0.034 C 
BRANCH   2   3
ATOM      3  CG  LYS A 135      30.710  34.731   9.802  1.00 29.45     0.005 C 
BRANCH   3   4
ATOM      4  CD  LYS A 135      30.444  34.566   8.314  1.00 32.00     0.041 C 
BRANCH   4   5
ATOM      5  CE  LYS A 135      29.410  35.572   7.843  1.00 34.25     0.338 C 
ATOM      6  NZ  LYS A 135      28.059  34.951   7.755  1.00 35.99     0.618 N 
ENDBRANCH   4   5
ENDBRANCH   3   4
ENDBRANCH   2   3
ENDBRANCH   1   2
END_RES LYS A 135
BEGIN_RES TYR A 136
REMARK  2 active torsions:
REMARK  status: ('A' for Active; 'I' for Inactive)
REMARK    5  A    between atoms: CA   and  CB  
REMARK    6  A    between atoms: CB   and  CG  
ROOT
ATOM      7  CA  TYR A 136      36.583  36.399   8.994  1.00 26.14     0.191 C 
ENDROOT
BRANCH   7   8
ATOM      8  CB  TYR A 136      37.367  36.835  10.240  1.00 28.16     0.060 C 
BRANCH   8   9
ATOM      9  CG  TYR A 136      37.267  38.318  10.499  1.00 31.88    -0.020 A 
ATOM     10  CD2 TYR A 136      38.345  39.035  11.022  1.00 32.67    -0.002 A 
ATOM     11  CE2 TYR A 136      38.241  40.413  11.261  1.00 33.89     0.027 A 
ATOM     12  CZ  TYR A 136      37.047  41.078  10.973  1.00 34.34     0.131 A 
ATOM     13  OH  TYR A 136      36.924  42.443  11.195  1.00 35.14    -0.190 OA
ATOM     14  CE1 TYR A 136      35.965  40.381  10.455  1.00 35.01     0.027 A 
ATOM     15  CD1 TYR A 136      36.079  39.009  10.227  1.00 33.57    -0.002 A 
ENDBRANCH   8   9
ENDBRANCH   7   8
END_RES TYR A 136
BEGIN_RES ASN A 133
REMARK  2 active torsions:
REMARK  status: ('A' for Active; 'I' for Inactive)
REMARK    7  A    between atoms: CA   and  CB  
REMARK    8  A    between atoms: CB   and  CG  
ROOT
ATOM     16  CA  ASN A 133      31.225  30.257  11.749  1.00 18.15     0.196 C 
ENDROOT
BRANCH  16  17
ATOM     17  CB  ASN A 133      30.092  31.240  11.460  1.00 18.27     0.126 C 
BRANCH  17  18
ATOM     18  CG  ASN A 133      28.748  30.586  11.376  1.00 18.94     0.276 C 
ATOM     19  OD1 ASN A 133      27.812  30.955  12.088  1.00 18.09    -0.269 OA
ATOM     20  ND2 ASN A 133      28.637  29.592  10.495  1.00 18.93    -0.107 N 
ENDBRANCH  17  18
ENDBRANCH  16  17
END_RES ASN A 133
