REMARK VINA RESULT:    -4.182      2.146      3.927
REMARK INTER + INTRA:          -9.134
REMARK INTER:                  -5.321
REMARK INTRA:                  -3.813
REMARK UNBOUND:                -3.485
REMARK SMILES Cc1cn([C@@H](CCC(=O)O)C(=O)O)nn1
REMARK SMILES IDX 6 1 5 2 4 3 1 4 2 5 3 6 15 7 14 8 11 9 12 10 13 11 7 13 8 14
REMARK SMILES IDX 9 15 10 16
REMARK H PARENT 13 12 10 17
REMARK Flexibility Score: inf
ROOT
ATOM      1  C   UNL     1      38.245  35.033  13.704  1.00  0.00     0.051 C 
ENDROOT
BRANCH   1   2
ATOM      2  C   UNL     1      37.025  35.156  12.829  1.00  0.00     0.219 C 
BRANCH   2   3
ATOM      3  N   UNL     1      36.098  36.150  13.318  1.00  0.00    -0.238 N 
ATOM      4  C   UNL     1      34.880  38.692  15.641  1.00  0.00     0.070 C 
ATOM      5  C   UNL     1      35.136  37.714  14.548  1.00  0.00     0.080 A 
ATOM      6  C   UNL     1      36.221  36.898  14.451  1.00  0.00     0.135 A 
ATOM      7  N   UNL     1      34.364  37.460  13.477  1.00  0.00    -0.136 NA
ATOM      8  N   UNL     1      34.944  36.532  12.755  1.00  0.00    -0.066 NA
ENDBRANCH   2   3
BRANCH   2   9
ATOM      9  C   UNL     1      36.352  33.885  12.580  1.00  0.00     0.328 C 
ATOM     10  O   UNL     1      36.981  32.949  12.039  1.00  0.00    -0.250 OA
BRANCH   9  11
ATOM     11  O   UNL     1      35.033  33.661  12.917  1.00  0.00    -0.480 OA
ATOM     12  H   UNL     1      34.478  34.351  13.445  1.00  0.00     0.296 HD
ENDBRANCH   9  11
ENDBRANCH   2   9
ENDBRANCH   1   2
BRANCH   1  13
ATOM     13  C   UNL     1      39.514  35.410  12.971  1.00  0.00     0.125 C 
BRANCH  13  14
ATOM     14  C   UNL     1      40.365  34.207  12.780  1.00  0.00     0.303 C 
ATOM     15  O   UNL     1      41.614  34.243  12.911  1.00  0.00    -0.252 OA
BRANCH  14  16
ATOM     16  O   UNL     1      39.807  32.982  12.444  1.00  0.00    -0.481 OA
ATOM     17  H   UNL     1      39.887  32.170  13.066  1.00  0.00     0.296 HD
ENDBRANCH  14  16
ENDBRANCH  13  14
ENDBRANCH   1  13
TORSDOF 7
BEGIN_RES LYS A 135
REMARK  4 active torsions:
REMARK  status: ('A' for Active; 'I' for Inactive)
REMARK    1  A    between atoms: CA   and  CB  
REMARK    2  A    between atoms: CB   and  CG  
REMARK    3  A    between atoms: CG   and  CD  
REMARK    4  A    between atoms: CD   and  CE  
ROOT
ATOM      1  CA  LYS A 135      33.193  34.663   9.290  1.00 25.02     0.186 C 
ENDROOT
BRANCH   1   2
ATOM      2  CB  LYS A 135      32.060  35.360  10.034  1.00 26.63     0.034 C 
BRANCH   2   3
ATOM      3  CG  LYS A 135      30.700  34.783   9.738  1.00 29.45     0.005 C 
BRANCH   3   4
ATOM      4  CD  LYS A 135      30.492  34.642   8.238  1.00 32.00     0.041 C 
BRANCH   4   5
ATOM      5  CE  LYS A 135      29.036  34.869   7.878  1.00 34.25     0.338 C 
ATOM      6  NZ  LYS A 135      28.866  36.130   7.103  1.00 35.99     0.618 N 
ENDBRANCH   4   5
ENDBRANCH   3   4
ENDBRANCH   2   3
ENDBRANCH   1   2
END_RES LYS A 135
BEGIN_RES TYR A 136
REMARK  2 active torsions:
REMARK  status: ('A' for Active; 'I' for Inactive)
REMARK    5  A    between atoms: CA   and  CB  
REMARK    6  A    between atoms: CB   and  CG  
ROOT
ATOM      7  CA  TYR A 136      36.583  36.399   8.994  1.00 26.14     0.191 C 
ENDROOT
BRANCH   7   8
ATOM      8  CB  TYR A 136      37.367  36.835  10.240  1.00 28.16     0.060 C 
BRANCH   8   9
ATOM      9  CG  TYR A 136      37.197  38.302  10.548  1.00 31.88    -0.020 A 
ATOM     10  CD2 TYR A 136      37.766  38.872  11.690  1.00 32.67    -0.002 A 
ATOM     11  CE2 TYR A 136      37.601  40.236  11.968  1.00 33.89     0.027 A 
ATOM     12  CZ  TYR A 136      36.859  41.037  11.096  1.00 34.34     0.131 A 
ATOM     13  OH  TYR A 136      36.688  42.391  11.348  1.00 35.14    -0.190 OA
ATOM     14  CE1 TYR A 136      36.286  40.487   9.958  1.00 35.01     0.027 A 
ATOM     15  CD1 TYR A 136      36.452  39.126   9.695  1.00 33.57    -0.002 A 
ENDBRANCH   8   9
ENDBRANCH   7   8
END_RES TYR A 136
BEGIN_RES ASN A 133
REMARK  2 active torsions:
REMARK  status: ('A' for Active; 'I' for Inactive)
REMARK    7  A    between atoms: CA   and  CB  
REMARK    8  A    between atoms: CB   and  CG  
ROOT
ATOM     16  CA  ASN A 133      31.225  30.257  11.749  1.00 18.15     0.196 C 
ENDROOT
BRANCH  16  17
ATOM     17  CB  ASN A 133      30.092  31.240  11.460  1.00 18.27     0.126 C 
BRANCH  17  18
ATOM     18  CG  ASN A 133      28.747  30.586  11.382  1.00 18.94     0.276 C 
ATOM     19  OD1 ASN A 133      28.559  29.597  10.672  1.00 18.09    -0.269 OA
ATOM     20  ND2 ASN A 133      27.786  31.141  12.120  1.00 18.93    -0.107 N 
ENDBRANCH  17  18
ENDBRANCH  16  17
END_RES ASN A 133
