REMARK VINA RESULT:    -3.763      4.166      5.426
REMARK INTER + INTRA:          -7.923
REMARK INTER:                  -4.641
REMARK INTRA:                  -3.281
REMARK UNBOUND:                -3.500
REMARK SMILES Cc1cn(CS(=O)(=O)c2ccccc2)nn1
REMARK SMILES IDX 5 1 4 2 1 3 2 4 3 5 16 6 15 7 6 8 7 9 8 10 9 11 10 12 14 13
REMARK SMILES IDX 11 14 13 15 12 16
REMARK H PARENT
REMARK Flexibility Score: inf
ROOT
ATOM      1  C   UNL     1      32.718  34.229  14.286  1.00  0.00     0.287 C 
ENDROOT
BRANCH   1   2
ATOM      2  N   UNL     1      33.384  35.302  13.573  1.00  0.00    -0.237 N 
ATOM      3  C   UNL     1      33.647  38.253  11.408  1.00  0.00     0.070 C 
ATOM      4  C   UNL     1      33.846  37.084  12.305  1.00  0.00     0.080 A 
ATOM      5  C   UNL     1      32.840  36.254  12.792  1.00  0.00     0.135 A 
ATOM      6  N   UNL     1      34.980  36.584  12.825  1.00  0.00    -0.136 NA
ATOM      7  N   UNL     1      34.698  35.529  13.574  1.00  0.00    -0.066 NA
ENDBRANCH   1   2
BRANCH   1   8
ATOM      8  S   UNL     1      32.105  34.763  15.858  1.00  0.00     0.198 S 
ATOM      9  O   UNL     1      31.093  35.859  15.727  1.00  0.00    -0.222 OA
ATOM     10  O   UNL     1      33.233  35.304  16.691  1.00  0.00    -0.222 OA
BRANCH   8  11
ATOM     11  C   UNL     1      31.378  33.458  16.745  1.00  0.00     0.069 A 
ATOM     12  C   UNL     1      31.168  33.525  18.115  1.00  0.00     0.020 A 
ATOM     13  C   UNL     1      30.997  32.325  16.087  1.00  0.00     0.020 A 
ATOM     14  C   UNL     1      30.592  32.485  18.802  1.00  0.00     0.001 A 
ATOM     15  C   UNL     1      30.409  31.243  16.736  1.00  0.00     0.001 A 
ATOM     16  C   UNL     1      30.213  31.337  18.096  1.00  0.00     0.000 A 
ENDBRANCH   8  11
ENDBRANCH   1   8
TORSDOF 3
BEGIN_RES LYS A 135
REMARK  4 active torsions:
REMARK  status: ('A' for Active; 'I' for Inactive)
REMARK    1  A    between atoms: CA   and  CB  
REMARK    2  A    between atoms: CB   and  CG  
REMARK    3  A    between atoms: CG   and  CD  
REMARK    4  A    between atoms: CD   and  CE  
ROOT
ATOM      1  CA  LYS A 135      33.193  34.663   9.290  1.00 25.02     0.186 C 
ENDROOT
BRANCH   1   2
ATOM      2  CB  LYS A 135      32.060  35.360  10.034  1.00 26.63     0.034 C 
BRANCH   2   3
ATOM      3  CG  LYS A 135      30.753  34.612   9.979  1.00 29.45     0.005 C 
BRANCH   3   4
ATOM      4  CD  LYS A 135      30.346  34.348   8.537  1.00 32.00     0.041 C 
BRANCH   4   5
ATOM      5  CE  LYS A 135      28.856  34.562   8.357  1.00 34.25     0.338 C 
ATOM      6  NZ  LYS A 135      28.077  33.796   9.369  1.00 35.99     0.618 N 
ENDBRANCH   4   5
ENDBRANCH   3   4
ENDBRANCH   2   3
ENDBRANCH   1   2
END_RES LYS A 135
BEGIN_RES TYR A 136
REMARK  2 active torsions:
REMARK  status: ('A' for Active; 'I' for Inactive)
REMARK    5  A    between atoms: CA   and  CB  
REMARK    6  A    between atoms: CB   and  CG  
ROOT
ATOM      7  CA  TYR A 136      36.583  36.399   8.994  1.00 26.14     0.191 C 
ENDROOT
BRANCH   7   8
ATOM      8  CB  TYR A 136      37.367  36.835  10.240  1.00 28.16     0.060 C 
BRANCH   8   9
ATOM      9  CG  TYR A 136      37.229  38.310  10.525  1.00 31.88    -0.020 A 
ATOM     10  CD2 TYR A 136      37.577  38.842  11.769  1.00 32.67    -0.002 A 
ATOM     11  CE2 TYR A 136      37.444  40.213  12.025  1.00 33.89     0.027 A 
ATOM     12  CZ  TYR A 136      36.957  41.061  11.026  1.00 34.34     0.131 A 
ATOM     13  OH  TYR A 136      36.824  42.423  11.255  1.00 35.14    -0.190 OA
ATOM     14  CE1 TYR A 136      36.605  40.550   9.786  1.00 35.01     0.027 A 
ATOM     15  CD1 TYR A 136      36.737  39.181   9.545  1.00 33.57    -0.002 A 
ENDBRANCH   8   9
ENDBRANCH   7   8
END_RES TYR A 136
BEGIN_RES ASN A 133
REMARK  2 active torsions:
REMARK  status: ('A' for Active; 'I' for Inactive)
REMARK    7  A    between atoms: CA   and  CB  
REMARK    8  A    between atoms: CB   and  CG  
ROOT
ATOM     16  CA  ASN A 133      31.225  30.257  11.749  1.00 18.15     0.196 C 
ENDROOT
BRANCH  16  17
ATOM     17  CB  ASN A 133      30.092  31.240  11.460  1.00 18.27     0.126 C 
BRANCH  17  18
ATOM     18  CG  ASN A 133      28.757  30.578  11.313  1.00 18.94     0.276 C 
ATOM     19  OD1 ASN A 133      28.605  29.607  10.569  1.00 18.09    -0.269 OA
ATOM     20  ND2 ASN A 133      27.764  31.103  12.028  1.00 18.93    -0.107 N 
ENDBRANCH  17  18
ENDBRANCH  16  17
END_RES ASN A 133
