REMARK VINA RESULT:    -4.016      3.280      5.066
REMARK INTER + INTRA:          -7.330
REMARK INTER:                  -4.158
REMARK INTRA:                  -3.172
REMARK UNBOUND:                -3.079
REMARK SMILES Cc1cn(-c2ccc(Br)cc2)nn1
REMARK SMILES IDX 5 1 6 2 7 3 8 4 9 5 10 6 11 7 4 8 1 9 2 10 3 11 13 12 12 13
REMARK H PARENT
REMARK Flexibility Score: inf
ROOT
ATOM      1  C   UNL     1      30.188  31.747  17.524  1.00  0.00     0.066 A 
ATOM      2  C   UNL     1      30.533  31.536  16.189  1.00  0.00     0.029 A 
ATOM      3  C   UNL     1      31.292  32.430  15.495  1.00  0.00     0.018 A 
ATOM      4  C   UNL     1      31.722  33.563  16.139  1.00  0.00     0.018 A 
ATOM      5  Br  UNL     1      32.785  34.819  15.171  1.00  0.00    -0.051 Br
ATOM      6  C   UNL     1      31.407  33.818  17.464  1.00  0.00     0.018 A 
ATOM      7  C   UNL     1      30.636  32.897  18.143  1.00  0.00     0.029 A 
ENDROOT
BRANCH   1   8
ATOM      8  N   UNL     1      29.401  30.812  18.232  1.00  0.00    -0.220 N 
ATOM      9  C   UNL     1      26.677  28.484  18.986  1.00  0.00     0.070 C 
ATOM     10  C   UNL     1      27.868  29.365  18.913  1.00  0.00     0.080 A 
ATOM     11  C   UNL     1      28.261  30.189  17.895  1.00  0.00     0.140 A 
ATOM     12  N   UNL     1      28.805  29.510  19.874  1.00  0.00    -0.135 NA
ATOM     13  N   UNL     1      29.710  30.378  19.446  1.00  0.00    -0.062 NA
ENDBRANCH   1   8
TORSDOF 1
BEGIN_RES LYS A 135
REMARK  4 active torsions:
REMARK  status: ('A' for Active; 'I' for Inactive)
REMARK    1  A    between atoms: CA   and  CB  
REMARK    2  A    between atoms: CB   and  CG  
REMARK    3  A    between atoms: CG   and  CD  
REMARK    4  A    between atoms: CD   and  CE  
ROOT
ATOM      1  CA  LYS A 135      33.193  34.663   9.290  1.00 25.02     0.186 C 
ENDROOT
BRANCH   1   2
ATOM      2  CB  LYS A 135      32.060  35.360  10.034  1.00 26.63     0.034 C 
BRANCH   2   3
ATOM      3  CG  LYS A 135      30.731  34.664   9.896  1.00 29.45     0.005 C 
BRANCH   3   4
ATOM      4  CD  LYS A 135      30.326  34.564   8.434  1.00 32.00     0.041 C 
BRANCH   4   5
ATOM      5  CE  LYS A 135      28.816  34.529   8.300  1.00 34.25     0.338 C 
ATOM      6  NZ  LYS A 135      28.192  33.815   9.448  1.00 35.99     0.618 N 
ENDBRANCH   4   5
ENDBRANCH   3   4
ENDBRANCH   2   3
ENDBRANCH   1   2
END_RES LYS A 135
BEGIN_RES TYR A 136
REMARK  2 active torsions:
REMARK  status: ('A' for Active; 'I' for Inactive)
REMARK    5  A    between atoms: CA   and  CB  
REMARK    6  A    between atoms: CB   and  CG  
ROOT
ATOM      7  CA  TYR A 136      36.583  36.399   8.994  1.00 26.14     0.191 C 
ENDROOT
BRANCH   7   8
ATOM      8  CB  TYR A 136      37.367  36.835  10.240  1.00 28.16     0.060 C 
BRANCH   8   9
ATOM      9  CG  TYR A 136      37.333  38.328  10.454  1.00 31.88    -0.020 A 
ATOM     10  CD2 TYR A 136      38.251  38.959  11.296  1.00 32.67    -0.002 A 
ATOM     11  CE2 TYR A 136      38.209  40.347  11.489  1.00 33.89     0.027 A 
ATOM     12  CZ  TYR A 136      37.239  41.110  10.835  1.00 34.34     0.131 A 
ATOM     13  OH  TYR A 136      37.184  42.486  11.006  1.00 35.14    -0.190 OA
ATOM     14  CE1 TYR A 136      36.319  40.499   9.995  1.00 35.01     0.027 A 
ATOM     15  CD1 TYR A 136      36.366  39.116   9.816  1.00 33.57    -0.002 A 
ENDBRANCH   8   9
ENDBRANCH   7   8
END_RES TYR A 136
BEGIN_RES ASN A 133
REMARK  2 active torsions:
REMARK  status: ('A' for Active; 'I' for Inactive)
REMARK    7  A    between atoms: CA   and  CB  
REMARK    8  A    between atoms: CB   and  CG  
ROOT
ATOM     16  CA  ASN A 133      31.225  30.257  11.749  1.00 18.15     0.196 C 
ENDROOT
BRANCH  16  17
ATOM     17  CB  ASN A 133      30.092  31.240  11.460  1.00 18.27     0.126 C 
BRANCH  17  18
ATOM     18  CG  ASN A 133      28.757  30.578  11.314  1.00 18.94     0.276 C 
ATOM     19  OD1 ASN A 133      28.603  29.609  10.568  1.00 18.09    -0.269 OA
ATOM     20  ND2 ASN A 133      27.765  31.102  12.033  1.00 18.93    -0.107 N 
ENDBRANCH  17  18
ENDBRANCH  16  17
END_RES ASN A 133
