REMARK VINA RESULT:    -3.883      8.412     14.181
REMARK INTER + INTRA:          -7.577
REMARK INTER:                  -4.337
REMARK INTRA:                  -3.239
REMARK UNBOUND:                -3.239
REMARK SMILES Cc1cn(Cc2ccccc2)nn1
REMARK SMILES IDX 5 1 4 2 1 3 2 4 3 5 13 6 12 7 6 8 7 9 11 10 8 11 10 12 9 13
REMARK H PARENT
REMARK Flexibility Score: inf
ROOT
ATOM      1  C   UNL     1      21.294  33.802  -0.653  1.00  0.00     0.181 C 
ENDROOT
BRANCH   1   2
ATOM      2  N   UNL     1      22.234  34.531  -1.487  1.00  0.00    -0.248 N 
ATOM      3  C   UNL     1      24.946  36.788  -2.289  1.00  0.00     0.070 C 
ATOM      4  C   UNL     1      23.813  35.819  -2.227  1.00  0.00     0.080 A 
ATOM      5  C   UNL     1      23.176  35.379  -1.083  1.00  0.00     0.134 A 
ATOM      6  N   UNL     1      23.227  35.216  -3.275  1.00  0.00    -0.136 NA
ATOM      7  N   UNL     1      22.273  34.440  -2.799  1.00  0.00    -0.067 NA
ENDBRANCH   1   2
BRANCH   1   8
ATOM      8  C   UNL     1      21.793  32.400  -0.515  1.00  0.00    -0.026 A 
ATOM      9  C   UNL     1      22.548  32.022   0.580  1.00  0.00     0.005 A 
ATOM     10  C   UNL     1      21.528  31.428  -1.462  1.00  0.00     0.005 A 
ATOM     11  C   UNL     1      23.009  30.729   0.707  1.00  0.00     0.000 A 
ATOM     12  C   UNL     1      21.987  30.133  -1.338  1.00  0.00     0.000 A 
ATOM     13  C   UNL     1      22.740  29.759  -0.245  1.00  0.00     0.000 A 
ENDBRANCH   1   8
TORSDOF 2
BEGIN_RES LYS A 135
REMARK  4 active torsions:
REMARK  status: ('A' for Active; 'I' for Inactive)
REMARK    1  A    between atoms: CA   and  CB  
REMARK    2  A    between atoms: CB   and  CG  
REMARK    3  A    between atoms: CG   and  CD  
REMARK    4  A    between atoms: CD   and  CE  
ROOT
ATOM      1  CA  LYS A 135      33.193  34.663   9.290  1.00 25.02     0.186 C 
ENDROOT
BRANCH   1   2
ATOM      2  CB  LYS A 135      32.060  35.360  10.034  1.00 26.63     0.034 C 
BRANCH   2   3
ATOM      3  CG  LYS A 135      30.822  35.557   9.198  1.00 29.45     0.005 C 
BRANCH   3   4
ATOM      4  CD  LYS A 135      30.205  34.217   8.828  1.00 32.00     0.041 C 
BRANCH   4   5
ATOM      5  CE  LYS A 135      28.726  34.375   8.533  1.00 34.25     0.338 C 
ATOM      6  NZ  LYS A 135      27.897  33.675   9.553  1.00 35.99     0.618 N 
ENDBRANCH   4   5
ENDBRANCH   3   4
ENDBRANCH   2   3
ENDBRANCH   1   2
END_RES LYS A 135
BEGIN_RES TYR A 136
REMARK  2 active torsions:
REMARK  status: ('A' for Active; 'I' for Inactive)
REMARK    5  A    between atoms: CA   and  CB  
REMARK    6  A    between atoms: CB   and  CG  
ROOT
ATOM      7  CA  TYR A 136      36.583  36.399   8.994  1.00 26.14     0.191 C 
ENDROOT
BRANCH   7   8
ATOM      8  CB  TYR A 136      37.367  36.835  10.240  1.00 28.16     0.060 C 
BRANCH   8   9
ATOM      9  CG  TYR A 136      37.209  38.305  10.540  1.00 31.88    -0.020 A 
ATOM     10  CD2 TYR A 136      37.763  38.872  11.690  1.00 32.67    -0.002 A 
ATOM     11  CE2 TYR A 136      37.609  40.239  11.960  1.00 33.89     0.027 A 
ATOM     12  CZ  TYR A 136      36.893  41.046  11.072  1.00 34.34     0.131 A 
ATOM     13  OH  TYR A 136      36.734  42.403  11.315  1.00 35.14    -0.190 OA
ATOM     14  CE1 TYR A 136      36.335  40.499   9.925  1.00 35.01     0.027 A 
ATOM     15  CD1 TYR A 136      36.490  39.135   9.670  1.00 33.57    -0.002 A 
ENDBRANCH   8   9
ENDBRANCH   7   8
END_RES TYR A 136
BEGIN_RES ASN A 133
REMARK  2 active torsions:
REMARK  status: ('A' for Active; 'I' for Inactive)
REMARK    7  A    between atoms: CA   and  CB  
REMARK    8  A    between atoms: CB   and  CG  
ROOT
ATOM     16  CA  ASN A 133      31.225  30.257  11.749  1.00 18.15     0.196 C 
ENDROOT
BRANCH  16  17
ATOM     17  CB  ASN A 133      30.092  31.240  11.460  1.00 18.27     0.126 C 
BRANCH  17  18
ATOM     18  CG  ASN A 133      28.749  30.585  11.371  1.00 18.94     0.276 C 
ATOM     19  OD1 ASN A 133      28.562  29.608  10.643  1.00 18.09    -0.269 OA
ATOM     20  ND2 ASN A 133      27.787  31.124  12.119  1.00 18.93    -0.107 N 
ENDBRANCH  17  18
ENDBRANCH  16  17
END_RES ASN A 133
