REMARK VINA RESULT:    -5.614      1.697      4.571
REMARK INTER + INTRA:          -8.927
REMARK INTER:                  -5.912
REMARK INTRA:                  -3.016
REMARK UNBOUND:                -2.985
REMARK SMILES Cc1cn(-c2c3ccccc3nc3ccccc23)nn1
REMARK SMILES IDX 5 1 6 2 7 3 8 4 9 5 10 6 11 7 12 8 13 9 14 10 15 11 16 12
REMARK SMILES IDX 17 13 18 14 4 15 1 16 2 17 3 18 20 19 19 20
REMARK H PARENT
REMARK Flexibility Score: inf
ROOT
ATOM      1  C   UNL     1      32.802  35.623  13.728  1.00  0.00     0.085 A 
ATOM      2  C   UNL     1      32.347  36.587  12.844  1.00  0.00     0.027 A 
ATOM      3  C   UNL     1      33.235  37.311  12.077  1.00  0.00     0.012 A 
ATOM      4  C   UNL     1      32.755  38.264  11.205  1.00  0.00     0.001 A 
ATOM      5  C   UNL     1      31.392  38.454  11.138  1.00  0.00     0.002 A 
ATOM      6  C   UNL     1      30.515  37.732  11.900  1.00  0.00     0.029 A 
ATOM      7  C   UNL     1      30.980  36.762  12.789  1.00  0.00     0.073 A 
ATOM      8  N   UNL     1      30.103  36.066  13.528  1.00  0.00    -0.248 NA
ATOM      9  C   UNL     1      30.545  35.114  14.402  1.00  0.00     0.073 A 
ATOM     10  C   UNL     1      29.648  34.392  15.167  1.00  0.00     0.029 A 
ATOM     11  C   UNL     1      30.157  33.446  16.030  1.00  0.00     0.002 A 
ATOM     12  C   UNL     1      31.516  33.217  16.137  1.00  0.00     0.001 A 
ATOM     13  C   UNL     1      32.381  33.936  15.376  1.00  0.00     0.012 A 
ATOM     14  C   UNL     1      31.897  34.886  14.507  1.00  0.00     0.027 A 
ENDROOT
BRANCH   1  15
ATOM     15  N   UNL     1      34.191  35.364  13.861  1.00  0.00    -0.219 N 
ATOM     16  C   UNL     1      37.386  33.743  13.069  1.00  0.00     0.070 C 
ATOM     17  C   UNL     1      36.222  34.548  13.588  1.00  0.00     0.080 A 
ATOM     18  C   UNL     1      34.919  34.497  13.148  1.00  0.00     0.140 A 
ATOM     19  N   UNL     1      36.260  35.455  14.572  1.00  0.00    -0.135 NA
ATOM     20  N   UNL     1      35.034  35.914  14.700  1.00  0.00    -0.062 NA
ENDBRANCH   1  15
TORSDOF 1
BEGIN_RES LYS A 135
REMARK  4 active torsions:
REMARK  status: ('A' for Active; 'I' for Inactive)
REMARK    1  A    between atoms: CA   and  CB  
REMARK    2  A    between atoms: CB   and  CG  
REMARK    3  A    between atoms: CG   and  CD  
REMARK    4  A    between atoms: CD   and  CE  
ROOT
ATOM      1  CA  LYS A 135      33.193  34.663   9.290  1.00 25.02     0.186 C 
ENDROOT
BRANCH   1   2
ATOM      2  CB  LYS A 135      32.060  35.360  10.034  1.00 26.63     0.034 C 
BRANCH   2   3
ATOM      3  CG  LYS A 135      30.725  34.680   9.873  1.00 29.45     0.005 C 
BRANCH   3   4
ATOM      4  CD  LYS A 135      30.349  34.578   8.403  1.00 32.00     0.041 C 
BRANCH   4   5
ATOM      5  CE  LYS A 135      28.841  34.593   8.237  1.00 34.25     0.338 C 
ATOM      6  NZ  LYS A 135      28.170  33.882   9.360  1.00 35.99     0.618 N 
ENDBRANCH   4   5
ENDBRANCH   3   4
ENDBRANCH   2   3
ENDBRANCH   1   2
END_RES LYS A 135
BEGIN_RES TYR A 136
REMARK  2 active torsions:
REMARK  status: ('A' for Active; 'I' for Inactive)
REMARK    5  A    between atoms: CA   and  CB  
REMARK    6  A    between atoms: CB   and  CG  
ROOT
ATOM      7  CA  TYR A 136      36.583  36.399   8.994  1.00 26.14     0.191 C 
ENDROOT
BRANCH   7   8
ATOM      8  CB  TYR A 136      37.367  36.835  10.240  1.00 28.16     0.060 C 
BRANCH   8   9
ATOM      9  CG  TYR A 136      36.806  38.086  10.870  1.00 31.88    -0.020 A 
ATOM     10  CD2 TYR A 136      36.773  38.245  12.257  1.00 32.67    -0.002 A 
ATOM     11  CE2 TYR A 136      36.249  39.410  12.833  1.00 33.89     0.027 A 
ATOM     12  CZ  TYR A 136      35.752  40.426  12.012  1.00 34.34     0.131 A 
ATOM     13  OH  TYR A 136      35.234  41.592  12.560  1.00 35.14    -0.190 OA
ATOM     14  CE1 TYR A 136      35.775  40.284  10.632  1.00 35.01     0.027 A 
ATOM     15  CD1 TYR A 136      36.295  39.117  10.071  1.00 33.57    -0.002 A 
ENDBRANCH   8   9
ENDBRANCH   7   8
END_RES TYR A 136
BEGIN_RES ASN A 133
REMARK  2 active torsions:
REMARK  status: ('A' for Active; 'I' for Inactive)
REMARK    7  A    between atoms: CA   and  CB  
REMARK    8  A    between atoms: CB   and  CG  
ROOT
ATOM     16  CA  ASN A 133      31.225  30.257  11.749  1.00 18.15     0.196 C 
ENDROOT
BRANCH  16  17
ATOM     17  CB  ASN A 133      30.092  31.240  11.460  1.00 18.27     0.126 C 
BRANCH  17  18
ATOM     18  CG  ASN A 133      28.757  30.578  11.316  1.00 18.94     0.276 C 
ATOM     19  OD1 ASN A 133      28.602  29.609  10.570  1.00 18.09    -0.269 OA
ATOM     20  ND2 ASN A 133      27.766  31.102  12.036  1.00 18.93    -0.107 N 
ENDBRANCH  17  18
ENDBRANCH  16  17
END_RES ASN A 133
