REMARK VINA RESULT:    -5.088      2.071      3.141
REMARK INTER + INTRA:          -8.509
REMARK INTER:                  -5.313
REMARK INTRA:                  -3.196
REMARK UNBOUND:                -2.529
REMARK SMILES Cc1cn(Cc2cccc(C#N)c2)nn1
REMARK SMILES IDX 6 1 7 2 8 3 9 4 10 5 13 6 5 7 4 8 1 9 2 10 3 11 15 12 14 13
REMARK SMILES IDX 11 14 12 15
REMARK H PARENT
REMARK Flexibility Score: inf
ROOT
ATOM      1  C   UNL     1      34.679  35.382  14.262  1.00  0.00    -0.025 A 
ATOM      2  C   UNL     1      35.304  36.102  15.250  1.00  0.00     0.006 A 
ATOM      3  C   UNL     1      36.650  35.978  15.537  1.00  0.00     0.002 A 
ATOM      4  C   UNL     1      37.391  35.085  14.789  1.00  0.00     0.019 A 
ATOM      5  C   UNL     1      36.806  34.339  13.786  1.00  0.00     0.052 A 
ATOM      6  C   UNL     1      35.443  34.496  13.529  1.00  0.00     0.025 A 
ENDROOT
BRANCH   1   7
ATOM      7  C   UNL     1      33.243  35.513  13.953  1.00  0.00     0.181 C 
BRANCH   7   8
ATOM      8  N   UNL     1      32.910  36.734  13.291  1.00  0.00    -0.248 N 
ATOM      9  C   UNL     1      32.516  38.767  10.292  1.00  0.00     0.070 C 
ATOM     10  C   UNL     1      32.588  38.177  11.667  1.00  0.00     0.080 A 
ATOM     11  C   UNL     1      32.969  36.899  11.958  1.00  0.00     0.134 A 
ATOM     12  N   UNL     1      32.298  38.776  12.836  1.00  0.00    -0.136 NA
ATOM     13  N   UNL     1      32.498  37.895  13.797  1.00  0.00    -0.067 NA
ENDBRANCH   7   8
ENDBRANCH   1   7
BRANCH   5  14
ATOM     14  C   UNL     1      37.634  33.430  13.048  1.00  0.00     0.099 C 
ATOM     15  N   UNL     1      38.293  32.706  12.438  1.00  0.00    -0.192 NA
ENDBRANCH   5  14
TORSDOF 3
BEGIN_RES LYS A 135
REMARK  4 active torsions:
REMARK  status: ('A' for Active; 'I' for Inactive)
REMARK    1  A    between atoms: CA   and  CB  
REMARK    2  A    between atoms: CB   and  CG  
REMARK    3  A    between atoms: CG   and  CD  
REMARK    4  A    between atoms: CD   and  CE  
ROOT
ATOM      1  CA  LYS A 135      33.193  34.663   9.290  1.00 25.02     0.186 C 
ENDROOT
BRANCH   1   2
ATOM      2  CB  LYS A 135      32.060  35.360  10.034  1.00 26.63     0.034 C 
BRANCH   2   3
ATOM      3  CG  LYS A 135      30.846  35.617   9.179  1.00 29.45     0.005 C 
BRANCH   3   4
ATOM      4  CD  LYS A 135      30.306  34.315   8.608  1.00 32.00     0.041 C 
BRANCH   4   5
ATOM      5  CE  LYS A 135      28.791  34.348   8.546  1.00 34.25     0.338 C 
ATOM      6  NZ  LYS A 135      28.191  33.892   9.831  1.00 35.99     0.618 N 
ENDBRANCH   4   5
ENDBRANCH   3   4
ENDBRANCH   2   3
ENDBRANCH   1   2
END_RES LYS A 135
BEGIN_RES TYR A 136
REMARK  2 active torsions:
REMARK  status: ('A' for Active; 'I' for Inactive)
REMARK    5  A    between atoms: CA   and  CB  
REMARK    6  A    between atoms: CB   and  CG  
ROOT
ATOM      7  CA  TYR A 136      36.583  36.399   8.994  1.00 26.14     0.191 C 
ENDROOT
BRANCH   7   8
ATOM      8  CB  TYR A 136      37.367  36.835  10.240  1.00 28.16     0.060 C 
BRANCH   8   9
ATOM      9  CG  TYR A 136      36.744  38.022  10.932  1.00 31.88    -0.020 A 
ATOM     10  CD2 TYR A 136      36.518  38.020  12.310  1.00 32.67    -0.002 A 
ATOM     11  CE2 TYR A 136      35.937  39.127  12.943  1.00 33.89     0.027 A 
ATOM     12  CZ  TYR A 136      35.577  40.247  12.189  1.00 34.34     0.131 A 
ATOM     13  OH  TYR A 136      35.007  41.358  12.795  1.00 35.14    -0.190 OA
ATOM     14  CE1 TYR A 136      35.793  40.266  10.819  1.00 35.01     0.027 A 
ATOM     15  CD1 TYR A 136      36.367  39.155  10.199  1.00 33.57    -0.002 A 
ENDBRANCH   8   9
ENDBRANCH   7   8
END_RES TYR A 136
BEGIN_RES ASN A 133
REMARK  2 active torsions:
REMARK  status: ('A' for Active; 'I' for Inactive)
REMARK    7  A    between atoms: CA   and  CB  
REMARK    8  A    between atoms: CB   and  CG  
ROOT
ATOM     16  CA  ASN A 133      31.225  30.257  11.749  1.00 18.15     0.196 C 
ENDROOT
BRANCH  16  17
ATOM     17  CB  ASN A 133      30.092  31.240  11.460  1.00 18.27     0.126 C 
BRANCH  17  18
ATOM     18  CG  ASN A 133      28.750  30.583  11.360  1.00 18.94     0.276 C 
ATOM     19  OD1 ASN A 133      28.570  29.606  10.631  1.00 18.09    -0.269 OA
ATOM     20  ND2 ASN A 133      27.782  31.121  12.101  1.00 18.93    -0.107 N 
ENDBRANCH  17  18
ENDBRANCH  16  17
END_RES ASN A 133
