REMARK VINA RESULT:    -5.131      2.571      7.036
REMARK INTER + INTRA:          -9.665
REMARK INTER:                  -6.432
REMARK INTRA:                  -3.233
REMARK UNBOUND:                -3.335
REMARK SMILES Cc1cn(-c2ccc(S(=O)(=O)Nc3nccs3)cc2)nn1
REMARK SMILES IDX 9 1 10 2 11 3 8 4 5 5 6 6 19 7 7 8 18 9 4 10 1 11 2 12 3 13
REMARK SMILES IDX 21 14 20 15 12 16 13 18 14 19 17 20 15 21 16 22
REMARK H PARENT 12 17
REMARK Flexibility Score: inf
ROOT
ATOM      1  S   UNL     1      33.277  35.464  14.209  1.00  0.00     0.263 S 
ATOM      2  O   UNL     1      32.880  34.867  15.519  1.00  0.00    -0.201 OA
ATOM      3  O   UNL     1      33.105  36.968  14.291  1.00  0.00    -0.201 OA
ENDROOT
BRANCH   1   4
ATOM      4  C   UNL     1      34.979  35.133  13.977  1.00  0.00     0.088 A 
ATOM      5  C   UNL     1      37.663  34.677  13.716  1.00  0.00     0.066 A 
ATOM      6  C   UNL     1      37.192  35.381  14.789  1.00  0.00     0.030 A 
ATOM      7  C   UNL     1      36.793  34.202  12.776  1.00  0.00     0.030 A 
ATOM      8  C   UNL     1      35.855  35.622  14.942  1.00  0.00     0.024 A 
ATOM      9  C   UNL     1      35.452  34.432  12.908  1.00  0.00     0.024 A 
BRANCH   5  10
ATOM     10  N   UNL     1      39.091  34.472  13.641  1.00  0.00    -0.220 N 
ATOM     11  C   UNL     1      42.574  34.790  14.748  1.00  0.00     0.070 C 
ATOM     12  C   UNL     1      41.262  34.528  14.106  1.00  0.00     0.080 A 
ATOM     13  C   UNL     1      40.006  34.926  14.514  1.00  0.00     0.140 A 
ATOM     14  N   UNL     1      41.048  33.833  12.975  1.00  0.00    -0.135 NA
ATOM     15  N   UNL     1      39.753  33.813  12.717  1.00  0.00    -0.062 NA
ENDBRANCH   5  10
ENDBRANCH   1   4
BRANCH   1  16
ATOM     16  N   UNL     1      32.339  34.847  12.928  1.00  0.00    -0.255 N 
ATOM     17  H   UNL     1      32.847  34.376  12.130  1.00  0.00     0.182 HD
BRANCH  16  18
ATOM     18  C   UNL     1      30.909  34.970  12.942  1.00  0.00     0.196 A 
ATOM     19  N   UNL     1      30.084  35.675  12.628  1.00  0.00    -0.228 NA
ATOM     20  S   UNL     1      29.922  33.552  13.721  1.00  0.00    -0.105 S 
ATOM     21  C   UNL     1      28.780  35.574  12.751  1.00  0.00     0.125 A 
ATOM     22  C   UNL     1      28.331  34.444  13.353  1.00  0.00     0.089 A 
ENDBRANCH  16  18
ENDBRANCH   1  16
TORSDOF 4
BEGIN_RES LYS A 135
REMARK  4 active torsions:
REMARK  status: ('A' for Active; 'I' for Inactive)
REMARK    1  A    between atoms: CA   and  CB  
REMARK    2  A    between atoms: CB   and  CG  
REMARK    3  A    between atoms: CG   and  CD  
REMARK    4  A    between atoms: CD   and  CE  
ROOT
ATOM      1  CA  LYS A 135      33.193  34.663   9.290  1.00 25.02     0.186 C 
ENDROOT
BRANCH   1   2
ATOM      2  CB  LYS A 135      32.060  35.360  10.034  1.00 26.63     0.034 C 
BRANCH   2   3
ATOM      3  CG  LYS A 135      30.761  35.381   9.270  1.00 29.45     0.005 C 
BRANCH   3   4
ATOM      4  CD  LYS A 135      30.131  33.997   9.245  1.00 32.00     0.041 C 
BRANCH   4   5
ATOM      5  CE  LYS A 135      28.625  34.100   9.098  1.00 34.25     0.338 C 
ATOM      6  NZ  LYS A 135      28.257  34.927   7.915  1.00 35.99     0.618 N 
ENDBRANCH   4   5
ENDBRANCH   3   4
ENDBRANCH   2   3
ENDBRANCH   1   2
END_RES LYS A 135
BEGIN_RES TYR A 136
REMARK  2 active torsions:
REMARK  status: ('A' for Active; 'I' for Inactive)
REMARK    5  A    between atoms: CA   and  CB  
REMARK    6  A    between atoms: CB   and  CG  
ROOT
ATOM      7  CA  TYR A 136      36.583  36.399   8.994  1.00 26.14     0.191 C 
ENDROOT
BRANCH   7   8
ATOM      8  CB  TYR A 136      37.367  36.835  10.240  1.00 28.16     0.060 C 
BRANCH   8   9
ATOM      9  CG  TYR A 136      36.743  38.021  10.932  1.00 31.88    -0.020 A 
ATOM     10  CD2 TYR A 136      36.218  39.091  10.203  1.00 32.67    -0.002 A 
ATOM     11  CE2 TYR A 136      35.642  40.189  10.856  1.00 33.89     0.027 A 
ATOM     12  CZ  TYR A 136      35.591  40.218  12.252  1.00 34.34     0.131 A 
ATOM     13  OH  TYR A 136      35.019  41.292  12.919  1.00 35.14    -0.190 OA
ATOM     14  CE1 TYR A 136      36.108  39.165  12.992  1.00 35.01     0.027 A 
ATOM     15  CD1 TYR A 136      36.685  38.079  12.331  1.00 33.57    -0.002 A 
ENDBRANCH   8   9
ENDBRANCH   7   8
END_RES TYR A 136
BEGIN_RES ASN A 133
REMARK  2 active torsions:
REMARK  status: ('A' for Active; 'I' for Inactive)
REMARK    7  A    between atoms: CA   and  CB  
REMARK    8  A    between atoms: CB   and  CG  
ROOT
ATOM     16  CA  ASN A 133      31.225  30.257  11.749  1.00 18.15     0.196 C 
ENDROOT
BRANCH  16  17
ATOM     17  CB  ASN A 133      30.092  31.240  11.460  1.00 18.27     0.126 C 
BRANCH  17  18
ATOM     18  CG  ASN A 133      28.761  30.575  11.291  1.00 18.94     0.276 C 
ATOM     19  OD1 ASN A 133      28.628  29.589  10.564  1.00 18.09    -0.269 OA
ATOM     20  ND2 ASN A 133      27.749  31.117  11.967  1.00 18.93    -0.107 N 
ENDBRANCH  17  18
ENDBRANCH  16  17
END_RES ASN A 133
