REMARK VINA RESULT:    -4.549      4.848      8.728
REMARK INTER + INTRA:          -6.811
REMARK INTER:                  -3.707
REMARK INTRA:                  -3.103
REMARK UNBOUND:                -1.996
REMARK SMILES Cc1cn(-c2ccccc2I)nn1
REMARK SMILES IDX 5 1 6 2 7 3 8 4 9 5 10 6 11 7 4 8 1 9 2 10 3 11 13 12 12 13
REMARK H PARENT
REMARK Flexibility Score: inf
ROOT
ATOM      1  C   UNL     1      23.577  31.389  13.126  1.00  0.00     0.080 A 
ATOM      2  C   UNL     1      24.130  30.127  13.076  1.00  0.00     0.029 A 
ATOM      3  C   UNL     1      23.395  29.013  12.698  1.00  0.00     0.002 A 
ATOM      4  C   UNL     1      22.053  29.154  12.357  1.00  0.00     0.001 A 
ATOM      5  C   UNL     1      21.482  30.410  12.402  1.00  0.00     0.017 A 
ATOM      6  C   UNL     1      22.235  31.501  12.780  1.00  0.00     0.039 A 
ATOM      7  I   UNL     1      21.330  33.406  12.838  1.00  0.00    -0.042 I 
ENDROOT
BRANCH   1   8
ATOM      8  N   UNL     1      24.351  32.527  13.518  1.00  0.00    -0.219 N 
ATOM      9  C   UNL     1      26.493  35.444  13.226  1.00  0.00     0.070 C 
ATOM     10  C   UNL     1      25.614  34.293  13.604  1.00  0.00     0.080 A 
ATOM     11  C   UNL     1      25.050  33.368  12.761  1.00  0.00     0.140 A 
ATOM     12  N   UNL     1      25.227  33.966  14.848  1.00  0.00    -0.135 NA
ATOM     13  N   UNL     1      24.471  32.908  14.780  1.00  0.00    -0.062 NA
ENDBRANCH   1   8
TORSDOF 1
BEGIN_RES LYS A 135
REMARK  4 active torsions:
REMARK  status: ('A' for Active; 'I' for Inactive)
REMARK    1  A    between atoms: CA   and  CB  
REMARK    2  A    between atoms: CB   and  CG  
REMARK    3  A    between atoms: CG   and  CD  
REMARK    4  A    between atoms: CD   and  CE  
ROOT
ATOM      1  CA  LYS A 135      33.193  34.663   9.290  1.00 25.02     0.186 C 
ENDROOT
BRANCH   1   2
ATOM      2  CB  LYS A 135      32.060  35.360  10.034  1.00 26.63     0.034 C 
BRANCH   2   3
ATOM      3  CG  LYS A 135      30.844  35.612   9.180  1.00 29.45     0.005 C 
BRANCH   3   4
ATOM      4  CD  LYS A 135      30.240  34.299   8.706  1.00 32.00     0.041 C 
BRANCH   4   5
ATOM      5  CE  LYS A 135      28.741  34.437   8.524  1.00 34.25     0.338 C 
ATOM      6  NZ  LYS A 135      28.001  33.720   9.600  1.00 35.99     0.618 N 
ENDBRANCH   4   5
ENDBRANCH   3   4
ENDBRANCH   2   3
ENDBRANCH   1   2
END_RES LYS A 135
BEGIN_RES TYR A 136
REMARK  2 active torsions:
REMARK  status: ('A' for Active; 'I' for Inactive)
REMARK    5  A    between atoms: CA   and  CB  
REMARK    6  A    between atoms: CB   and  CG  
ROOT
ATOM      7  CA  TYR A 136      36.583  36.399   8.994  1.00 26.14     0.191 C 
ENDROOT
BRANCH   7   8
ATOM      8  CB  TYR A 136      37.367  36.835  10.240  1.00 28.16     0.060 C 
BRANCH   8   9
ATOM      9  CG  TYR A 136      37.195  38.302  10.550  1.00 31.88    -0.020 A 
ATOM     10  CD2 TYR A 136      36.709  39.192   9.590  1.00 32.67    -0.002 A 
ATOM     11  CE2 TYR A 136      36.555  40.553   9.887  1.00 33.89     0.027 A 
ATOM     12  CZ  TYR A 136      36.889  41.027  11.158  1.00 34.34     0.131 A 
ATOM     13  OH  TYR A 136      36.737  42.369  11.477  1.00 35.14    -0.190 OA
ATOM     14  CE1 TYR A 136      37.374  40.157  12.124  1.00 35.01     0.027 A 
ATOM     15  CD1 TYR A 136      37.529  38.805  11.814  1.00 33.57    -0.002 A 
ENDBRANCH   8   9
ENDBRANCH   7   8
END_RES TYR A 136
BEGIN_RES ASN A 133
REMARK  2 active torsions:
REMARK  status: ('A' for Active; 'I' for Inactive)
REMARK    7  A    between atoms: CA   and  CB  
REMARK    8  A    between atoms: CB   and  CG  
ROOT
ATOM     16  CA  ASN A 133      31.225  30.257  11.749  1.00 18.15     0.196 C 
ENDROOT
BRANCH  16  17
ATOM     17  CB  ASN A 133      30.092  31.240  11.460  1.00 18.27     0.126 C 
BRANCH  17  18
ATOM     18  CG  ASN A 133      28.751  30.582  11.350  1.00 18.94     0.276 C 
ATOM     19  OD1 ASN A 133      28.576  29.610  10.614  1.00 18.09    -0.269 OA
ATOM     20  ND2 ASN A 133      27.779  31.114  12.090  1.00 18.93    -0.107 N 
ENDBRANCH  17  18
ENDBRANCH  16  17
END_RES ASN A 133
