REMARK VINA RESULT:    -5.223      3.873      8.930
REMARK INTER + INTRA:          -8.910
REMARK INTER:                  -6.793
REMARK INTRA:                  -2.117
REMARK UNBOUND:                -3.381
REMARK SMILES Cc1cn(C2c3ccccc3-c3ccccc32)nn1
REMARK SMILES IDX 5 1 6 2 7 3 8 4 9 5 10 6 11 7 12 8 13 9 14 10 15 11 16 12
REMARK SMILES IDX 17 13 4 14 1 15 2 16 3 17 19 18 18 19
REMARK H PARENT
REMARK Flexibility Score: inf
ROOT
ATOM      1  C   UNL     1      26.172  37.520   8.843  1.00  0.00     0.170 C 
ATOM      2  C   UNL     1      26.838  37.619   7.536  1.00  0.00    -0.011 A 
ATOM      3  C   UNL     1      26.827  38.666   6.627  1.00  0.00     0.007 A 
ATOM      4  C   UNL     1      27.528  38.553   5.445  1.00  0.00     0.000 A 
ATOM      5  C   UNL     1      28.234  37.386   5.191  1.00  0.00     0.001 A 
ATOM      6  C   UNL     1      28.247  36.339   6.099  1.00  0.00     0.009 A 
ATOM      7  C   UNL     1      27.538  36.472   7.280  1.00  0.00    -0.012 A 
ATOM      8  C   UNL     1      27.352  35.583   8.410  1.00  0.00    -0.012 A 
ATOM      9  C   UNL     1      27.868  34.295   8.613  1.00  0.00     0.009 A 
ATOM     10  C   UNL     1      27.549  33.646   9.773  1.00  0.00     0.001 A 
ATOM     11  C   UNL     1      26.742  34.205  10.751  1.00  0.00     0.000 A 
ATOM     12  C   UNL     1      26.267  35.462  10.501  1.00  0.00     0.007 A 
ATOM     13  C   UNL     1      26.548  36.187   9.343  1.00  0.00    -0.011 A 
ENDROOT
BRANCH   1  14
ATOM     14  N   UNL     1      24.766  37.729   8.750  1.00  0.00    -0.240 N 
ATOM     15  C   UNL     1      21.386  36.822   7.770  1.00  0.00     0.070 C 
ATOM     16  C   UNL     1      22.625  37.445   8.286  1.00  0.00     0.080 A 
ATOM     17  C   UNL     1      23.893  36.893   8.174  1.00  0.00     0.135 A 
ATOM     18  N   UNL     1      22.787  38.602   8.930  1.00  0.00    -0.136 NA
ATOM     19  N   UNL     1      24.089  38.762   9.206  1.00  0.00    -0.066 NA
ENDBRANCH   1  14
TORSDOF 1
BEGIN_RES LYS A 135
REMARK  4 active torsions:
REMARK  status: ('A' for Active; 'I' for Inactive)
REMARK    1  A    between atoms: CA   and  CB  
REMARK    2  A    between atoms: CB   and  CG  
REMARK    3  A    between atoms: CG   and  CD  
REMARK    4  A    between atoms: CD   and  CE  
ROOT
ATOM      1  CA  LYS A 135      33.193  34.663   9.290  1.00 25.02     0.186 C 
ENDROOT
BRANCH   1   2
ATOM      2  CB  LYS A 135      32.060  35.360  10.034  1.00 26.63     0.034 C 
BRANCH   2   3
ATOM      3  CG  LYS A 135      30.931  35.799   9.138  1.00 29.45     0.005 C 
BRANCH   3   4
ATOM      4  CD  LYS A 135      30.403  37.159   9.567  1.00 32.00     0.041 C 
BRANCH   4   5
ATOM      5  CE  LYS A 135      30.576  38.173   8.452  1.00 34.25     0.338 C 
ATOM      6  NZ  LYS A 135      29.767  39.397   8.710  1.00 35.99     0.618 N 
ENDBRANCH   4   5
ENDBRANCH   3   4
ENDBRANCH   2   3
ENDBRANCH   1   2
END_RES LYS A 135
BEGIN_RES TYR A 136
REMARK  2 active torsions:
REMARK  status: ('A' for Active; 'I' for Inactive)
REMARK    5  A    between atoms: CA   and  CB  
REMARK    6  A    between atoms: CB   and  CG  
ROOT
ATOM      7  CA  TYR A 136      36.583  36.399   8.994  1.00 26.14     0.191 C 
ENDROOT
BRANCH   7   8
ATOM      8  CB  TYR A 136      37.367  36.835  10.240  1.00 28.16     0.060 C 
BRANCH   8   9
ATOM      9  CG  TYR A 136      37.214  38.307  10.536  1.00 31.88    -0.020 A 
ATOM     10  CD2 TYR A 136      38.214  39.221  10.194  1.00 32.67    -0.002 A 
ATOM     11  CE2 TYR A 136      38.063  40.585  10.474  1.00 33.89     0.027 A 
ATOM     12  CZ  TYR A 136      36.901  41.040  11.104  1.00 34.34     0.131 A 
ATOM     13  OH  TYR A 136      36.727  42.388  11.386  1.00 35.14    -0.190 OA
ATOM     14  CE1 TYR A 136      35.899  40.146  11.452  1.00 35.01     0.027 A 
ATOM     15  CD1 TYR A 136      36.064  38.788  11.173  1.00 33.57    -0.002 A 
ENDBRANCH   8   9
ENDBRANCH   7   8
END_RES TYR A 136
BEGIN_RES ASN A 133
REMARK  2 active torsions:
REMARK  status: ('A' for Active; 'I' for Inactive)
REMARK    7  A    between atoms: CA   and  CB  
REMARK    8  A    between atoms: CB   and  CG  
ROOT
ATOM     16  CA  ASN A 133      31.225  30.257  11.749  1.00 18.15     0.196 C 
ENDROOT
BRANCH  16  17
ATOM     17  CB  ASN A 133      30.092  31.240  11.460  1.00 18.27     0.126 C 
BRANCH  17  18
ATOM     18  CG  ASN A 133      28.746  30.587  11.389  1.00 18.94     0.276 C 
ATOM     19  OD1 ASN A 133      28.519  29.680  10.587  1.00 18.09    -0.269 OA
ATOM     20  ND2 ASN A 133      27.829  31.050  12.237  1.00 18.93    -0.107 N 
ENDBRANCH  17  18
ENDBRANCH  16  17
END_RES ASN A 133
