REMARK VINA RESULT:    -3.825      2.137      2.658
REMARK INTER + INTRA:          -7.389
REMARK INTER:                  -4.210
REMARK INTRA:                  -3.179
REMARK UNBOUND:                -3.228
REMARK SMILES Cc1cn(-c2nc(C)nc(N)n2)nn1
REMARK SMILES IDX 5 1 12 2 10 3 9 4 7 5 8 6 6 7 4 8 1 9 2 10 3 11 14 12 13 13
REMARK SMILES IDX 11 14
REMARK H PARENT 11 15 11 16
REMARK Flexibility Score: inf
ROOT
ATOM      1  C   UNL     1      22.175  32.488  -1.749  1.00  0.00     0.257 A 
ATOM      2  N   UNL     1      22.450  33.142  -0.620  1.00  0.00    -0.175 NA
ATOM      3  C   UNL     1      22.679  32.460   0.507  1.00  0.00     0.225 A 
ATOM      4  N   UNL     1      22.632  31.117   0.496  1.00  0.00    -0.198 NA
ATOM      5  C   UNL     1      22.356  30.440  -0.638  1.00  0.00     0.133 A 
ATOM      6  C   UNL     1      22.302  28.948  -0.652  1.00  0.00     0.090 C 
ATOM      7  N   UNL     1      22.132  31.158  -1.744  1.00  0.00    -0.196 NA
ENDROOT
BRANCH   1   8
ATOM      8  N   UNL     1      21.933  33.224  -2.941  1.00  0.00    -0.185 N 
ATOM      9  C   UNL     1      22.473  34.336  -6.377  1.00  0.00     0.070 C 
ATOM     10  C   UNL     1      22.047  34.057  -4.993  1.00  0.00     0.080 A 
ATOM     11  C   UNL     1      22.623  33.187  -4.102  1.00  0.00     0.144 A 
ATOM     12  N   UNL     1      21.016  34.611  -4.354  1.00  0.00    -0.135 NA
ATOM     13  N   UNL     1      20.972  34.097  -3.136  1.00  0.00    -0.059 NA
ENDBRANCH   1   8
BRANCH   3  14
ATOM     14  N   UNL     1      22.966  33.211   1.678  1.00  0.00    -0.368 N 
ATOM     15  H   UNL     1      22.540  34.151   1.817  1.00  0.00     0.159 HD
ATOM     16  H   UNL     1      23.600  32.842   2.415  1.00  0.00     0.159 HD
ENDBRANCH   3  14
TORSDOF 2
BEGIN_RES LYS A 135
REMARK  4 active torsions:
REMARK  status: ('A' for Active; 'I' for Inactive)
REMARK    1  A    between atoms: CA   and  CB  
REMARK    2  A    between atoms: CB   and  CG  
REMARK    3  A    between atoms: CG   and  CD  
REMARK    4  A    between atoms: CD   and  CE  
ROOT
ATOM      1  CA  LYS A 135      33.193  34.663   9.290  1.00 25.02     0.186 C 
ENDROOT
BRANCH   1   2
ATOM      2  CB  LYS A 135      32.060  35.360  10.034  1.00 26.63     0.034 C 
BRANCH   2   3
ATOM      3  CG  LYS A 135      30.874  35.682   9.161  1.00 29.45     0.005 C 
BRANCH   3   4
ATOM      4  CD  LYS A 135      30.367  34.430   8.462  1.00 32.00     0.041 C 
BRANCH   4   5
ATOM      5  CE  LYS A 135      28.853  34.451   8.365  1.00 34.25     0.338 C 
ATOM      6  NZ  LYS A 135      28.231  33.770   9.534  1.00 35.99     0.618 N 
ENDBRANCH   4   5
ENDBRANCH   3   4
ENDBRANCH   2   3
ENDBRANCH   1   2
END_RES LYS A 135
BEGIN_RES TYR A 136
REMARK  2 active torsions:
REMARK  status: ('A' for Active; 'I' for Inactive)
REMARK    5  A    between atoms: CA   and  CB  
REMARK    6  A    between atoms: CB   and  CG  
ROOT
ATOM      7  CA  TYR A 136      36.583  36.399   8.994  1.00 26.14     0.191 C 
ENDROOT
BRANCH   7   8
ATOM      8  CB  TYR A 136      37.367  36.835  10.240  1.00 28.16     0.060 C 
BRANCH   8   9
ATOM      9  CG  TYR A 136      37.188  38.300  10.555  1.00 31.88    -0.020 A 
ATOM     10  CD2 TYR A 136      36.332  38.721  11.574  1.00 32.67    -0.002 A 
ATOM     11  CE2 TYR A 136      36.172  40.085  11.858  1.00 33.89     0.027 A 
ATOM     12  CZ  TYR A 136      36.875  41.035  11.113  1.00 34.34     0.131 A 
ATOM     13  OH  TYR A 136      36.737  42.390  11.381  1.00 35.14    -0.190 OA
ATOM     14  CE1 TYR A 136      37.729  40.634  10.096  1.00 35.01     0.027 A 
ATOM     15  CD1 TYR A 136      37.875  39.274   9.819  1.00 33.57    -0.002 A 
ENDBRANCH   8   9
ENDBRANCH   7   8
END_RES TYR A 136
BEGIN_RES ASN A 133
REMARK  2 active torsions:
REMARK  status: ('A' for Active; 'I' for Inactive)
REMARK    7  A    between atoms: CA   and  CB  
REMARK    8  A    between atoms: CB   and  CG  
ROOT
ATOM     16  CA  ASN A 133      31.225  30.257  11.749  1.00 18.15     0.196 C 
ENDROOT
BRANCH  16  17
ATOM     17  CB  ASN A 133      30.092  31.240  11.460  1.00 18.27     0.126 C 
BRANCH  17  18
ATOM     18  CG  ASN A 133      28.752  30.582  11.348  1.00 18.94     0.276 C 
ATOM     19  OD1 ASN A 133      28.582  29.600  10.622  1.00 18.09    -0.269 OA
ATOM     20  ND2 ASN A 133      27.774  31.124  12.072  1.00 18.93    -0.107 N 
ENDBRANCH  17  18
ENDBRANCH  16  17
END_RES ASN A 133
