REMARK VINA RESULT:    -3.652      8.418     13.267
REMARK INTER + INTRA:          -7.536
REMARK INTER:                  -4.175
REMARK INTRA:                  -3.361
REMARK UNBOUND:                -3.243
REMARK SMILES Cc1cn(CCC2OCCO2)nn1
REMARK SMILES IDX 5 1 4 2 1 3 2 4 3 5 13 6 12 7 6 8 7 9 8 10 11 11 9 12 10 13
REMARK H PARENT
REMARK Flexibility Score: inf
ROOT
ATOM      1  C   UNL     1      34.790  36.361  12.834  1.00  0.00     0.151 C 
ENDROOT
BRANCH   1   2
ATOM      2  N   UNL     1      33.622  35.693  13.345  1.00  0.00    -0.252 N 
ATOM      3  C   UNL     1      31.841  33.572  15.685  1.00  0.00     0.070 C 
ATOM      4  C   UNL     1      32.334  34.467  14.602  1.00  0.00     0.080 A 
ATOM      5  C   UNL     1      33.623  34.921  14.439  1.00  0.00     0.134 A 
ATOM      6  N   UNL     1      31.598  34.982  13.601  1.00  0.00    -0.136 NA
ATOM      7  N   UNL     1      32.397  35.722  12.851  1.00  0.00    -0.067 NA
ENDBRANCH   1   2
BRANCH   1   8
ATOM      8  C   UNL     1      36.003  35.748  13.448  1.00  0.00     0.086 C 
BRANCH   8   9
ATOM      9  C   UNL     1      36.877  35.037  12.435  1.00  0.00     0.251 C 
ATOM     10  O   UNL     1      36.497  33.735  12.229  1.00  0.00    -0.350 OA
ATOM     11  O   UNL     1      38.207  35.057  12.775  1.00  0.00    -0.350 OA
ATOM     12  C   UNL     1      37.580  32.920  12.455  1.00  0.00     0.192 C 
ATOM     13  C   UNL     1      38.459  33.792  13.329  1.00  0.00     0.192 C 
ENDBRANCH   8   9
ENDBRANCH   1   8
TORSDOF 3
BEGIN_RES LYS A 135
REMARK  4 active torsions:
REMARK  status: ('A' for Active; 'I' for Inactive)
REMARK    1  A    between atoms: CA   and  CB  
REMARK    2  A    between atoms: CB   and  CG  
REMARK    3  A    between atoms: CG   and  CD  
REMARK    4  A    between atoms: CD   and  CE  
ROOT
ATOM      1  CA  LYS A 135      33.193  34.663   9.290  1.00 25.02     0.186 C 
ENDROOT
BRANCH   1   2
ATOM      2  CB  LYS A 135      32.060  35.360  10.034  1.00 26.63     0.034 C 
BRANCH   2   3
ATOM      3  CG  LYS A 135      30.858  35.644   9.171  1.00 29.45     0.005 C 
BRANCH   3   4
ATOM      4  CD  LYS A 135      30.322  34.360   8.557  1.00 32.00     0.041 C 
BRANCH   4   5
ATOM      5  CE  LYS A 135      28.811  34.416   8.440  1.00 34.25     0.338 C 
ATOM      6  NZ  LYS A 135      28.158  33.778   9.617  1.00 35.99     0.618 N 
ENDBRANCH   4   5
ENDBRANCH   3   4
ENDBRANCH   2   3
ENDBRANCH   1   2
END_RES LYS A 135
BEGIN_RES TYR A 136
REMARK  2 active torsions:
REMARK  status: ('A' for Active; 'I' for Inactive)
REMARK    5  A    between atoms: CA   and  CB  
REMARK    6  A    between atoms: CB   and  CG  
ROOT
ATOM      7  CA  TYR A 136      36.583  36.399   8.994  1.00 26.14     0.191 C 
ENDROOT
BRANCH   7   8
ATOM      8  CB  TYR A 136      37.367  36.835  10.240  1.00 28.16     0.060 C 
BRANCH   8   9
ATOM      9  CG  TYR A 136      37.129  38.281  10.599  1.00 31.88    -0.020 A 
ATOM     10  CD2 TYR A 136      37.583  38.810  11.809  1.00 32.67    -0.002 A 
ATOM     11  CE2 TYR A 136      37.355  40.155  12.133  1.00 33.89     0.027 A 
ATOM     12  CZ  TYR A 136      36.666  40.977  11.238  1.00 34.34     0.131 A 
ATOM     13  OH  TYR A 136      36.435  42.313  11.536  1.00 35.14    -0.190 OA
ATOM     14  CE1 TYR A 136      36.207  40.468  10.032  1.00 35.01     0.027 A 
ATOM     15  CD1 TYR A 136      36.434  39.126   9.723  1.00 33.57    -0.002 A 
ENDBRANCH   8   9
ENDBRANCH   7   8
END_RES TYR A 136
BEGIN_RES ASN A 133
REMARK  2 active torsions:
REMARK  status: ('A' for Active; 'I' for Inactive)
REMARK    7  A    between atoms: CA   and  CB  
REMARK    8  A    between atoms: CB   and  CG  
ROOT
ATOM     16  CA  ASN A 133      31.225  30.257  11.749  1.00 18.15     0.196 C 
ENDROOT
BRANCH  16  17
ATOM     17  CB  ASN A 133      30.092  31.240  11.460  1.00 18.27     0.126 C 
BRANCH  17  18
ATOM     18  CG  ASN A 133      28.753  30.581  11.343  1.00 18.94     0.276 C 
ATOM     19  OD1 ASN A 133      28.582  29.608  10.606  1.00 18.09    -0.269 OA
ATOM     20  ND2 ASN A 133      27.776  31.113  12.077  1.00 18.93    -0.107 N 
ENDBRANCH  17  18
ENDBRANCH  16  17
END_RES ASN A 133
