REMARK VINA RESULT:    -4.256      8.253     14.240
REMARK INTER + INTRA:          -7.586
REMARK INTER:                  -4.460
REMARK INTRA:                  -3.126
REMARK UNBOUND:                -3.081
REMARK SMILES Cc1cn(-c2cccc(Cl)c2)nn1
REMARK SMILES IDX 5 1 6 2 7 3 8 4 9 5 10 6 11 7 4 8 1 9 2 10 3 11 13 12 12 13
REMARK H PARENT
REMARK Flexibility Score: inf
ROOT
ATOM      1  C   UNL     1      36.206  34.984  13.930  1.00  0.00     0.068 A 
ATOM      2  C   UNL     1      36.213  35.686  15.107  1.00  0.00     0.028 A 
ATOM      3  C   UNL     1      35.074  36.296  15.577  1.00  0.00     0.004 A 
ATOM      4  C   UNL     1      33.912  36.189  14.836  1.00  0.00     0.020 A 
ATOM      5  C   UNL     1      33.859  35.493  13.646  1.00  0.00     0.043 A 
ATOM      6  Cl  UNL     1      32.363  35.369  12.712  1.00  0.00    -0.084 Cl
ATOM      7  C   UNL     1      35.028  34.900  13.217  1.00  0.00     0.049 A 
ENDROOT
BRANCH   1   8
ATOM      8  N   UNL     1      37.391  34.337  13.421  1.00  0.00    -0.220 N 
ATOM      9  C   UNL     1      40.872  33.814  12.610  1.00  0.00     0.070 C 
ATOM     10  C   UNL     1      39.421  33.815  12.840  1.00  0.00     0.080 A 
ATOM     11  C   UNL     1      38.647  34.773  13.438  1.00  0.00     0.140 A 
ATOM     12  N   UNL     1      38.573  32.833  12.486  1.00  0.00    -0.135 NA
ATOM     13  N   UNL     1      37.347  33.151  12.837  1.00  0.00    -0.062 NA
ENDBRANCH   1   8
TORSDOF 1
BEGIN_RES LYS A 135
REMARK  4 active torsions:
REMARK  status: ('A' for Active; 'I' for Inactive)
REMARK    1  A    between atoms: CA   and  CB  
REMARK    2  A    between atoms: CB   and  CG  
REMARK    3  A    between atoms: CG   and  CD  
REMARK    4  A    between atoms: CD   and  CE  
ROOT
ATOM      1  CA  LYS A 135      33.193  34.663   9.290  1.00 25.02     0.186 C 
ENDROOT
BRANCH   1   2
ATOM      2  CB  LYS A 135      32.060  35.360  10.034  1.00 26.63     0.034 C 
BRANCH   2   3
ATOM      3  CG  LYS A 135      30.855  35.638   9.173  1.00 29.45     0.005 C 
BRANCH   3   4
ATOM      4  CD  LYS A 135      30.356  34.359   8.519  1.00 32.00     0.041 C 
BRANCH   4   5
ATOM      5  CE  LYS A 135      28.842  34.365   8.424  1.00 34.25     0.338 C 
ATOM      6  NZ  LYS A 135      28.226  33.794   9.653  1.00 35.99     0.618 N 
ENDBRANCH   4   5
ENDBRANCH   3   4
ENDBRANCH   2   3
ENDBRANCH   1   2
END_RES LYS A 135
BEGIN_RES TYR A 136
REMARK  2 active torsions:
REMARK  status: ('A' for Active; 'I' for Inactive)
REMARK    5  A    between atoms: CA   and  CB  
REMARK    6  A    between atoms: CB   and  CG  
ROOT
ATOM      7  CA  TYR A 136      36.583  36.399   8.994  1.00 26.14     0.191 C 
ENDROOT
BRANCH   7   8
ATOM      8  CB  TYR A 136      37.367  36.835  10.240  1.00 28.16     0.060 C 
BRANCH   8   9
ATOM      9  CG  TYR A 136      36.764  38.044  10.911  1.00 31.88    -0.020 A 
ATOM     10  CD2 TYR A 136      36.698  38.141  12.303  1.00 32.67    -0.002 A 
ATOM     11  CE2 TYR A 136      36.134  39.268  12.917  1.00 33.89     0.027 A 
ATOM     12  CZ  TYR A 136      35.631  40.307  12.131  1.00 34.34     0.131 A 
ATOM     13  OH  TYR A 136      35.074  41.435  12.717  1.00 35.14    -0.190 OA
ATOM     14  CE1 TYR A 136      35.687  40.227  10.747  1.00 35.01     0.027 A 
ATOM     15  CD1 TYR A 136      36.245  39.097  10.147  1.00 33.57    -0.002 A 
ENDBRANCH   8   9
ENDBRANCH   7   8
END_RES TYR A 136
BEGIN_RES ASN A 133
REMARK  2 active torsions:
REMARK  status: ('A' for Active; 'I' for Inactive)
REMARK    7  A    between atoms: CA   and  CB  
REMARK    8  A    between atoms: CB   and  CG  
ROOT
ATOM     16  CA  ASN A 133      31.225  30.257  11.749  1.00 18.15     0.196 C 
ENDROOT
BRANCH  16  17
ATOM     17  CB  ASN A 133      30.092  31.240  11.460  1.00 18.27     0.126 C 
BRANCH  17  18
ATOM     18  CG  ASN A 133      28.750  30.584  11.364  1.00 18.94     0.276 C 
ATOM     19  OD1 ASN A 133      28.570  29.601  10.643  1.00 18.09    -0.269 OA
ATOM     20  ND2 ASN A 133      27.780  31.129  12.098  1.00 18.93    -0.107 N 
ENDBRANCH  17  18
ENDBRANCH  16  17
END_RES ASN A 133
