REMARK VINA RESULT:    -4.192      8.593     13.596
REMARK INTER + INTRA:          -7.734
REMARK INTER:                  -4.469
REMARK INTRA:                  -3.265
REMARK UNBOUND:                -3.297
REMARK SMILES Cc1cn(C23CC4CC(CC(C4)C2)C3)nn1
REMARK SMILES IDX 5 1 14 2 9 3 8 4 7 5 12 6 11 7 10 8 13 9 6 10 4 11 1 12 2 13
REMARK SMILES IDX 3 14 16 15 15 16
REMARK H PARENT
REMARK Flexibility Score: inf
ROOT
ATOM      1  C   UNL     1      30.614  33.515  15.231  1.00  0.00     0.065 C 
ATOM      2  C   UNL     1      30.440  34.313  16.517  1.00  0.00     0.034 C 
ATOM      3  C   UNL     1      29.657  33.461  17.510  1.00  0.00    -0.008 C 
ATOM      4  C   UNL     1      30.466  32.218  17.752  1.00  0.00     0.007 C 
ATOM      5  C   UNL     1      30.550  31.423  16.478  1.00  0.00    -0.008 C 
ATOM      6  C   UNL     1      29.209  31.109  15.899  1.00  0.00     0.007 C 
ATOM      7  C   UNL     1      28.474  32.393  15.598  1.00  0.00    -0.008 C 
ATOM      8  C   UNL     1      28.312  33.132  16.927  1.00  0.00     0.007 C 
ATOM      9  C   UNL     1      29.226  33.293  14.676  1.00  0.00     0.034 C 
ATOM     10  C   UNL     1      31.353  32.225  15.481  1.00  0.00     0.034 C 
ENDROOT
BRANCH   1  11
ATOM     11  N   UNL     1      31.322  34.373  14.291  1.00  0.00    -0.246 N 
ATOM     12  C   UNL     1      34.290  36.204  13.305  1.00  0.00     0.070 C 
ATOM     13  C   UNL     1      32.969  35.563  13.451  1.00  0.00     0.080 A 
ATOM     14  C   UNL     1      32.588  34.774  14.506  1.00  0.00     0.134 A 
ATOM     15  N   UNL     1      31.893  35.607  12.625  1.00  0.00    -0.136 NA
ATOM     16  N   UNL     1      30.920  34.883  13.158  1.00  0.00    -0.067 NA
ENDBRANCH   1  11
TORSDOF 1
BEGIN_RES LYS A 135
REMARK  4 active torsions:
REMARK  status: ('A' for Active; 'I' for Inactive)
REMARK    1  A    between atoms: CA   and  CB  
REMARK    2  A    between atoms: CB   and  CG  
REMARK    3  A    between atoms: CG   and  CD  
REMARK    4  A    between atoms: CD   and  CE  
ROOT
ATOM      1  CA  LYS A 135      33.193  34.663   9.290  1.00 25.02     0.186 C 
ENDROOT
BRANCH   1   2
ATOM      2  CB  LYS A 135      32.060  35.360  10.034  1.00 26.63     0.034 C 
BRANCH   2   3
ATOM      3  CG  LYS A 135      30.810  35.526   9.209  1.00 29.45     0.005 C 
BRANCH   3   4
ATOM      4  CD  LYS A 135      30.154  34.178   8.952  1.00 32.00     0.041 C 
BRANCH   4   5
ATOM      5  CE  LYS A 135      28.684  34.355   8.621  1.00 34.25     0.338 C 
ATOM      6  NZ  LYS A 135      27.822  33.690   9.637  1.00 35.99     0.618 N 
ENDBRANCH   4   5
ENDBRANCH   3   4
ENDBRANCH   2   3
ENDBRANCH   1   2
END_RES LYS A 135
BEGIN_RES TYR A 136
REMARK  2 active torsions:
REMARK  status: ('A' for Active; 'I' for Inactive)
REMARK    5  A    between atoms: CA   and  CB  
REMARK    6  A    between atoms: CB   and  CG  
ROOT
ATOM      7  CA  TYR A 136      36.583  36.399   8.994  1.00 26.14     0.191 C 
ENDROOT
BRANCH   7   8
ATOM      8  CB  TYR A 136      37.367  36.835  10.240  1.00 28.16     0.060 C 
BRANCH   8   9
ATOM      9  CG  TYR A 136      36.811  38.091  10.865  1.00 31.88    -0.020 A 
ATOM     10  CD2 TYR A 136      37.091  38.423  12.193  1.00 32.67    -0.002 A 
ATOM     11  CE2 TYR A 136      36.568  39.591  12.764  1.00 33.89     0.027 A 
ATOM     12  CZ  TYR A 136      35.758  40.435  12.001  1.00 34.34     0.131 A 
ATOM     13  OH  TYR A 136      35.236  41.600  12.544  1.00 35.14    -0.190 OA
ATOM     14  CE1 TYR A 136      35.469  40.120  10.681  1.00 35.01     0.027 A 
ATOM     15  CD1 TYR A 136      35.990  38.951  10.124  1.00 33.57    -0.002 A 
ENDBRANCH   8   9
ENDBRANCH   7   8
END_RES TYR A 136
BEGIN_RES ASN A 133
REMARK  2 active torsions:
REMARK  status: ('A' for Active; 'I' for Inactive)
REMARK    7  A    between atoms: CA   and  CB  
REMARK    8  A    between atoms: CB   and  CG  
ROOT
ATOM     16  CA  ASN A 133      31.225  30.257  11.749  1.00 18.15     0.196 C 
ENDROOT
BRANCH  16  17
ATOM     17  CB  ASN A 133      30.092  31.240  11.460  1.00 18.27     0.126 C 
BRANCH  17  18
ATOM     18  CG  ASN A 133      28.750  30.584  11.363  1.00 18.94     0.276 C 
ATOM     19  OD1 ASN A 133      28.563  29.619  10.620  1.00 18.09    -0.269 OA
ATOM     20  ND2 ASN A 133      27.788  31.109  12.122  1.00 18.93    -0.107 N 
ENDBRANCH  17  18
ENDBRANCH  16  17
END_RES ASN A 133
