REMARK VINA RESULT:    -4.242      8.461     15.325
REMARK INTER + INTRA:          -7.787
REMARK INTER:                  -4.523
REMARK INTRA:                  -3.264
REMARK UNBOUND:                -3.297
REMARK SMILES Cc1cn(C23CC4CC(CC(C4)C2)C3)nn1
REMARK SMILES IDX 5 1 14 2 9 3 8 4 7 5 12 6 11 7 10 8 13 9 6 10 4 11 1 12 2 13
REMARK SMILES IDX 3 14 16 15 15 16
REMARK H PARENT
REMARK Flexibility Score: inf
ROOT
ATOM      1  C   UNL     1      36.435  35.512  14.125  1.00  0.00     0.065 C 
ATOM      2  C   UNL     1      37.237  36.675  13.553  1.00  0.00     0.034 C 
ATOM      3  C   UNL     1      38.651  36.609  14.121  1.00  0.00    -0.008 C 
ATOM      4  C   UNL     1      39.233  35.291  13.693  1.00  0.00     0.007 C 
ATOM      5  C   UNL     1      38.460  34.174  14.338  1.00  0.00    -0.008 C 
ATOM      6  C   UNL     1      38.394  34.295  15.826  1.00  0.00     0.007 C 
ATOM      7  C   UNL     1      37.726  35.597  16.198  1.00  0.00    -0.008 C 
ATOM      8  C   UNL     1      38.589  36.719  15.617  1.00  0.00     0.007 C 
ATOM      9  C   UNL     1      36.360  35.739  15.617  1.00  0.00     0.034 C 
ATOM     10  C   UNL     1      37.060  34.187  13.770  1.00  0.00     0.034 C 
ENDROOT
BRANCH   1  11
ATOM     11  N   UNL     1      35.082  35.631  13.602  1.00  0.00    -0.246 N 
ATOM     12  C   UNL     1      32.596  37.401  11.647  1.00  0.00     0.070 C 
ATOM     13  C   UNL     1      33.387  36.487  12.493  1.00  0.00     0.080 A 
ATOM     14  C   UNL     1      34.707  36.659  12.819  1.00  0.00     0.134 A 
ATOM     15  N   UNL     1      33.010  35.337  13.107  1.00  0.00    -0.136 NA
ATOM     16  N   UNL     1      34.050  34.847  13.765  1.00  0.00    -0.067 NA
ENDBRANCH   1  11
TORSDOF 1
BEGIN_RES LYS A 135
REMARK  4 active torsions:
REMARK  status: ('A' for Active; 'I' for Inactive)
REMARK    1  A    between atoms: CA   and  CB  
REMARK    2  A    between atoms: CB   and  CG  
REMARK    3  A    between atoms: CG   and  CD  
REMARK    4  A    between atoms: CD   and  CE  
ROOT
ATOM      1  CA  LYS A 135      33.193  34.663   9.290  1.00 25.02     0.186 C 
ENDROOT
BRANCH   1   2
ATOM      2  CB  LYS A 135      32.060  35.360  10.034  1.00 26.63     0.034 C 
BRANCH   2   3
ATOM      3  CG  LYS A 135      30.728  34.670   9.887  1.00 29.45     0.005 C 
BRANCH   3   4
ATOM      4  CD  LYS A 135      30.320  34.598   8.423  1.00 32.00     0.041 C 
BRANCH   4   5
ATOM      5  CE  LYS A 135      28.811  34.529   8.294  1.00 34.25     0.338 C 
ATOM      6  NZ  LYS A 135      28.205  33.818   9.454  1.00 35.99     0.618 N 
ENDBRANCH   4   5
ENDBRANCH   3   4
ENDBRANCH   2   3
ENDBRANCH   1   2
END_RES LYS A 135
BEGIN_RES TYR A 136
REMARK  2 active torsions:
REMARK  status: ('A' for Active; 'I' for Inactive)
REMARK    5  A    between atoms: CA   and  CB  
REMARK    6  A    between atoms: CB   and  CG  
ROOT
ATOM      7  CA  TYR A 136      36.583  36.399   8.994  1.00 26.14     0.191 C 
ENDROOT
BRANCH   7   8
ATOM      8  CB  TYR A 136      37.367  36.835  10.240  1.00 28.16     0.060 C 
BRANCH   8   9
ATOM      9  CG  TYR A 136      37.280  38.320  10.490  1.00 31.88    -0.020 A 
ATOM     10  CD2 TYR A 136      36.084  39.017  10.300  1.00 32.67    -0.002 A 
ATOM     11  CE2 TYR A 136      36.014  40.397  10.533  1.00 33.89     0.027 A 
ATOM     12  CZ  TYR A 136      37.151  41.087  10.961  1.00 34.34     0.131 A 
ATOM     13  OH  TYR A 136      37.103  42.452  11.205  1.00 35.14    -0.190 OA
ATOM     14  CE1 TYR A 136      38.347  40.411  11.153  1.00 35.01     0.027 A 
ATOM     15  CD1 TYR A 136      38.407  39.038  10.912  1.00 33.57    -0.002 A 
ENDBRANCH   8   9
ENDBRANCH   7   8
END_RES TYR A 136
BEGIN_RES ASN A 133
REMARK  2 active torsions:
REMARK  status: ('A' for Active; 'I' for Inactive)
REMARK    7  A    between atoms: CA   and  CB  
REMARK    8  A    between atoms: CB   and  CG  
ROOT
ATOM     16  CA  ASN A 133      31.225  30.257  11.749  1.00 18.15     0.196 C 
ENDROOT
BRANCH  16  17
ATOM     17  CB  ASN A 133      30.092  31.240  11.460  1.00 18.27     0.126 C 
BRANCH  17  18
ATOM     18  CG  ASN A 133      28.752  30.581  11.344  1.00 18.94     0.276 C 
ATOM     19  OD1 ASN A 133      28.585  29.600  10.617  1.00 18.09    -0.269 OA
ATOM     20  ND2 ASN A 133      27.772  31.122  12.066  1.00 18.93    -0.107 N 
ENDBRANCH  17  18
ENDBRANCH  16  17
END_RES ASN A 133
