REMARK VINA RESULT:    -4.947      3.642      5.392
REMARK INTER + INTRA:          -9.301
REMARK INTER:                  -5.896
REMARK INTRA:                  -3.405
REMARK UNBOUND:                -3.343
REMARK SMILES Cc1cn(-c2ccc(S(=O)(=O)c3ccc(N)cc3)cc2)nn1
REMARK SMILES IDX 9 1 10 2 11 3 8 4 5 5 6 6 20 7 7 8 19 9 4 10 1 11 2 12 3 13
REMARK SMILES IDX 22 14 21 15 12 16 13 17 18 18 14 19 17 20 15 21 16 22
REMARK H PARENT 16 23 16 24
REMARK Flexibility Score: inf
ROOT
ATOM      1  S   UNL     1      38.240  34.253  13.990  1.00  0.00     0.206 S 
ATOM      2  O   UNL     1      37.782  32.831  13.719  1.00  0.00    -0.219 OA
ATOM      3  O   UNL     1      38.831  34.254  15.373  1.00  0.00    -0.219 OA
ENDROOT
BRANCH   1   4
ATOM      4  C   UNL     1      36.902  35.356  13.842  1.00  0.00     0.072 A 
ATOM      5  C   UNL     1      34.791  37.197  13.677  1.00  0.00     0.066 A 
ATOM      6  C   UNL     1      35.878  37.400  14.535  1.00  0.00     0.030 A 
ATOM      7  C   UNL     1      34.784  36.070  12.915  1.00  0.00     0.030 A 
ATOM      8  C   UNL     1      36.915  36.493  14.615  1.00  0.00     0.023 A 
ATOM      9  C   UNL     1      35.833  35.151  12.994  1.00  0.00     0.023 A 
BRANCH   5  10
ATOM     10  N   UNL     1      33.757  38.178  13.649  1.00  0.00    -0.220 N 
ATOM     11  C   UNL     1      30.631  39.840  12.785  1.00  0.00     0.070 C 
ATOM     12  C   UNL     1      31.933  39.345  13.262  1.00  0.00     0.080 A 
ATOM     13  C   UNL     1      32.614  38.183  12.973  1.00  0.00     0.140 A 
ATOM     14  N   UNL     1      32.716  40.025  14.135  1.00  0.00    -0.135 NA
ATOM     15  N   UNL     1      33.786  39.302  14.339  1.00  0.00    -0.062 NA
ENDBRANCH   5  10
ENDBRANCH   1   4
BRANCH   1  16
ATOM     16  C   UNL     1      39.530  34.660  12.868  1.00  0.00     0.072 A 
ATOM     17  C   UNL     1      39.439  35.726  11.998  1.00  0.00     0.023 A 
ATOM     18  C   UNL     1      40.692  33.905  12.829  1.00  0.00     0.023 A 
ATOM     19  C   UNL     1      40.464  36.043  11.113  1.00  0.00     0.027 A 
ATOM     20  C   UNL     1      41.715  34.225  11.942  1.00  0.00     0.027 A 
ATOM     21  C   UNL     1      41.612  35.294  11.077  1.00  0.00     0.031 A 
BRANCH  21  22
ATOM     22  N   UNL     1      42.648  35.637  10.161  1.00  0.00    -0.399 N 
ATOM     23  H   UNL     1      42.459  35.743   9.156  1.00  0.00     0.156 HD
ATOM     24  H   UNL     1      43.618  35.784  10.514  1.00  0.00     0.156 HD
ENDBRANCH  21  22
ENDBRANCH   1  16
TORSDOF 4
BEGIN_RES LYS A 135
REMARK  4 active torsions:
REMARK  status: ('A' for Active; 'I' for Inactive)
REMARK    1  A    between atoms: CA   and  CB  
REMARK    2  A    between atoms: CB   and  CG  
REMARK    3  A    between atoms: CG   and  CD  
REMARK    4  A    between atoms: CD   and  CE  
ROOT
ATOM      1  CA  LYS A 135      33.193  34.663   9.290  1.00 25.02     0.186 C 
ENDROOT
BRANCH   1   2
ATOM      2  CB  LYS A 135      32.060  35.360  10.034  1.00 26.63     0.034 C 
BRANCH   2   3
ATOM      3  CG  LYS A 135      30.830  35.577   9.191  1.00 29.45     0.005 C 
BRANCH   3   4
ATOM      4  CD  LYS A 135      30.141  34.253   8.896  1.00 32.00     0.041 C 
BRANCH   4   5
ATOM      5  CE  LYS A 135      28.780  34.489   8.270  1.00 34.25     0.338 C 
ATOM      6  NZ  LYS A 135      28.874  35.433   7.122  1.00 35.99     0.618 N 
ENDBRANCH   4   5
ENDBRANCH   3   4
ENDBRANCH   2   3
ENDBRANCH   1   2
END_RES LYS A 135
BEGIN_RES TYR A 136
REMARK  2 active torsions:
REMARK  status: ('A' for Active; 'I' for Inactive)
REMARK    5  A    between atoms: CA   and  CB  
REMARK    6  A    between atoms: CB   and  CG  
ROOT
ATOM      7  CA  TYR A 136      36.583  36.399   8.994  1.00 26.14     0.191 C 
ENDROOT
BRANCH   7   8
ATOM      8  CB  TYR A 136      37.367  36.835  10.240  1.00 28.16     0.060 C 
BRANCH   8   9
ATOM      9  CG  TYR A 136      36.888  38.154  10.795  1.00 31.88    -0.020 A 
ATOM     10  CD2 TYR A 136      35.680  38.718  10.378  1.00 32.67    -0.002 A 
ATOM     11  CE2 TYR A 136      35.245  39.944  10.898  1.00 33.89     0.027 A 
ATOM     12  CZ  TYR A 136      36.026  40.613  11.844  1.00 34.34     0.131 A 
ATOM     13  OH  TYR A 136      35.611  41.825  12.379  1.00 35.14    -0.190 OA
ATOM     14  CE1 TYR A 136      37.229  40.068  12.269  1.00 35.01     0.027 A 
ATOM     15  CD1 TYR A 136      37.655  38.849  11.739  1.00 33.57    -0.002 A 
ENDBRANCH   8   9
ENDBRANCH   7   8
END_RES TYR A 136
BEGIN_RES ASN A 133
REMARK  2 active torsions:
REMARK  status: ('A' for Active; 'I' for Inactive)
REMARK    7  A    between atoms: CA   and  CB  
REMARK    8  A    between atoms: CB   and  CG  
ROOT
ATOM     16  CA  ASN A 133      31.225  30.257  11.749  1.00 18.15     0.196 C 
ENDROOT
BRANCH  16  17
ATOM     17  CB  ASN A 133      30.092  31.240  11.460  1.00 18.27     0.126 C 
BRANCH  17  18
ATOM     18  CG  ASN A 133      28.747  30.586  11.380  1.00 18.94     0.276 C 
ATOM     19  OD1 ASN A 133      28.557  29.604  10.660  1.00 18.09    -0.269 OA
ATOM     20  ND2 ASN A 133      27.789  31.132  12.128  1.00 18.93    -0.107 N 
ENDBRANCH  17  18
ENDBRANCH  16  17
END_RES ASN A 133
