REMARK VINA RESULT:    -3.826      1.990      3.629
REMARK INTER + INTRA:          -8.718
REMARK INTER:                  -5.230
REMARK INTRA:                  -3.488
REMARK UNBOUND:                -3.439
REMARK SMILES Cc1cn(C[C@H](CC(=O)O)CC(C)C)nn1
REMARK SMILES IDX 7 1 6 2 5 3 4 4 1 5 2 6 3 7 16 8 15 9 11 10 12 11 13 12
REMARK SMILES IDX 14 13 8 14 9 15 10 16
REMARK H PARENT 10 17
REMARK Flexibility Score: inf
ROOT
ATOM      1  C   UNL     1      40.587  34.620  14.216  1.00  0.00     0.128 C 
ENDROOT
BRANCH   1   2
ATOM      2  C   UNL     1      39.327  35.034  14.911  1.00  0.00     0.022 C 
BRANCH   2   3
ATOM      3  C   UNL     1      38.464  35.988  14.134  1.00  0.00     0.150 C 
BRANCH   3   4
ATOM      4  N   UNL     1      37.195  35.381  13.754  1.00  0.00    -0.252 N 
ATOM      5  C   UNL     1      33.615  34.876  14.035  1.00  0.00     0.070 C 
ATOM      6  C   UNL     1      35.057  34.896  13.716  1.00  0.00     0.080 A 
ATOM      7  C   UNL     1      36.031  35.669  14.352  1.00  0.00     0.134 A 
ATOM      8  N   UNL     1      35.684  34.189  12.777  1.00  0.00    -0.136 NA
ATOM      9  N   UNL     1      36.971  34.486  12.804  1.00  0.00    -0.067 NA
ENDBRANCH   3   4
ENDBRANCH   2   3
BRANCH   2  10
ATOM     10  C   UNL     1      38.692  34.062  15.790  1.00  0.00     0.009 C 
BRANCH  10  11
ATOM     11  C   UNL     1      38.428  34.267  17.210  1.00  0.00    -0.017 C 
ATOM     12  C   UNL     1      39.525  35.271  17.685  1.00  0.00     0.007 C 
ATOM     13  C   UNL     1      38.638  33.084  18.127  1.00  0.00     0.007 C 
ENDBRANCH  10  11
ENDBRANCH   2  10
ENDBRANCH   1   2
BRANCH   1  14
ATOM     14  C   UNL     1      40.503  34.223  12.830  1.00  0.00     0.303 C 
ATOM     15  O   UNL     1      41.054  34.850  11.914  1.00  0.00    -0.252 OA
BRANCH  14  16
ATOM     16  O   UNL     1      39.775  33.092  12.495  1.00  0.00    -0.481 OA
ATOM     17  H   UNL     1      38.828  33.120  12.157  1.00  0.00     0.296 HD
ENDBRANCH  14  16
ENDBRANCH   1  14
TORSDOF 7
BEGIN_RES LYS A 135
REMARK  4 active torsions:
REMARK  status: ('A' for Active; 'I' for Inactive)
REMARK    1  A    between atoms: CA   and  CB  
REMARK    2  A    between atoms: CB   and  CG  
REMARK    3  A    between atoms: CG   and  CD  
REMARK    4  A    between atoms: CD   and  CE  
ROOT
ATOM      1  CA  LYS A 135      33.193  34.663   9.290  1.00 25.02     0.186 C 
ENDROOT
BRANCH   1   2
ATOM      2  CB  LYS A 135      32.060  35.360  10.034  1.00 26.63     0.034 C 
BRANCH   2   3
ATOM      3  CG  LYS A 135      30.808  35.520   9.211  1.00 29.45     0.005 C 
BRANCH   3   4
ATOM      4  CD  LYS A 135      30.067  34.197   9.099  1.00 32.00     0.041 C 
BRANCH   4   5
ATOM      5  CE  LYS A 135      28.850  34.189  10.004  1.00 34.25     0.338 C 
ATOM      6  NZ  LYS A 135      27.615  33.860   9.240  1.00 35.99     0.618 N 
ENDBRANCH   4   5
ENDBRANCH   3   4
ENDBRANCH   2   3
ENDBRANCH   1   2
END_RES LYS A 135
BEGIN_RES TYR A 136
REMARK  2 active torsions:
REMARK  status: ('A' for Active; 'I' for Inactive)
REMARK    5  A    between atoms: CA   and  CB  
REMARK    6  A    between atoms: CB   and  CG  
ROOT
ATOM      7  CA  TYR A 136      36.583  36.399   8.994  1.00 26.14     0.191 C 
ENDROOT
BRANCH   7   8
ATOM      8  CB  TYR A 136      37.367  36.835  10.240  1.00 28.16     0.060 C 
BRANCH   8   9
ATOM      9  CG  TYR A 136      36.964  38.204  10.729  1.00 31.88    -0.020 A 
ATOM     10  CD2 TYR A 136      37.475  39.362  10.138  1.00 32.67    -0.002 A 
ATOM     11  CE2 TYR A 136      37.096  40.630  10.602  1.00 33.89     0.027 A 
ATOM     12  CZ  TYR A 136      36.197  40.739  11.666  1.00 34.34     0.131 A 
ATOM     13  OH  TYR A 136      35.802  41.984  12.136  1.00 35.14    -0.190 OA
ATOM     14  CE1 TYR A 136      35.681  39.599  12.265  1.00 35.01     0.027 A 
ATOM     15  CD1 TYR A 136      36.071  38.343  11.799  1.00 33.57    -0.002 A 
ENDBRANCH   8   9
ENDBRANCH   7   8
END_RES TYR A 136
BEGIN_RES ASN A 133
REMARK  2 active torsions:
REMARK  status: ('A' for Active; 'I' for Inactive)
REMARK    7  A    between atoms: CA   and  CB  
REMARK    8  A    between atoms: CB   and  CG  
ROOT
ATOM     16  CA  ASN A 133      31.225  30.257  11.749  1.00 18.15     0.196 C 
ENDROOT
BRANCH  16  17
ATOM     17  CB  ASN A 133      30.092  31.240  11.460  1.00 18.27     0.126 C 
BRANCH  17  18
ATOM     18  CG  ASN A 133      28.758  30.577  11.307  1.00 18.94     0.276 C 
ATOM     19  OD1 ASN A 133      28.612  29.601  10.569  1.00 18.09    -0.269 OA
ATOM     20  ND2 ASN A 133      27.759  31.109  12.010  1.00 18.93    -0.107 N 
ENDBRANCH  17  18
ENDBRANCH  16  17
END_RES ASN A 133
