REMARK VINA RESULT:    -5.425      5.472      8.449
REMARK INTER + INTRA:          -7.887
REMARK INTER:                  -4.627
REMARK INTRA:                  -3.260
REMARK UNBOUND:                -2.144
REMARK SMILES Cc1cn(-c2ccc3[nH]ncc3c2)nn1
REMARK SMILES IDX 5 1 6 2 7 3 8 4 9 5 10 6 11 7 12 8 13 9 4 11 1 12 2 13 3 14
REMARK SMILES IDX 15 15 14 16
REMARK H PARENT 9 10
REMARK Flexibility Score: inf
ROOT
ATOM      1  C   UNL     1      35.249  38.797   4.414  1.00  0.00     0.067 A 
ATOM      2  C   UNL     1      35.020  38.745   3.053  1.00  0.00     0.030 A 
ATOM      3  C   UNL     1      35.975  38.198   2.225  1.00  0.00     0.030 A 
ATOM      4  C   UNL     1      37.177  37.688   2.697  1.00  0.00     0.065 A 
ATOM      5  N   UNL     1      38.252  37.116   2.140  1.00  0.00    -0.278 N 
ATOM      6  N   UNL     1      39.136  36.809   3.064  1.00  0.00    -0.183 NA
ATOM      7  C   UNL     1      38.648  37.179   4.262  1.00  0.00     0.143 A 
ATOM      8  C   UNL     1      37.403  37.743   4.072  1.00  0.00     0.022 A 
ATOM      9  C   UNL     1      36.445  38.292   4.904  1.00  0.00     0.040 A 
ATOM     10  H   UNL     1      38.369  36.941   1.127  1.00  0.00     0.190 HD
ENDROOT
BRANCH   1  11
ATOM     11  N   UNL     1      34.253  39.367   5.257  1.00  0.00    -0.220 N 
ATOM     12  C   UNL     1      32.591  40.550   8.289  1.00  0.00     0.070 C 
ATOM     13  C   UNL     1      33.054  40.149   6.948  1.00  0.00     0.080 A 
ATOM     14  C   UNL     1      34.246  39.560   6.580  1.00  0.00     0.140 A 
ATOM     15  N   UNL     1      32.364  40.293   5.795  1.00  0.00    -0.135 NA
ATOM     16  N   UNL     1      33.101  39.818   4.786  1.00  0.00    -0.062 NA
ENDBRANCH   1  11
TORSDOF 1
BEGIN_RES LYS A 135
REMARK  4 active torsions:
REMARK  status: ('A' for Active; 'I' for Inactive)
REMARK    1  A    between atoms: CA   and  CB  
REMARK    2  A    between atoms: CB   and  CG  
REMARK    3  A    between atoms: CG   and  CD  
REMARK    4  A    between atoms: CD   and  CE  
ROOT
ATOM      1  CA  LYS A 135      33.193  34.663   9.290  1.00 25.02     0.186 C 
ENDROOT
BRANCH   1   2
ATOM      2  CB  LYS A 135      32.060  35.360  10.034  1.00 26.63     0.034 C 
BRANCH   2   3
ATOM      3  CG  LYS A 135      30.881  35.695   9.158  1.00 29.45     0.005 C 
BRANCH   3   4
ATOM      4  CD  LYS A 135      30.380  34.455   8.434  1.00 32.00     0.041 C 
BRANCH   4   5
ATOM      5  CE  LYS A 135      28.866  34.462   8.349  1.00 34.25     0.338 C 
ATOM      6  NZ  LYS A 135      28.260  33.782   9.526  1.00 35.99     0.618 N 
ENDBRANCH   4   5
ENDBRANCH   3   4
ENDBRANCH   2   3
ENDBRANCH   1   2
END_RES LYS A 135
BEGIN_RES TYR A 136
REMARK  2 active torsions:
REMARK  status: ('A' for Active; 'I' for Inactive)
REMARK    5  A    between atoms: CA   and  CB  
REMARK    6  A    between atoms: CB   and  CG  
ROOT
ATOM      7  CA  TYR A 136      36.583  36.399   8.994  1.00 26.14     0.191 C 
ENDROOT
BRANCH   7   8
ATOM      8  CB  TYR A 136      37.367  36.835  10.240  1.00 28.16     0.060 C 
BRANCH   8   9
ATOM      9  CG  TYR A 136      37.161  38.292  10.575  1.00 31.88    -0.020 A 
ATOM     10  CD2 TYR A 136      37.767  38.869  11.693  1.00 32.67    -0.002 A 
ATOM     11  CE2 TYR A 136      37.568  40.223  11.996  1.00 33.89     0.027 A 
ATOM     12  CZ  TYR A 136      36.755  41.007  11.172  1.00 34.34     0.131 A 
ATOM     13  OH  TYR A 136      36.550  42.351  11.449  1.00 35.14    -0.190 OA
ATOM     14  CE1 TYR A 136      36.145  40.449  10.058  1.00 35.01     0.027 A 
ATOM     15  CD1 TYR A 136      36.346  39.098   9.770  1.00 33.57    -0.002 A 
ENDBRANCH   8   9
ENDBRANCH   7   8
END_RES TYR A 136
BEGIN_RES ASN A 133
REMARK  2 active torsions:
REMARK  status: ('A' for Active; 'I' for Inactive)
REMARK    7  A    between atoms: CA   and  CB  
REMARK    8  A    between atoms: CB   and  CG  
ROOT
ATOM     16  CA  ASN A 133      31.225  30.257  11.749  1.00 18.15     0.196 C 
ENDROOT
BRANCH  16  17
ATOM     17  CB  ASN A 133      30.092  31.240  11.460  1.00 18.27     0.126 C 
BRANCH  17  18
ATOM     18  CG  ASN A 133      28.752  30.582  11.348  1.00 18.94     0.276 C 
ATOM     19  OD1 ASN A 133      28.581  29.602  10.621  1.00 18.09    -0.269 OA
ATOM     20  ND2 ASN A 133      27.775  31.122  12.076  1.00 18.93    -0.107 N 
ENDBRANCH  17  18
ENDBRANCH  16  17
END_RES ASN A 133
