REMARK VINA RESULT:    -4.412      4.445      9.067
REMARK INTER + INTRA:          -7.714
REMARK INTER:                  -5.586
REMARK INTRA:                  -2.128
REMARK UNBOUND:                -2.529
REMARK SMILES Cc1cn(Cc2cccc(C#N)c2)nn1
REMARK SMILES IDX 6 1 7 2 8 3 9 4 10 5 13 6 5 7 4 8 1 9 2 10 3 11 15 12 14 13
REMARK SMILES IDX 11 14 12 15
REMARK H PARENT
REMARK Flexibility Score: inf
ROOT
ATOM      1  C   UNL     1      27.493  36.121   6.885  1.00  0.00    -0.025 A 
ATOM      2  C   UNL     1      27.717  34.943   7.555  1.00  0.00     0.006 A 
ATOM      3  C   UNL     1      26.902  34.489   8.573  1.00  0.00     0.002 A 
ATOM      4  C   UNL     1      25.815  35.263   8.926  1.00  0.00     0.019 A 
ATOM      5  C   UNL     1      25.550  36.454   8.282  1.00  0.00     0.052 A 
ATOM      6  C   UNL     1      26.399  36.876   7.257  1.00  0.00     0.025 A 
ENDROOT
BRANCH   1   7
ATOM      7  C   UNL     1      28.361  36.609   5.796  1.00  0.00     0.181 C 
BRANCH   7   8
ATOM      8  N   UNL     1      28.350  38.029   5.651  1.00  0.00    -0.248 N 
ATOM      9  C   UNL     1      27.462  41.078   3.861  1.00  0.00     0.070 C 
ATOM     10  C   UNL     1      27.951  40.011   4.793  1.00  0.00     0.080 A 
ATOM     11  C   UNL     1      27.777  38.669   4.616  1.00  0.00     0.134 A 
ATOM     12  N   UNL     1      28.632  40.171   5.942  1.00  0.00    -0.136 NA
ATOM     13  N   UNL     1      28.862  38.973   6.440  1.00  0.00    -0.067 NA
ENDBRANCH   7   8
ENDBRANCH   1   7
BRANCH   5  14
ATOM     14  C   UNL     1      24.404  37.208   8.699  1.00  0.00     0.099 C 
ATOM     15  N   UNL     1      23.476  37.800   9.044  1.00  0.00    -0.192 NA
ENDBRANCH   5  14
TORSDOF 3
BEGIN_RES LYS A 135
REMARK  4 active torsions:
REMARK  status: ('A' for Active; 'I' for Inactive)
REMARK    1  A    between atoms: CA   and  CB  
REMARK    2  A    between atoms: CB   and  CG  
REMARK    3  A    between atoms: CG   and  CD  
REMARK    4  A    between atoms: CD   and  CE  
ROOT
ATOM      1  CA  LYS A 135      33.193  34.663   9.290  1.00 25.02     0.186 C 
ENDROOT
BRANCH   1   2
ATOM      2  CB  LYS A 135      32.060  35.360  10.034  1.00 26.63     0.034 C 
BRANCH   2   3
ATOM      3  CG  LYS A 135      30.792  35.477   9.228  1.00 29.45     0.005 C 
BRANCH   3   4
ATOM      4  CD  LYS A 135      30.494  36.934   8.906  1.00 32.00     0.041 C 
BRANCH   4   5
ATOM      5  CE  LYS A 135      29.929  37.643  10.122  1.00 34.25     0.338 C 
ATOM      6  NZ  LYS A 135      28.496  37.293  10.328  1.00 35.99     0.618 N 
ENDBRANCH   4   5
ENDBRANCH   3   4
ENDBRANCH   2   3
ENDBRANCH   1   2
END_RES LYS A 135
BEGIN_RES TYR A 136
REMARK  2 active torsions:
REMARK  status: ('A' for Active; 'I' for Inactive)
REMARK    5  A    between atoms: CA   and  CB  
REMARK    6  A    between atoms: CB   and  CG  
ROOT
ATOM      7  CA  TYR A 136      36.583  36.399   8.994  1.00 26.14     0.191 C 
ENDROOT
BRANCH   7   8
ATOM      8  CB  TYR A 136      37.367  36.835  10.240  1.00 28.16     0.060 C 
BRANCH   8   9
ATOM      9  CG  TYR A 136      37.173  38.295  10.566  1.00 31.88    -0.020 A 
ATOM     10  CD2 TYR A 136      36.708  39.195   9.604  1.00 32.67    -0.002 A 
ATOM     11  CE2 TYR A 136      36.533  40.551   9.917  1.00 33.89     0.027 A 
ATOM     12  CZ  TYR A 136      36.826  41.009  11.203  1.00 34.34     0.131 A 
ATOM     13  OH  TYR A 136      36.653  42.345  11.537  1.00 35.14    -0.190 OA
ATOM     14  CE1 TYR A 136      37.290  40.129  12.171  1.00 35.01     0.027 A 
ATOM     15  CD1 TYR A 136      37.466  38.783  11.846  1.00 33.57    -0.002 A 
ENDBRANCH   8   9
ENDBRANCH   7   8
END_RES TYR A 136
BEGIN_RES ASN A 133
REMARK  2 active torsions:
REMARK  status: ('A' for Active; 'I' for Inactive)
REMARK    7  A    between atoms: CA   and  CB  
REMARK    8  A    between atoms: CB   and  CG  
ROOT
ATOM     16  CA  ASN A 133      31.225  30.257  11.749  1.00 18.15     0.196 C 
ENDROOT
BRANCH  16  17
ATOM     17  CB  ASN A 133      30.092  31.240  11.460  1.00 18.27     0.126 C 
BRANCH  17  18
ATOM     18  CG  ASN A 133      28.749  30.584  11.369  1.00 18.94     0.276 C 
ATOM     19  OD1 ASN A 133      28.563  29.610  10.637  1.00 18.09    -0.269 OA
ATOM     20  ND2 ASN A 133      27.787  31.120  12.119  1.00 18.93    -0.107 N 
ENDBRANCH  17  18
ENDBRANCH  16  17
END_RES ASN A 133
