REMARK VINA RESULT:    -5.428      2.688      4.835
REMARK INTER + INTRA:         -10.037
REMARK INTER:                  -6.455
REMARK INTRA:                  -3.582
REMARK UNBOUND:                -3.499
REMARK SMILES Cc1cn(-c2cc(C(=O)O)nc(-c3ccccc3)c2)nn1
REMARK SMILES IDX 5 1 6 2 7 3 11 4 12 5 19 6 4 7 1 8 2 9 3 10 21 11 20 12 8 13
REMARK SMILES IDX 9 14 10 15 13 17 14 18 18 19 15 20 17 21 16 22
REMARK H PARENT 10 16
REMARK Flexibility Score: inf
ROOT
ATOM      1  C   UNL     1      39.269  34.655  13.303  1.00  0.00     0.071 A 
ATOM      2  C   UNL     1      38.000  34.804  12.793  1.00  0.00     0.064 A 
ATOM      3  C   UNL     1      36.886  34.771  13.625  1.00  0.00     0.151 A 
ATOM      4  N   UNL     1      37.080  34.589  14.938  1.00  0.00    -0.241 NA
ATOM      5  C   UNL     1      38.293  34.435  15.517  1.00  0.00     0.073 A 
ATOM      6  C   UNL     1      39.383  34.471  14.676  1.00  0.00     0.057 A 
ENDROOT
BRANCH   1   7
ATOM      7  N   UNL     1      40.432  34.682  12.491  1.00  0.00    -0.220 N 
ATOM      8  C   UNL     1      42.849  36.105  10.122  1.00  0.00     0.070 C 
ATOM      9  C   UNL     1      42.045  35.300  11.076  1.00  0.00     0.080 A 
ATOM     10  C   UNL     1      40.870  35.678  11.693  1.00  0.00     0.140 A 
ATOM     11  N   UNL     1      42.287  34.050  11.536  1.00  0.00    -0.135 NA
ATOM     12  N   UNL     1      41.322  33.708  12.370  1.00  0.00    -0.062 NA
ENDBRANCH   1   7
BRANCH   3  13
ATOM     13  C   UNL     1      35.566  34.934  13.034  1.00  0.00     0.354 C 
ATOM     14  O   UNL     1      35.221  36.086  12.669  1.00  0.00    -0.245 OA
BRANCH  13  15
ATOM     15  O   UNL     1      34.684  33.884  12.860  1.00  0.00    -0.477 OA
ATOM     16  H   UNL     1      34.939  33.045  12.319  1.00  0.00     0.297 HD
ENDBRANCH  13  15
ENDBRANCH   3  13
BRANCH   5  17
ATOM     17  C   UNL     1      38.373  34.244  16.957  1.00  0.00     0.000 A 
ATOM     18  C   UNL     1      38.744  33.064  17.524  1.00  0.00     0.010 A 
ATOM     19  C   UNL     1      38.063  35.290  17.799  1.00  0.00     0.010 A 
ATOM     20  C   UNL     1      38.797  32.959  18.919  1.00  0.00     0.001 A 
ATOM     21  C   UNL     1      38.113  35.196  19.160  1.00  0.00     0.001 A 
ATOM     22  C   UNL     1      38.488  34.004  19.735  1.00  0.00     0.000 A 
ENDBRANCH   5  17
TORSDOF 4
BEGIN_RES LYS A 135
REMARK  4 active torsions:
REMARK  status: ('A' for Active; 'I' for Inactive)
REMARK    1  A    between atoms: CA   and  CB  
REMARK    2  A    between atoms: CB   and  CG  
REMARK    3  A    between atoms: CG   and  CD  
REMARK    4  A    between atoms: CD   and  CE  
ROOT
ATOM      1  CA  LYS A 135      33.193  34.663   9.290  1.00 25.02     0.186 C 
ENDROOT
BRANCH   1   2
ATOM      2  CB  LYS A 135      32.060  35.360  10.034  1.00 26.63     0.034 C 
BRANCH   2   3
ATOM      3  CG  LYS A 135      30.702  34.773   9.749  1.00 29.45     0.005 C 
BRANCH   3   4
ATOM      4  CD  LYS A 135      30.487  34.618   8.252  1.00 32.00     0.041 C 
BRANCH   4   5
ATOM      5  CE  LYS A 135      29.033  34.855   7.894  1.00 34.25     0.338 C 
ATOM      6  NZ  LYS A 135      28.909  35.568   6.592  1.00 35.99     0.618 N 
ENDBRANCH   4   5
ENDBRANCH   3   4
ENDBRANCH   2   3
ENDBRANCH   1   2
END_RES LYS A 135
BEGIN_RES TYR A 136
REMARK  2 active torsions:
REMARK  status: ('A' for Active; 'I' for Inactive)
REMARK    5  A    between atoms: CA   and  CB  
REMARK    6  A    between atoms: CB   and  CG  
ROOT
ATOM      7  CA  TYR A 136      36.583  36.399   8.994  1.00 26.14     0.191 C 
ENDROOT
BRANCH   7   8
ATOM      8  CB  TYR A 136      37.367  36.835  10.240  1.00 28.16     0.060 C 
BRANCH   8   9
ATOM      9  CG  TYR A 136      37.172  38.295  10.567  1.00 31.88    -0.020 A 
ATOM     10  CD2 TYR A 136      37.924  38.920  11.564  1.00 32.67    -0.002 A 
ATOM     11  CE2 TYR A 136      37.734  40.276  11.861  1.00 33.89     0.027 A 
ATOM     12  CZ  TYR A 136      36.782  41.014  11.154  1.00 34.34     0.131 A 
ATOM     13  OH  TYR A 136      36.582  42.361  11.426  1.00 35.14    -0.190 OA
ATOM     14  CE1 TYR A 136      36.025  40.410  10.160  1.00 35.01     0.027 A 
ATOM     15  CD1 TYR A 136      36.219  39.057   9.878  1.00 33.57    -0.002 A 
ENDBRANCH   8   9
ENDBRANCH   7   8
END_RES TYR A 136
BEGIN_RES ASN A 133
REMARK  2 active torsions:
REMARK  status: ('A' for Active; 'I' for Inactive)
REMARK    7  A    between atoms: CA   and  CB  
REMARK    8  A    between atoms: CB   and  CG  
ROOT
ATOM     16  CA  ASN A 133      31.225  30.257  11.749  1.00 18.15     0.196 C 
ENDROOT
BRANCH  16  17
ATOM     17  CB  ASN A 133      30.092  31.240  11.460  1.00 18.27     0.126 C 
BRANCH  17  18
ATOM     18  CG  ASN A 133      28.749  30.584  11.366  1.00 18.94     0.276 C 
ATOM     19  OD1 ASN A 133      28.562  29.616  10.627  1.00 18.09    -0.269 OA
ATOM     20  ND2 ASN A 133      27.788  31.113  12.123  1.00 18.93    -0.107 N 
ENDBRANCH  17  18
ENDBRANCH  16  17
END_RES ASN A 133
