REMARK VINA RESULT:    -4.017      3.212      6.144
REMARK INTER + INTRA:         -10.307
REMARK INTER:                  -7.668
REMARK INTRA:                  -2.639
REMARK UNBOUND:                -3.589
REMARK SMILES Cc1cn(CCCCCCCCCCC(=O)O)nn1
REMARK SMILES IDX 10 1 9 2 8 3 7 4 6 5 5 6 4 7 1 8 2 9 3 10 19 11 18 12 11 13
REMARK SMILES IDX 12 14 13 15 14 16 15 17 16 18 17 19
REMARK H PARENT 17 20
REMARK Flexibility Score: inf
ROOT
ATOM      1  C   UNL     1      26.358  35.014   9.781  1.00  0.00     0.000 C 
ENDROOT
BRANCH   1   2
ATOM      2  C   UNL     1      27.323  34.043  10.307  1.00  0.00     0.000 C 
BRANCH   2   3
ATOM      3  C   UNL     1      28.235  34.329  11.424  1.00  0.00     0.000 C 
BRANCH   3   4
ATOM      4  C   UNL     1      27.677  34.849  12.694  1.00  0.00     0.002 C 
BRANCH   4   5
ATOM      5  C   UNL     1      28.835  35.204  13.643  1.00  0.00     0.024 C 
BRANCH   5   6
ATOM      6  C   UNL     1      29.750  34.064  13.917  1.00  0.00     0.146 C 
BRANCH   6   7
ATOM      7  N   UNL     1      31.145  34.548  13.893  1.00  0.00    -0.252 N 
ATOM      8  C   UNL     1      33.893  36.536  12.490  1.00  0.00     0.070 C 
ATOM      9  C   UNL     1      32.973  35.650  13.248  1.00  0.00     0.080 A 
ATOM     10  C   UNL     1      31.642  35.415  12.975  1.00  0.00     0.134 A 
ATOM     11  N   UNL     1      33.238  34.905  14.338  1.00  0.00    -0.136 NA
ATOM     12  N   UNL     1      32.129  34.257  14.703  1.00  0.00    -0.067 NA
ENDBRANCH   6   7
ENDBRANCH   5   6
ENDBRANCH   4   5
ENDBRANCH   3   4
ENDBRANCH   2   3
ENDBRANCH   1   2
BRANCH   1  13
ATOM     13  C   UNL     1      26.509  35.553   8.415  1.00  0.00     0.000 C 
BRANCH  13  14
ATOM     14  C   UNL     1      27.610  34.788   7.651  1.00  0.00     0.001 C 
BRANCH  14  15
ATOM     15  C   UNL     1      28.214  35.612   6.556  1.00  0.00     0.012 C 
BRANCH  15  16
ATOM     16  C   UNL     1      27.291  36.770   6.179  1.00  0.00     0.122 C 
BRANCH  16  17
ATOM     17  C   UNL     1      28.009  37.746   5.323  1.00  0.00     0.303 C 
ATOM     18  O   UNL     1      29.259  37.808   5.287  1.00  0.00    -0.252 OA
BRANCH  17  19
ATOM     19  O   UNL     1      27.288  38.625   4.532  1.00  0.00    -0.481 OA
ATOM     20  H   UNL     1      27.014  39.543   4.827  1.00  0.00     0.296 HD
ENDBRANCH  17  19
ENDBRANCH  16  17
ENDBRANCH  15  16
ENDBRANCH  14  15
ENDBRANCH  13  14
ENDBRANCH   1  13
TORSDOF 12
BEGIN_RES LYS A 135
REMARK  4 active torsions:
REMARK  status: ('A' for Active; 'I' for Inactive)
REMARK    1  A    between atoms: CA   and  CB  
REMARK    2  A    between atoms: CB   and  CG  
REMARK    3  A    between atoms: CG   and  CD  
REMARK    4  A    between atoms: CD   and  CE  
ROOT
ATOM      1  CA  LYS A 135      33.193  34.663   9.290  1.00 25.02     0.186 C 
ENDROOT
BRANCH   1   2
ATOM      2  CB  LYS A 135      32.060  35.360  10.034  1.00 26.63     0.034 C 
BRANCH   2   3
ATOM      3  CG  LYS A 135      30.810  35.527   9.209  1.00 29.45     0.005 C 
BRANCH   3   4
ATOM      4  CD  LYS A 135      30.523  37.000   8.961  1.00 32.00     0.041 C 
BRANCH   4   5
ATOM      5  CE  LYS A 135      29.425  37.491   9.884  1.00 34.25     0.338 C 
ATOM      6  NZ  LYS A 135      28.500  38.416   9.172  1.00 35.99     0.618 N 
ENDBRANCH   4   5
ENDBRANCH   3   4
ENDBRANCH   2   3
ENDBRANCH   1   2
END_RES LYS A 135
BEGIN_RES TYR A 136
REMARK  2 active torsions:
REMARK  status: ('A' for Active; 'I' for Inactive)
REMARK    5  A    between atoms: CA   and  CB  
REMARK    6  A    between atoms: CB   and  CG  
ROOT
ATOM      7  CA  TYR A 136      36.583  36.399   8.994  1.00 26.14     0.191 C 
ENDROOT
BRANCH   7   8
ATOM      8  CB  TYR A 136      37.367  36.835  10.240  1.00 28.16     0.060 C 
BRANCH   8   9
ATOM      9  CG  TYR A 136      36.886  38.152  10.797  1.00 31.88    -0.020 A 
ATOM     10  CD2 TYR A 136      37.146  38.517  12.120  1.00 32.67    -0.002 A 
ATOM     11  CE2 TYR A 136      36.693  39.742  12.627  1.00 33.89     0.027 A 
ATOM     12  CZ  TYR A 136      35.973  40.611  11.804  1.00 34.34     0.131 A 
ATOM     13  OH  TYR A 136      35.521  41.832  12.283  1.00 35.14    -0.190 OA
ATOM     14  CE1 TYR A 136      35.705  40.264  10.487  1.00 35.01     0.027 A 
ATOM     15  CD1 TYR A 136      36.155  39.039   9.995  1.00 33.57    -0.002 A 
ENDBRANCH   8   9
ENDBRANCH   7   8
END_RES TYR A 136
BEGIN_RES ASN A 133
REMARK  2 active torsions:
REMARK  status: ('A' for Active; 'I' for Inactive)
REMARK    7  A    between atoms: CA   and  CB  
REMARK    8  A    between atoms: CB   and  CG  
ROOT
ATOM     16  CA  ASN A 133      31.225  30.257  11.749  1.00 18.15     0.196 C 
ENDROOT
BRANCH  16  17
ATOM     17  CB  ASN A 133      30.092  31.240  11.460  1.00 18.27     0.126 C 
BRANCH  17  18
ATOM     18  CG  ASN A 133      28.743  30.592  11.418  1.00 18.94     0.276 C 
ATOM     19  OD1 ASN A 133      28.504  29.664  10.643  1.00 18.09    -0.269 OA
ATOM     20  ND2 ASN A 133      27.835  31.082  12.261  1.00 18.93    -0.107 N 
ENDBRANCH  17  18
ENDBRANCH  16  17
END_RES ASN A 133
