REMARK VINA RESULT:    -4.212      2.258      3.807
REMARK INTER + INTRA:          -9.252
REMARK INTER:                  -5.247
REMARK INTRA:                  -4.004
REMARK UNBOUND:                -3.439
REMARK SMILES Cc1cn(C[C@H](CC(=O)O)CC(C)C)nn1
REMARK SMILES IDX 7 1 6 2 5 3 4 4 1 5 2 6 3 7 16 8 15 9 11 10 12 11 13 12
REMARK SMILES IDX 14 13 8 14 9 15 10 16
REMARK H PARENT 10 17
REMARK Flexibility Score: inf
ROOT
ATOM      1  C   UNL     1      37.558  33.529  13.789  1.00  0.00     0.128 C 
ENDROOT
BRANCH   1   2
ATOM      2  C   UNL     1      38.099  34.860  14.210  1.00  0.00     0.022 C 
BRANCH   2   3
ATOM      3  C   UNL     1      37.232  35.615  15.179  1.00  0.00     0.150 C 
BRANCH   3   4
ATOM      4  N   UNL     1      35.962  36.001  14.579  1.00  0.00    -0.252 N 
ATOM      5  C   UNL     1      33.887  37.905  12.294  1.00  0.00     0.070 C 
ATOM      6  C   UNL     1      34.494  37.014  13.304  1.00  0.00     0.080 A 
ATOM      7  C   UNL     1      35.853  36.925  13.614  1.00  0.00     0.134 A 
ATOM      8  N   UNL     1      33.864  36.146  14.093  1.00  0.00    -0.136 NA
ATOM      9  N   UNL     1      34.753  35.538  14.859  1.00  0.00    -0.067 NA
ENDBRANCH   3   4
ENDBRANCH   2   3
BRANCH   2  10
ATOM     10  C   UNL     1      39.546  35.002  14.300  1.00  0.00     0.009 C 
BRANCH  10  11
ATOM     11  C   UNL     1      40.383  35.668  13.310  1.00  0.00    -0.017 C 
ATOM     12  C   UNL     1      40.430  37.163  13.758  1.00  0.00     0.007 C 
ATOM     13  C   UNL     1      39.844  35.758  11.901  1.00  0.00     0.007 C 
ENDBRANCH  10  11
ENDBRANCH   2  10
ENDBRANCH   1   2
BRANCH   1  14
ATOM     14  C   UNL     1      36.742  33.470  12.599  1.00  0.00     0.303 C 
ATOM     15  O   UNL     1      37.217  33.355  11.460  1.00  0.00    -0.252 OA
BRANCH  14  16
ATOM     16  O   UNL     1      35.364  33.544  12.722  1.00  0.00    -0.481 OA
ATOM     17  H   UNL     1      34.771  32.739  12.838  1.00  0.00     0.296 HD
ENDBRANCH  14  16
ENDBRANCH   1  14
TORSDOF 7
BEGIN_RES LYS A 135
REMARK  4 active torsions:
REMARK  status: ('A' for Active; 'I' for Inactive)
REMARK    1  A    between atoms: CA   and  CB  
REMARK    2  A    between atoms: CB   and  CG  
REMARK    3  A    between atoms: CG   and  CD  
REMARK    4  A    between atoms: CD   and  CE  
ROOT
ATOM      1  CA  LYS A 135      33.193  34.663   9.290  1.00 25.02     0.186 C 
ENDROOT
BRANCH   1   2
ATOM      2  CB  LYS A 135      32.060  35.360  10.034  1.00 26.63     0.034 C 
BRANCH   2   3
ATOM      3  CG  LYS A 135      30.822  35.559   9.197  1.00 29.45     0.005 C 
BRANCH   3   4
ATOM      4  CD  LYS A 135      30.176  34.222   8.870  1.00 32.00     0.041 C 
BRANCH   4   5
ATOM      5  CE  LYS A 135      28.703  34.406   8.555  1.00 34.25     0.338 C 
ATOM      6  NZ  LYS A 135      27.849  33.723   9.566  1.00 35.99     0.618 N 
ENDBRANCH   4   5
ENDBRANCH   3   4
ENDBRANCH   2   3
ENDBRANCH   1   2
END_RES LYS A 135
BEGIN_RES TYR A 136
REMARK  2 active torsions:
REMARK  status: ('A' for Active; 'I' for Inactive)
REMARK    5  A    between atoms: CA   and  CB  
REMARK    6  A    between atoms: CB   and  CG  
ROOT
ATOM      7  CA  TYR A 136      36.583  36.399   8.994  1.00 26.14     0.191 C 
ENDROOT
BRANCH   7   8
ATOM      8  CB  TYR A 136      37.367  36.835  10.240  1.00 28.16     0.060 C 
BRANCH   8   9
ATOM      9  CG  TYR A 136      37.269  38.319  10.497  1.00 31.88    -0.020 A 
ATOM     10  CD2 TYR A 136      38.053  38.936  11.475  1.00 32.67    -0.002 A 
ATOM     11  CE2 TYR A 136      37.953  40.315  11.707  1.00 33.89     0.027 A 
ATOM     12  CZ  TYR A 136      37.061  41.082  10.955  1.00 34.34     0.131 A 
ATOM     13  OH  TYR A 136      36.951  42.450  11.162  1.00 35.14    -0.190 OA
ATOM     14  CE1 TYR A 136      36.274  40.485   9.980  1.00 35.01     0.027 A 
ATOM     15  CD1 TYR A 136      36.378  39.110   9.762  1.00 33.57    -0.002 A 
ENDBRANCH   8   9
ENDBRANCH   7   8
END_RES TYR A 136
BEGIN_RES ASN A 133
REMARK  2 active torsions:
REMARK  status: ('A' for Active; 'I' for Inactive)
REMARK    7  A    between atoms: CA   and  CB  
REMARK    8  A    between atoms: CB   and  CG  
ROOT
ATOM     16  CA  ASN A 133      31.225  30.257  11.749  1.00 18.15     0.196 C 
ENDROOT
BRANCH  16  17
ATOM     17  CB  ASN A 133      30.092  31.240  11.460  1.00 18.27     0.126 C 
BRANCH  17  18
ATOM     18  CG  ASN A 133      28.749  30.585  11.370  1.00 18.94     0.276 C 
ATOM     19  OD1 ASN A 133      28.564  29.603  10.648  1.00 18.09    -0.269 OA
ATOM     20  ND2 ASN A 133      27.784  31.129  12.111  1.00 18.93    -0.107 N 
ENDBRANCH  17  18
ENDBRANCH  16  17
END_RES ASN A 133
