REMARK VINA RESULT:    -5.477      3.317      8.565
REMARK INTER + INTRA:          -9.178
REMARK INTER:                  -7.388
REMARK INTRA:                  -1.790
REMARK UNBOUND:                -3.381
REMARK SMILES Cc1cn(C2c3ccccc3-c3ccccc32)nn1
REMARK SMILES IDX 5 1 6 2 7 3 8 4 9 5 10 6 11 7 12 8 13 9 14 10 15 11 16 12
REMARK SMILES IDX 17 13 4 14 1 15 2 16 3 17 19 18 18 19
REMARK H PARENT
REMARK Flexibility Score: inf
ROOT
ATOM      1  C   UNL     1      27.361  36.045   7.242  1.00  0.00     0.170 C 
ATOM      2  C   UNL     1      26.256  35.975   8.209  1.00  0.00    -0.011 A 
ATOM      3  C   UNL     1      24.978  36.504   8.115  1.00  0.00     0.007 A 
ATOM      4  C   UNL     1      24.083  36.321   9.148  1.00  0.00     0.000 A 
ATOM      5  C   UNL     1      24.486  35.604  10.266  1.00  0.00     0.001 A 
ATOM      6  C   UNL     1      25.763  35.074  10.361  1.00  0.00     0.009 A 
ATOM      7  C   UNL     1      26.646  35.269   9.314  1.00  0.00    -0.012 A 
ATOM      8  C   UNL     1      28.020  34.854   9.108  1.00  0.00    -0.012 A 
ATOM      9  C   UNL     1      28.853  34.111   9.956  1.00  0.00     0.009 A 
ATOM     10  C   UNL     1      30.126  33.842   9.537  1.00  0.00     0.001 A 
ATOM     11  C   UNL     1      30.625  34.270   8.318  1.00  0.00     0.000 A 
ATOM     12  C   UNL     1      29.769  34.990   7.531  1.00  0.00     0.007 A 
ATOM     13  C   UNL     1      28.458  35.305   7.888  1.00  0.00    -0.011 A 
ENDROOT
BRANCH   1  14
ATOM     14  N   UNL     1      27.693  37.388   6.897  1.00  0.00    -0.240 N 
ATOM     15  C   UNL     1      28.049  40.176   4.594  1.00  0.00     0.070 C 
ATOM     16  C   UNL     1      28.009  39.244   5.742  1.00  0.00     0.080 A 
ATOM     17  C   UNL     1      27.595  37.921   5.673  1.00  0.00     0.135 A 
ATOM     18  N   UNL     1      28.342  39.455   7.016  1.00  0.00    -0.136 NA
ATOM     19  N   UNL     1      28.146  38.321   7.706  1.00  0.00    -0.066 NA
ENDBRANCH   1  14
TORSDOF 1
BEGIN_RES LYS A 135
REMARK  4 active torsions:
REMARK  status: ('A' for Active; 'I' for Inactive)
REMARK    1  A    between atoms: CA   and  CB  
REMARK    2  A    between atoms: CB   and  CG  
REMARK    3  A    between atoms: CG   and  CD  
REMARK    4  A    between atoms: CD   and  CE  
ROOT
ATOM      1  CA  LYS A 135      33.193  34.663   9.290  1.00 25.02     0.186 C 
ENDROOT
BRANCH   1   2
ATOM      2  CB  LYS A 135      32.060  35.360  10.034  1.00 26.63     0.034 C 
BRANCH   2   3
ATOM      3  CG  LYS A 135      32.515  36.109  11.260  1.00 29.45     0.005 C 
BRANCH   3   4
ATOM      4  CD  LYS A 135      31.807  37.451  11.362  1.00 32.00     0.041 C 
BRANCH   4   5
ATOM      5  CE  LYS A 135      30.704  37.552  10.326  1.00 34.25     0.338 C 
ATOM      6  NZ  LYS A 135      29.366  37.635  10.973  1.00 35.99     0.618 N 
ENDBRANCH   4   5
ENDBRANCH   3   4
ENDBRANCH   2   3
ENDBRANCH   1   2
END_RES LYS A 135
BEGIN_RES TYR A 136
REMARK  2 active torsions:
REMARK  status: ('A' for Active; 'I' for Inactive)
REMARK    5  A    between atoms: CA   and  CB  
REMARK    6  A    between atoms: CB   and  CG  
ROOT
ATOM      7  CA  TYR A 136      36.583  36.399   8.994  1.00 26.14     0.191 C 
ENDROOT
BRANCH   7   8
ATOM      8  CB  TYR A 136      37.367  36.835  10.240  1.00 28.16     0.060 C 
BRANCH   8   9
ATOM      9  CG  TYR A 136      36.499  37.535  11.256  1.00 31.88    -0.020 A 
ATOM     10  CD2 TYR A 136      35.866  38.744  10.956  1.00 32.67    -0.002 A 
ATOM     11  CE2 TYR A 136      35.063  39.387  11.908  1.00 33.89     0.027 A 
ATOM     12  CZ  TYR A 136      34.892  38.816  13.172  1.00 34.34     0.131 A 
ATOM     13  OH  TYR A 136      34.096  39.432  14.127  1.00 35.14    -0.190 OA
ATOM     14  CE1 TYR A 136      35.514  37.617  13.487  1.00 35.01     0.027 A 
ATOM     15  CD1 TYR A 136      36.317  36.989  12.533  1.00 33.57    -0.002 A 
ENDBRANCH   8   9
ENDBRANCH   7   8
END_RES TYR A 136
BEGIN_RES ASN A 133
REMARK  2 active torsions:
REMARK  status: ('A' for Active; 'I' for Inactive)
REMARK    7  A    between atoms: CA   and  CB  
REMARK    8  A    between atoms: CB   and  CG  
ROOT
ATOM     16  CA  ASN A 133      31.225  30.257  11.749  1.00 18.15     0.196 C 
ENDROOT
BRANCH  16  17
ATOM     17  CB  ASN A 133      30.092  31.240  11.460  1.00 18.27     0.126 C 
BRANCH  17  18
ATOM     18  CG  ASN A 133      28.755  30.579  11.329  1.00 18.94     0.276 C 
ATOM     19  OD1 ASN A 133      28.586  29.624  10.569  1.00 18.09    -0.269 OA
ATOM     20  ND2 ASN A 133      27.777  31.089  12.078  1.00 18.93    -0.107 N 
ENDBRANCH  17  18
ENDBRANCH  16  17
END_RES ASN A 133
