REMARK VINA RESULT:    -4.229      5.769      7.456
REMARK INTER + INTRA:          -9.197
REMARK INTER:                  -5.792
REMARK INTRA:                  -3.405
REMARK UNBOUND:                -3.485
REMARK SMILES Cc1cn([C@@H](CCC(=O)O)C(=O)O)nn1
REMARK SMILES IDX 6 1 5 2 4 3 1 4 2 5 3 6 15 7 14 8 11 9 12 10 13 11 7 13 8 14
REMARK SMILES IDX 9 15 10 16
REMARK H PARENT 13 12 10 17
REMARK Flexibility Score: inf
ROOT
ATOM      1  C   UNL     1      36.531  38.939   3.124  1.00  0.00     0.051 C 
ENDROOT
BRANCH   1   2
ATOM      2  C   UNL     1      37.309  37.709   2.738  1.00  0.00     0.219 C 
BRANCH   2   3
ATOM      3  N   UNL     1      38.520  37.561   3.511  1.00  0.00    -0.238 N 
ATOM      4  C   UNL     1      41.259  35.707   5.062  1.00  0.00     0.070 C 
ATOM      5  C   UNL     1      40.272  36.693   4.544  1.00  0.00     0.080 A 
ATOM      6  C   UNL     1      39.177  36.399   3.791  1.00  0.00     0.135 A 
ATOM      7  N   UNL     1      40.277  38.027   4.715  1.00  0.00    -0.136 NA
ATOM      8  N   UNL     1      39.234  38.530   4.098  1.00  0.00    -0.066 NA
ENDBRANCH   2   3
BRANCH   2   9
ATOM      9  C   UNL     1      37.582  37.613   1.307  1.00  0.00     0.328 C 
ATOM     10  O   UNL     1      38.277  38.491   0.751  1.00  0.00    -0.250 OA
BRANCH   9  11
ATOM     11  O   UNL     1      37.100  36.584   0.524  1.00  0.00    -0.480 OA
ATOM     12  H   UNL     1      36.092  36.401   0.419  1.00  0.00     0.296 HD
ENDBRANCH   9  11
ENDBRANCH   2   9
ENDBRANCH   1   2
BRANCH   1  13
ATOM     13  C   UNL     1      35.285  38.603   3.913  1.00  0.00     0.125 C 
BRANCH  13  14
ATOM     14  C   UNL     1      35.631  38.393   5.343  1.00  0.00     0.303 C 
ATOM     15  O   UNL     1      35.615  39.329   6.180  1.00  0.00    -0.252 OA
BRANCH  14  16
ATOM     16  O   UNL     1      35.991  37.138   5.814  1.00  0.00    -0.481 OA
ATOM     17  H   UNL     1      36.729  37.023   6.517  1.00  0.00     0.296 HD
ENDBRANCH  14  16
ENDBRANCH  13  14
ENDBRANCH   1  13
TORSDOF 7
BEGIN_RES LYS A 135
REMARK  4 active torsions:
REMARK  status: ('A' for Active; 'I' for Inactive)
REMARK    1  A    between atoms: CA   and  CB  
REMARK    2  A    between atoms: CB   and  CG  
REMARK    3  A    between atoms: CG   and  CD  
REMARK    4  A    between atoms: CD   and  CE  
ROOT
ATOM      1  CA  LYS A 135      33.193  34.663   9.290  1.00 25.02     0.186 C 
ENDROOT
BRANCH   1   2
ATOM      2  CB  LYS A 135      32.060  35.360  10.034  1.00 26.63     0.034 C 
BRANCH   2   3
ATOM      3  CG  LYS A 135      30.820  35.554   9.199  1.00 29.45     0.005 C 
BRANCH   3   4
ATOM      4  CD  LYS A 135      30.086  34.235   9.016  1.00 32.00     0.041 C 
BRANCH   4   5
ATOM      5  CE  LYS A 135      28.763  34.456   8.307  1.00 34.25     0.338 C 
ATOM      6  NZ  LYS A 135      28.923  35.376   7.147  1.00 35.99     0.618 N 
ENDBRANCH   4   5
ENDBRANCH   3   4
ENDBRANCH   2   3
ENDBRANCH   1   2
END_RES LYS A 135
BEGIN_RES TYR A 136
REMARK  2 active torsions:
REMARK  status: ('A' for Active; 'I' for Inactive)
REMARK    5  A    between atoms: CA   and  CB  
REMARK    6  A    between atoms: CB   and  CG  
ROOT
ATOM      7  CA  TYR A 136      36.583  36.399   8.994  1.00 26.14     0.191 C 
ENDROOT
BRANCH   7   8
ATOM      8  CB  TYR A 136      37.367  36.835  10.240  1.00 28.16     0.060 C 
BRANCH   8   9
ATOM      9  CG  TYR A 136      37.253  38.315  10.509  1.00 31.88    -0.020 A 
ATOM     10  CD2 TYR A 136      36.517  39.149   9.664  1.00 32.67    -0.002 A 
ATOM     11  CE2 TYR A 136      36.419  40.523   9.921  1.00 33.89     0.027 A 
ATOM     12  CZ  TYR A 136      37.064  41.068  11.034  1.00 34.34     0.131 A 
ATOM     13  OH  TYR A 136      36.974  42.425  11.312  1.00 35.14    -0.190 OA
ATOM     14  CE1 TYR A 136      37.800  40.255  11.883  1.00 35.01     0.027 A 
ATOM     15  CD1 TYR A 136      37.896  38.889  11.613  1.00 33.57    -0.002 A 
ENDBRANCH   8   9
ENDBRANCH   7   8
END_RES TYR A 136
BEGIN_RES ASN A 133
REMARK  2 active torsions:
REMARK  status: ('A' for Active; 'I' for Inactive)
REMARK    7  A    between atoms: CA   and  CB  
REMARK    8  A    between atoms: CB   and  CG  
ROOT
ATOM     16  CA  ASN A 133      31.225  30.257  11.749  1.00 18.15     0.196 C 
ENDROOT
BRANCH  16  17
ATOM     17  CB  ASN A 133      30.092  31.240  11.460  1.00 18.27     0.126 C 
BRANCH  17  18
ATOM     18  CG  ASN A 133      28.748  30.585  11.374  1.00 18.94     0.276 C 
ATOM     19  OD1 ASN A 133      28.557  29.613  10.641  1.00 18.09    -0.269 OA
ATOM     20  ND2 ASN A 133      27.790  31.119  12.131  1.00 18.93    -0.107 N 
ENDBRANCH  17  18
ENDBRANCH  16  17
END_RES ASN A 133
