REMARK VINA RESULT:    -3.756      1.858      3.075
REMARK INTER + INTRA:          -7.651
REMARK INTER:                  -4.254
REMARK INTRA:                  -3.397
REMARK UNBOUND:                -3.346
REMARK SMILES Cc1cn(C(C)(C)C(=O)O)nn1
REMARK SMILES IDX 5 1 6 2 7 3 4 4 1 5 2 6 3 7 12 8 11 9 8 10 9 11 10 12
REMARK H PARENT 10 13
REMARK Flexibility Score: inf
ROOT
ATOM      1  C   UNL     1      38.119  34.645  13.549  1.00  0.00     0.155 C 
ATOM      2  C   UNL     1      37.244  35.871  13.403  1.00  0.00     0.049 C 
ATOM      3  C   UNL     1      38.462  34.521  15.020  1.00  0.00     0.049 C 
ENDROOT
BRANCH   1   4
ATOM      4  N   UNL     1      39.367  34.776  12.827  1.00  0.00    -0.235 N 
ATOM      5  C   UNL     1      41.805  36.428  10.721  1.00  0.00     0.070 C 
ATOM      6  C   UNL     1      40.992  35.539  11.590  1.00  0.00     0.080 A 
ATOM      7  C   UNL     1      39.748  35.832  12.101  1.00  0.00     0.135 A 
ATOM      8  N   UNL     1      41.334  34.313  12.020  1.00  0.00    -0.136 NA
ATOM      9  N   UNL     1      40.333  33.887  12.760  1.00  0.00    -0.066 NA
ENDBRANCH   1   4
BRANCH   1  10
ATOM     10  C   UNL     1      37.403  33.456  13.046  1.00  0.00     0.331 C 
ATOM     11  O   UNL     1      36.453  33.581  12.229  1.00  0.00    -0.250 OA
BRANCH  10  12
ATOM     12  O   UNL     1      37.811  32.210  13.504  1.00  0.00    -0.479 OA
ATOM     13  H   UNL     1      38.203  32.172  14.451  1.00  0.00     0.296 HD
ENDBRANCH  10  12
ENDBRANCH   1  10
TORSDOF 3
BEGIN_RES LYS A 135
REMARK  4 active torsions:
REMARK  status: ('A' for Active; 'I' for Inactive)
REMARK    1  A    between atoms: CA   and  CB  
REMARK    2  A    between atoms: CB   and  CG  
REMARK    3  A    between atoms: CG   and  CD  
REMARK    4  A    between atoms: CD   and  CE  
ROOT
ATOM      1  CA  LYS A 135      33.193  34.663   9.290  1.00 25.02     0.186 C 
ENDROOT
BRANCH   1   2
ATOM      2  CB  LYS A 135      32.060  35.360  10.034  1.00 26.63     0.034 C 
BRANCH   2   3
ATOM      3  CG  LYS A 135      30.895  35.727   9.151  1.00 29.45     0.005 C 
BRANCH   3   4
ATOM      4  CD  LYS A 135      30.406  34.513   8.376  1.00 32.00     0.041 C 
BRANCH   4   5
ATOM      5  CE  LYS A 135      28.890  34.489   8.326  1.00 34.25     0.338 C 
ATOM      6  NZ  LYS A 135      28.326  33.787   9.512  1.00 35.99     0.618 N 
ENDBRANCH   4   5
ENDBRANCH   3   4
ENDBRANCH   2   3
ENDBRANCH   1   2
END_RES LYS A 135
BEGIN_RES TYR A 136
REMARK  2 active torsions:
REMARK  status: ('A' for Active; 'I' for Inactive)
REMARK    5  A    between atoms: CA   and  CB  
REMARK    6  A    between atoms: CB   and  CG  
ROOT
ATOM      7  CA  TYR A 136      36.583  36.399   8.994  1.00 26.14     0.191 C 
ENDROOT
BRANCH   7   8
ATOM      8  CB  TYR A 136      37.367  36.835  10.240  1.00 28.16     0.060 C 
BRANCH   8   9
ATOM      9  CG  TYR A 136      37.323  38.327  10.460  1.00 31.88    -0.020 A 
ATOM     10  CD2 TYR A 136      36.110  39.017  10.501  1.00 32.67    -0.002 A 
ATOM     11  CE2 TYR A 136      36.080  40.403  10.705  1.00 33.89     0.027 A 
ATOM     12  CZ  TYR A 136      37.276  41.106  10.868  1.00 34.34     0.131 A 
ATOM     13  OH  TYR A 136      37.271  42.478  11.078  1.00 35.14    -0.190 OA
ATOM     14  CE1 TYR A 136      38.491  40.437  10.830  1.00 35.01     0.027 A 
ATOM     15  CD1 TYR A 136      38.508  39.057  10.620  1.00 33.57    -0.002 A 
ENDBRANCH   8   9
ENDBRANCH   7   8
END_RES TYR A 136
BEGIN_RES ASN A 133
REMARK  2 active torsions:
REMARK  status: ('A' for Active; 'I' for Inactive)
REMARK    7  A    between atoms: CA   and  CB  
REMARK    8  A    between atoms: CB   and  CG  
ROOT
ATOM     16  CA  ASN A 133      31.225  30.257  11.749  1.00 18.15     0.196 C 
ENDROOT
BRANCH  16  17
ATOM     17  CB  ASN A 133      30.092  31.240  11.460  1.00 18.27     0.126 C 
BRANCH  17  18
ATOM     18  CG  ASN A 133      28.756  30.578  11.318  1.00 18.94     0.276 C 
ATOM     19  OD1 ASN A 133      28.599  29.611  10.571  1.00 18.09    -0.269 OA
ATOM     20  ND2 ASN A 133      27.767  31.101  12.042  1.00 18.93    -0.107 N 
ENDBRANCH  17  18
ENDBRANCH  16  17
END_RES ASN A 133
