REMARK VINA RESULT:    -4.536      2.647      4.770
REMARK INTER + INTRA:          -8.762
REMARK INTER:                  -5.669
REMARK INTRA:                  -3.093
REMARK UNBOUND:                -3.298
REMARK SMILES Cc1cn(Cc2ccc(C(=O)O)cc2)nn1
REMARK SMILES IDX 6 1 7 2 8 3 9 4 13 5 14 6 5 7 4 8 1 9 2 10 3 11 16 12 15 13
REMARK SMILES IDX 10 14 11 15 12 16
REMARK H PARENT 12 17
REMARK Flexibility Score: inf
ROOT
ATOM      1  C   UNL     1      32.074  34.598  15.566  1.00  0.00    -0.026 A 
ATOM      2  C   UNL     1      31.937  34.650  16.931  1.00  0.00     0.006 A 
ATOM      3  C   UNL     1      31.366  33.586  17.591  1.00  0.00     0.016 A 
ATOM      4  C   UNL     1      30.917  32.452  16.951  1.00  0.00     0.059 A 
ATOM      5  C   UNL     1      31.077  32.447  15.576  1.00  0.00     0.016 A 
ATOM      6  C   UNL     1      31.643  33.494  14.888  1.00  0.00     0.006 A 
ENDROOT
BRANCH   1   7
ATOM      7  C   UNL     1      32.686  35.726  14.806  1.00  0.00     0.181 C 
BRANCH   7   8
ATOM      8  N   UNL     1      34.054  35.365  14.465  1.00  0.00    -0.248 N 
ATOM      9  C   UNL     1      36.690  33.786  12.436  1.00  0.00     0.070 C 
ATOM     10  C   UNL     1      35.801  34.492  13.389  1.00  0.00     0.080 A 
ATOM     11  C   UNL     1      34.438  34.631  13.386  1.00  0.00     0.134 A 
ATOM     12  N   UNL     1      36.225  35.155  14.485  1.00  0.00    -0.136 NA
ATOM     13  N   UNL     1      35.169  35.665  15.108  1.00  0.00    -0.067 NA
ENDBRANCH   7   8
ENDBRANCH   1   7
BRANCH   4  14
ATOM     14  C   UNL     1      30.316  31.338  17.671  1.00  0.00     0.335 C 
ATOM     15  O   UNL     1      30.584  31.227  18.892  1.00  0.00    -0.246 OA
BRANCH  14  16
ATOM     16  O   UNL     1      29.485  30.417  17.092  1.00  0.00    -0.478 OA
ATOM     17  H   UNL     1      29.769  29.471  16.831  1.00  0.00     0.297 HD
ENDBRANCH  14  16
ENDBRANCH   4  14
TORSDOF 4
BEGIN_RES LYS A 135
REMARK  4 active torsions:
REMARK  status: ('A' for Active; 'I' for Inactive)
REMARK    1  A    between atoms: CA   and  CB  
REMARK    2  A    between atoms: CB   and  CG  
REMARK    3  A    between atoms: CG   and  CD  
REMARK    4  A    between atoms: CD   and  CE  
ROOT
ATOM      1  CA  LYS A 135      33.193  34.663   9.290  1.00 25.02     0.186 C 
ENDROOT
BRANCH   1   2
ATOM      2  CB  LYS A 135      32.060  35.360  10.034  1.00 26.63     0.034 C 
BRANCH   2   3
ATOM      3  CG  LYS A 135      30.803  35.506   9.217  1.00 29.45     0.005 C 
BRANCH   3   4
ATOM      4  CD  LYS A 135      30.161  34.149   8.972  1.00 32.00     0.041 C 
BRANCH   4   5
ATOM      5  CE  LYS A 135      28.691  34.308   8.633  1.00 34.25     0.338 C 
ATOM      6  NZ  LYS A 135      27.829  33.749   9.711  1.00 35.99     0.618 N 
ENDBRANCH   4   5
ENDBRANCH   3   4
ENDBRANCH   2   3
ENDBRANCH   1   2
END_RES LYS A 135
BEGIN_RES TYR A 136
REMARK  2 active torsions:
REMARK  status: ('A' for Active; 'I' for Inactive)
REMARK    5  A    between atoms: CA   and  CB  
REMARK    6  A    between atoms: CB   and  CG  
ROOT
ATOM      7  CA  TYR A 136      36.583  36.399   8.994  1.00 26.14     0.191 C 
ENDROOT
BRANCH   7   8
ATOM      8  CB  TYR A 136      37.367  36.835  10.240  1.00 28.16     0.060 C 
BRANCH   8   9
ATOM      9  CG  TYR A 136      36.757  38.037  10.918  1.00 31.88    -0.020 A 
ATOM     10  CD2 TYR A 136      37.012  39.332  10.460  1.00 32.67    -0.002 A 
ATOM     11  CE2 TYR A 136      36.442  40.442  11.098  1.00 33.89     0.027 A 
ATOM     12  CZ  TYR A 136      35.610  40.255  12.204  1.00 34.34     0.131 A 
ATOM     13  OH  TYR A 136      35.029  41.340  12.847  1.00 35.14    -0.190 OA
ATOM     14  CE1 TYR A 136      35.347  38.976  12.673  1.00 35.01     0.027 A 
ATOM     15  CD1 TYR A 136      35.925  37.879  12.033  1.00 33.57    -0.002 A 
ENDBRANCH   8   9
ENDBRANCH   7   8
END_RES TYR A 136
BEGIN_RES ASN A 133
REMARK  2 active torsions:
REMARK  status: ('A' for Active; 'I' for Inactive)
REMARK    7  A    between atoms: CA   and  CB  
REMARK    8  A    between atoms: CB   and  CG  
ROOT
ATOM     16  CA  ASN A 133      31.225  30.257  11.749  1.00 18.15     0.196 C 
ENDROOT
BRANCH  16  17
ATOM     17  CB  ASN A 133      30.092  31.240  11.460  1.00 18.27     0.126 C 
BRANCH  17  18
ATOM     18  CG  ASN A 133      28.750  30.583  11.360  1.00 18.94     0.276 C 
ATOM     19  OD1 ASN A 133      28.569  29.610  10.625  1.00 18.09    -0.269 OA
ATOM     20  ND2 ASN A 133      27.783  31.116  12.105  1.00 18.93    -0.107 N 
ENDBRANCH  17  18
ENDBRANCH  16  17
END_RES ASN A 133
