REMARK VINA RESULT:    -4.762      1.504      1.929
REMARK INTER + INTRA:          -9.165
REMARK INTER:                  -5.842
REMARK INTRA:                  -3.323
REMARK UNBOUND:                -3.429
REMARK SMILES Cc1cn(-c2cccc(C=CC(=O)O)c2)nn1
REMARK SMILES IDX 10 1 11 2 9 3 5 4 15 5 6 6 7 7 8 8 4 9 1 10 2 11 3 12 17 13
REMARK SMILES IDX 16 14 12 15 13 16 14 17
REMARK H PARENT 14 18
REMARK Flexibility Score: inf
ROOT
ATOM      1  C   UNL     1      37.352  34.885  14.610  1.00  0.00     0.015 C 
ATOM      2  C   UNL     1      37.998  34.022  13.957  1.00  0.00     0.094 C 
ENDROOT
BRANCH   1   3
ATOM      3  C   UNL     1      36.126  35.586  14.397  1.00  0.00    -0.023 A 
ATOM      4  C   UNL     1      33.746  35.779  14.020  1.00  0.00     0.067 A 
ATOM      5  C   UNL     1      34.886  35.023  14.321  1.00  0.00     0.036 A 
ATOM      6  C   UNL     1      33.895  37.126  13.799  1.00  0.00     0.028 A 
ATOM      7  C   UNL     1      35.139  37.715  13.875  1.00  0.00     0.003 A 
ATOM      8  C   UNL     1      36.244  36.974  14.167  1.00  0.00     0.008 A 
BRANCH   4   9
ATOM      9  N   UNL     1      32.472  35.152  13.947  1.00  0.00    -0.220 N 
ATOM     10  C   UNL     1      29.156  34.449  12.492  1.00  0.00     0.070 C 
ATOM     11  C   UNL     1      30.427  34.561  13.263  1.00  0.00     0.080 A 
ATOM     12  C   UNL     1      31.527  35.348  12.993  1.00  0.00     0.140 A 
ATOM     13  N   UNL     1      30.750  33.899  14.397  1.00  0.00    -0.135 NA
ATOM     14  N   UNL     1      31.963  34.257  14.792  1.00  0.00    -0.062 NA
ENDBRANCH   4   9
ENDBRANCH   1   3
BRANCH   2  15
ATOM     15  C   UNL     1      37.856  33.333  12.729  1.00  0.00     0.328 C 
ATOM     16  O   UNL     1      36.931  33.406  11.895  1.00  0.00    -0.247 OA
BRANCH  15  17
ATOM     17  O   UNL     1      38.891  32.409  12.340  1.00  0.00    -0.478 OA
ATOM     18  H   UNL     1      38.859  31.502  12.808  1.00  0.00     0.297 HD
ENDBRANCH  15  17
ENDBRANCH   2  15
TORSDOF 4
BEGIN_RES LYS A 135
REMARK  4 active torsions:
REMARK  status: ('A' for Active; 'I' for Inactive)
REMARK    1  A    between atoms: CA   and  CB  
REMARK    2  A    between atoms: CB   and  CG  
REMARK    3  A    between atoms: CG   and  CD  
REMARK    4  A    between atoms: CD   and  CE  
ROOT
ATOM      1  CA  LYS A 135      33.193  34.663   9.290  1.00 25.02     0.186 C 
ENDROOT
BRANCH   1   2
ATOM      2  CB  LYS A 135      32.060  35.360  10.034  1.00 26.63     0.034 C 
BRANCH   2   3
ATOM      3  CG  LYS A 135      30.829  35.576   9.192  1.00 29.45     0.005 C 
BRANCH   3   4
ATOM      4  CD  LYS A 135      30.141  34.252   8.898  1.00 32.00     0.041 C 
BRANCH   4   5
ATOM      5  CE  LYS A 135      28.709  34.483   8.455  1.00 34.25     0.338 C 
ATOM      6  NZ  LYS A 135      27.751  33.777   9.351  1.00 35.99     0.618 N 
ENDBRANCH   4   5
ENDBRANCH   3   4
ENDBRANCH   2   3
ENDBRANCH   1   2
END_RES LYS A 135
BEGIN_RES TYR A 136
REMARK  2 active torsions:
REMARK  status: ('A' for Active; 'I' for Inactive)
REMARK    5  A    between atoms: CA   and  CB  
REMARK    6  A    between atoms: CB   and  CG  
ROOT
ATOM      7  CA  TYR A 136      36.583  36.399   8.994  1.00 26.14     0.191 C 
ENDROOT
BRANCH   7   8
ATOM      8  CB  TYR A 136      37.367  36.835  10.240  1.00 28.16     0.060 C 
BRANCH   8   9
ATOM      9  CG  TYR A 136      36.971  38.208  10.723  1.00 31.88    -0.020 A 
ATOM     10  CD2 TYR A 136      37.829  38.969  11.521  1.00 32.67    -0.002 A 
ATOM     11  CE2 TYR A 136      37.451  40.243  11.966  1.00 33.89     0.027 A 
ATOM     12  CZ  TYR A 136      36.203  40.761  11.610  1.00 34.34     0.131 A 
ATOM     13  OH  TYR A 136      35.810  42.023  12.034  1.00 35.14    -0.190 OA
ATOM     14  CE1 TYR A 136      35.338  40.018  10.820  1.00 35.01     0.027 A 
ATOM     15  CD1 TYR A 136      35.723  38.748  10.387  1.00 33.57    -0.002 A 
ENDBRANCH   8   9
ENDBRANCH   7   8
END_RES TYR A 136
BEGIN_RES ASN A 133
REMARK  2 active torsions:
REMARK  status: ('A' for Active; 'I' for Inactive)
REMARK    7  A    between atoms: CA   and  CB  
REMARK    8  A    between atoms: CB   and  CG  
ROOT
ATOM     16  CA  ASN A 133      31.225  30.257  11.749  1.00 18.15     0.196 C 
ENDROOT
BRANCH  16  17
ATOM     17  CB  ASN A 133      30.092  31.240  11.460  1.00 18.27     0.126 C 
BRANCH  17  18
ATOM     18  CG  ASN A 133      28.757  30.578  11.316  1.00 18.94     0.276 C 
ATOM     19  OD1 ASN A 133      28.601  29.611  10.567  1.00 18.09    -0.269 OA
ATOM     20  ND2 ASN A 133      27.767  31.099  12.039  1.00 18.93    -0.107 N 
ENDBRANCH  17  18
ENDBRANCH  16  17
END_RES ASN A 133
