REMARK VINA RESULT:    -5.616      1.507      3.527
REMARK INTER + INTRA:          -7.187
REMARK INTER:                  -4.124
REMARK INTRA:                  -3.063
REMARK UNBOUND:                -1.243
REMARK SMILES Cc1cn(-c2ccccc2Br)nn1
REMARK SMILES IDX 5 1 6 2 7 3 8 4 9 5 10 6 11 7 4 8 1 9 2 10 3 11 13 12 12 13
REMARK H PARENT
REMARK Flexibility Score: inf
ROOT
ATOM      1  C   UNL     1      33.558  36.055  13.118  1.00  0.00     0.081 A 
ATOM      2  C   UNL     1      33.548  37.073  12.189  1.00  0.00     0.029 A 
ATOM      3  C   UNL     1      32.363  37.710  11.883  1.00  0.00     0.002 A 
ATOM      4  C   UNL     1      31.195  37.327  12.509  1.00  0.00     0.001 A 
ATOM      5  C   UNL     1      31.228  36.310  13.433  1.00  0.00     0.018 A 
ATOM      6  C   UNL     1      32.397  35.650  13.763  1.00  0.00     0.043 A 
ATOM      7  Br  UNL     1      32.413  34.239  15.051  1.00  0.00    -0.048 Br
ENDROOT
BRANCH   1   8
ATOM      8  N   UNL     1      34.789  35.425  13.405  1.00  0.00    -0.219 N 
ATOM      9  C   UNL     1      37.856  35.217  15.355  1.00  0.00     0.070 C 
ATOM     10  C   UNL     1      36.722  35.054  14.416  1.00  0.00     0.080 A 
ATOM     11  C   UNL     1      35.628  35.862  14.386  1.00  0.00     0.140 A 
ATOM     12  N   UNL     1      36.547  34.135  13.457  1.00  0.00    -0.135 NA
ATOM     13  N   UNL     1      35.376  34.383  12.866  1.00  0.00    -0.062 NA
ENDBRANCH   1   8
TORSDOF 1
BEGIN_RES LYS A 135
REMARK  4 active torsions:
REMARK  status: ('A' for Active; 'I' for Inactive)
REMARK    1  A    between atoms: CA   and  CB  
REMARK    2  A    between atoms: CB   and  CG  
REMARK    3  A    between atoms: CG   and  CD  
REMARK    4  A    between atoms: CD   and  CE  
ROOT
ATOM      1  CA  LYS A 135      33.193  34.663   9.290  1.00 25.02     0.186 C 
ENDROOT
BRANCH   1   2
ATOM      2  CB  LYS A 135      32.060  35.360  10.034  1.00 26.63     0.034 C 
BRANCH   2   3
ATOM      3  CG  LYS A 135      30.843  35.609   9.181  1.00 29.45     0.005 C 
BRANCH   3   4
ATOM      4  CD  LYS A 135      30.273  34.298   8.663  1.00 32.00     0.041 C 
BRANCH   4   5
ATOM      5  CE  LYS A 135      28.759  34.299   8.764  1.00 34.25     0.338 C 
ATOM      6  NZ  LYS A 135      28.150  35.106   7.671  1.00 35.99     0.618 N 
ENDBRANCH   4   5
ENDBRANCH   3   4
ENDBRANCH   2   3
ENDBRANCH   1   2
END_RES LYS A 135
BEGIN_RES TYR A 136
REMARK  2 active torsions:
REMARK  status: ('A' for Active; 'I' for Inactive)
REMARK    5  A    between atoms: CA   and  CB  
REMARK    6  A    between atoms: CB   and  CG  
ROOT
ATOM      7  CA  TYR A 136      36.583  36.399   8.994  1.00 26.14     0.191 C 
ENDROOT
BRANCH   7   8
ATOM      8  CB  TYR A 136      37.367  36.835  10.240  1.00 28.16     0.060 C 
BRANCH   8   9
ATOM      9  CG  TYR A 136      36.807  38.087  10.869  1.00 31.88    -0.020 A 
ATOM     10  CD2 TYR A 136      36.039  38.987  10.128  1.00 32.67    -0.002 A 
ATOM     11  CE2 TYR A 136      35.525  40.148  10.722  1.00 33.89     0.027 A 
ATOM     12  CZ  TYR A 136      35.782  40.411  12.069  1.00 34.34     0.131 A 
ATOM     13  OH  TYR A 136      35.277  41.550  12.680  1.00 35.14    -0.190 OA
ATOM     14  CE1 TYR A 136      36.544  39.528  12.820  1.00 35.01     0.027 A 
ATOM     15  CD1 TYR A 136      37.056  38.378  12.217  1.00 33.57    -0.002 A 
ENDBRANCH   8   9
ENDBRANCH   7   8
END_RES TYR A 136
BEGIN_RES ASN A 133
REMARK  2 active torsions:
REMARK  status: ('A' for Active; 'I' for Inactive)
REMARK    7  A    between atoms: CA   and  CB  
REMARK    8  A    between atoms: CB   and  CG  
ROOT
ATOM     16  CA  ASN A 133      31.225  30.257  11.749  1.00 18.15     0.196 C 
ENDROOT
BRANCH  16  17
ATOM     17  CB  ASN A 133      30.092  31.240  11.460  1.00 18.27     0.126 C 
BRANCH  17  18
ATOM     18  CG  ASN A 133      28.756  30.579  11.321  1.00 18.94     0.276 C 
ATOM     19  OD1 ASN A 133      28.596  29.614  10.571  1.00 18.09    -0.269 OA
ATOM     20  ND2 ASN A 133      27.770  31.098  12.051  1.00 18.93    -0.107 N 
ENDBRANCH  17  18
ENDBRANCH  16  17
END_RES ASN A 133
