REMARK VINA RESULT:    -3.662      4.247      4.769
REMARK INTER + INTRA:          -6.955
REMARK INTER:                  -3.876
REMARK INTRA:                  -3.079
REMARK UNBOUND:                -3.079
REMARK SMILES Cc1cn(-c2ccc(Br)cc2)nn1
REMARK SMILES IDX 5 1 6 2 7 3 8 4 9 5 10 6 11 7 4 8 1 9 2 10 3 11 13 12 12 13
REMARK H PARENT
REMARK Flexibility Score: inf
ROOT
ATOM      1  C   UNL     1      38.350  34.220  17.034  1.00  0.00     0.066 A 
ATOM      2  C   UNL     1      38.825  33.056  17.639  1.00  0.00     0.029 A 
ATOM      3  C   UNL     1      38.587  32.783  18.953  1.00  0.00     0.018 A 
ATOM      4  C   UNL     1      37.860  33.686  19.688  1.00  0.00     0.018 A 
ATOM      5  Br  UNL     1      37.525  33.308  21.530  1.00  0.00    -0.051 Br
ATOM      6  C   UNL     1      37.366  34.856  19.134  1.00  0.00     0.018 A 
ATOM      7  C   UNL     1      37.622  35.107  17.802  1.00  0.00     0.029 A 
ENDROOT
BRANCH   1   8
ATOM      8  N   UNL     1      38.603  34.491  15.672  1.00  0.00    -0.220 N 
ATOM      9  C   UNL     1      37.994  34.980  12.094  1.00  0.00     0.070 C 
ATOM     10  C   UNL     1      38.484  34.833  13.486  1.00  0.00     0.080 A 
ATOM     11  C   UNL     1      37.777  34.522  14.614  1.00  0.00     0.140 A 
ATOM     12  N   UNL     1      39.762  34.989  13.895  1.00  0.00    -0.135 NA
ATOM     13  N   UNL     1      39.809  34.780  15.203  1.00  0.00    -0.062 NA
ENDBRANCH   1   8
TORSDOF 1
BEGIN_RES LYS A 135
REMARK  4 active torsions:
REMARK  status: ('A' for Active; 'I' for Inactive)
REMARK    1  A    between atoms: CA   and  CB  
REMARK    2  A    between atoms: CB   and  CG  
REMARK    3  A    between atoms: CG   and  CD  
REMARK    4  A    between atoms: CD   and  CE  
ROOT
ATOM      1  CA  LYS A 135      33.193  34.663   9.290  1.00 25.02     0.186 C 
ENDROOT
BRANCH   1   2
ATOM      2  CB  LYS A 135      32.060  35.360  10.034  1.00 26.63     0.034 C 
BRANCH   2   3
ATOM      3  CG  LYS A 135      30.832  35.584   9.189  1.00 29.45     0.005 C 
BRANCH   3   4
ATOM      4  CD  LYS A 135      30.277  34.259   8.688  1.00 32.00     0.041 C 
BRANCH   4   5
ATOM      5  CE  LYS A 135      28.761  34.265   8.736  1.00 34.25     0.338 C 
ATOM      6  NZ  LYS A 135      28.193  35.103   7.644  1.00 35.99     0.618 N 
ENDBRANCH   4   5
ENDBRANCH   3   4
ENDBRANCH   2   3
ENDBRANCH   1   2
END_RES LYS A 135
BEGIN_RES TYR A 136
REMARK  2 active torsions:
REMARK  status: ('A' for Active; 'I' for Inactive)
REMARK    5  A    between atoms: CA   and  CB  
REMARK    6  A    between atoms: CB   and  CG  
ROOT
ATOM      7  CA  TYR A 136      36.583  36.399   8.994  1.00 26.14     0.191 C 
ENDROOT
BRANCH   7   8
ATOM      8  CB  TYR A 136      37.367  36.835  10.240  1.00 28.16     0.060 C 
BRANCH   8   9
ATOM      9  CG  TYR A 136      37.161  38.292  10.575  1.00 31.88    -0.020 A 
ATOM     10  CD2 TYR A 136      38.120  39.252  10.247  1.00 32.67    -0.002 A 
ATOM     11  CE2 TYR A 136      37.919  40.603  10.564  1.00 33.89     0.027 A 
ATOM     12  CZ  TYR A 136      36.748  40.995  11.216  1.00 34.34     0.131 A 
ATOM     13  OH  TYR A 136      36.525  42.328  11.534  1.00 35.14    -0.190 OA
ATOM     14  CE1 TYR A 136      35.785  40.054  11.551  1.00 35.01     0.027 A 
ATOM     15  CD1 TYR A 136      35.999  38.712  11.235  1.00 33.57    -0.002 A 
ENDBRANCH   8   9
ENDBRANCH   7   8
END_RES TYR A 136
BEGIN_RES ASN A 133
REMARK  2 active torsions:
REMARK  status: ('A' for Active; 'I' for Inactive)
REMARK    7  A    between atoms: CA   and  CB  
REMARK    8  A    between atoms: CB   and  CG  
ROOT
ATOM     16  CA  ASN A 133      31.225  30.257  11.749  1.00 18.15     0.196 C 
ENDROOT
BRANCH  16  17
ATOM     17  CB  ASN A 133      30.092  31.240  11.460  1.00 18.27     0.126 C 
BRANCH  17  18
ATOM     18  CG  ASN A 133      28.751  30.582  11.350  1.00 18.94     0.276 C 
ATOM     19  OD1 ASN A 133      28.578  29.604  10.621  1.00 18.09    -0.269 OA
ATOM     20  ND2 ASN A 133      27.777  31.120  12.082  1.00 18.93    -0.107 N 
ENDBRANCH  17  18
ENDBRANCH  16  17
END_RES ASN A 133
