REMARK VINA RESULT:    -4.196      3.458      7.674
REMARK INTER + INTRA:          -7.306
REMARK INTER:                  -4.914
REMARK INTRA:                  -2.392
REMARK UNBOUND:                -2.865
REMARK SMILES Cc1ccc(-n2cc(C)nn2)cc1
REMARK SMILES IDX 5 1 4 2 3 3 2 4 1 5 13 6 12 7 6 8 9 9 8 10 7 11 10 12 11 13
REMARK H PARENT
REMARK Flexibility Score: inf
ROOT
ATOM      1  C   UNL     1      25.405  35.597   8.780  1.00  0.00     0.066 A 
ATOM      2  C   UNL     1      26.353  34.607   8.804  1.00  0.00     0.029 A 
ATOM      3  C   UNL     1      27.471  34.707   8.000  1.00  0.00     0.005 A 
ATOM      4  C   UNL     1      27.687  35.775   7.153  1.00  0.00    -0.051 A 
ATOM      5  C   UNL     1      28.898  35.861   6.295  1.00  0.00     0.044 C 
ATOM      6  C   UNL     1      26.714  36.760   7.147  1.00  0.00     0.005 A 
ATOM      7  C   UNL     1      25.588  36.680   7.946  1.00  0.00     0.029 A 
ENDROOT
BRANCH   1   8
ATOM      8  N   UNL     1      24.261  35.519   9.590  1.00  0.00    -0.220 N 
ATOM      9  C   UNL     1      20.665  35.616  10.130  1.00  0.00     0.070 C 
ATOM     10  C   UNL     1      22.152  35.519  10.234  1.00  0.00     0.080 A 
ATOM     11  C   UNL     1      22.994  35.659   9.156  1.00  0.00     0.140 A 
ATOM     12  N   UNL     1      22.923  35.298  11.291  1.00  0.00    -0.135 NA
ATOM     13  N   UNL     1      24.183  35.298  10.904  1.00  0.00    -0.062 NA
ENDBRANCH   1   8
TORSDOF 1
BEGIN_RES LYS A 135
REMARK  4 active torsions:
REMARK  status: ('A' for Active; 'I' for Inactive)
REMARK    1  A    between atoms: CA   and  CB  
REMARK    2  A    between atoms: CB   and  CG  
REMARK    3  A    between atoms: CG   and  CD  
REMARK    4  A    between atoms: CD   and  CE  
ROOT
ATOM      1  CA  LYS A 135      33.193  34.663   9.290  1.00 25.02     0.186 C 
ENDROOT
BRANCH   1   2
ATOM      2  CB  LYS A 135      32.060  35.360  10.034  1.00 26.63     0.034 C 
BRANCH   2   3
ATOM      3  CG  LYS A 135      30.698  34.797   9.721  1.00 29.45     0.005 C 
BRANCH   3   4
ATOM      4  CD  LYS A 135      29.744  35.022  10.884  1.00 32.00     0.041 C 
BRANCH   4   5
ATOM      5  CE  LYS A 135      30.472  34.878  12.206  1.00 34.25     0.338 C 
ATOM      6  NZ  LYS A 135      29.579  34.306  13.251  1.00 35.99     0.618 N 
ENDBRANCH   4   5
ENDBRANCH   3   4
ENDBRANCH   2   3
ENDBRANCH   1   2
END_RES LYS A 135
BEGIN_RES TYR A 136
REMARK  2 active torsions:
REMARK  status: ('A' for Active; 'I' for Inactive)
REMARK    5  A    between atoms: CA   and  CB  
REMARK    6  A    between atoms: CB   and  CG  
ROOT
ATOM      7  CA  TYR A 136      36.583  36.399   8.994  1.00 26.14     0.191 C 
ENDROOT
BRANCH   7   8
ATOM      8  CB  TYR A 136      37.367  36.835  10.240  1.00 28.16     0.060 C 
BRANCH   8   9
ATOM      9  CG  TYR A 136      37.205  38.304  10.542  1.00 31.88    -0.020 A 
ATOM     10  CD2 TYR A 136      37.773  38.874  11.684  1.00 32.67    -0.002 A 
ATOM     11  CE2 TYR A 136      37.615  40.240  11.957  1.00 33.89     0.027 A 
ATOM     12  CZ  TYR A 136      36.883  41.043  11.079  1.00 34.34     0.131 A 
ATOM     13  OH  TYR A 136      36.720  42.399  11.325  1.00 35.14    -0.190 OA
ATOM     14  CE1 TYR A 136      36.311  40.493   9.941  1.00 35.01     0.027 A 
ATOM     15  CD1 TYR A 136      36.470  39.130   9.683  1.00 33.57    -0.002 A 
ENDBRANCH   8   9
ENDBRANCH   7   8
END_RES TYR A 136
BEGIN_RES ASN A 133
REMARK  2 active torsions:
REMARK  status: ('A' for Active; 'I' for Inactive)
REMARK    7  A    between atoms: CA   and  CB  
REMARK    8  A    between atoms: CB   and  CG  
ROOT
ATOM     16  CA  ASN A 133      31.225  30.257  11.749  1.00 18.15     0.196 C 
ENDROOT
BRANCH  16  17
ATOM     17  CB  ASN A 133      30.092  31.240  11.460  1.00 18.27     0.126 C 
BRANCH  17  18
ATOM     18  CG  ASN A 133      28.749  30.584  11.367  1.00 18.94     0.276 C 
ATOM     19  OD1 ASN A 133      28.563  29.611  10.634  1.00 18.09    -0.269 OA
ATOM     20  ND2 ASN A 133      27.787  31.118  12.118  1.00 18.93    -0.107 N 
ENDBRANCH  17  18
ENDBRANCH  16  17
END_RES ASN A 133
