REMARK VINA RESULT:    -4.299      5.500      9.951
REMARK INTER + INTRA:          -9.140
REMARK INTER:                  -4.768
REMARK INTRA:                  -4.372
REMARK UNBOUND:                -3.584
REMARK SMILES Cc1cn([C@@H](C)C(=O)OCc2ccccc2)nn1
REMARK SMILES IDX 7 1 8 2 5 3 6 4 4 5 1 6 2 7 3 8 18 9 17 10 9 11 10 12 11 13
REMARK SMILES IDX 12 14 16 15 13 16 15 17 14 18
REMARK H PARENT
REMARK Flexibility Score: inf
ROOT
ATOM      1  C   UNL     1      38.082  37.749   3.468  1.00  0.00     0.331 C 
ATOM      2  O   UNL     1      38.707  36.895   4.152  1.00  0.00    -0.250 OA
ENDROOT
BRANCH   1   3
ATOM      3  C   UNL     1      36.674  37.496   3.008  1.00  0.00     0.215 C 
ATOM      4  C   UNL     1      36.466  37.915   1.583  1.00  0.00     0.046 C 
BRANCH   3   5
ATOM      5  N   UNL     1      35.801  38.305   3.836  1.00  0.00    -0.238 N 
ATOM      6  C   UNL     1      34.132  39.589   6.767  1.00  0.00     0.070 C 
ATOM      7  C   UNL     1      34.671  39.251   5.435  1.00  0.00     0.080 A 
ATOM      8  C   UNL     1      35.584  38.290   5.144  1.00  0.00     0.135 A 
ATOM      9  N   UNL     1      34.332  39.856   4.291  1.00  0.00    -0.136 NA
ATOM     10  N   UNL     1      35.033  39.263   3.329  1.00  0.00    -0.066 NA
ENDBRANCH   3   5
ENDBRANCH   1   3
BRANCH   1  11
ATOM     11  O   UNL     1      38.755  38.912   3.170  1.00  0.00    -0.459 OA
BRANCH  11  12
ATOM     12  C   UNL     1      39.484  39.710   4.068  1.00  0.00     0.268 C 
BRANCH  12  13
ATOM     13  C   UNL     1      38.697  40.328   5.138  1.00  0.00    -0.011 A 
ATOM     14  C   UNL     1      37.837  41.375   4.897  1.00  0.00     0.007 A 
ATOM     15  C   UNL     1      38.796  39.868   6.430  1.00  0.00     0.007 A 
ATOM     16  C   UNL     1      37.087  41.965   5.897  1.00  0.00     0.000 A 
ATOM     17  C   UNL     1      38.057  40.434   7.470  1.00  0.00     0.000 A 
ATOM     18  C   UNL     1      37.207  41.487   7.168  1.00  0.00     0.000 A 
ENDBRANCH  12  13
ENDBRANCH  11  12
ENDBRANCH   1  11
TORSDOF 5
BEGIN_RES LYS A 135
REMARK  4 active torsions:
REMARK  status: ('A' for Active; 'I' for Inactive)
REMARK    1  A    between atoms: CA   and  CB  
REMARK    2  A    between atoms: CB   and  CG  
REMARK    3  A    between atoms: CG   and  CD  
REMARK    4  A    between atoms: CD   and  CE  
ROOT
ATOM      1  CA  LYS A 135      33.193  34.663   9.290  1.00 25.02     0.186 C 
ENDROOT
BRANCH   1   2
ATOM      2  CB  LYS A 135      32.060  35.360  10.034  1.00 26.63     0.034 C 
BRANCH   2   3
ATOM      3  CG  LYS A 135      30.708  34.739   9.791  1.00 29.45     0.005 C 
BRANCH   3   4
ATOM      4  CD  LYS A 135      30.439  34.607   8.300  1.00 32.00     0.041 C 
BRANCH   4   5
ATOM      5  CE  LYS A 135      28.960  34.781   8.009  1.00 34.25     0.338 C 
ATOM      6  NZ  LYS A 135      28.749  35.531   6.740  1.00 35.99     0.618 N 
ENDBRANCH   4   5
ENDBRANCH   3   4
ENDBRANCH   2   3
ENDBRANCH   1   2
END_RES LYS A 135
BEGIN_RES TYR A 136
REMARK  2 active torsions:
REMARK  status: ('A' for Active; 'I' for Inactive)
REMARK    5  A    between atoms: CA   and  CB  
REMARK    6  A    between atoms: CB   and  CG  
ROOT
ATOM      7  CA  TYR A 136      36.583  36.399   8.994  1.00 26.14     0.191 C 
ENDROOT
BRANCH   7   8
ATOM      8  CB  TYR A 136      37.367  36.835  10.240  1.00 28.16     0.060 C 
BRANCH   8   9
ATOM      9  CG  TYR A 136      37.246  38.314  10.513  1.00 31.88    -0.020 A 
ATOM     10  CD2 TYR A 136      36.043  38.992  10.306  1.00 32.67    -0.002 A 
ATOM     11  CE2 TYR A 136      35.942  40.366  10.561  1.00 33.89     0.027 A 
ATOM     12  CZ  TYR A 136      37.055  41.069  11.028  1.00 34.34     0.131 A 
ATOM     13  OH  TYR A 136      36.976  42.429  11.295  1.00 35.14    -0.190 OA
ATOM     14  CE1 TYR A 136      38.259  40.412  11.239  1.00 35.01     0.027 A 
ATOM     15  CD1 TYR A 136      38.349  39.044  10.975  1.00 33.57    -0.002 A 
ENDBRANCH   8   9
ENDBRANCH   7   8
END_RES TYR A 136
BEGIN_RES ASN A 133
REMARK  2 active torsions:
REMARK  status: ('A' for Active; 'I' for Inactive)
REMARK    7  A    between atoms: CA   and  CB  
REMARK    8  A    between atoms: CB   and  CG  
ROOT
ATOM     16  CA  ASN A 133      31.225  30.257  11.749  1.00 18.15     0.196 C 
ENDROOT
BRANCH  16  17
ATOM     17  CB  ASN A 133      30.092  31.240  11.460  1.00 18.27     0.126 C 
BRANCH  17  18
ATOM     18  CG  ASN A 133      28.752  30.581  11.344  1.00 18.94     0.276 C 
ATOM     19  OD1 ASN A 133      28.581  29.609  10.607  1.00 18.09    -0.269 OA
ATOM     20  ND2 ASN A 133      27.776  31.112  12.080  1.00 18.93    -0.107 N 
ENDBRANCH  17  18
ENDBRANCH  16  17
END_RES ASN A 133
