REMARK VINA RESULT:    -3.670      6.982      8.294
REMARK INTER + INTRA:          -7.220
REMARK INTER:                  -4.014
REMARK INTRA:                  -3.206
REMARK UNBOUND:                -3.228
REMARK SMILES Cc1cn(-c2nc(C)nc(N)n2)nn1
REMARK SMILES IDX 5 1 12 2 10 3 9 4 7 5 8 6 6 7 4 8 1 9 2 10 3 11 14 12 13 13
REMARK SMILES IDX 11 14
REMARK H PARENT 11 15 11 16
REMARK Flexibility Score: inf
ROOT
ATOM      1  C   UNL     1      25.898  36.847   8.580  1.00  0.00     0.257 A 
ATOM      2  N   UNL     1      26.075  36.745   7.262  1.00  0.00    -0.175 NA
ATOM      3  C   UNL     1      27.175  37.251   6.696  1.00  0.00     0.225 A 
ATOM      4  N   UNL     1      28.099  37.861   7.459  1.00  0.00    -0.198 NA
ATOM      5  C   UNL     1      27.935  37.972   8.793  1.00  0.00     0.133 A 
ATOM      6  C   UNL     1      28.960  38.649   9.642  1.00  0.00     0.090 C 
ATOM      7  N   UNL     1      26.822  37.453   9.322  1.00  0.00    -0.196 NA
ENDROOT
BRANCH   1   8
ATOM      8  N   UNL     1      24.724  36.305   9.170  1.00  0.00    -0.185 N 
ATOM      9  C   UNL     1      22.715  34.545  11.661  1.00  0.00     0.070 C 
ATOM     10  C   UNL     1      23.294  35.288  10.526  1.00  0.00     0.080 A 
ATOM     11  C   UNL     1      24.609  35.629  10.334  1.00  0.00     0.144 A 
ATOM     12  N   UNL     1      22.632  35.763   9.470  1.00  0.00    -0.135 NA
ATOM     13  N   UNL     1      23.507  36.363   8.681  1.00  0.00    -0.059 NA
ENDBRANCH   1   8
BRANCH   3  14
ATOM     14  N   UNL     1      27.309  37.112   5.289  1.00  0.00    -0.368 N 
ATOM     15  H   UNL     1      26.472  36.926   4.697  1.00  0.00     0.159 HD
ATOM     16  H   UNL     1      28.234  37.195   4.822  1.00  0.00     0.159 HD
ENDBRANCH   3  14
TORSDOF 2
BEGIN_RES LYS A 135
REMARK  4 active torsions:
REMARK  status: ('A' for Active; 'I' for Inactive)
REMARK    1  A    between atoms: CA   and  CB  
REMARK    2  A    between atoms: CB   and  CG  
REMARK    3  A    between atoms: CG   and  CD  
REMARK    4  A    between atoms: CD   and  CE  
ROOT
ATOM      1  CA  LYS A 135      33.193  34.663   9.290  1.00 25.02     0.186 C 
ENDROOT
BRANCH   1   2
ATOM      2  CB  LYS A 135      32.060  35.360  10.034  1.00 26.63     0.034 C 
BRANCH   2   3
ATOM      3  CG  LYS A 135      30.802  35.503   9.218  1.00 29.45     0.005 C 
BRANCH   3   4
ATOM      4  CD  LYS A 135      30.127  34.154   9.030  1.00 32.00     0.041 C 
BRANCH   4   5
ATOM      5  CE  LYS A 135      28.689  34.335   8.582  1.00 34.25     0.338 C 
ATOM      6  NZ  LYS A 135      27.740  33.795   9.595  1.00 35.99     0.618 N 
ENDBRANCH   4   5
ENDBRANCH   3   4
ENDBRANCH   2   3
ENDBRANCH   1   2
END_RES LYS A 135
BEGIN_RES TYR A 136
REMARK  2 active torsions:
REMARK  status: ('A' for Active; 'I' for Inactive)
REMARK    5  A    between atoms: CA   and  CB  
REMARK    6  A    between atoms: CB   and  CG  
ROOT
ATOM      7  CA  TYR A 136      36.583  36.399   8.994  1.00 26.14     0.191 C 
ENDROOT
BRANCH   7   8
ATOM      8  CB  TYR A 136      37.367  36.835  10.240  1.00 28.16     0.060 C 
BRANCH   8   9
ATOM      9  CG  TYR A 136      37.034  38.242  10.672  1.00 31.88    -0.020 A 
ATOM     10  CD2 TYR A 136      36.542  39.180   9.762  1.00 32.67    -0.002 A 
ATOM     11  CE2 TYR A 136      36.237  40.485  10.173  1.00 33.89     0.027 A 
ATOM     12  CZ  TYR A 136      36.428  40.855  11.507  1.00 34.34     0.131 A 
ATOM     13  OH  TYR A 136      36.127  42.139  11.938  1.00 35.14    -0.190 OA
ATOM     14  CE1 TYR A 136      36.917  39.936  12.424  1.00 35.01     0.027 A 
ATOM     15  CD1 TYR A 136      37.223  38.641  12.001  1.00 33.57    -0.002 A 
ENDBRANCH   8   9
ENDBRANCH   7   8
END_RES TYR A 136
BEGIN_RES ASN A 133
REMARK  2 active torsions:
REMARK  status: ('A' for Active; 'I' for Inactive)
REMARK    7  A    between atoms: CA   and  CB  
REMARK    8  A    between atoms: CB   and  CG  
ROOT
ATOM     16  CA  ASN A 133      31.225  30.257  11.749  1.00 18.15     0.196 C 
ENDROOT
BRANCH  16  17
ATOM     17  CB  ASN A 133      30.092  31.240  11.460  1.00 18.27     0.126 C 
BRANCH  17  18
ATOM     18  CG  ASN A 133      28.753  30.581  11.341  1.00 18.94     0.276 C 
ATOM     19  OD1 ASN A 133      28.588  29.596  10.619  1.00 18.09    -0.269 OA
ATOM     20  ND2 ASN A 133      27.770  31.125  12.057  1.00 18.93    -0.107 N 
ENDBRANCH  17  18
ENDBRANCH  16  17
END_RES ASN A 133
