REMARK VINA RESULT:    -3.991      3.966      6.009
REMARK INTER + INTRA:         -10.263
REMARK INTER:                  -6.041
REMARK INTRA:                  -4.222
REMARK UNBOUND:                -3.589
REMARK SMILES Cc1cn(CCCCCCCCCCC(=O)O)nn1
REMARK SMILES IDX 10 1 9 2 8 3 7 4 6 5 5 6 4 7 1 8 2 9 3 10 19 11 18 12 11 13
REMARK SMILES IDX 12 14 13 15 14 16 15 17 16 18 17 19
REMARK H PARENT 17 20
REMARK Flexibility Score: inf
ROOT
ATOM      1  C   UNL     1      29.721  32.964  18.702  1.00  0.00     0.000 C 
ENDROOT
BRANCH   1   2
ATOM      2  C   UNL     1      31.064  33.151  18.144  1.00  0.00     0.000 C 
BRANCH   2   3
ATOM      3  C   UNL     1      31.393  34.179  17.147  1.00  0.00     0.000 C 
BRANCH   3   4
ATOM      4  C   UNL     1      31.919  33.761  15.827  1.00  0.00     0.002 C 
BRANCH   4   5
ATOM      5  C   UNL     1      31.246  32.441  15.413  1.00  0.00     0.024 C 
BRANCH   5   6
ATOM      6  C   UNL     1      30.011  32.630  14.605  1.00  0.00     0.146 C 
BRANCH   6   7
ATOM      7  N   UNL     1      28.887  31.946  15.275  1.00  0.00    -0.252 N 
ATOM      8  C   UNL     1      27.322  29.056  16.908  1.00  0.00     0.070 C 
ATOM      9  C   UNL     1      27.707  30.351  16.295  1.00  0.00     0.080 A 
ATOM     10  C   UNL     1      28.923  30.666  15.724  1.00  0.00     0.134 A 
ATOM     11  N   UNL     1      26.968  31.470  16.168  1.00  0.00    -0.136 NA
ATOM     12  N   UNL     1      27.696  32.407  15.555  1.00  0.00    -0.067 NA
ENDBRANCH   6   7
ENDBRANCH   5   6
ENDBRANCH   4   5
ENDBRANCH   3   4
ENDBRANCH   2   3
ENDBRANCH   1   2
BRANCH   1  13
ATOM     13  C   UNL     1      29.345  31.685  19.335  1.00  0.00     0.000 C 
BRANCH  13  14
ATOM     14  C   UNL     1      30.540  30.708  19.330  1.00  0.00     0.001 C 
BRANCH  14  15
ATOM     15  C   UNL     1      30.853  30.192  20.700  1.00  0.00     0.012 C 
BRANCH  15  16
ATOM     16  C   UNL     1      31.361  28.752  20.632  1.00  0.00     0.122 C 
BRANCH  16  17
ATOM     17  C   UNL     1      30.271  27.803  20.962  1.00  0.00     0.303 C 
ATOM     18  O   UNL     1      30.118  27.335  22.113  1.00  0.00    -0.252 OA
BRANCH  17  19
ATOM     19  O   UNL     1      29.382  27.409  19.974  1.00  0.00    -0.481 OA
ATOM     20  H   UNL     1      28.400  27.605  19.999  1.00  0.00     0.296 HD
ENDBRANCH  17  19
ENDBRANCH  16  17
ENDBRANCH  15  16
ENDBRANCH  14  15
ENDBRANCH  13  14
ENDBRANCH   1  13
TORSDOF 12
BEGIN_RES LYS A 135
REMARK  4 active torsions:
REMARK  status: ('A' for Active; 'I' for Inactive)
REMARK    1  A    between atoms: CA   and  CB  
REMARK    2  A    between atoms: CB   and  CG  
REMARK    3  A    between atoms: CG   and  CD  
REMARK    4  A    between atoms: CD   and  CE  
ROOT
ATOM      1  CA  LYS A 135      33.193  34.663   9.290  1.00 25.02     0.186 C 
ENDROOT
BRANCH   1   2
ATOM      2  CB  LYS A 135      32.060  35.360  10.034  1.00 26.63     0.034 C 
BRANCH   2   3
ATOM      3  CG  LYS A 135      30.792  35.477   9.228  1.00 29.45     0.005 C 
BRANCH   3   4
ATOM      4  CD  LYS A 135      29.938  34.228   9.387  1.00 32.00     0.041 C 
BRANCH   4   5
ATOM      5  CE  LYS A 135      28.646  34.363   8.604  1.00 34.25     0.338 C 
ATOM      6  NZ  LYS A 135      27.486  33.863   9.393  1.00 35.99     0.618 N 
ENDBRANCH   4   5
ENDBRANCH   3   4
ENDBRANCH   2   3
ENDBRANCH   1   2
END_RES LYS A 135
BEGIN_RES TYR A 136
REMARK  2 active torsions:
REMARK  status: ('A' for Active; 'I' for Inactive)
REMARK    5  A    between atoms: CA   and  CB  
REMARK    6  A    between atoms: CB   and  CG  
ROOT
ATOM      7  CA  TYR A 136      36.583  36.399   8.994  1.00 26.14     0.191 C 
ENDROOT
BRANCH   7   8
ATOM      8  CB  TYR A 136      37.367  36.835  10.240  1.00 28.16     0.060 C 
BRANCH   8   9
ATOM      9  CG  TYR A 136      37.209  38.305  10.540  1.00 31.88    -0.020 A 
ATOM     10  CD2 TYR A 136      38.204  39.224  10.197  1.00 32.67    -0.002 A 
ATOM     11  CE2 TYR A 136      38.049  40.588  10.481  1.00 33.89     0.027 A 
ATOM     12  CZ  TYR A 136      36.887  41.036  11.115  1.00 34.34     0.131 A 
ATOM     13  OH  TYR A 136      36.709  42.383  11.399  1.00 35.14    -0.190 OA
ATOM     14  CE1 TYR A 136      35.889  40.138  11.463  1.00 35.01     0.027 A 
ATOM     15  CD1 TYR A 136      36.058  38.781  11.180  1.00 33.57    -0.002 A 
ENDBRANCH   8   9
ENDBRANCH   7   8
END_RES TYR A 136
BEGIN_RES ASN A 133
REMARK  2 active torsions:
REMARK  status: ('A' for Active; 'I' for Inactive)
REMARK    7  A    between atoms: CA   and  CB  
REMARK    8  A    between atoms: CB   and  CG  
ROOT
ATOM     16  CA  ASN A 133      31.225  30.257  11.749  1.00 18.15     0.196 C 
ENDROOT
BRANCH  16  17
ATOM     17  CB  ASN A 133      30.092  31.240  11.460  1.00 18.27     0.126 C 
BRANCH  17  18
ATOM     18  CG  ASN A 133      28.750  30.584  11.361  1.00 18.94     0.276 C 
ATOM     19  OD1 ASN A 133      28.573  29.598  10.643  1.00 18.09    -0.269 OA
ATOM     20  ND2 ASN A 133      27.778  31.132  12.090  1.00 18.93    -0.107 N 
ENDBRANCH  17  18
ENDBRANCH  16  17
END_RES ASN A 133
