REMARK VINA RESULT:    -4.560      4.862      5.817
REMARK INTER + INTRA:          -6.822
REMARK INTER:                  -3.724
REMARK INTRA:                  -3.098
REMARK UNBOUND:                -1.996
REMARK SMILES Cc1cn(-c2ccccc2I)nn1
REMARK SMILES IDX 5 1 6 2 7 3 8 4 9 5 10 6 11 7 4 8 1 9 2 10 3 11 13 12 12 13
REMARK H PARENT
REMARK Flexibility Score: inf
ROOT
ATOM      1  C   UNL     1      30.488  31.986  17.713  1.00  0.00     0.080 A 
ATOM      2  C   UNL     1      30.634  31.569  16.407  1.00  0.00     0.029 A 
ATOM      3  C   UNL     1      31.262  32.351  15.448  1.00  0.00     0.002 A 
ATOM      4  C   UNL     1      31.766  33.600  15.796  1.00  0.00     0.001 A 
ATOM      5  C   UNL     1      31.628  34.035  17.100  1.00  0.00     0.017 A 
ATOM      6  C   UNL     1      31.000  33.238  18.033  1.00  0.00     0.039 A 
ATOM      7  I   UNL     1      30.807  33.934  20.016  1.00  0.00    -0.042 I 
ENDROOT
BRANCH   1   8
ATOM      8  N   UNL     1      29.837  31.167  18.688  1.00  0.00    -0.219 N 
ATOM      9  C   UNL     1      27.154  29.637  20.597  1.00  0.00     0.070 C 
ATOM     10  C   UNL     1      28.419  30.124  19.963  1.00  0.00     0.080 A 
ATOM     11  C   UNL     1      28.538  31.022  18.931  1.00  0.00     0.140 A 
ATOM     12  N   UNL     1      29.667  29.761  20.301  1.00  0.00    -0.135 NA
ATOM     13  N   UNL     1      30.504  30.392  19.529  1.00  0.00    -0.062 NA
ENDBRANCH   1   8
TORSDOF 1
BEGIN_RES LYS A 135
REMARK  4 active torsions:
REMARK  status: ('A' for Active; 'I' for Inactive)
REMARK    1  A    between atoms: CA   and  CB  
REMARK    2  A    between atoms: CB   and  CG  
REMARK    3  A    between atoms: CG   and  CD  
REMARK    4  A    between atoms: CD   and  CE  
ROOT
ATOM      1  CA  LYS A 135      33.193  34.663   9.290  1.00 25.02     0.186 C 
ENDROOT
BRANCH   1   2
ATOM      2  CB  LYS A 135      32.060  35.360  10.034  1.00 26.63     0.034 C 
BRANCH   2   3
ATOM      3  CG  LYS A 135      30.803  35.508   9.216  1.00 29.45     0.005 C 
BRANCH   3   4
ATOM      4  CD  LYS A 135      30.135  34.158   9.009  1.00 32.00     0.041 C 
BRANCH   4   5
ATOM      5  CE  LYS A 135      28.675  34.337   8.642  1.00 34.25     0.338 C 
ATOM      6  NZ  LYS A 135      27.786  33.684   9.643  1.00 35.99     0.618 N 
ENDBRANCH   4   5
ENDBRANCH   3   4
ENDBRANCH   2   3
ENDBRANCH   1   2
END_RES LYS A 135
BEGIN_RES TYR A 136
REMARK  2 active torsions:
REMARK  status: ('A' for Active; 'I' for Inactive)
REMARK    5  A    between atoms: CA   and  CB  
REMARK    6  A    between atoms: CB   and  CG  
ROOT
ATOM      7  CA  TYR A 136      36.583  36.399   8.994  1.00 26.14     0.191 C 
ENDROOT
BRANCH   7   8
ATOM      8  CB  TYR A 136      37.367  36.835  10.240  1.00 28.16     0.060 C 
BRANCH   8   9
ATOM      9  CG  TYR A 136      37.199  38.303  10.547  1.00 31.88    -0.020 A 
ATOM     10  CD2 TYR A 136      37.745  38.867  11.702  1.00 32.67    -0.002 A 
ATOM     11  CE2 TYR A 136      37.582  40.231  11.979  1.00 33.89     0.027 A 
ATOM     12  CZ  TYR A 136      36.865  41.038  11.092  1.00 34.34     0.131 A 
ATOM     13  OH  TYR A 136      36.696  42.393  11.343  1.00 35.14    -0.190 OA
ATOM     14  CE1 TYR A 136      36.314  40.494   9.941  1.00 35.01     0.027 A 
ATOM     15  CD1 TYR A 136      36.478  39.133   9.679  1.00 33.57    -0.002 A 
ENDBRANCH   8   9
ENDBRANCH   7   8
END_RES TYR A 136
BEGIN_RES ASN A 133
REMARK  2 active torsions:
REMARK  status: ('A' for Active; 'I' for Inactive)
REMARK    7  A    between atoms: CA   and  CB  
REMARK    8  A    between atoms: CB   and  CG  
ROOT
ATOM     16  CA  ASN A 133      31.225  30.257  11.749  1.00 18.15     0.196 C 
ENDROOT
BRANCH  16  17
ATOM     17  CB  ASN A 133      30.092  31.240  11.460  1.00 18.27     0.126 C 
BRANCH  17  18
ATOM     18  CG  ASN A 133      28.754  30.580  11.333  1.00 18.94     0.276 C 
ATOM     19  OD1 ASN A 133      28.581  29.629  10.568  1.00 18.09    -0.269 OA
ATOM     20  ND2 ASN A 133      27.781  31.085  12.090  1.00 18.93    -0.107 N 
ENDBRANCH  17  18
ENDBRANCH  16  17
END_RES ASN A 133
