REMARK VINA RESULT:    -3.230      8.579     13.486
REMARK INTER + INTRA:          -7.820
REMARK INTER:                  -4.407
REMARK INTRA:                  -3.413
REMARK UNBOUND:                -3.457
REMARK SMILES CC[N+](C)(CC)CCCn1cc(C)nn1
REMARK SMILES IDX 8 1 9 2 10 3 13 4 12 5 11 6 14 7 15 8 7 9 3 10 4 11 2 12
REMARK SMILES IDX 1 13 5 14 6 15
REMARK H PARENT
REMARK Flexibility Score: inf
ROOT
ATOM      1  C   UNL     1      23.804  35.352  -2.023  1.00  0.00     0.085 C 
ENDROOT
BRANCH   1   2
ATOM      2  C   UNL     1      23.818  36.624  -2.842  1.00  0.00     0.152 C 
BRANCH   2   3
ATOM      3  N   UNL     1      24.630  37.616  -2.168  1.00  0.00    -0.252 N 
ATOM      4  C   UNL     1      25.022  40.584  -0.079  1.00  0.00     0.070 C 
ATOM      5  C   UNL     1      25.193  39.380  -0.935  1.00  0.00     0.080 A 
ATOM      6  C   UNL     1      24.129  38.645  -1.424  1.00  0.00     0.134 A 
ATOM      7  N   UNL     1      26.295  38.788  -1.390  1.00  0.00    -0.136 NA
ATOM      8  N   UNL     1      25.931  37.751  -2.112  1.00  0.00    -0.067 NA
ENDBRANCH   2   3
ENDBRANCH   1   2
BRANCH   1   9
ATOM      9  C   UNL     1      22.416  34.794  -2.013  1.00  0.00     0.265 C 
BRANCH   9  10
ATOM     10  N   UNL     1      21.904  34.613  -0.668  1.00  0.00    -0.326 N 
ATOM     11  C   UNL     1      22.731  35.243   0.322  1.00  0.00     0.334 C 
BRANCH  10  12
ATOM     12  C   UNL     1      20.620  35.338  -0.643  1.00  0.00     0.260 C 
ATOM     13  C   UNL     1      20.772  36.745  -0.179  1.00  0.00     0.071 C 
ENDBRANCH  10  12
BRANCH  10  14
ATOM     14  C   UNL     1      21.605  33.250  -0.421  1.00  0.00     0.260 C 
ATOM     15  C   UNL     1      22.475  32.539   0.536  1.00  0.00     0.071 C 
ENDBRANCH  10  14
ENDBRANCH   9  10
ENDBRANCH   1   9
TORSDOF 6
BEGIN_RES LYS A 135
REMARK  4 active torsions:
REMARK  status: ('A' for Active; 'I' for Inactive)
REMARK    1  A    between atoms: CA   and  CB  
REMARK    2  A    between atoms: CB   and  CG  
REMARK    3  A    between atoms: CG   and  CD  
REMARK    4  A    between atoms: CD   and  CE  
ROOT
ATOM      1  CA  LYS A 135      33.193  34.663   9.290  1.00 25.02     0.186 C 
ENDROOT
BRANCH   1   2
ATOM      2  CB  LYS A 135      32.060  35.360  10.034  1.00 26.63     0.034 C 
BRANCH   2   3
ATOM      3  CG  LYS A 135      30.715  34.711   9.829  1.00 29.45     0.005 C 
BRANCH   3   4
ATOM      4  CD  LYS A 135      30.442  34.500   8.348  1.00 32.00     0.041 C 
BRANCH   4   5
ATOM      5  CE  LYS A 135      29.393  35.478   7.855  1.00 34.25     0.338 C 
ATOM      6  NZ  LYS A 135      28.033  34.873   7.896  1.00 35.99     0.618 N 
ENDBRANCH   4   5
ENDBRANCH   3   4
ENDBRANCH   2   3
ENDBRANCH   1   2
END_RES LYS A 135
BEGIN_RES TYR A 136
REMARK  2 active torsions:
REMARK  status: ('A' for Active; 'I' for Inactive)
REMARK    5  A    between atoms: CA   and  CB  
REMARK    6  A    between atoms: CB   and  CG  
ROOT
ATOM      7  CA  TYR A 136      36.583  36.399   8.994  1.00 26.14     0.191 C 
ENDROOT
BRANCH   7   8
ATOM      8  CB  TYR A 136      37.367  36.835  10.240  1.00 28.16     0.060 C 
BRANCH   8   9
ATOM      9  CG  TYR A 136      37.241  38.313  10.517  1.00 31.88    -0.020 A 
ATOM     10  CD2 TYR A 136      36.399  39.123   9.752  1.00 32.67    -0.002 A 
ATOM     11  CE2 TYR A 136      36.290  40.495  10.017  1.00 33.89     0.027 A 
ATOM     12  CZ  TYR A 136      37.031  41.062  11.057  1.00 34.34     0.131 A 
ATOM     13  OH  TYR A 136      36.933  42.417  11.341  1.00 35.14    -0.190 OA
ATOM     14  CE1 TYR A 136      37.873  40.272  11.826  1.00 35.01     0.027 A 
ATOM     15  CD1 TYR A 136      37.978  38.908  11.549  1.00 33.57    -0.002 A 
ENDBRANCH   8   9
ENDBRANCH   7   8
END_RES TYR A 136
BEGIN_RES ASN A 133
REMARK  2 active torsions:
REMARK  status: ('A' for Active; 'I' for Inactive)
REMARK    7  A    between atoms: CA   and  CB  
REMARK    8  A    between atoms: CB   and  CG  
ROOT
ATOM     16  CA  ASN A 133      31.225  30.257  11.749  1.00 18.15     0.196 C 
ENDROOT
BRANCH  16  17
ATOM     17  CB  ASN A 133      30.092  31.240  11.460  1.00 18.27     0.126 C 
BRANCH  17  18
ATOM     18  CG  ASN A 133      28.752  30.582  11.347  1.00 18.94     0.276 C 
ATOM     19  OD1 ASN A 133      28.581  29.604  10.616  1.00 18.09    -0.269 OA
ATOM     20  ND2 ASN A 133      27.775  31.118  12.077  1.00 18.93    -0.107 N 
ENDBRANCH  17  18
ENDBRANCH  16  17
END_RES ASN A 133
