REMARK VINA RESULT:    -5.127      2.478      3.402
REMARK INTER + INTRA:          -7.422
REMARK INTER:                  -4.520
REMARK INTRA:                  -2.902
REMARK UNBOUND:                -1.996
REMARK SMILES Cc1cn(-c2ccccc2I)nn1
REMARK SMILES IDX 5 1 6 2 7 3 8 4 9 5 10 6 11 7 4 8 1 9 2 10 3 11 13 12 12 13
REMARK H PARENT
REMARK Flexibility Score: inf
ROOT
ATOM      1  C   UNL     1      32.014  33.983  15.443  1.00  0.00     0.080 A 
ATOM      2  C   UNL     1      31.451  32.760  15.144  1.00  0.00     0.029 A 
ATOM      3  C   UNL     1      30.830  31.977  16.106  1.00  0.00     0.002 A 
ATOM      4  C   UNL     1      30.763  32.423  17.423  1.00  0.00     0.001 A 
ATOM      5  C   UNL     1      31.322  33.646  17.742  1.00  0.00     0.017 A 
ATOM      6  C   UNL     1      31.932  34.404  16.766  1.00  0.00     0.039 A 
ATOM      7  I   UNL     1      32.775  36.267  17.288  1.00  0.00    -0.042 I 
ENDROOT
BRANCH   1   8
ATOM      8  N   UNL     1      32.650  34.776  14.438  1.00  0.00    -0.219 N 
ATOM      9  C   UNL     1      33.059  37.266  11.827  1.00  0.00     0.070 C 
ATOM     10  C   UNL     1      33.145  36.192  12.865  1.00  0.00     0.080 A 
ATOM     11  C   UNL     1      32.133  35.730  13.669  1.00  0.00     0.140 A 
ATOM     12  N   UNL     1      34.243  35.488  13.188  1.00  0.00    -0.135 NA
ATOM     13  N   UNL     1      33.931  34.646  14.131  1.00  0.00    -0.062 NA
ENDBRANCH   1   8
TORSDOF 1
BEGIN_RES LYS A 135
REMARK  4 active torsions:
REMARK  status: ('A' for Active; 'I' for Inactive)
REMARK    1  A    between atoms: CA   and  CB  
REMARK    2  A    between atoms: CB   and  CG  
REMARK    3  A    between atoms: CG   and  CD  
REMARK    4  A    between atoms: CD   and  CE  
ROOT
ATOM      1  CA  LYS A 135      33.193  34.663   9.290  1.00 25.02     0.186 C 
ENDROOT
BRANCH   1   2
ATOM      2  CB  LYS A 135      32.060  35.360  10.034  1.00 26.63     0.034 C 
BRANCH   2   3
ATOM      3  CG  LYS A 135      30.791  35.475   9.229  1.00 29.45     0.005 C 
BRANCH   3   4
ATOM      4  CD  LYS A 135      30.185  34.102   8.985  1.00 32.00     0.041 C 
BRANCH   4   5
ATOM      5  CE  LYS A 135      28.671  34.190   8.931  1.00 34.25     0.338 C 
ATOM      6  NZ  LYS A 135      28.223  35.006   7.768  1.00 35.99     0.618 N 
ENDBRANCH   4   5
ENDBRANCH   3   4
ENDBRANCH   2   3
ENDBRANCH   1   2
END_RES LYS A 135
BEGIN_RES TYR A 136
REMARK  2 active torsions:
REMARK  status: ('A' for Active; 'I' for Inactive)
REMARK    5  A    between atoms: CA   and  CB  
REMARK    6  A    between atoms: CB   and  CG  
ROOT
ATOM      7  CA  TYR A 136      36.583  36.399   8.994  1.00 26.14     0.191 C 
ENDROOT
BRANCH   7   8
ATOM      8  CB  TYR A 136      37.367  36.835  10.240  1.00 28.16     0.060 C 
BRANCH   8   9
ATOM      9  CG  TYR A 136      36.726  38.002  10.950  1.00 31.88    -0.020 A 
ATOM     10  CD2 TYR A 136      36.715  38.083  12.344  1.00 32.67    -0.002 A 
ATOM     11  CE2 TYR A 136      36.116  39.170  12.994  1.00 33.89     0.027 A 
ATOM     12  CZ  TYR A 136      35.521  40.186  12.242  1.00 34.34     0.131 A 
ATOM     13  OH  TYR A 136      34.927  41.276  12.864  1.00 35.14    -0.190 OA
ATOM     14  CE1 TYR A 136      35.521  40.121  10.856  1.00 35.01     0.027 A 
ATOM     15  CD1 TYR A 136      36.116  39.030  10.220  1.00 33.57    -0.002 A 
ENDBRANCH   8   9
ENDBRANCH   7   8
END_RES TYR A 136
BEGIN_RES ASN A 133
REMARK  2 active torsions:
REMARK  status: ('A' for Active; 'I' for Inactive)
REMARK    7  A    between atoms: CA   and  CB  
REMARK    8  A    between atoms: CB   and  CG  
ROOT
ATOM     16  CA  ASN A 133      31.225  30.257  11.749  1.00 18.15     0.196 C 
ENDROOT
BRANCH  16  17
ATOM     17  CB  ASN A 133      30.092  31.240  11.460  1.00 18.27     0.126 C 
BRANCH  17  18
ATOM     18  CG  ASN A 133      28.757  30.578  11.315  1.00 18.94     0.276 C 
ATOM     19  OD1 ASN A 133      28.602  29.609  10.570  1.00 18.09    -0.269 OA
ATOM     20  ND2 ASN A 133      27.765  31.102  12.035  1.00 18.93    -0.107 N 
ENDBRANCH  17  18
ENDBRANCH  16  17
END_RES ASN A 133
