REMARK VINA RESULT:    -6.046      3.218      4.825
REMARK INTER + INTRA:          -9.340
REMARK INTER:                  -5.841
REMARK INTRA:                  -3.499
REMARK UNBOUND:                -1.880
REMARK SMILES Cc1cn(C(C)CC(=O)c2ccccc2)nn1
REMARK SMILES IDX 7 1 5 2 6 3 4 4 1 5 2 6 3 7 17 8 16 9 8 10 9 11 10 12 11 13
REMARK SMILES IDX 15 14 12 15 14 16 13 17
REMARK H PARENT
REMARK Flexibility Score: inf
ROOT
ATOM      1  C   UNL     1      38.644  34.885  12.187  1.00  0.00     0.108 C 
ENDROOT
BRANCH   1   2
ATOM      2  C   UNL     1      39.898  35.318  12.854  1.00  0.00     0.114 C 
ATOM      3  C   UNL     1      40.096  36.774  12.997  1.00  0.00     0.034 C 
BRANCH   2   4
ATOM      4  N   UNL     1      41.017  34.708  12.160  1.00  0.00    -0.249 N 
ATOM      5  C   UNL     1      43.819  34.959   9.864  1.00  0.00     0.070 C 
ATOM      6  C   UNL     1      42.775  34.554  10.818  1.00  0.00     0.080 A 
ATOM      7  C   UNL     1      41.805  35.401  11.317  1.00  0.00     0.134 A 
ATOM      8  N   UNL     1      42.535  33.358  11.386  1.00  0.00    -0.136 NA
ATOM      9  N   UNL     1      41.477  33.484  12.183  1.00  0.00    -0.067 NA
ENDBRANCH   2   4
ENDBRANCH   1   2
BRANCH   1  10
ATOM     10  C   UNL     1      37.781  34.009  12.992  1.00  0.00     0.164 C 
ATOM     11  O   UNL     1      37.955  32.785  13.145  1.00  0.00    -0.294 OA
BRANCH  10  12
ATOM     12  C   UNL     1      36.637  34.619  13.661  1.00  0.00     0.018 A 
ATOM     13  C   UNL     1      35.341  34.498  13.168  1.00  0.00     0.012 A 
ATOM     14  C   UNL     1      36.760  35.358  14.830  1.00  0.00     0.012 A 
ATOM     15  C   UNL     1      34.254  35.072  13.794  1.00  0.00     0.001 A 
ATOM     16  C   UNL     1      35.716  35.939  15.478  1.00  0.00     0.001 A 
ATOM     17  C   UNL     1      34.450  35.798  14.961  1.00  0.00     0.000 A 
ENDBRANCH  10  12
ENDBRANCH   1  10
TORSDOF 4
BEGIN_RES LYS A 135
REMARK  4 active torsions:
REMARK  status: ('A' for Active; 'I' for Inactive)
REMARK    1  A    between atoms: CA   and  CB  
REMARK    2  A    between atoms: CB   and  CG  
REMARK    3  A    between atoms: CG   and  CD  
REMARK    4  A    between atoms: CD   and  CE  
ROOT
ATOM      1  CA  LYS A 135      33.193  34.663   9.290  1.00 25.02     0.186 C 
ENDROOT
BRANCH   1   2
ATOM      2  CB  LYS A 135      32.060  35.360  10.034  1.00 26.63     0.034 C 
BRANCH   2   3
ATOM      3  CG  LYS A 135      30.730  34.667   9.892  1.00 29.45     0.005 C 
BRANCH   3   4
ATOM      4  CD  LYS A 135      30.343  34.542   8.426  1.00 32.00     0.041 C 
BRANCH   4   5
ATOM      5  CE  LYS A 135      28.835  34.569   8.269  1.00 34.25     0.338 C 
ATOM      6  NZ  LYS A 135      28.167  33.838   9.381  1.00 35.99     0.618 N 
ENDBRANCH   4   5
ENDBRANCH   3   4
ENDBRANCH   2   3
ENDBRANCH   1   2
END_RES LYS A 135
BEGIN_RES TYR A 136
REMARK  2 active torsions:
REMARK  status: ('A' for Active; 'I' for Inactive)
REMARK    5  A    between atoms: CA   and  CB  
REMARK    6  A    between atoms: CB   and  CG  
ROOT
ATOM      7  CA  TYR A 136      36.583  36.399   8.994  1.00 26.14     0.191 C 
ENDROOT
BRANCH   7   8
ATOM      8  CB  TYR A 136      37.367  36.835  10.240  1.00 28.16     0.060 C 
BRANCH   8   9
ATOM      9  CG  TYR A 136      36.728  38.005  10.947  1.00 31.88    -0.020 A 
ATOM     10  CD2 TYR A 136      36.273  39.118  10.237  1.00 32.67    -0.002 A 
ATOM     11  CE2 TYR A 136      35.682  40.200  10.904  1.00 33.89     0.027 A 
ATOM     12  CZ  TYR A 136      35.547  40.169  12.294  1.00 34.34     0.131 A 
ATOM     13  OH  TYR A 136      34.960  41.226  12.975  1.00 35.14    -0.190 OA
ATOM     14  CE1 TYR A 136      35.996  39.072  13.016  1.00 35.01     0.027 A 
ATOM     15  CD1 TYR A 136      36.588  38.002  12.341  1.00 33.57    -0.002 A 
ENDBRANCH   8   9
ENDBRANCH   7   8
END_RES TYR A 136
BEGIN_RES ASN A 133
REMARK  2 active torsions:
REMARK  status: ('A' for Active; 'I' for Inactive)
REMARK    7  A    between atoms: CA   and  CB  
REMARK    8  A    between atoms: CB   and  CG  
ROOT
ATOM     16  CA  ASN A 133      31.225  30.257  11.749  1.00 18.15     0.196 C 
ENDROOT
BRANCH  16  17
ATOM     17  CB  ASN A 133      30.092  31.240  11.460  1.00 18.27     0.126 C 
BRANCH  17  18
ATOM     18  CG  ASN A 133      28.752  30.581  11.344  1.00 18.94     0.276 C 
ATOM     19  OD1 ASN A 133      28.587  29.593  10.626  1.00 18.09    -0.269 OA
ATOM     20  ND2 ASN A 133      27.769  31.130  12.057  1.00 18.93    -0.107 N 
ENDBRANCH  17  18
ENDBRANCH  16  17
END_RES ASN A 133
