REMARK VINA RESULT:    -5.213      1.821      3.330
REMARK INTER + INTRA:         -10.822
REMARK INTER:                  -7.552
REMARK INTRA:                  -3.270
REMARK UNBOUND:                -3.628
REMARK SMILES Cc1cn(C[C@@H](C(=O)O)C(c2ccccc2)c2ccccc2)nn1
REMARK SMILES IDX 6 1 5 2 4 3 1 4 2 5 3 6 24 7 23 8 7 9 8 10 9 11 10 13 11 14
REMARK SMILES IDX 12 15 16 16 13 17 15 18 14 19 17 20 18 21 22 22 19 23 21 24
REMARK SMILES IDX 20 25
REMARK H PARENT 9 12
REMARK Flexibility Score: inf
ROOT
ATOM      1  C   UNL     1      32.238  35.609  15.269  1.00  0.00     0.132 C 
ENDROOT
BRANCH   1   2
ATOM      2  C   UNL     1      30.897  36.253  15.134  1.00  0.00     0.162 C 
BRANCH   2   3
ATOM      3  N   UNL     1      29.916  35.328  14.619  1.00  0.00    -0.251 N 
ATOM      4  C   UNL     1      26.955  33.200  14.865  1.00  0.00     0.070 C 
ATOM      5  C   UNL     1      28.175  34.009  14.565  1.00  0.00     0.080 A 
ATOM      6  C   UNL     1      28.899  34.824  15.371  1.00  0.00     0.134 A 
ATOM      7  N   UNL     1      28.757  34.031  13.351  1.00  0.00    -0.136 NA
ATOM      8  N   UNL     1      29.793  34.823  13.403  1.00  0.00    -0.067 NA
ENDBRANCH   2   3
ENDBRANCH   1   2
BRANCH   1   9
ATOM      9  C   UNL     1      32.119  34.198  15.640  1.00  0.00     0.309 C 
ATOM     10  O   UNL     1      32.012  33.896  16.862  1.00  0.00    -0.252 OA
BRANCH   9  11
ATOM     11  O   UNL     1      32.121  33.177  14.678  1.00  0.00    -0.481 OA
ATOM     12  H   UNL     1      31.268  33.080  14.106  1.00  0.00     0.296 HD
ENDBRANCH   9  11
ENDBRANCH   1   9
BRANCH   1  13
ATOM     13  C   UNL     1      32.963  35.682  13.927  1.00  0.00     0.065 C 
BRANCH  13  14
ATOM     14  C   UNL     1      32.724  36.976  13.229  1.00  0.00    -0.040 A 
ATOM     15  C   UNL     1      32.485  38.167  13.872  1.00  0.00     0.004 A 
ATOM     16  C   UNL     1      32.748  36.950  11.838  1.00  0.00     0.004 A 
ATOM     17  C   UNL     1      32.275  39.314  13.123  1.00  0.00     0.000 A 
ATOM     18  C   UNL     1      32.535  38.114  11.117  1.00  0.00     0.000 A 
ATOM     19  C   UNL     1      32.299  39.295  11.755  1.00  0.00     0.000 A 
ENDBRANCH  13  14
BRANCH  13  20
ATOM     20  C   UNL     1      34.414  35.458  14.134  1.00  0.00    -0.040 A 
ATOM     21  C   UNL     1      35.081  36.092  15.163  1.00  0.00     0.004 A 
ATOM     22  C   UNL     1      35.135  34.609  13.326  1.00  0.00     0.004 A 
ATOM     23  C   UNL     1      36.419  35.925  15.426  1.00  0.00     0.000 A 
ATOM     24  C   UNL     1      36.489  34.420  13.566  1.00  0.00     0.000 A 
ATOM     25  C   UNL     1      37.113  35.061  14.588  1.00  0.00     0.000 A 
ENDBRANCH  13  20
ENDBRANCH   1  13
TORSDOF 7
BEGIN_RES LYS A 135
REMARK  4 active torsions:
REMARK  status: ('A' for Active; 'I' for Inactive)
REMARK    1  A    between atoms: CA   and  CB  
REMARK    2  A    between atoms: CB   and  CG  
REMARK    3  A    between atoms: CG   and  CD  
REMARK    4  A    between atoms: CD   and  CE  
ROOT
ATOM      1  CA  LYS A 135      33.193  34.663   9.290  1.00 25.02     0.186 C 
ENDROOT
BRANCH   1   2
ATOM      2  CB  LYS A 135      32.060  35.360  10.034  1.00 26.63     0.034 C 
BRANCH   2   3
ATOM      3  CG  LYS A 135      30.733  34.656   9.907  1.00 29.45     0.005 C 
BRANCH   3   4
ATOM      4  CD  LYS A 135      30.356  34.482   8.444  1.00 32.00     0.041 C 
BRANCH   4   5
ATOM      5  CE  LYS A 135      28.851  34.552   8.270  1.00 34.25     0.338 C 
ATOM      6  NZ  LYS A 135      28.149  33.876   9.396  1.00 35.99     0.618 N 
ENDBRANCH   4   5
ENDBRANCH   3   4
ENDBRANCH   2   3
ENDBRANCH   1   2
END_RES LYS A 135
BEGIN_RES TYR A 136
REMARK  2 active torsions:
REMARK  status: ('A' for Active; 'I' for Inactive)
REMARK    5  A    between atoms: CA   and  CB  
REMARK    6  A    between atoms: CB   and  CG  
ROOT
ATOM      7  CA  TYR A 136      36.583  36.399   8.994  1.00 26.14     0.191 C 
ENDROOT
BRANCH   7   8
ATOM      8  CB  TYR A 136      37.367  36.835  10.240  1.00 28.16     0.060 C 
BRANCH   8   9
ATOM      9  CG  TYR A 136      36.759  38.039  10.917  1.00 31.88    -0.020 A 
ATOM     10  CD2 TYR A 136      36.549  38.063  12.297  1.00 32.67    -0.002 A 
ATOM     11  CE2 TYR A 136      35.982  39.186  12.916  1.00 33.89     0.027 A 
ATOM     12  CZ  TYR A 136      35.620  40.294  12.145  1.00 34.34     0.131 A 
ATOM     13  OH  TYR A 136      35.063  41.419  12.737  1.00 35.14    -0.190 OA
ATOM     14  CE1 TYR A 136      35.820  40.286  10.772  1.00 35.01     0.027 A 
ATOM     15  CD1 TYR A 136      36.380  39.160  10.167  1.00 33.57    -0.002 A 
ENDBRANCH   8   9
ENDBRANCH   7   8
END_RES TYR A 136
BEGIN_RES ASN A 133
REMARK  2 active torsions:
REMARK  status: ('A' for Active; 'I' for Inactive)
REMARK    7  A    between atoms: CA   and  CB  
REMARK    8  A    between atoms: CB   and  CG  
ROOT
ATOM     16  CA  ASN A 133      31.225  30.257  11.749  1.00 18.15     0.196 C 
ENDROOT
BRANCH  16  17
ATOM     17  CB  ASN A 133      30.092  31.240  11.460  1.00 18.27     0.126 C 
BRANCH  17  18
ATOM     18  CG  ASN A 133      28.761  30.575  11.289  1.00 18.94     0.276 C 
ATOM     19  OD1 ASN A 133      28.633  29.578  10.576  1.00 18.09    -0.269 OA
ATOM     20  ND2 ASN A 133      27.744  31.129  11.948  1.00 18.93    -0.107 N 
ENDBRANCH  17  18
ENDBRANCH  16  17
END_RES ASN A 133
