REMARK VINA RESULT:    -3.997      8.101     16.093
REMARK INTER + INTRA:          -7.575
REMARK INTER:                  -4.410
REMARK INTRA:                  -3.166
REMARK UNBOUND:                -3.228
REMARK SMILES Cc1cn(-c2nc(C)nc(N)n2)nn1
REMARK SMILES IDX 5 1 12 2 10 3 9 4 7 5 8 6 6 7 4 8 1 9 2 10 3 11 14 12 13 13
REMARK SMILES IDX 11 14
REMARK H PARENT 11 15 11 16
REMARK Flexibility Score: inf
ROOT
ATOM      1  C   UNL     1      38.693  34.549  14.460  1.00  0.00     0.257 A 
ATOM      2  N   UNL     1      37.470  34.240  14.027  1.00  0.00    -0.175 NA
ATOM      3  C   UNL     1      37.121  34.512  12.765  1.00  0.00     0.225 A 
ATOM      4  N   UNL     1      38.006  35.097  11.938  1.00  0.00    -0.198 NA
ATOM      5  C   UNL     1      39.247  35.416  12.361  1.00  0.00     0.133 A 
ATOM      6  C   UNL     1      40.230  36.066  11.445  1.00  0.00     0.090 C 
ATOM      7  N   UNL     1      39.557  35.128  13.630  1.00  0.00    -0.196 NA
ENDROOT
BRANCH   1   8
ATOM      8  N   UNL     1      39.052  34.255  15.803  1.00  0.00    -0.185 N 
ATOM      9  C   UNL     1      38.728  32.777  19.127  1.00  0.00     0.070 C 
ATOM     10  C   UNL     1      39.087  33.478  17.880  1.00  0.00     0.080 A 
ATOM     11  C   UNL     1      38.385  33.498  16.701  1.00  0.00     0.144 A 
ATOM     12  N   UNL     1      40.171  34.228  17.676  1.00  0.00    -0.135 NA
ATOM     13  N   UNL     1      40.124  34.677  16.433  1.00  0.00    -0.059 NA
ENDBRANCH   1   8
BRANCH   3  14
ATOM     14  N   UNL     1      35.806  34.160  12.360  1.00  0.00    -0.368 N 
ATOM     15  H   UNL     1      35.242  33.495  12.929  1.00  0.00     0.159 HD
ATOM     16  H   UNL     1      35.381  34.556  11.498  1.00  0.00     0.159 HD
ENDBRANCH   3  14
TORSDOF 2
BEGIN_RES LYS A 135
REMARK  4 active torsions:
REMARK  status: ('A' for Active; 'I' for Inactive)
REMARK    1  A    between atoms: CA   and  CB  
REMARK    2  A    between atoms: CB   and  CG  
REMARK    3  A    between atoms: CG   and  CD  
REMARK    4  A    between atoms: CD   and  CE  
ROOT
ATOM      1  CA  LYS A 135      33.193  34.663   9.290  1.00 25.02     0.186 C 
ENDROOT
BRANCH   1   2
ATOM      2  CB  LYS A 135      32.060  35.360  10.034  1.00 26.63     0.034 C 
BRANCH   2   3
ATOM      3  CG  LYS A 135      30.831  35.580   9.190  1.00 29.45     0.005 C 
BRANCH   3   4
ATOM      4  CD  LYS A 135      30.289  34.255   8.676  1.00 32.00     0.041 C 
BRANCH   4   5
ATOM      5  CE  LYS A 135      28.882  34.019   9.193  1.00 34.25     0.338 C 
ATOM      6  NZ  LYS A 135      27.870  34.651   8.301  1.00 35.99     0.618 N 
ENDBRANCH   4   5
ENDBRANCH   3   4
ENDBRANCH   2   3
ENDBRANCH   1   2
END_RES LYS A 135
BEGIN_RES TYR A 136
REMARK  2 active torsions:
REMARK  status: ('A' for Active; 'I' for Inactive)
REMARK    5  A    between atoms: CA   and  CB  
REMARK    6  A    between atoms: CB   and  CG  
ROOT
ATOM      7  CA  TYR A 136      36.583  36.399   8.994  1.00 26.14     0.191 C 
ENDROOT
BRANCH   7   8
ATOM      8  CB  TYR A 136      37.367  36.835  10.240  1.00 28.16     0.060 C 
BRANCH   8   9
ATOM      9  CG  TYR A 136      37.198  38.303  10.547  1.00 31.88    -0.020 A 
ATOM     10  CD2 TYR A 136      36.498  39.147   9.683  1.00 32.67    -0.002 A 
ATOM     11  CE2 TYR A 136      36.348  40.509   9.977  1.00 33.89     0.027 A 
ATOM     12  CZ  TYR A 136      36.905  41.031  11.147  1.00 34.34     0.131 A 
ATOM     13  OH  TYR A 136      36.764  42.376  11.462  1.00 35.14    -0.190 OA
ATOM     14  CE1 TYR A 136      37.606  40.208  12.016  1.00 35.01     0.027 A 
ATOM     15  CD1 TYR A 136      37.753  38.854  11.709  1.00 33.57    -0.002 A 
ENDBRANCH   8   9
ENDBRANCH   7   8
END_RES TYR A 136
BEGIN_RES ASN A 133
REMARK  2 active torsions:
REMARK  status: ('A' for Active; 'I' for Inactive)
REMARK    7  A    between atoms: CA   and  CB  
REMARK    8  A    between atoms: CB   and  CG  
ROOT
ATOM     16  CA  ASN A 133      31.225  30.257  11.749  1.00 18.15     0.196 C 
ENDROOT
BRANCH  16  17
ATOM     17  CB  ASN A 133      30.092  31.240  11.460  1.00 18.27     0.126 C 
BRANCH  17  18
ATOM     18  CG  ASN A 133      28.752  30.581  11.344  1.00 18.94     0.276 C 
ATOM     19  OD1 ASN A 133      28.585  29.600  10.617  1.00 18.09    -0.269 OA
ATOM     20  ND2 ASN A 133      27.772  31.122  12.066  1.00 18.93    -0.107 N 
ENDBRANCH  17  18
ENDBRANCH  16  17
END_RES ASN A 133
