REMARK VINA RESULT:    -3.906      2.779      3.946
REMARK INTER + INTRA:          -7.602
REMARK INTER:                  -4.392
REMARK INTRA:                  -3.210
REMARK UNBOUND:                -3.239
REMARK SMILES Cc1cn(Cc2ccccc2)nn1
REMARK SMILES IDX 5 1 4 2 1 3 2 4 3 5 13 6 12 7 6 8 7 9 11 10 8 11 10 12 9 13
REMARK H PARENT
REMARK Flexibility Score: inf
ROOT
ATOM      1  C   UNL     1      38.170  36.186  15.678  1.00  0.00     0.181 C 
ENDROOT
BRANCH   1   2
ATOM      2  N   UNL     1      38.677  35.117  16.522  1.00  0.00    -0.248 N 
ATOM      3  C   UNL     1      38.679  32.675  19.192  1.00  0.00     0.070 C 
ATOM      4  C   UNL     1      38.926  33.586  18.037  1.00  0.00     0.080 A 
ATOM      5  C   UNL     1      38.057  34.542  17.548  1.00  0.00     0.134 A 
ATOM      6  N   UNL     1      40.038  33.626  17.281  1.00  0.00    -0.136 NA
ATOM      7  N   UNL     1      39.860  34.562  16.370  1.00  0.00    -0.067 NA
ENDBRANCH   1   2
BRANCH   1   8
ATOM      8  C   UNL     1      37.045  35.634  14.864  1.00  0.00    -0.026 A 
ATOM      9  C   UNL     1      37.290  34.769  13.813  1.00  0.00     0.005 A 
ATOM     10  C   UNL     1      35.726  35.958  15.117  1.00  0.00     0.005 A 
ATOM     11  C   UNL     1      36.252  34.260  13.062  1.00  0.00     0.000 A 
ATOM     12  C   UNL     1      34.684  35.451  14.368  1.00  0.00     0.000 A 
ATOM     13  C   UNL     1      34.931  34.588  13.321  1.00  0.00     0.000 A 
ENDBRANCH   1   8
TORSDOF 2
BEGIN_RES LYS A 135
REMARK  4 active torsions:
REMARK  status: ('A' for Active; 'I' for Inactive)
REMARK    1  A    between atoms: CA   and  CB  
REMARK    2  A    between atoms: CB   and  CG  
REMARK    3  A    between atoms: CG   and  CD  
REMARK    4  A    between atoms: CD   and  CE  
ROOT
ATOM      1  CA  LYS A 135      33.193  34.663   9.290  1.00 25.02     0.186 C 
ENDROOT
BRANCH   1   2
ATOM      2  CB  LYS A 135      32.060  35.360  10.034  1.00 26.63     0.034 C 
BRANCH   2   3
ATOM      3  CG  LYS A 135      30.871  35.675   9.163  1.00 29.45     0.005 C 
BRANCH   3   4
ATOM      4  CD  LYS A 135      30.369  34.419   8.466  1.00 32.00     0.041 C 
BRANCH   4   5
ATOM      5  CE  LYS A 135      28.856  34.433   8.370  1.00 34.25     0.338 C 
ATOM      6  NZ  LYS A 135      28.237  33.774   9.554  1.00 35.99     0.618 N 
ENDBRANCH   4   5
ENDBRANCH   3   4
ENDBRANCH   2   3
ENDBRANCH   1   2
END_RES LYS A 135
BEGIN_RES TYR A 136
REMARK  2 active torsions:
REMARK  status: ('A' for Active; 'I' for Inactive)
REMARK    5  A    between atoms: CA   and  CB  
REMARK    6  A    between atoms: CB   and  CG  
ROOT
ATOM      7  CA  TYR A 136      36.583  36.399   8.994  1.00 26.14     0.191 C 
ENDROOT
BRANCH   7   8
ATOM      8  CB  TYR A 136      37.367  36.835  10.240  1.00 28.16     0.060 C 
BRANCH   8   9
ATOM      9  CG  TYR A 136      36.741  38.020  10.934  1.00 31.88    -0.020 A 
ATOM     10  CD2 TYR A 136      36.822  38.171  12.320  1.00 32.67    -0.002 A 
ATOM     11  CE2 TYR A 136      36.235  39.274  12.956  1.00 33.89     0.027 A 
ATOM     12  CZ  TYR A 136      35.562  40.235  12.197  1.00 34.34     0.131 A 
ATOM     13  OH  TYR A 136      34.980  41.339  12.804  1.00 35.14    -0.190 OA
ATOM     14  CE1 TYR A 136      35.471  40.099  10.819  1.00 35.01     0.027 A 
ATOM     15  CD1 TYR A 136      36.054  38.993  10.198  1.00 33.57    -0.002 A 
ENDBRANCH   8   9
ENDBRANCH   7   8
END_RES TYR A 136
BEGIN_RES ASN A 133
REMARK  2 active torsions:
REMARK  status: ('A' for Active; 'I' for Inactive)
REMARK    7  A    between atoms: CA   and  CB  
REMARK    8  A    between atoms: CB   and  CG  
ROOT
ATOM     16  CA  ASN A 133      31.225  30.257  11.749  1.00 18.15     0.196 C 
ENDROOT
BRANCH  16  17
ATOM     17  CB  ASN A 133      30.092  31.240  11.460  1.00 18.27     0.126 C 
BRANCH  17  18
ATOM     18  CG  ASN A 133      28.751  30.582  11.350  1.00 18.94     0.276 C 
ATOM     19  OD1 ASN A 133      28.579  29.602  10.623  1.00 18.09    -0.269 OA
ATOM     20  ND2 ASN A 133      27.776  31.122  12.080  1.00 18.93    -0.107 N 
ENDBRANCH  17  18
ENDBRANCH  16  17
END_RES ASN A 133
