REMARK VINA RESULT:    -3.907      2.327      3.047
REMARK INTER + INTRA:          -7.606
REMARK INTER:                  -4.443
REMARK INTRA:                  -3.163
REMARK UNBOUND:                -3.243
REMARK SMILES CC(=O)c1ccccc1-n1cc(C)nn1
REMARK SMILES IDX 9 1 4 2 5 3 6 4 7 5 8 6 10 7 13 8 12 9 11 10 14 11 15 12
REMARK SMILES IDX 2 13 3 14 1 15
REMARK H PARENT
REMARK Flexibility Score: inf
ROOT
ATOM      1  C   UNL     1      39.423  34.000  12.788  1.00  0.00     0.077 A 
ATOM      2  C   UNL     1      38.708  35.189  12.694  1.00  0.00     0.043 A 
ATOM      3  C   UNL     1      37.342  35.190  12.496  1.00  0.00     0.014 A 
ATOM      4  C   UNL     1      36.642  34.030  12.385  1.00  0.00     0.001 A 
ATOM      5  C   UNL     1      37.309  32.831  12.472  1.00  0.00     0.002 A 
ATOM      6  C   UNL     1      38.670  32.850  12.670  1.00  0.00     0.029 A 
ENDROOT
BRANCH   1   7
ATOM      7  N   UNL     1      40.827  33.998  12.991  1.00  0.00    -0.220 N 
ATOM      8  C   UNL     1      44.362  33.626  12.091  1.00  0.00     0.070 C 
ATOM      9  C   UNL     1      43.024  33.833  12.684  1.00  0.00     0.080 A 
ATOM     10  C   UNL     1      41.793  33.728  12.100  1.00  0.00     0.140 A 
ATOM     11  N   UNL     1      42.763  34.179  13.979  1.00  0.00    -0.135 NA
ATOM     12  N   UNL     1      41.452  34.269  14.125  1.00  0.00    -0.062 NA
ENDBRANCH   1   7
BRANCH   2  13
ATOM     13  C   UNL     1      39.365  36.464  12.799  1.00  0.00     0.161 C 
ATOM     14  O   UNL     1      40.058  36.855  11.840  1.00  0.00    -0.294 OA
ATOM     15  C   UNL     1      39.237  37.302  13.999  1.00  0.00     0.093 C 
ENDBRANCH   2  13
TORSDOF 2
BEGIN_RES LYS A 135
REMARK  4 active torsions:
REMARK  status: ('A' for Active; 'I' for Inactive)
REMARK    1  A    between atoms: CA   and  CB  
REMARK    2  A    between atoms: CB   and  CG  
REMARK    3  A    between atoms: CG   and  CD  
REMARK    4  A    between atoms: CD   and  CE  
ROOT
ATOM      1  CA  LYS A 135      33.193  34.663   9.290  1.00 25.02     0.186 C 
ENDROOT
BRANCH   1   2
ATOM      2  CB  LYS A 135      32.060  35.360  10.034  1.00 26.63     0.034 C 
BRANCH   2   3
ATOM      3  CG  LYS A 135      30.843  35.610   9.181  1.00 29.45     0.005 C 
BRANCH   3   4
ATOM      4  CD  LYS A 135      30.284  34.300   8.647  1.00 32.00     0.041 C 
BRANCH   4   5
ATOM      5  CE  LYS A 135      28.768  34.306   8.704  1.00 34.25     0.338 C 
ATOM      6  NZ  LYS A 135      28.193  35.127   7.602  1.00 35.99     0.618 N 
ENDBRANCH   4   5
ENDBRANCH   3   4
ENDBRANCH   2   3
ENDBRANCH   1   2
END_RES LYS A 135
BEGIN_RES TYR A 136
REMARK  2 active torsions:
REMARK  status: ('A' for Active; 'I' for Inactive)
REMARK    5  A    between atoms: CA   and  CB  
REMARK    6  A    between atoms: CB   and  CG  
ROOT
ATOM      7  CA  TYR A 136      36.583  36.399   8.994  1.00 26.14     0.191 C 
ENDROOT
BRANCH   7   8
ATOM      8  CB  TYR A 136      37.367  36.835  10.240  1.00 28.16     0.060 C 
BRANCH   8   9
ATOM      9  CG  TYR A 136      37.142  38.286  10.589  1.00 31.88    -0.020 A 
ATOM     10  CD2 TYR A 136      37.888  39.299   9.984  1.00 32.67    -0.002 A 
ATOM     11  CE2 TYR A 136      37.671  40.644  10.317  1.00 33.89     0.027 A 
ATOM     12  CZ  TYR A 136      36.700  40.976  11.264  1.00 34.34     0.131 A 
ATOM     13  OH  TYR A 136      36.464  42.301  11.604  1.00 35.14    -0.190 OA
ATOM     14  CE1 TYR A 136      35.951  39.982  11.876  1.00 35.01     0.027 A 
ATOM     15  CD1 TYR A 136      36.179  38.646  11.541  1.00 33.57    -0.002 A 
ENDBRANCH   8   9
ENDBRANCH   7   8
END_RES TYR A 136
BEGIN_RES ASN A 133
REMARK  2 active torsions:
REMARK  status: ('A' for Active; 'I' for Inactive)
REMARK    7  A    between atoms: CA   and  CB  
REMARK    8  A    between atoms: CB   and  CG  
ROOT
ATOM     16  CA  ASN A 133      31.225  30.257  11.749  1.00 18.15     0.196 C 
ENDROOT
BRANCH  16  17
ATOM     17  CB  ASN A 133      30.092  31.240  11.460  1.00 18.27     0.126 C 
BRANCH  17  18
ATOM     18  CG  ASN A 133      28.756  30.579  11.321  1.00 18.94     0.276 C 
ATOM     19  OD1 ASN A 133      28.595  29.615  10.569  1.00 18.09    -0.269 OA
ATOM     20  ND2 ASN A 133      27.770  31.097  12.053  1.00 18.93    -0.107 N 
ENDBRANCH  17  18
ENDBRANCH  16  17
END_RES ASN A 133
