REMARK VINA RESULT:    -5.243      2.078      2.558
REMARK INTER + INTRA:          -8.578
REMARK INTER:                  -5.598
REMARK INTRA:                  -2.980
REMARK UNBOUND:                -2.723
REMARK SMILES Cc1cn(-c2ncn3c2c(=O)n(C(C)C)c2ccccc23)nn1
REMARK SMILES IDX 5 1 6 2 7 3 8 4 21 5 20 6 19 7 18 8 17 9 16 10 12 11 10 12
REMARK SMILES IDX 11 13 9 14 4 15 1 16 2 17 3 18 23 19 22 20 13 21 14 22 15 23
REMARK H PARENT
REMARK Flexibility Score: inf
ROOT
ATOM      1  C   UNL     1      34.497  36.436  14.931  1.00  0.00     0.186 A 
ATOM      2  N   UNL     1      34.161  36.816  16.173  1.00  0.00    -0.216 NA
ATOM      3  C   UNL     1      35.127  36.498  17.050  1.00  0.00     0.207 A 
ATOM      4  N   UNL     1      36.114  35.893  16.341  1.00  0.00    -0.291 N 
ATOM      5  C   UNL     1      37.312  35.371  16.701  1.00  0.00     0.071 A 
ATOM      6  C   UNL     1      37.624  35.458  18.039  1.00  0.00     0.029 A 
ATOM      7  C   UNL     1      38.838  34.940  18.429  1.00  0.00     0.002 A 
ATOM      8  C   UNL     1      39.704  34.362  17.534  1.00  0.00     0.002 A 
ATOM      9  C   UNL     1      39.376  34.285  16.209  1.00  0.00     0.028 A 
ATOM     10  C   UNL     1      38.168  34.795  15.792  1.00  0.00     0.068 A 
ATOM     11  N   UNL     1      37.766  34.761  14.479  1.00  0.00    -0.302 N 
ATOM     12  C   UNL     1      36.581  35.275  14.108  1.00  0.00     0.279 A 
ATOM     13  O   UNL     1      36.148  35.281  12.926  1.00  0.00    -0.267 OA
ATOM     14  C   UNL     1      35.744  35.846  15.045  1.00  0.00     0.158 A 
ENDROOT
BRANCH   1  15
ATOM     15  N   UNL     1      33.727  36.600  13.723  1.00  0.00    -0.200 N 
ATOM     16  C   UNL     1      32.534  38.367  10.782  1.00  0.00     0.070 C 
ATOM     17  C   UNL     1      32.846  37.421  11.893  1.00  0.00     0.080 A 
ATOM     18  C   UNL     1      33.705  37.684  12.927  1.00  0.00     0.142 A 
ATOM     19  N   UNL     1      32.363  36.194  12.075  1.00  0.00    -0.135 NA
ATOM     20  N   UNL     1      32.907  35.715  13.185  1.00  0.00    -0.061 NA
ENDBRANCH   1  15
BRANCH  11  21
ATOM     21  C   UNL     1      38.650  34.157  13.545  1.00  0.00     0.085 C 
ATOM     22  C   UNL     1      38.007  32.970  12.870  1.00  0.00     0.031 C 
ATOM     23  C   UNL     1      39.116  35.096  12.453  1.00  0.00     0.031 C 
ENDBRANCH  11  21
TORSDOF 2
BEGIN_RES LYS A 135
REMARK  4 active torsions:
REMARK  status: ('A' for Active; 'I' for Inactive)
REMARK    1  A    between atoms: CA   and  CB  
REMARK    2  A    between atoms: CB   and  CG  
REMARK    3  A    between atoms: CG   and  CD  
REMARK    4  A    between atoms: CD   and  CE  
ROOT
ATOM      1  CA  LYS A 135      33.193  34.663   9.290  1.00 25.02     0.186 C 
ENDROOT
BRANCH   1   2
ATOM      2  CB  LYS A 135      32.060  35.360  10.034  1.00 26.63     0.034 C 
BRANCH   2   3
ATOM      3  CG  LYS A 135      30.804  35.511   9.215  1.00 29.45     0.005 C 
BRANCH   3   4
ATOM      4  CD  LYS A 135      30.089  34.176   9.078  1.00 32.00     0.041 C 
BRANCH   4   5
ATOM      5  CE  LYS A 135      28.685  34.376   8.541  1.00 34.25     0.338 C 
ATOM      6  NZ  LYS A 135      27.672  33.768   9.448  1.00 35.99     0.618 N 
ENDBRANCH   4   5
ENDBRANCH   3   4
ENDBRANCH   2   3
ENDBRANCH   1   2
END_RES LYS A 135
BEGIN_RES TYR A 136
REMARK  2 active torsions:
REMARK  status: ('A' for Active; 'I' for Inactive)
REMARK    5  A    between atoms: CA   and  CB  
REMARK    6  A    between atoms: CB   and  CG  
ROOT
ATOM      7  CA  TYR A 136      36.583  36.399   8.994  1.00 26.14     0.191 C 
ENDROOT
BRANCH   7   8
ATOM      8  CB  TYR A 136      37.367  36.835  10.240  1.00 28.16     0.060 C 
BRANCH   8   9
ATOM      9  CG  TYR A 136      36.902  38.164  10.783  1.00 31.88    -0.020 A 
ATOM     10  CD2 TYR A 136      36.132  39.033  10.006  1.00 32.67    -0.002 A 
ATOM     11  CE2 TYR A 136      35.707  40.266  10.519  1.00 33.89     0.027 A 
ATOM     12  CZ  TYR A 136      36.055  40.633  11.821  1.00 34.34     0.131 A 
ATOM     13  OH  TYR A 136      35.638  41.846  12.352  1.00 35.14    -0.190 OA
ATOM     14  CE1 TYR A 136      36.820  39.782  12.606  1.00 35.01     0.027 A 
ATOM     15  CD1 TYR A 136      37.243  38.560  12.082  1.00 33.57    -0.002 A 
ENDBRANCH   8   9
ENDBRANCH   7   8
END_RES TYR A 136
BEGIN_RES ASN A 133
REMARK  2 active torsions:
REMARK  status: ('A' for Active; 'I' for Inactive)
REMARK    7  A    between atoms: CA   and  CB  
REMARK    8  A    between atoms: CB   and  CG  
ROOT
ATOM     16  CA  ASN A 133      31.225  30.257  11.749  1.00 18.15     0.196 C 
ENDROOT
BRANCH  16  17
ATOM     17  CB  ASN A 133      30.092  31.240  11.460  1.00 18.27     0.126 C 
BRANCH  17  18
ATOM     18  CG  ASN A 133      28.751  30.582  11.350  1.00 18.94     0.276 C 
ATOM     19  OD1 ASN A 133      28.583  29.593  10.635  1.00 18.09    -0.269 OA
ATOM     20  ND2 ASN A 133      27.772  31.133  12.066  1.00 18.93    -0.107 N 
ENDBRANCH  17  18
ENDBRANCH  16  17
END_RES ASN A 133
