REMARK VINA RESULT:    -3.244      7.774     12.173
REMARK INTER + INTRA:          -6.580
REMARK INTER:                  -3.433
REMARK INTRA:                  -3.147
REMARK UNBOUND:                -3.147
REMARK SMILES Cc1cn(-c2ccncc2)nn1
REMARK SMILES IDX 1 1 2 2 3 3 4 4 11 5 12 6 5 7 6 8 10 9 7 10 9 11 8 12
REMARK H PARENT
REMARK Flexibility Score: inf
ROOT
ATOM      1  C   UNL     1      30.389  31.289  16.513  1.00  0.00     0.070 C 
ATOM      2  C   UNL     1      30.673  32.397  15.580  1.00  0.00     0.080 A 
ATOM      3  C   UNL     1      31.798  33.210  15.523  1.00  0.00     0.140 A 
ATOM      4  N   UNL     1      31.647  34.091  14.523  1.00  0.00    -0.220 N 
ATOM      5  N   UNL     1      30.471  33.841  13.971  1.00  0.00    -0.062 NA
ATOM      6  N   UNL     1      29.874  32.832  14.591  1.00  0.00    -0.135 NA
ENDROOT
BRANCH   4   7
ATOM      7  C   UNL     1      32.585  35.093  14.145  1.00  0.00     0.069 A 
ATOM      8  C   UNL     1      32.603  35.582  12.850  1.00  0.00     0.048 A 
ATOM      9  C   UNL     1      33.507  35.621  15.018  1.00  0.00     0.048 A 
ATOM     10  C   UNL     1      33.508  36.544  12.496  1.00  0.00     0.113 A 
ATOM     11  C   UNL     1      34.417  36.589  14.658  1.00  0.00     0.113 A 
ATOM     12  N   UNL     1      34.382  37.021  13.388  1.00  0.00    -0.265 NA
ENDBRANCH   4   7
TORSDOF 1
BEGIN_RES LYS A 135
REMARK  4 active torsions:
REMARK  status: ('A' for Active; 'I' for Inactive)
REMARK    1  A    between atoms: CA   and  CB  
REMARK    2  A    between atoms: CB   and  CG  
REMARK    3  A    between atoms: CG   and  CD  
REMARK    4  A    between atoms: CD   and  CE  
ROOT
ATOM      1  CA  LYS A 135      33.193  34.663   9.290  1.00 25.02     0.186 C 
ENDROOT
BRANCH   1   2
ATOM      2  CB  LYS A 135      32.060  35.360  10.034  1.00 26.63     0.034 C 
BRANCH   2   3
ATOM      3  CG  LYS A 135      30.813  35.534   9.206  1.00 29.45     0.005 C 
BRANCH   3   4
ATOM      4  CD  LYS A 135      30.178  34.186   8.903  1.00 32.00     0.041 C 
BRANCH   4   5
ATOM      5  CE  LYS A 135      28.707  34.352   8.571  1.00 34.25     0.338 C 
ATOM      6  NZ  LYS A 135      27.848  33.718   9.610  1.00 35.99     0.618 N 
ENDBRANCH   4   5
ENDBRANCH   3   4
ENDBRANCH   2   3
ENDBRANCH   1   2
END_RES LYS A 135
BEGIN_RES TYR A 136
REMARK  2 active torsions:
REMARK  status: ('A' for Active; 'I' for Inactive)
REMARK    5  A    between atoms: CA   and  CB  
REMARK    6  A    between atoms: CB   and  CG  
ROOT
ATOM      7  CA  TYR A 136      36.583  36.399   8.994  1.00 26.14     0.191 C 
ENDROOT
BRANCH   7   8
ATOM      8  CB  TYR A 136      37.367  36.835  10.240  1.00 28.16     0.060 C 
BRANCH   8   9
ATOM      9  CG  TYR A 136      36.887  38.153  10.796  1.00 31.88    -0.020 A 
ATOM     10  CD2 TYR A 136      37.354  38.635  12.021  1.00 32.67    -0.002 A 
ATOM     11  CE2 TYR A 136      36.900  39.859  12.529  1.00 33.89     0.027 A 
ATOM     12  CZ  TYR A 136      35.970  40.609  11.805  1.00 34.34     0.131 A 
ATOM     13  OH  TYR A 136      35.512  41.828  12.286  1.00 35.14    -0.190 OA
ATOM     14  CE1 TYR A 136      35.494  40.145  10.588  1.00 35.01     0.027 A 
ATOM     15  CD1 TYR A 136      35.948  38.921  10.095  1.00 33.57    -0.002 A 
ENDBRANCH   8   9
ENDBRANCH   7   8
END_RES TYR A 136
BEGIN_RES ASN A 133
REMARK  2 active torsions:
REMARK  status: ('A' for Active; 'I' for Inactive)
REMARK    7  A    between atoms: CA   and  CB  
REMARK    8  A    between atoms: CB   and  CG  
ROOT
ATOM     16  CA  ASN A 133      31.225  30.257  11.749  1.00 18.15     0.196 C 
ENDROOT
BRANCH  16  17
ATOM     17  CB  ASN A 133      30.092  31.240  11.460  1.00 18.27     0.126 C 
BRANCH  17  18
ATOM     18  CG  ASN A 133      28.748  30.585  11.372  1.00 18.94     0.276 C 
ATOM     19  OD1 ASN A 133      28.560  29.611  10.641  1.00 18.09    -0.269 OA
ATOM     20  ND2 ASN A 133      27.789  31.121  12.125  1.00 18.93    -0.107 N 
ENDBRANCH  17  18
ENDBRANCH  16  17
END_RES ASN A 133
