REMARK VINA RESULT:    -3.751      8.190     15.305
REMARK INTER + INTRA:          -7.308
REMARK INTER:                  -4.138
REMARK INTRA:                  -3.170
REMARK UNBOUND:                -3.228
REMARK SMILES Cc1cn(-c2nc(C)nc(N)n2)nn1
REMARK SMILES IDX 5 1 12 2 10 3 9 4 7 5 8 6 6 7 4 8 1 9 2 10 3 11 14 12 13 13
REMARK SMILES IDX 11 14
REMARK H PARENT 11 15 11 16
REMARK Flexibility Score: inf
ROOT
ATOM      1  C   UNL     1      37.025  34.982  14.751  1.00  0.00     0.257 A 
ATOM      2  N   UNL     1      35.850  35.273  14.191  1.00  0.00    -0.175 NA
ATOM      3  C   UNL     1      35.488  34.675  13.051  1.00  0.00     0.225 A 
ATOM      4  N   UNL     1      36.310  33.781  12.475  1.00  0.00    -0.198 NA
ATOM      5  C   UNL     1      37.502  33.475  13.029  1.00  0.00     0.133 A 
ATOM      6  C   UNL     1      38.417  32.483  12.390  1.00  0.00     0.090 C 
ATOM      7  N   UNL     1      37.828  34.095  14.168  1.00  0.00    -0.196 NA
ENDROOT
BRANCH   1   8
ATOM      8  N   UNL     1      37.399  35.624  15.962  1.00  0.00    -0.185 N 
ATOM      9  C   UNL     1      38.181  38.407  18.193  1.00  0.00     0.070 C 
ATOM     10  C   UNL     1      37.915  37.130  17.506  1.00  0.00     0.080 A 
ATOM     11  C   UNL     1      37.542  36.946  16.199  1.00  0.00     0.144 A 
ATOM     12  N   UNL     1      37.995  35.910  18.041  1.00  0.00    -0.135 NA
ATOM     13  N   UNL     1      37.683  35.035  17.101  1.00  0.00    -0.059 NA
ENDBRANCH   1   8
BRANCH   3  14
ATOM     14  N   UNL     1      34.226  35.026  12.502  1.00  0.00    -0.368 N 
ATOM     15  H   UNL     1      33.348  34.663  12.927  1.00  0.00     0.159 HD
ATOM     16  H   UNL     1      34.152  35.649  11.673  1.00  0.00     0.159 HD
ENDBRANCH   3  14
TORSDOF 2
BEGIN_RES LYS A 135
REMARK  4 active torsions:
REMARK  status: ('A' for Active; 'I' for Inactive)
REMARK    1  A    between atoms: CA   and  CB  
REMARK    2  A    between atoms: CB   and  CG  
REMARK    3  A    between atoms: CG   and  CD  
REMARK    4  A    between atoms: CD   and  CE  
ROOT
ATOM      1  CA  LYS A 135      33.193  34.663   9.290  1.00 25.02     0.186 C 
ENDROOT
BRANCH   1   2
ATOM      2  CB  LYS A 135      32.060  35.360  10.034  1.00 26.63     0.034 C 
BRANCH   2   3
ATOM      3  CG  LYS A 135      30.810  35.526   9.209  1.00 29.45     0.005 C 
BRANCH   3   4
ATOM      4  CD  LYS A 135      30.151  34.179   8.956  1.00 32.00     0.041 C 
BRANCH   4   5
ATOM      5  CE  LYS A 135      28.683  34.359   8.618  1.00 34.25     0.338 C 
ATOM      6  NZ  LYS A 135      27.815  33.683   9.622  1.00 35.99     0.618 N 
ENDBRANCH   4   5
ENDBRANCH   3   4
ENDBRANCH   2   3
ENDBRANCH   1   2
END_RES LYS A 135
BEGIN_RES TYR A 136
REMARK  2 active torsions:
REMARK  status: ('A' for Active; 'I' for Inactive)
REMARK    5  A    between atoms: CA   and  CB  
REMARK    6  A    between atoms: CB   and  CG  
ROOT
ATOM      7  CA  TYR A 136      36.583  36.399   8.994  1.00 26.14     0.191 C 
ENDROOT
BRANCH   7   8
ATOM      8  CB  TYR A 136      37.367  36.835  10.240  1.00 28.16     0.060 C 
BRANCH   8   9
ATOM      9  CG  TYR A 136      36.915  38.173  10.771  1.00 31.88    -0.020 A 
ATOM     10  CD2 TYR A 136      36.326  38.289  12.032  1.00 32.67    -0.002 A 
ATOM     11  CE2 TYR A 136      35.908  39.537  12.515  1.00 33.89     0.027 A 
ATOM     12  CZ  TYR A 136      36.081  40.679  11.729  1.00 34.34     0.131 A 
ATOM     13  OH  TYR A 136      35.682  41.926  12.190  1.00 35.14    -0.190 OA
ATOM     14  CE1 TYR A 136      36.664  40.582  10.473  1.00 35.01     0.027 A 
ATOM     15  CD1 TYR A 136      37.070  39.333  10.000  1.00 33.57    -0.002 A 
ENDBRANCH   8   9
ENDBRANCH   7   8
END_RES TYR A 136
BEGIN_RES ASN A 133
REMARK  2 active torsions:
REMARK  status: ('A' for Active; 'I' for Inactive)
REMARK    7  A    between atoms: CA   and  CB  
REMARK    8  A    between atoms: CB   and  CG  
ROOT
ATOM     16  CA  ASN A 133      31.225  30.257  11.749  1.00 18.15     0.196 C 
ENDROOT
BRANCH  16  17
ATOM     17  CB  ASN A 133      30.092  31.240  11.460  1.00 18.27     0.126 C 
BRANCH  17  18
ATOM     18  CG  ASN A 133      28.750  30.583  11.361  1.00 18.94     0.276 C 
ATOM     19  OD1 ASN A 133      28.567  29.613  10.624  1.00 18.09    -0.269 OA
ATOM     20  ND2 ASN A 133      27.785  31.114  12.110  1.00 18.93    -0.107 N 
ENDBRANCH  17  18
ENDBRANCH  16  17
END_RES ASN A 133
