REMARK VINA RESULT:    -4.502      2.008      4.984
REMARK INTER + INTRA:         -10.640
REMARK INTER:                  -6.781
REMARK INTRA:                  -3.859
REMARK UNBOUND:                -4.164
REMARK SMILES Cc1cn(CC(=O)NCC(O)Cn2ccnc2[N+](=O)[O-])nn1
REMARK SMILES IDX 9 1 8 2 6 3 7 4 5 6 4 7 1 8 2 9 3 10 22 11 21 12 10 13 11 14
REMARK SMILES IDX 12 16 13 17 14 18 17 19 15 20 16 21 18 22 19 23 20 24
REMARK H PARENT 8 5 11 15
REMARK Flexibility Score: inf
ROOT
ATOM      1  C   UNL     1      38.093  32.850  12.847  1.00  0.00     0.151 C 
ENDROOT
BRANCH   1   2
ATOM      2  N   UNL     1      39.452  33.005  12.386  1.00  0.00    -0.352 N 
ATOM      3  C   UNL     1      40.412  33.898  12.929  1.00  0.00     0.241 C 
ATOM      4  O   UNL     1      40.096  34.625  13.894  1.00  0.00    -0.273 OA
ATOM      5  H   UNL     1      39.757  32.391  11.561  1.00  0.00     0.163 HD
BRANCH   3   6
ATOM      6  C   UNL     1      41.768  33.925  12.311  1.00  0.00     0.245 C 
BRANCH   6   7
ATOM      7  N   UNL     1      41.871  34.985  11.349  1.00  0.00    -0.243 N 
ATOM      8  C   UNL     1      40.939  37.982   9.481  1.00  0.00     0.070 C 
ATOM      9  C   UNL     1      41.530  36.757  10.098  1.00  0.00     0.080 A 
ATOM     10  C   UNL     1      41.010  35.989  11.104  1.00  0.00     0.134 A 
ATOM     11  N   UNL     1      42.702  36.202   9.748  1.00  0.00    -0.136 NA
ATOM     12  N   UNL     1      42.887  35.136  10.515  1.00  0.00    -0.067 NA
ENDBRANCH   6   7
ENDBRANCH   3   6
ENDBRANCH   1   2
BRANCH   1  13
ATOM     13  C   UNL     1      37.078  33.614  12.096  1.00  0.00     0.168 C 
BRANCH  13  14
ATOM     14  O   UNL     1      37.248  33.628  10.706  1.00  0.00    -0.388 OA
ATOM     15  H   UNL     1      37.790  34.370  10.400  1.00  0.00     0.211 HD
ENDBRANCH  13  14
BRANCH  13  16
ATOM     16  C   UNL     1      36.832  35.031  12.523  1.00  0.00     0.239 C 
BRANCH  16  17
ATOM     17  N   UNL     1      35.816  35.215  13.513  1.00  0.00    -0.227 N 
ATOM     18  C   UNL     1      34.463  35.099  13.289  1.00  0.00     0.204 A 
ATOM     19  C   UNL     1      36.036  35.573  14.784  1.00  0.00     0.434 A 
ATOM     20  C   UNL     1      33.848  35.403  14.476  1.00  0.00     0.245 A 
ATOM     21  N   UNL     1      34.787  35.685  15.366  1.00  0.00    -0.074 NA
BRANCH  19  22
ATOM     22  N   UNL     1      37.241  35.796  15.510  1.00  0.00    -0.047 N 
ATOM     23  O   UNL     1      37.750  34.956  16.253  1.00  0.00    -0.390 OA
ATOM     24  O   UNL     1      37.883  37.005  15.423  1.00  0.00    -0.390 OA
ENDBRANCH  19  22
ENDBRANCH  16  17
ENDBRANCH  13  16
ENDBRANCH   1  13
TORSDOF 8
BEGIN_RES LYS A 135
REMARK  4 active torsions:
REMARK  status: ('A' for Active; 'I' for Inactive)
REMARK    1  A    between atoms: CA   and  CB  
REMARK    2  A    between atoms: CB   and  CG  
REMARK    3  A    between atoms: CG   and  CD  
REMARK    4  A    between atoms: CD   and  CE  
ROOT
ATOM      1  CA  LYS A 135      33.193  34.663   9.290  1.00 25.02     0.186 C 
ENDROOT
BRANCH   1   2
ATOM      2  CB  LYS A 135      32.060  35.360  10.034  1.00 26.63     0.034 C 
BRANCH   2   3
ATOM      3  CG  LYS A 135      30.831  35.580   9.191  1.00 29.45     0.005 C 
BRANCH   3   4
ATOM      4  CD  LYS A 135      30.286  34.255   8.680  1.00 32.00     0.041 C 
BRANCH   4   5
ATOM      5  CE  LYS A 135      28.878  34.024   9.194  1.00 34.25     0.338 C 
ATOM      6  NZ  LYS A 135      27.870  34.654   8.298  1.00 35.99     0.618 N 
ENDBRANCH   4   5
ENDBRANCH   3   4
ENDBRANCH   2   3
ENDBRANCH   1   2
END_RES LYS A 135
BEGIN_RES TYR A 136
REMARK  2 active torsions:
REMARK  status: ('A' for Active; 'I' for Inactive)
REMARK    5  A    between atoms: CA   and  CB  
REMARK    6  A    between atoms: CB   and  CG  
ROOT
ATOM      7  CA  TYR A 136      36.583  36.399   8.994  1.00 26.14     0.191 C 
ENDROOT
BRANCH   7   8
ATOM      8  CB  TYR A 136      37.367  36.835  10.240  1.00 28.16     0.060 C 
BRANCH   8   9
ATOM      9  CG  TYR A 136      37.290  38.322  10.483  1.00 31.88    -0.020 A 
ATOM     10  CD2 TYR A 136      36.592  39.162   9.613  1.00 32.67    -0.002 A 
ATOM     11  CE2 TYR A 136      36.528  40.542   9.846  1.00 33.89     0.027 A 
ATOM     12  CZ  TYR A 136      37.170  41.088  10.961  1.00 34.34     0.131 A 
ATOM     13  OH  TYR A 136      37.114  42.451  11.216  1.00 35.14    -0.190 OA
ATOM     14  CE1 TYR A 136      37.869  40.269  11.835  1.00 35.01     0.027 A 
ATOM     15  CD1 TYR A 136      37.931  38.896  11.588  1.00 33.57    -0.002 A 
ENDBRANCH   8   9
ENDBRANCH   7   8
END_RES TYR A 136
BEGIN_RES ASN A 133
REMARK  2 active torsions:
REMARK  status: ('A' for Active; 'I' for Inactive)
REMARK    7  A    between atoms: CA   and  CB  
REMARK    8  A    between atoms: CB   and  CG  
ROOT
ATOM     16  CA  ASN A 133      31.225  30.257  11.749  1.00 18.15     0.196 C 
ENDROOT
BRANCH  16  17
ATOM     17  CB  ASN A 133      30.092  31.240  11.460  1.00 18.27     0.126 C 
BRANCH  17  18
ATOM     18  CG  ASN A 133      28.752  30.582  11.348  1.00 18.94     0.276 C 
ATOM     19  OD1 ASN A 133      28.584  29.594  10.630  1.00 18.09    -0.269 OA
ATOM     20  ND2 ASN A 133      27.771  31.130  12.065  1.00 18.93    -0.107 N 
ENDBRANCH  17  18
ENDBRANCH  16  17
END_RES ASN A 133
