REMARK VINA RESULT:    -4.422      7.699     12.220
REMARK INTER + INTRA:          -7.059
REMARK INTER:                  -3.885
REMARK INTRA:                  -3.174
REMARK UNBOUND:                -2.379
REMARK SMILES Cc1cn(-c2ccccc2)nn1
REMARK SMILES IDX 5 1 6 2 7 3 8 4 9 5 10 6 4 7 1 8 2 9 3 10 12 11 11 12
REMARK H PARENT
REMARK Flexibility Score: inf
ROOT
ATOM      1  C   UNL     1      37.917  37.616   3.744  1.00  0.00     0.066 A 
ATOM      2  C   UNL     1      36.872  38.000   4.561  1.00  0.00     0.028 A 
ATOM      3  C   UNL     1      35.651  38.378   4.057  1.00  0.00     0.002 A 
ATOM      4  C   UNL     1      35.417  38.391   2.696  1.00  0.00     0.000 A 
ATOM      5  C   UNL     1      36.460  38.008   1.878  1.00  0.00     0.002 A 
ATOM      6  C   UNL     1      37.687  37.628   2.386  1.00  0.00     0.028 A 
ENDROOT
BRANCH   1   7
ATOM      7  N   UNL     1      39.190  37.221   4.257  1.00  0.00    -0.220 N 
ATOM      8  C   UNL     1      41.911  34.834   4.875  1.00  0.00     0.070 C 
ATOM      9  C   UNL     1      40.991  36.001   4.778  1.00  0.00     0.080 A 
ATOM     10  C   UNL     1      39.746  36.000   4.155  1.00  0.00     0.140 A 
ATOM     11  N   UNL     1      41.136  37.250   5.240  1.00  0.00    -0.135 NA
ATOM     12  N   UNL     1      40.065  37.958   4.924  1.00  0.00    -0.062 NA
ENDBRANCH   1   7
TORSDOF 1
BEGIN_RES LYS A 135
REMARK  4 active torsions:
REMARK  status: ('A' for Active; 'I' for Inactive)
REMARK    1  A    between atoms: CA   and  CB  
REMARK    2  A    between atoms: CB   and  CG  
REMARK    3  A    between atoms: CG   and  CD  
REMARK    4  A    between atoms: CD   and  CE  
ROOT
ATOM      1  CA  LYS A 135      33.193  34.663   9.290  1.00 25.02     0.186 C 
ENDROOT
BRANCH   1   2
ATOM      2  CB  LYS A 135      32.060  35.360  10.034  1.00 26.63     0.034 C 
BRANCH   2   3
ATOM      3  CG  LYS A 135      30.815  35.539   9.204  1.00 29.45     0.005 C 
BRANCH   3   4
ATOM      4  CD  LYS A 135      30.152  34.198   8.935  1.00 32.00     0.041 C 
BRANCH   4   5
ATOM      5  CE  LYS A 135      28.683  34.386   8.606  1.00 34.25     0.338 C 
ATOM      6  NZ  LYS A 135      27.818  33.693   9.601  1.00 35.99     0.618 N 
ENDBRANCH   4   5
ENDBRANCH   3   4
ENDBRANCH   2   3
ENDBRANCH   1   2
END_RES LYS A 135
BEGIN_RES TYR A 136
REMARK  2 active torsions:
REMARK  status: ('A' for Active; 'I' for Inactive)
REMARK    5  A    between atoms: CA   and  CB  
REMARK    6  A    between atoms: CB   and  CG  
ROOT
ATOM      7  CA  TYR A 136      36.583  36.399   8.994  1.00 26.14     0.191 C 
ENDROOT
BRANCH   7   8
ATOM      8  CB  TYR A 136      37.367  36.835  10.240  1.00 28.16     0.060 C 
BRANCH   8   9
ATOM      9  CG  TYR A 136      37.405  38.334  10.406  1.00 31.88    -0.020 A 
ATOM     10  CD2 TYR A 136      36.661  39.173   9.574  1.00 32.67    -0.002 A 
ATOM     11  CE2 TYR A 136      36.704  40.565   9.736  1.00 33.89     0.027 A 
ATOM     12  CZ  TYR A 136      37.500  41.122  10.740  1.00 34.34     0.131 A 
ATOM     13  OH  TYR A 136      37.553  42.497  10.923  1.00 35.14    -0.190 OA
ATOM     14  CE1 TYR A 136      38.247  40.303  11.575  1.00 35.01     0.027 A 
ATOM     15  CD1 TYR A 136      38.200  38.919  11.400  1.00 33.57    -0.002 A 
ENDBRANCH   8   9
ENDBRANCH   7   8
END_RES TYR A 136
BEGIN_RES ASN A 133
REMARK  2 active torsions:
REMARK  status: ('A' for Active; 'I' for Inactive)
REMARK    7  A    between atoms: CA   and  CB  
REMARK    8  A    between atoms: CB   and  CG  
ROOT
ATOM     16  CA  ASN A 133      31.225  30.257  11.749  1.00 18.15     0.196 C 
ENDROOT
BRANCH  16  17
ATOM     17  CB  ASN A 133      30.092  31.240  11.460  1.00 18.27     0.126 C 
BRANCH  17  18
ATOM     18  CG  ASN A 133      28.755  30.579  11.329  1.00 18.94     0.276 C 
ATOM     19  OD1 ASN A 133      28.586  29.624  10.569  1.00 18.09    -0.269 OA
ATOM     20  ND2 ASN A 133      27.777  31.089  12.077  1.00 18.93    -0.107 N 
ENDBRANCH  17  18
ENDBRANCH  16  17
END_RES ASN A 133
