REMARK VINA RESULT:    -4.835      6.432     10.345
REMARK INTER + INTRA:          -9.300
REMARK INTER:                  -5.774
REMARK INTRA:                  -3.526
REMARK UNBOUND:                -3.335
REMARK SMILES Cc1cn(-c2ccc(S(=O)(=O)Nc3nccs3)cc2)nn1
REMARK SMILES IDX 9 1 10 2 11 3 8 4 5 5 6 6 19 7 7 8 18 9 4 10 1 11 2 12 3 13
REMARK SMILES IDX 21 14 20 15 12 16 13 18 14 19 17 20 15 21 16 22
REMARK H PARENT 12 17
REMARK Flexibility Score: inf
ROOT
ATOM      1  S   UNL     1      39.029  37.464   3.486  1.00  0.00     0.263 S 
ATOM      2  O   UNL     1      40.231  38.342   3.376  1.00  0.00    -0.201 OA
ATOM      3  O   UNL     1      39.451  36.138   4.087  1.00  0.00    -0.201 OA
ENDROOT
BRANCH   1   4
ATOM      4  C   UNL     1      37.922  38.230   4.605  1.00  0.00     0.088 A 
ATOM      5  C   UNL     1      36.283  39.505   6.384  1.00  0.00     0.066 A 
ATOM      6  C   UNL     1      37.567  39.942   6.206  1.00  0.00     0.030 A 
ATOM      7  C   UNL     1      35.821  38.434   5.674  1.00  0.00     0.030 A 
ATOM      8  C   UNL     1      38.405  39.321   5.323  1.00  0.00     0.024 A 
ATOM      9  C   UNL     1      36.643  37.798   4.785  1.00  0.00     0.024 A 
BRANCH   5  10
ATOM     10  N   UNL     1      35.472  40.225   7.338  1.00  0.00    -0.220 N 
ATOM     11  C   UNL     1      34.135  43.204   9.012  1.00  0.00     0.070 C 
ATOM     12  C   UNL     1      34.527  41.869   8.496  1.00  0.00     0.080 A 
ATOM     13  C   UNL     1      35.411  41.560   7.484  1.00  0.00     0.140 A 
ATOM     14  N   UNL     1      34.079  40.678   8.931  1.00  0.00    -0.135 NA
ATOM     15  N   UNL     1      34.653  39.717   8.231  1.00  0.00    -0.062 NA
ENDBRANCH   5  10
ENDBRANCH   1   4
BRANCH   1  16
ATOM     16  N   UNL     1      38.301  37.202   1.969  1.00  0.00    -0.255 N 
ATOM     17  H   UNL     1      38.252  36.208   1.613  1.00  0.00     0.182 HD
BRANCH  16  18
ATOM     18  C   UNL     1      37.778  38.300   1.208  1.00  0.00     0.196 A 
ATOM     19  N   UNL     1      36.886  38.993   1.162  1.00  0.00    -0.228 NA
ATOM     20  S   UNL     1      38.817  38.921  -0.251  1.00  0.00    -0.105 S 
ATOM     21  C   UNL     1      36.608  39.975   0.335  1.00  0.00     0.125 A 
ATOM     22  C   UNL     1      37.532  40.212  -0.629  1.00  0.00     0.089 A 
ENDBRANCH  16  18
ENDBRANCH   1  16
TORSDOF 4
BEGIN_RES LYS A 135
REMARK  4 active torsions:
REMARK  status: ('A' for Active; 'I' for Inactive)
REMARK    1  A    between atoms: CA   and  CB  
REMARK    2  A    between atoms: CB   and  CG  
REMARK    3  A    between atoms: CG   and  CD  
REMARK    4  A    between atoms: CD   and  CE  
ROOT
ATOM      1  CA  LYS A 135      33.193  34.663   9.290  1.00 25.02     0.186 C 
ENDROOT
BRANCH   1   2
ATOM      2  CB  LYS A 135      32.060  35.360  10.034  1.00 26.63     0.034 C 
BRANCH   2   3
ATOM      3  CG  LYS A 135      30.705  34.755   9.771  1.00 29.45     0.005 C 
BRANCH   3   4
ATOM      4  CD  LYS A 135      30.474  34.585   8.278  1.00 32.00     0.041 C 
BRANCH   4   5
ATOM      5  CE  LYS A 135      29.027  34.873   7.926  1.00 34.25     0.338 C 
ATOM      6  NZ  LYS A 135      28.922  35.581   6.621  1.00 35.99     0.618 N 
ENDBRANCH   4   5
ENDBRANCH   3   4
ENDBRANCH   2   3
ENDBRANCH   1   2
END_RES LYS A 135
BEGIN_RES TYR A 136
REMARK  2 active torsions:
REMARK  status: ('A' for Active; 'I' for Inactive)
REMARK    5  A    between atoms: CA   and  CB  
REMARK    6  A    between atoms: CB   and  CG  
ROOT
ATOM      7  CA  TYR A 136      36.583  36.399   8.994  1.00 26.14     0.191 C 
ENDROOT
BRANCH   7   8
ATOM      8  CB  TYR A 136      37.367  36.835  10.240  1.00 28.16     0.060 C 
BRANCH   8   9
ATOM      9  CG  TYR A 136      37.260  38.317  10.504  1.00 31.88    -0.020 A 
ATOM     10  CD2 TYR A 136      36.374  38.819  11.459  1.00 32.67    -0.002 A 
ATOM     11  CE2 TYR A 136      36.281  40.197  11.696  1.00 33.89     0.027 A 
ATOM     12  CZ  TYR A 136      37.081  41.081  10.969  1.00 34.34     0.131 A 
ATOM     13  OH  TYR A 136      37.011  42.450  11.191  1.00 35.14    -0.190 OA
ATOM     14  CE1 TYR A 136      37.967  40.600  10.015  1.00 35.01     0.027 A 
ATOM     15  CD1 TYR A 136      38.046  39.226   9.784  1.00 33.57    -0.002 A 
ENDBRANCH   8   9
ENDBRANCH   7   8
END_RES TYR A 136
BEGIN_RES ASN A 133
REMARK  2 active torsions:
REMARK  status: ('A' for Active; 'I' for Inactive)
REMARK    7  A    between atoms: CA   and  CB  
REMARK    8  A    between atoms: CB   and  CG  
ROOT
ATOM     16  CA  ASN A 133      31.225  30.257  11.749  1.00 18.15     0.196 C 
ENDROOT
BRANCH  16  17
ATOM     17  CB  ASN A 133      30.092  31.240  11.460  1.00 18.27     0.126 C 
BRANCH  17  18
ATOM     18  CG  ASN A 133      28.751  30.582  11.351  1.00 18.94     0.276 C 
ATOM     19  OD1 ASN A 133      28.576  29.610  10.614  1.00 18.09    -0.269 OA
ATOM     20  ND2 ASN A 133      27.779  31.114  12.091  1.00 18.93    -0.107 N 
ENDBRANCH  17  18
ENDBRANCH  16  17
END_RES ASN A 133
