REMARK VINA RESULT:    -4.954      3.632      7.749
REMARK INTER + INTRA:         -10.047
REMARK INTER:                  -6.569
REMARK INTRA:                  -3.479
REMARK UNBOUND:                -3.500
REMARK SMILES Cc1cn(CC(O)CCc2ccccc2)nn1
REMARK SMILES IDX 8 1 6 2 5 3 4 4 1 5 2 6 3 7 17 8 16 9 7 10 9 12 10 13 11 14
REMARK SMILES IDX 15 15 12 16 14 17 13 18
REMARK H PARENT 7 11
REMARK Flexibility Score: inf
ROOT
ATOM      1  C   UNL     1      33.712  35.474  14.540  1.00  0.00     0.038 C 
ENDROOT
BRANCH   1   2
ATOM      2  C   UNL     1      32.740  34.337  14.755  1.00  0.00     0.136 C 
BRANCH   2   3
ATOM      3  C   UNL     1      32.156  34.401  16.151  1.00  0.00     0.177 C 
BRANCH   3   4
ATOM      4  N   UNL     1      31.442  33.183  16.457  1.00  0.00    -0.250 N 
ATOM      5  C   UNL     1      29.610  30.948  18.706  1.00  0.00     0.070 C 
ATOM      6  C   UNL     1      30.321  31.676  17.606  1.00  0.00     0.080 A 
ATOM      7  C   UNL     1      30.923  32.903  17.675  1.00  0.00     0.134 A 
ATOM      8  N   UNL     1      30.484  31.233  16.354  1.00  0.00    -0.136 NA
ATOM      9  N   UNL     1      31.157  32.154  15.691  1.00  0.00    -0.067 NA
ENDBRANCH   3   4
ENDBRANCH   2   3
BRANCH   2  10
ATOM     10  O   UNL     1      31.780  34.349  13.775  1.00  0.00    -0.391 OA
ATOM     11  H   UNL     1      31.664  33.486  13.305  1.00  0.00     0.211 HD
ENDBRANCH   2  10
ENDBRANCH   1   2
BRANCH   1  12
ATOM     12  C   UNL     1      34.401  35.415  13.208  1.00  0.00     0.038 C 
BRANCH  12  13
ATOM     13  C   UNL     1      35.734  34.805  13.413  1.00  0.00    -0.048 A 
ATOM     14  C   UNL     1      36.195  33.876  12.494  1.00  0.00     0.004 A 
ATOM     15  C   UNL     1      36.550  35.113  14.477  1.00  0.00     0.004 A 
ATOM     16  C   UNL     1      37.435  33.293  12.661  1.00  0.00     0.000 A 
ATOM     17  C   UNL     1      37.790  34.524  14.637  1.00  0.00     0.000 A 
ATOM     18  C   UNL     1      38.257  33.599  13.727  1.00  0.00     0.000 A 
ENDBRANCH  12  13
ENDBRANCH   1  12
TORSDOF 6
BEGIN_RES LYS A 135
REMARK  4 active torsions:
REMARK  status: ('A' for Active; 'I' for Inactive)
REMARK    1  A    between atoms: CA   and  CB  
REMARK    2  A    between atoms: CB   and  CG  
REMARK    3  A    between atoms: CG   and  CD  
REMARK    4  A    between atoms: CD   and  CE  
ROOT
ATOM      1  CA  LYS A 135      33.193  34.663   9.290  1.00 25.02     0.186 C 
ENDROOT
BRANCH   1   2
ATOM      2  CB  LYS A 135      32.060  35.360  10.034  1.00 26.63     0.034 C 
BRANCH   2   3
ATOM      3  CG  LYS A 135      30.813  35.535   9.206  1.00 29.45     0.005 C 
BRANCH   3   4
ATOM      4  CD  LYS A 135      30.069  34.216   9.071  1.00 32.00     0.041 C 
BRANCH   4   5
ATOM      5  CE  LYS A 135      28.605  34.460   8.757  1.00 34.25     0.338 C 
ATOM      6  NZ  LYS A 135      27.725  33.612   9.608  1.00 35.99     0.618 N 
ENDBRANCH   4   5
ENDBRANCH   3   4
ENDBRANCH   2   3
ENDBRANCH   1   2
END_RES LYS A 135
BEGIN_RES TYR A 136
REMARK  2 active torsions:
REMARK  status: ('A' for Active; 'I' for Inactive)
REMARK    5  A    between atoms: CA   and  CB  
REMARK    6  A    between atoms: CB   and  CG  
ROOT
ATOM      7  CA  TYR A 136      36.583  36.399   8.994  1.00 26.14     0.191 C 
ENDROOT
BRANCH   7   8
ATOM      8  CB  TYR A 136      37.367  36.835  10.240  1.00 28.16     0.060 C 
BRANCH   8   9
ATOM      9  CG  TYR A 136      36.666  37.923  11.015  1.00 31.88    -0.020 A 
ATOM     10  CD2 TYR A 136      35.762  38.787  10.393  1.00 32.67    -0.002 A 
ATOM     11  CE2 TYR A 136      35.117  39.796  11.121  1.00 33.89     0.027 A 
ATOM     12  CZ  TYR A 136      35.380  39.942  12.485  1.00 34.34     0.131 A 
ATOM     13  OH  TYR A 136      34.748  40.930  13.228  1.00 35.14    -0.190 OA
ATOM     14  CE1 TYR A 136      36.276  39.094  13.120  1.00 35.01     0.027 A 
ATOM     15  CD1 TYR A 136      36.917  38.097  12.382  1.00 33.57    -0.002 A 
ENDBRANCH   8   9
ENDBRANCH   7   8
END_RES TYR A 136
BEGIN_RES ASN A 133
REMARK  2 active torsions:
REMARK  status: ('A' for Active; 'I' for Inactive)
REMARK    7  A    between atoms: CA   and  CB  
REMARK    8  A    between atoms: CB   and  CG  
ROOT
ATOM     16  CA  ASN A 133      31.225  30.257  11.749  1.00 18.15     0.196 C 
ENDROOT
BRANCH  16  17
ATOM     17  CB  ASN A 133      30.092  31.240  11.460  1.00 18.27     0.126 C 
BRANCH  17  18
ATOM     18  CG  ASN A 133      28.753  30.581  11.340  1.00 18.94     0.276 C 
ATOM     19  OD1 ASN A 133      28.569  29.647  10.556  1.00 18.09    -0.269 OA
ATOM     20  ND2 ASN A 133      27.791  31.067  12.124  1.00 18.93    -0.107 N 
ENDBRANCH  17  18
ENDBRANCH  16  17
END_RES ASN A 133
