REMARK VINA RESULT:    -4.329      0.000      0.000
REMARK INTER + INTRA:          -7.770
REMARK INTER:                  -4.682
REMARK INTRA:                  -3.088
REMARK UNBOUND:                -3.188
REMARK SMILES Cc1cn(-c2ccc(Cl)cc2)nn1
REMARK SMILES IDX 5 1 6 2 7 3 8 4 9 5 10 6 11 7 4 8 1 9 2 10 3 11 13 12 12 13
REMARK H PARENT
REMARK Flexibility Score: inf
ROOT
ATOM      1  C   UNL     1      32.091  33.990  15.447  1.00  0.00     0.066 A 
ATOM      2  C   UNL     1      31.974  34.441  16.746  1.00  0.00     0.030 A 
ATOM      3  C   UNL     1      31.334  33.741  17.734  1.00  0.00     0.023 A 
ATOM      4  C   UNL     1      30.763  32.507  17.437  1.00  0.00     0.041 A 
ATOM      5  Cl  UNL     1      29.936  31.589  18.683  1.00  0.00    -0.084 Cl
ATOM      6  C   UNL     1      30.869  32.034  16.136  1.00  0.00     0.023 A 
ATOM      7  C   UNL     1      31.521  32.764  15.161  1.00  0.00     0.030 A 
ENDROOT
BRANCH   1   8
ATOM      8  N   UNL     1      32.762  34.736  14.436  1.00  0.00    -0.220 N 
ATOM      9  C   UNL     1      32.991  37.316  11.828  1.00  0.00     0.070 C 
ATOM     10  C   UNL     1      33.149  36.228  12.820  1.00  0.00     0.080 A 
ATOM     11  C   UNL     1      32.209  35.735  13.698  1.00  0.00     0.140 A 
ATOM     12  N   UNL     1      34.262  35.513  13.044  1.00  0.00    -0.135 NA
ATOM     13  N   UNL     1      34.008  34.639  14.003  1.00  0.00    -0.062 NA
ENDBRANCH   1   8
TORSDOF 1
BEGIN_RES LYS A 135
REMARK  4 active torsions:
REMARK  status: ('A' for Active; 'I' for Inactive)
REMARK    1  A    between atoms: CA   and  CB  
REMARK    2  A    between atoms: CB   and  CG  
REMARK    3  A    between atoms: CG   and  CD  
REMARK    4  A    between atoms: CD   and  CE  
ROOT
ATOM      1  CA  LYS A 135      33.193  34.663   9.290  1.00 25.02     0.186 C 
ENDROOT
BRANCH   1   2
ATOM      2  CB  LYS A 135      32.060  35.360  10.034  1.00 26.63     0.034 C 
BRANCH   2   3
ATOM      3  CG  LYS A 135      30.728  34.670   9.887  1.00 29.45     0.005 C 
BRANCH   3   4
ATOM      4  CD  LYS A 135      30.349  34.543   8.420  1.00 32.00     0.041 C 
BRANCH   4   5
ATOM      5  CE  LYS A 135      28.841  34.547   8.257  1.00 34.25     0.338 C 
ATOM      6  NZ  LYS A 135      28.177  33.841   9.387  1.00 35.99     0.618 N 
ENDBRANCH   4   5
ENDBRANCH   3   4
ENDBRANCH   2   3
ENDBRANCH   1   2
END_RES LYS A 135
BEGIN_RES TYR A 136
REMARK  2 active torsions:
REMARK  status: ('A' for Active; 'I' for Inactive)
REMARK    5  A    between atoms: CA   and  CB  
REMARK    6  A    between atoms: CB   and  CG  
ROOT
ATOM      7  CA  TYR A 136      36.583  36.399   8.994  1.00 26.14     0.191 C 
ENDROOT
BRANCH   7   8
ATOM      8  CB  TYR A 136      37.367  36.835  10.240  1.00 28.16     0.060 C 
BRANCH   8   9
ATOM      9  CG  TYR A 136      36.728  38.004  10.948  1.00 31.88    -0.020 A 
ATOM     10  CD2 TYR A 136      36.733  38.096  12.341  1.00 32.67    -0.002 A 
ATOM     11  CE2 TYR A 136      36.135  39.186  12.989  1.00 33.89     0.027 A 
ATOM     12  CZ  TYR A 136      35.526  40.192  12.236  1.00 34.34     0.131 A 
ATOM     13  OH  TYR A 136      34.934  41.284  12.856  1.00 35.14    -0.190 OA
ATOM     14  CE1 TYR A 136      35.511  40.116  10.850  1.00 35.01     0.027 A 
ATOM     15  CD1 TYR A 136      36.104  39.023  10.217  1.00 33.57    -0.002 A 
ENDBRANCH   8   9
ENDBRANCH   7   8
END_RES TYR A 136
BEGIN_RES ASN A 133
REMARK  2 active torsions:
REMARK  status: ('A' for Active; 'I' for Inactive)
REMARK    7  A    between atoms: CA   and  CB  
REMARK    8  A    between atoms: CB   and  CG  
ROOT
ATOM     16  CA  ASN A 133      31.225  30.257  11.749  1.00 18.15     0.196 C 
ENDROOT
BRANCH  16  17
ATOM     17  CB  ASN A 133      30.092  31.240  11.460  1.00 18.27     0.126 C 
BRANCH  17  18
ATOM     18  CG  ASN A 133      28.752  30.582  11.350  1.00 18.94     0.276 C 
ATOM     19  OD1 ASN A 133      28.582  29.596  10.630  1.00 18.09    -0.269 OA
ATOM     20  ND2 ASN A 133      27.773  31.129  12.069  1.00 18.93    -0.107 N 
ENDBRANCH  17  18
ENDBRANCH  16  17
END_RES ASN A 133
