REMARK VINA RESULT:    -5.194      0.000      0.000
REMARK INTER + INTRA:          -7.493
REMARK INTER:                  -4.534
REMARK INTRA:                  -2.960
REMARK UNBOUND:                -1.996
REMARK SMILES Cc1cn(-c2ccccc2I)nn1
REMARK SMILES IDX 5 1 6 2 7 3 8 4 9 5 10 6 11 7 4 8 1 9 2 10 3 11 13 12 12 13
REMARK H PARENT
REMARK Flexibility Score: inf
ROOT
ATOM      1  C   UNL     1      35.840  34.672  13.421  1.00  0.00     0.080 A 
ATOM      2  C   UNL     1      36.284  33.782  12.465  1.00  0.00     0.029 A 
ATOM      3  C   UNL     1      37.588  33.311  12.444  1.00  0.00     0.002 A 
ATOM      4  C   UNL     1      38.494  33.739  13.410  1.00  0.00     0.001 A 
ATOM      5  C   UNL     1      38.067  34.631  14.375  1.00  0.00     0.017 A 
ATOM      6  C   UNL     1      36.765  35.083  14.373  1.00  0.00     0.039 A 
ATOM      7  I   UNL     1      36.148  36.444  15.862  1.00  0.00    -0.042 I 
ENDROOT
BRANCH   1   8
ATOM      8  N   UNL     1      34.491  35.147  13.427  1.00  0.00    -0.219 N 
ATOM      9  C   UNL     1      31.588  37.146  12.553  1.00  0.00     0.070 C 
ATOM     10  C   UNL     1      32.621  36.198  13.077  1.00  0.00     0.080 A 
ATOM     11  C   UNL     1      33.943  36.127  12.714  1.00  0.00     0.140 A 
ATOM     12  N   UNL     1      32.426  35.246  14.005  1.00  0.00    -0.135 NA
ATOM     13  N   UNL     1      33.554  34.626  14.202  1.00  0.00    -0.062 NA
ENDBRANCH   1   8
TORSDOF 1
BEGIN_RES LYS A 135
REMARK  4 active torsions:
REMARK  status: ('A' for Active; 'I' for Inactive)
REMARK    1  A    between atoms: CA   and  CB  
REMARK    2  A    between atoms: CB   and  CG  
REMARK    3  A    between atoms: CG   and  CD  
REMARK    4  A    between atoms: CD   and  CE  
ROOT
ATOM      1  CA  LYS A 135      33.193  34.663   9.290  1.00 25.02     0.186 C 
ENDROOT
BRANCH   1   2
ATOM      2  CB  LYS A 135      32.060  35.360  10.034  1.00 26.63     0.034 C 
BRANCH   2   3
ATOM      3  CG  LYS A 135      30.727  34.673   9.882  1.00 29.45     0.005 C 
BRANCH   3   4
ATOM      4  CD  LYS A 135      30.357  34.540   8.413  1.00 32.00     0.041 C 
BRANCH   4   5
ATOM      5  CE  LYS A 135      28.850  34.567   8.239  1.00 34.25     0.338 C 
ATOM      6  NZ  LYS A 135      28.167  33.881   9.371  1.00 35.99     0.618 N 
ENDBRANCH   4   5
ENDBRANCH   3   4
ENDBRANCH   2   3
ENDBRANCH   1   2
END_RES LYS A 135
BEGIN_RES TYR A 136
REMARK  2 active torsions:
REMARK  status: ('A' for Active; 'I' for Inactive)
REMARK    5  A    between atoms: CA   and  CB  
REMARK    6  A    between atoms: CB   and  CG  
ROOT
ATOM      7  CA  TYR A 136      36.583  36.399   8.994  1.00 26.14     0.191 C 
ENDROOT
BRANCH   7   8
ATOM      8  CB  TYR A 136      37.367  36.835  10.240  1.00 28.16     0.060 C 
BRANCH   8   9
ATOM      9  CG  TYR A 136      36.738  38.016  10.938  1.00 31.88    -0.020 A 
ATOM     10  CD2 TYR A 136      36.946  38.246  12.300  1.00 32.67    -0.002 A 
ATOM     11  CE2 TYR A 136      36.355  39.345  12.939  1.00 33.89     0.027 A 
ATOM     12  CZ  TYR A 136      35.548  40.220  12.209  1.00 34.34     0.131 A 
ATOM     13  OH  TYR A 136      34.959  41.319  12.819  1.00 35.14    -0.190 OA
ATOM     14  CE1 TYR A 136      35.329  40.006  10.855  1.00 35.01     0.027 A 
ATOM     15  CD1 TYR A 136      35.918  38.905  10.231  1.00 33.57    -0.002 A 
ENDBRANCH   8   9
ENDBRANCH   7   8
END_RES TYR A 136
BEGIN_RES ASN A 133
REMARK  2 active torsions:
REMARK  status: ('A' for Active; 'I' for Inactive)
REMARK    7  A    between atoms: CA   and  CB  
REMARK    8  A    between atoms: CB   and  CG  
ROOT
ATOM     16  CA  ASN A 133      31.225  30.257  11.749  1.00 18.15     0.196 C 
ENDROOT
BRANCH  16  17
ATOM     17  CB  ASN A 133      30.092  31.240  11.460  1.00 18.27     0.126 C 
BRANCH  17  18
ATOM     18  CG  ASN A 133      28.755  30.579  11.324  1.00 18.94     0.276 C 
ATOM     19  OD1 ASN A 133      28.600  29.596  10.597  1.00 18.09    -0.269 OA
ATOM     20  ND2 ASN A 133      27.763  31.120  12.030  1.00 18.93    -0.107 N 
ENDBRANCH  17  18
ENDBRANCH  16  17
END_RES ASN A 133
