REMARK VINA RESULT:    -6.596      1.590      2.679
REMARK INTER + INTRA:          -9.520
REMARK INTER:                  -5.964
REMARK INTRA:                  -3.556
REMARK UNBOUND:                -1.768
REMARK SMILES Cc1cn(C(C)(C)C(=O)c2c[nH]c3ccccc23)nn1
REMARK SMILES IDX 5 1 6 2 7 3 4 4 1 5 2 6 3 7 20 8 19 9 8 10 9 11 10 12 11 13
REMARK SMILES IDX 18 14 12 15 13 16 17 17 14 19 16 20 15 21
REMARK H PARENT 12 18
REMARK Flexibility Score: inf
ROOT
ATOM      1  C   UNL     1      39.425  35.549  13.675  1.00  0.00     0.122 C 
ATOM      2  C   UNL     1      40.830  35.135  14.135  1.00  0.00     0.046 C 
ATOM      3  C   UNL     1      39.355  35.628  12.180  1.00  0.00     0.046 C 
ENDROOT
BRANCH   1   4
ATOM      4  N   UNL     1      39.282  36.922  14.188  1.00  0.00    -0.239 N 
ATOM      5  C   UNL     1      38.989  40.576  13.977  1.00  0.00     0.070 C 
ATOM      6  C   UNL     1      39.089  39.127  14.357  1.00  0.00     0.080 A 
ATOM      7  C   UNL     1      39.226  38.066  13.482  1.00  0.00     0.135 A 
ATOM      8  N   UNL     1      39.065  38.580  15.579  1.00  0.00    -0.136 NA
ATOM      9  N   UNL     1      39.181  37.275  15.453  1.00  0.00    -0.066 NA
ENDBRANCH   1   4
BRANCH   1  10
ATOM     10  C   UNL     1      38.468  34.642  14.299  1.00  0.00     0.192 C 
ATOM     11  O   UNL     1      38.735  33.918  15.311  1.00  0.00    -0.291 OA
BRANCH  10  12
ATOM     12  C   UNL     1      37.121  34.530  13.756  1.00  0.00     0.045 A 
ATOM     13  C   UNL     1      36.706  33.644  12.754  1.00  0.00     0.095 A 
ATOM     14  C   UNL     1      36.001  35.263  14.077  1.00  0.00     0.010 A 
ATOM     15  N   UNL     1      35.409  33.840  12.492  1.00  0.00    -0.360 N 
ATOM     16  C   UNL     1      34.944  34.831  13.290  1.00  0.00     0.046 A 
ATOM     17  C   UNL     1      35.748  36.262  14.968  1.00  0.00     0.011 A 
ATOM     18  H   UNL     1      34.806  33.329  11.787  1.00  0.00     0.166 HD
ATOM     19  C   UNL     1      33.684  35.375  13.386  1.00  0.00     0.027 A 
ATOM     20  C   UNL     1      34.483  36.830  15.087  1.00  0.00     0.001 A 
ATOM     21  C   UNL     1      33.468  36.375  14.290  1.00  0.00     0.002 A 
ENDBRANCH  10  12
ENDBRANCH   1  10
TORSDOF 3
BEGIN_RES LYS A 135
REMARK  4 active torsions:
REMARK  status: ('A' for Active; 'I' for Inactive)
REMARK    1  A    between atoms: CA   and  CB  
REMARK    2  A    between atoms: CB   and  CG  
REMARK    3  A    between atoms: CG   and  CD  
REMARK    4  A    between atoms: CD   and  CE  
ROOT
ATOM      1  CA  LYS A 135      33.193  34.663   9.290  1.00 25.02     0.186 C 
ENDROOT
BRANCH   1   2
ATOM      2  CB  LYS A 135      32.060  35.360  10.034  1.00 26.63     0.034 C 
BRANCH   2   3
ATOM      3  CG  LYS A 135      30.845  35.614   9.180  1.00 29.45     0.005 C 
BRANCH   3   4
ATOM      4  CD  LYS A 135      30.164  34.304   8.813  1.00 32.00     0.041 C 
BRANCH   4   5
ATOM      5  CE  LYS A 135      28.761  34.559   8.297  1.00 34.25     0.338 C 
ATOM      6  NZ  LYS A 135      28.787  35.376   7.053  1.00 35.99     0.618 N 
ENDBRANCH   4   5
ENDBRANCH   3   4
ENDBRANCH   2   3
ENDBRANCH   1   2
END_RES LYS A 135
BEGIN_RES TYR A 136
REMARK  2 active torsions:
REMARK  status: ('A' for Active; 'I' for Inactive)
REMARK    5  A    between atoms: CA   and  CB  
REMARK    6  A    between atoms: CB   and  CG  
ROOT
ATOM      7  CA  TYR A 136      36.583  36.399   8.994  1.00 26.14     0.191 C 
ENDROOT
BRANCH   7   8
ATOM      8  CB  TYR A 136      37.367  36.835  10.240  1.00 28.16     0.060 C 
BRANCH   8   9
ATOM      9  CG  TYR A 136      36.870  38.141  10.810  1.00 31.88    -0.020 A 
ATOM     10  CD2 TYR A 136      35.895  38.169  11.810  1.00 32.67    -0.002 A 
ATOM     11  CE2 TYR A 136      35.440  39.387  12.332  1.00 33.89     0.027 A 
ATOM     12  CZ  TYR A 136      35.964  40.588  11.849  1.00 34.34     0.131 A 
ATOM     13  OH  TYR A 136      35.533  41.806  12.356  1.00 35.14    -0.190 OA
ATOM     14  CE1 TYR A 136      36.933  40.579  10.856  1.00 35.01     0.027 A 
ATOM     15  CD1 TYR A 136      37.374  39.360  10.339  1.00 33.57    -0.002 A 
ENDBRANCH   8   9
ENDBRANCH   7   8
END_RES TYR A 136
BEGIN_RES ASN A 133
REMARK  2 active torsions:
REMARK  status: ('A' for Active; 'I' for Inactive)
REMARK    7  A    between atoms: CA   and  CB  
REMARK    8  A    between atoms: CB   and  CG  
ROOT
ATOM     16  CA  ASN A 133      31.225  30.257  11.749  1.00 18.15     0.196 C 
ENDROOT
BRANCH  16  17
ATOM     17  CB  ASN A 133      30.092  31.240  11.460  1.00 18.27     0.126 C 
BRANCH  17  18
ATOM     18  CG  ASN A 133      28.755  30.579  11.324  1.00 18.94     0.276 C 
ATOM     19  OD1 ASN A 133      28.594  29.615  10.573  1.00 18.09    -0.269 OA
ATOM     20  ND2 ASN A 133      27.771  31.098  12.057  1.00 18.93    -0.107 N 
ENDBRANCH  17  18
ENDBRANCH  16  17
END_RES ASN A 133
