REMARK VINA RESULT:    -5.910      4.112      6.581
REMARK INTER + INTRA:          -8.661
REMARK INTER:                  -5.302
REMARK INTRA:                  -3.359
REMARK UNBOUND:                -1.368
REMARK SMILES Cc1cn(COCc2ccccc2)nn1
REMARK SMILES IDX 6 1 5 2 4 3 1 4 2 5 3 6 15 7 14 8 7 9 8 10 9 11 13 12 10 13
REMARK SMILES IDX 12 14 11 15
REMARK H PARENT
REMARK Flexibility Score: inf
ROOT
ATOM      1  O   UNL     1      24.898  32.313  14.819  1.00  0.00    -0.355 OA
ENDROOT
BRANCH   1   2
ATOM      2  C   UNL     1      26.088  33.033  14.904  1.00  0.00     0.307 C 
BRANCH   2   3
ATOM      3  N   UNL     1      27.214  32.226  15.248  1.00  0.00    -0.226 N 
ATOM      4  C   UNL     1      30.680  31.591  16.110  1.00  0.00     0.070 C 
ATOM      5  C   UNL     1      29.246  31.582  15.781  1.00  0.00     0.080 A 
ATOM      6  C   UNL     1      28.458  32.665  15.486  1.00  0.00     0.137 A 
ATOM      7  N   UNL     1      28.449  30.504  15.714  1.00  0.00    -0.136 NA
ATOM      8  N   UNL     1      27.243  30.915  15.394  1.00  0.00    -0.065 NA
ENDBRANCH   2   3
ENDBRANCH   1   2
BRANCH   1   9
ATOM      9  C   UNL     1      24.379  32.516  13.548  1.00  0.00     0.198 C 
BRANCH   9  10
ATOM     10  C   UNL     1      23.524  31.365  13.123  1.00  0.00    -0.022 A 
ATOM     11  C   UNL     1      22.198  31.493  12.815  1.00  0.00     0.006 A 
ATOM     12  C   UNL     1      24.127  30.134  13.049  1.00  0.00     0.006 A 
ATOM     13  C   UNL     1      21.489  30.373  12.433  1.00  0.00     0.000 A 
ATOM     14  C   UNL     1      23.414  29.004  12.664  1.00  0.00     0.000 A 
ATOM     15  C   UNL     1      22.073  29.121  12.349  1.00  0.00     0.000 A 
ENDBRANCH   9  10
ENDBRANCH   1   9
TORSDOF 4
BEGIN_RES LYS A 135
REMARK  4 active torsions:
REMARK  status: ('A' for Active; 'I' for Inactive)
REMARK    1  A    between atoms: CA   and  CB  
REMARK    2  A    between atoms: CB   and  CG  
REMARK    3  A    between atoms: CG   and  CD  
REMARK    4  A    between atoms: CD   and  CE  
ROOT
ATOM      1  CA  LYS A 135      33.193  34.663   9.290  1.00 25.02     0.186 C 
ENDROOT
BRANCH   1   2
ATOM      2  CB  LYS A 135      32.060  35.360  10.034  1.00 26.63     0.034 C 
BRANCH   2   3
ATOM      3  CG  LYS A 135      30.733  34.659   9.904  1.00 29.45     0.005 C 
BRANCH   3   4
ATOM      4  CD  LYS A 135      30.328  34.543   8.443  1.00 32.00     0.041 C 
BRANCH   4   5
ATOM      5  CE  LYS A 135      28.817  34.531   8.308  1.00 34.25     0.338 C 
ATOM      6  NZ  LYS A 135      28.182  33.826   9.456  1.00 35.99     0.618 N 
ENDBRANCH   4   5
ENDBRANCH   3   4
ENDBRANCH   2   3
ENDBRANCH   1   2
END_RES LYS A 135
BEGIN_RES TYR A 136
REMARK  2 active torsions:
REMARK  status: ('A' for Active; 'I' for Inactive)
REMARK    5  A    between atoms: CA   and  CB  
REMARK    6  A    between atoms: CB   and  CG  
ROOT
ATOM      7  CA  TYR A 136      36.583  36.399   8.994  1.00 26.14     0.191 C 
ENDROOT
BRANCH   7   8
ATOM      8  CB  TYR A 136      37.367  36.835  10.240  1.00 28.16     0.060 C 
BRANCH   8   9
ATOM      9  CG  TYR A 136      37.197  38.302  10.548  1.00 31.88    -0.020 A 
ATOM     10  CD2 TYR A 136      37.608  38.836  11.772  1.00 32.67    -0.002 A 
ATOM     11  CE2 TYR A 136      37.444  40.200  12.049  1.00 33.89     0.027 A 
ATOM     12  CZ  TYR A 136      36.863  41.038  11.094  1.00 34.34     0.131 A 
ATOM     13  OH  TYR A 136      36.697  42.393  11.344  1.00 35.14    -0.190 OA
ATOM     14  CE1 TYR A 136      36.447  40.524   9.874  1.00 35.01     0.027 A 
ATOM     15  CD1 TYR A 136      36.610  39.162   9.611  1.00 33.57    -0.002 A 
ENDBRANCH   8   9
ENDBRANCH   7   8
END_RES TYR A 136
BEGIN_RES ASN A 133
REMARK  2 active torsions:
REMARK  status: ('A' for Active; 'I' for Inactive)
REMARK    7  A    between atoms: CA   and  CB  
REMARK    8  A    between atoms: CB   and  CG  
ROOT
ATOM     16  CA  ASN A 133      31.225  30.257  11.749  1.00 18.15     0.196 C 
ENDROOT
BRANCH  16  17
ATOM     17  CB  ASN A 133      30.092  31.240  11.460  1.00 18.27     0.126 C 
BRANCH  17  18
ATOM     18  CG  ASN A 133      28.761  30.575  11.290  1.00 18.94     0.276 C 
ATOM     19  OD1 ASN A 133      28.629  29.585  10.569  1.00 18.09    -0.269 OA
ATOM     20  ND2 ASN A 133      27.747  31.122  11.961  1.00 18.93    -0.107 N 
ENDBRANCH  17  18
ENDBRANCH  16  17
END_RES ASN A 133
