REMARK VINA RESULT:    -6.196      1.935      4.619
REMARK INTER + INTRA:          -9.525
REMARK INTER:                  -6.239
REMARK INTRA:                  -3.286
REMARK UNBOUND:                -1.880
REMARK SMILES Cc1cn(C(C)CC(=O)c2ccccc2)nn1
REMARK SMILES IDX 7 1 5 2 6 3 4 4 1 5 2 6 3 7 17 8 16 9 8 10 9 11 10 12 11 13
REMARK SMILES IDX 15 14 12 15 14 16 13 17
REMARK H PARENT
REMARK Flexibility Score: inf
ROOT
ATOM      1  C   UNL     1      33.828  35.325  14.951  1.00  0.00     0.108 C 
ENDROOT
BRANCH   1   2
ATOM      2  C   UNL     1      32.400  35.730  14.955  1.00  0.00     0.114 C 
ATOM      3  C   UNL     1      31.963  36.586  16.075  1.00  0.00     0.034 C 
BRANCH   2   4
ATOM      4  N   UNL     1      31.586  34.530  14.871  1.00  0.00    -0.249 N 
ATOM      5  C   UNL     1      30.573  31.309  16.206  1.00  0.00     0.070 C 
ATOM      6  C   UNL     1      30.771  32.548  15.438  1.00  0.00     0.080 A 
ATOM      7  C   UNL     1      31.659  33.547  15.787  1.00  0.00     0.134 A 
ATOM      8  N   UNL     1      30.183  32.971  14.304  1.00  0.00    -0.136 NA
ATOM      9  N   UNL     1      30.692  34.159  13.992  1.00  0.00    -0.067 NA
ENDBRANCH   2   4
ENDBRANCH   1   2
BRANCH   1  10
ATOM     10  C   UNL     1      34.476  35.341  13.632  1.00  0.00     0.164 C 
ATOM     11  O   UNL     1      33.989  35.853  12.606  1.00  0.00    -0.294 OA
BRANCH  10  12
ATOM     12  C   UNL     1      35.786  34.710  13.516  1.00  0.00     0.018 A 
ATOM     13  C   UNL     1      36.772  34.871  14.485  1.00  0.00     0.012 A 
ATOM     14  C   UNL     1      36.139  33.908  12.438  1.00  0.00     0.012 A 
ATOM     15  C   UNL     1      38.014  34.279  14.384  1.00  0.00     0.001 A 
ATOM     16  C   UNL     1      37.350  33.307  12.300  1.00  0.00     0.001 A 
ATOM     17  C   UNL     1      38.299  33.489  13.278  1.00  0.00     0.000 A 
ENDBRANCH  10  12
ENDBRANCH   1  10
TORSDOF 4
BEGIN_RES LYS A 135
REMARK  4 active torsions:
REMARK  status: ('A' for Active; 'I' for Inactive)
REMARK    1  A    between atoms: CA   and  CB  
REMARK    2  A    between atoms: CB   and  CG  
REMARK    3  A    between atoms: CG   and  CD  
REMARK    4  A    between atoms: CD   and  CE  
ROOT
ATOM      1  CA  LYS A 135      33.193  34.663   9.290  1.00 25.02     0.186 C 
ENDROOT
BRANCH   1   2
ATOM      2  CB  LYS A 135      32.060  35.360  10.034  1.00 26.63     0.034 C 
BRANCH   2   3
ATOM      3  CG  LYS A 135      30.827  35.570   9.194  1.00 29.45     0.005 C 
BRANCH   3   4
ATOM      4  CD  LYS A 135      30.137  34.245   8.912  1.00 32.00     0.041 C 
BRANCH   4   5
ATOM      5  CE  LYS A 135      28.748  34.476   8.348  1.00 34.25     0.338 C 
ATOM      6  NZ  LYS A 135      28.799  35.337   7.133  1.00 35.99     0.618 N 
ENDBRANCH   4   5
ENDBRANCH   3   4
ENDBRANCH   2   3
ENDBRANCH   1   2
END_RES LYS A 135
BEGIN_RES TYR A 136
REMARK  2 active torsions:
REMARK  status: ('A' for Active; 'I' for Inactive)
REMARK    5  A    between atoms: CA   and  CB  
REMARK    6  A    between atoms: CB   and  CG  
ROOT
ATOM      7  CA  TYR A 136      36.583  36.399   8.994  1.00 26.14     0.191 C 
ENDROOT
BRANCH   7   8
ATOM      8  CB  TYR A 136      37.367  36.835  10.240  1.00 28.16     0.060 C 
BRANCH   8   9
ATOM      9  CG  TYR A 136      36.625  37.859  11.064  1.00 31.88    -0.020 A 
ATOM     10  CD2 TYR A 136      35.716  38.740  10.474  1.00 32.67    -0.002 A 
ATOM     11  CE2 TYR A 136      35.033  39.689  11.248  1.00 33.89     0.027 A 
ATOM     12  CZ  TYR A 136      35.262  39.756  12.624  1.00 34.34     0.131 A 
ATOM     13  OH  TYR A 136      34.592  40.682  13.411  1.00 35.14    -0.190 OA
ATOM     14  CE1 TYR A 136      36.163  38.889  13.226  1.00 35.01     0.027 A 
ATOM     15  CD1 TYR A 136      36.842  37.953  12.444  1.00 33.57    -0.002 A 
ENDBRANCH   8   9
ENDBRANCH   7   8
END_RES TYR A 136
BEGIN_RES ASN A 133
REMARK  2 active torsions:
REMARK  status: ('A' for Active; 'I' for Inactive)
REMARK    7  A    between atoms: CA   and  CB  
REMARK    8  A    between atoms: CB   and  CG  
ROOT
ATOM     16  CA  ASN A 133      31.225  30.257  11.749  1.00 18.15     0.196 C 
ENDROOT
BRANCH  16  17
ATOM     17  CB  ASN A 133      30.092  31.240  11.460  1.00 18.27     0.126 C 
BRANCH  17  18
ATOM     18  CG  ASN A 133      28.749  30.584  11.365  1.00 18.94     0.276 C 
ATOM     19  OD1 ASN A 133      28.566  29.609  10.633  1.00 18.09    -0.269 OA
ATOM     20  ND2 ASN A 133      27.785  31.120  12.112  1.00 18.93    -0.107 N 
ENDBRANCH  17  18
ENDBRANCH  16  17
END_RES ASN A 133
