REMARK VINA RESULT:    -5.400      4.087      6.607
REMARK INTER + INTRA:         -11.080
REMARK INTER:                  -7.064
REMARK INTRA:                  -4.016
REMARK UNBOUND:                -3.628
REMARK SMILES Cc1cn(C[C@@H](C(=O)O)C(c2ccccc2)c2ccccc2)nn1
REMARK SMILES IDX 6 1 5 2 4 3 1 4 2 5 3 6 24 7 23 8 7 9 8 10 9 11 10 13 11 14
REMARK SMILES IDX 12 15 16 16 13 17 15 18 14 19 17 20 18 21 22 22 19 23 21 24
REMARK SMILES IDX 20 25
REMARK H PARENT 9 12
REMARK Flexibility Score: inf
ROOT
ATOM      1  C   UNL     1      38.027  34.836  13.157  1.00  0.00     0.132 C 
ENDROOT
BRANCH   1   2
ATOM      2  C   UNL     1      39.371  34.604  13.766  1.00  0.00     0.162 C 
BRANCH   2   3
ATOM      3  N   UNL     1      40.414  34.628  12.769  1.00  0.00    -0.251 N 
ATOM      4  C   UNL     1      42.436  36.199  10.162  1.00  0.00     0.070 C 
ATOM      5  C   UNL     1      41.728  35.388  11.197  1.00  0.00     0.080 A 
ATOM      6  C   UNL     1      40.691  35.720  12.005  1.00  0.00     0.134 A 
ATOM      7  N   UNL     1      42.060  34.114  11.480  1.00  0.00    -0.136 NA
ATOM      8  N   UNL     1      41.266  33.678  12.420  1.00  0.00    -0.067 NA
ENDBRANCH   2   3
ENDBRANCH   1   2
BRANCH   1   9
ATOM      9  C   UNL     1      37.626  33.717  12.302  1.00  0.00     0.309 C 
ATOM     10  O   UNL     1      37.618  32.551  12.787  1.00  0.00    -0.252 OA
BRANCH   9  11
ATOM     11  O   UNL     1      37.250  33.907  10.964  1.00  0.00    -0.481 OA
ATOM     12  H   UNL     1      36.737  34.775  10.747  1.00  0.00     0.296 HD
ENDBRANCH   9  11
ENDBRANCH   1   9
BRANCH   1  13
ATOM     13  C   UNL     1      36.992  34.971  14.272  1.00  0.00     0.065 C 
BRANCH  13  14
ATOM     14  C   UNL     1      37.456  35.870  15.364  1.00  0.00    -0.040 A 
ATOM     15  C   UNL     1      38.011  37.111  15.159  1.00  0.00     0.004 A 
ATOM     16  C   UNL     1      37.308  35.402  16.666  1.00  0.00     0.004 A 
ATOM     17  C   UNL     1      38.410  37.866  16.250  1.00  0.00     0.000 A 
ATOM     18  C   UNL     1      37.717  36.180  17.736  1.00  0.00     0.000 A 
ATOM     19  C   UNL     1      38.266  37.410  17.533  1.00  0.00     0.000 A 
ENDBRANCH  13  14
BRANCH  13  20
ATOM     20  C   UNL     1      35.711  35.455  13.702  1.00  0.00    -0.040 A 
ATOM     21  C   UNL     1      35.659  36.642  12.999  1.00  0.00     0.004 A 
ATOM     22  C   UNL     1      34.544  34.738  13.841  1.00  0.00     0.004 A 
ATOM     23  C   UNL     1      34.516  37.148  12.433  1.00  0.00     0.000 A 
ATOM     24  C   UNL     1      33.371  35.224  13.280  1.00  0.00     0.000 A 
ATOM     25  C   UNL     1      33.358  36.397  12.595  1.00  0.00     0.000 A 
ENDBRANCH  13  20
ENDBRANCH   1  13
TORSDOF 7
BEGIN_RES LYS A 135
REMARK  4 active torsions:
REMARK  status: ('A' for Active; 'I' for Inactive)
REMARK    1  A    between atoms: CA   and  CB  
REMARK    2  A    between atoms: CB   and  CG  
REMARK    3  A    between atoms: CG   and  CD  
REMARK    4  A    between atoms: CD   and  CE  
ROOT
ATOM      1  CA  LYS A 135      33.193  34.663   9.290  1.00 25.02     0.186 C 
ENDROOT
BRANCH   1   2
ATOM      2  CB  LYS A 135      32.060  35.360  10.034  1.00 26.63     0.034 C 
BRANCH   2   3
ATOM      3  CG  LYS A 135      30.732  34.660   9.901  1.00 29.45     0.005 C 
BRANCH   3   4
ATOM      4  CD  LYS A 135      30.324  34.556   8.440  1.00 32.00     0.041 C 
BRANCH   4   5
ATOM      5  CE  LYS A 135      28.813  34.534   8.309  1.00 34.25     0.338 C 
ATOM      6  NZ  LYS A 135      28.186  33.820   9.455  1.00 35.99     0.618 N 
ENDBRANCH   4   5
ENDBRANCH   3   4
ENDBRANCH   2   3
ENDBRANCH   1   2
END_RES LYS A 135
BEGIN_RES TYR A 136
REMARK  2 active torsions:
REMARK  status: ('A' for Active; 'I' for Inactive)
REMARK    5  A    between atoms: CA   and  CB  
REMARK    6  A    between atoms: CB   and  CG  
ROOT
ATOM      7  CA  TYR A 136      36.583  36.399   8.994  1.00 26.14     0.191 C 
ENDROOT
BRANCH   7   8
ATOM      8  CB  TYR A 136      37.367  36.835  10.240  1.00 28.16     0.060 C 
BRANCH   8   9
ATOM      9  CG  TYR A 136      37.336  38.329  10.452  1.00 31.88    -0.020 A 
ATOM     10  CD2 TYR A 136      38.153  38.941  11.405  1.00 32.67    -0.002 A 
ATOM     11  CE2 TYR A 136      38.115  40.329  11.595  1.00 33.89     0.027 A 
ATOM     12  CZ  TYR A 136      37.252  41.112  10.825  1.00 34.34     0.131 A 
ATOM     13  OH  TYR A 136      37.203  42.489  10.991  1.00 35.14    -0.190 OA
ATOM     14  CE1 TYR A 136      36.432  40.520   9.874  1.00 35.01     0.027 A 
ATOM     15  CD1 TYR A 136      36.474  39.136   9.698  1.00 33.57    -0.002 A 
ENDBRANCH   8   9
ENDBRANCH   7   8
END_RES TYR A 136
BEGIN_RES ASN A 133
REMARK  2 active torsions:
REMARK  status: ('A' for Active; 'I' for Inactive)
REMARK    7  A    between atoms: CA   and  CB  
REMARK    8  A    between atoms: CB   and  CG  
ROOT
ATOM     16  CA  ASN A 133      31.225  30.257  11.749  1.00 18.15     0.196 C 
ENDROOT
BRANCH  16  17
ATOM     17  CB  ASN A 133      30.092  31.240  11.460  1.00 18.27     0.126 C 
BRANCH  17  18
ATOM     18  CG  ASN A 133      28.751  30.582  11.353  1.00 18.94     0.276 C 
ATOM     19  OD1 ASN A 133      28.580  29.594  10.637  1.00 18.09    -0.269 OA
ATOM     20  ND2 ASN A 133      27.773  31.133  12.071  1.00 18.93    -0.107 N 
ENDBRANCH  17  18
ENDBRANCH  16  17
END_RES ASN A 133
