REMARK VINA RESULT:    -4.258      8.512     15.452
REMARK INTER + INTRA:          -7.992
REMARK INTER:                  -4.844
REMARK INTRA:                  -3.148
REMARK UNBOUND:                -3.235
REMARK SMILES Cc1cn(-c2ccc([N+](=O)[O-])cc2)nn1
REMARK SMILES IDX 5 1 6 2 7 3 8 4 12 5 13 6 4 7 1 8 2 9 3 10 15 11 14 12 9 13
REMARK SMILES IDX 10 14 11 15
REMARK H PARENT
REMARK Flexibility Score: inf
ROOT
ATOM      1  C   UNL     1      37.909  34.713  13.820  1.00  0.00     0.067 A 
ATOM      2  C   UNL     1      37.179  34.147  12.803  1.00  0.00     0.035 A 
ATOM      3  C   UNL     1      35.780  34.244  12.785  1.00  0.00     0.088 A 
ATOM      4  C   UNL     1      35.123  34.911  13.794  1.00  0.00     0.269 A 
ATOM      5  C   UNL     1      35.837  35.472  14.802  1.00  0.00     0.088 A 
ATOM      6  C   UNL     1      37.232  35.374  14.816  1.00  0.00     0.035 A 
ENDROOT
BRANCH   1   7
ATOM      7  N   UNL     1      39.316  34.598  13.808  1.00  0.00    -0.220 N 
ATOM      8  C   UNL     1      42.620  33.797  12.436  1.00  0.00     0.070 C 
ATOM      9  C   UNL     1      41.390  34.178  13.156  1.00  0.00     0.080 A 
ATOM     10  C   UNL     1      40.072  34.133  12.784  1.00  0.00     0.140 A 
ATOM     11  N   UNL     1      41.407  34.677  14.416  1.00  0.00    -0.135 NA
ATOM     12  N   UNL     1      40.168  34.921  14.785  1.00  0.00    -0.062 NA
ENDBRANCH   1   7
BRANCH   4  13
ATOM     13  N   UNL     1      33.690  34.992  13.747  1.00  0.00     0.062 N 
ATOM     14  O   UNL     1      33.140  35.578  12.809  1.00  0.00    -0.258 OA
ATOM     15  O   UNL     1      32.929  34.432  14.719  1.00  0.00    -0.258 OA
ENDBRANCH   4  13
TORSDOF 2
BEGIN_RES LYS A 135
REMARK  4 active torsions:
REMARK  status: ('A' for Active; 'I' for Inactive)
REMARK    1  A    between atoms: CA   and  CB  
REMARK    2  A    between atoms: CB   and  CG  
REMARK    3  A    between atoms: CG   and  CD  
REMARK    4  A    between atoms: CD   and  CE  
ROOT
ATOM      1  CA  LYS A 135      33.193  34.663   9.290  1.00 25.02     0.186 C 
ENDROOT
BRANCH   1   2
ATOM      2  CB  LYS A 135      32.060  35.360  10.034  1.00 26.63     0.034 C 
BRANCH   2   3
ATOM      3  CG  LYS A 135      30.730  34.664   9.896  1.00 29.45     0.005 C 
BRANCH   3   4
ATOM      4  CD  LYS A 135      30.332  34.555   8.432  1.00 32.00     0.041 C 
BRANCH   4   5
ATOM      5  CE  LYS A 135      28.822  34.527   8.292  1.00 34.25     0.338 C 
ATOM      6  NZ  LYS A 135      28.191  33.809   9.434  1.00 35.99     0.618 N 
ENDBRANCH   4   5
ENDBRANCH   3   4
ENDBRANCH   2   3
ENDBRANCH   1   2
END_RES LYS A 135
BEGIN_RES TYR A 136
REMARK  2 active torsions:
REMARK  status: ('A' for Active; 'I' for Inactive)
REMARK    5  A    between atoms: CA   and  CB  
REMARK    6  A    between atoms: CB   and  CG  
ROOT
ATOM      7  CA  TYR A 136      36.583  36.399   8.994  1.00 26.14     0.191 C 
ENDROOT
BRANCH   7   8
ATOM      8  CB  TYR A 136      37.367  36.835  10.240  1.00 28.16     0.060 C 
BRANCH   8   9
ATOM      9  CG  TYR A 136      36.745  38.024  10.930  1.00 31.88    -0.020 A 
ATOM     10  CD2 TYR A 136      36.607  38.063  12.319  1.00 32.67    -0.002 A 
ATOM     11  CE2 TYR A 136      36.026  39.172  12.951  1.00 33.89     0.027 A 
ATOM     12  CZ  TYR A 136      35.579  40.251  12.185  1.00 34.34     0.131 A 
ATOM     13  OH  TYR A 136      35.008  41.362  12.789  1.00 35.14    -0.190 OA
ATOM     14  CE1 TYR A 136      35.707  40.228  10.803  1.00 35.01     0.027 A 
ATOM     15  CD1 TYR A 136      36.282  39.116  10.185  1.00 33.57    -0.002 A 
ENDBRANCH   8   9
ENDBRANCH   7   8
END_RES TYR A 136
BEGIN_RES ASN A 133
REMARK  2 active torsions:
REMARK  status: ('A' for Active; 'I' for Inactive)
REMARK    7  A    between atoms: CA   and  CB  
REMARK    8  A    between atoms: CB   and  CG  
ROOT
ATOM     16  CA  ASN A 133      31.225  30.257  11.749  1.00 18.15     0.196 C 
ENDROOT
BRANCH  16  17
ATOM     17  CB  ASN A 133      30.092  31.240  11.460  1.00 18.27     0.126 C 
BRANCH  17  18
ATOM     18  CG  ASN A 133      28.753  30.581  11.342  1.00 18.94     0.276 C 
ATOM     19  OD1 ASN A 133      28.586  29.601  10.613  1.00 18.09    -0.269 OA
ATOM     20  ND2 ASN A 133      27.772  31.120  12.065  1.00 18.93    -0.107 N 
ENDBRANCH  17  18
ENDBRANCH  16  17
END_RES ASN A 133
