REMARK VINA RESULT:    -3.789      4.322      8.423
REMARK INTER + INTRA:          -7.472
REMARK INTER:                  -5.141
REMARK INTRA:                  -2.331
REMARK UNBOUND:                -3.239
REMARK SMILES Cc1cn(Cc2ccccc2)nn1
REMARK SMILES IDX 5 1 4 2 1 3 2 4 3 5 13 6 12 7 6 8 7 9 11 10 8 11 10 12 9 13
REMARK H PARENT
REMARK Flexibility Score: inf
ROOT
ATOM      1  C   UNL     1      25.117  37.311   9.105  1.00  0.00     0.181 C 
ENDROOT
BRANCH   1   2
ATOM      2  N   UNL     1      23.809  36.944   8.588  1.00  0.00    -0.248 N 
ATOM      3  C   UNL     1      20.649  35.191   8.416  1.00  0.00     0.070 C 
ATOM      4  C   UNL     1      21.865  36.042   8.263  1.00  0.00     0.080 A 
ATOM      5  C   UNL     1      22.972  36.040   9.089  1.00  0.00     0.134 A 
ATOM      6  N   UNL     1      22.082  36.951   7.297  1.00  0.00    -0.136 NA
ATOM      7  N   UNL     1      23.267  37.484   7.517  1.00  0.00    -0.067 NA
ENDBRANCH   1   2
BRANCH   1   8
ATOM      8  C   UNL     1      26.151  36.709   8.209  1.00  0.00    -0.026 A 
ATOM      9  C   UNL     1      26.732  37.454   7.199  1.00  0.00     0.005 A 
ATOM     10  C   UNL     1      26.570  35.399   8.345  1.00  0.00     0.005 A 
ATOM     11  C   UNL     1      27.686  36.899   6.373  1.00  0.00     0.000 A 
ATOM     12  C   UNL     1      27.524  34.840   7.520  1.00  0.00     0.000 A 
ATOM     13  C   UNL     1      28.102  35.584   6.514  1.00  0.00     0.000 A 
ENDBRANCH   1   8
TORSDOF 2
BEGIN_RES LYS A 135
REMARK  4 active torsions:
REMARK  status: ('A' for Active; 'I' for Inactive)
REMARK    1  A    between atoms: CA   and  CB  
REMARK    2  A    between atoms: CB   and  CG  
REMARK    3  A    between atoms: CG   and  CD  
REMARK    4  A    between atoms: CD   and  CE  
ROOT
ATOM      1  CA  LYS A 135      33.193  34.663   9.290  1.00 25.02     0.186 C 
ENDROOT
BRANCH   1   2
ATOM      2  CB  LYS A 135      32.060  35.360  10.034  1.00 26.63     0.034 C 
BRANCH   2   3
ATOM      3  CG  LYS A 135      30.773  35.420   9.252  1.00 29.45     0.005 C 
BRANCH   3   4
ATOM      4  CD  LYS A 135      30.032  36.717   9.538  1.00 32.00     0.041 C 
BRANCH   4   5
ATOM      5  CE  LYS A 135      30.924  37.912   9.264  1.00 34.25     0.338 C 
ATOM      6  NZ  LYS A 135      30.511  38.616   8.018  1.00 35.99     0.618 N 
ENDBRANCH   4   5
ENDBRANCH   3   4
ENDBRANCH   2   3
ENDBRANCH   1   2
END_RES LYS A 135
BEGIN_RES TYR A 136
REMARK  2 active torsions:
REMARK  status: ('A' for Active; 'I' for Inactive)
REMARK    5  A    between atoms: CA   and  CB  
REMARK    6  A    between atoms: CB   and  CG  
ROOT
ATOM      7  CA  TYR A 136      36.583  36.399   8.994  1.00 26.14     0.191 C 
ENDROOT
BRANCH   7   8
ATOM      8  CB  TYR A 136      37.367  36.835  10.240  1.00 28.16     0.060 C 
BRANCH   8   9
ATOM      9  CG  TYR A 136      37.242  38.313  10.517  1.00 31.88    -0.020 A 
ATOM     10  CD2 TYR A 136      36.278  39.090   9.870  1.00 32.67    -0.002 A 
ATOM     11  CE2 TYR A 136      36.171  40.463  10.133  1.00 33.89     0.027 A 
ATOM     12  CZ  TYR A 136      37.037  41.063  11.051  1.00 34.34     0.131 A 
ATOM     13  OH  TYR A 136      36.945  42.419  11.332  1.00 35.14    -0.190 OA
ATOM     14  CE1 TYR A 136      38.001  40.306  11.701  1.00 35.01     0.027 A 
ATOM     15  CD1 TYR A 136      38.102  38.942  11.426  1.00 33.57    -0.002 A 
ENDBRANCH   8   9
ENDBRANCH   7   8
END_RES TYR A 136
BEGIN_RES ASN A 133
REMARK  2 active torsions:
REMARK  status: ('A' for Active; 'I' for Inactive)
REMARK    7  A    between atoms: CA   and  CB  
REMARK    8  A    between atoms: CB   and  CG  
ROOT
ATOM     16  CA  ASN A 133      31.225  30.257  11.749  1.00 18.15     0.196 C 
ENDROOT
BRANCH  16  17
ATOM     17  CB  ASN A 133      30.092  31.240  11.460  1.00 18.27     0.126 C 
BRANCH  17  18
ATOM     18  CG  ASN A 133      28.757  30.578  11.312  1.00 18.94     0.276 C 
ATOM     19  OD1 ASN A 133      28.606  29.604  10.572  1.00 18.09    -0.269 OA
ATOM     20  ND2 ASN A 133      27.762  31.107  12.024  1.00 18.93    -0.107 N 
ENDBRANCH  17  18
ENDBRANCH  16  17
END_RES ASN A 133
