REMARK VINA RESULT:    -5.305      2.413      5.744
REMARK INTER + INTRA:          -8.648
REMARK INTER:                  -5.635
REMARK INTRA:                  -3.013
REMARK UNBOUND:                -2.723
REMARK SMILES Cc1cn(-c2ncn3c2c(=O)n(C(C)C)c2ccccc23)nn1
REMARK SMILES IDX 5 1 6 2 7 3 8 4 21 5 20 6 19 7 18 8 17 9 16 10 12 11 10 12
REMARK SMILES IDX 11 13 9 14 4 15 1 16 2 17 3 18 23 19 22 20 13 21 14 22 15 23
REMARK H PARENT
REMARK Flexibility Score: inf
ROOT
ATOM      1  C   UNL     1      39.568  33.941  12.820  1.00  0.00     0.186 A 
ATOM      2  N   UNL     1      38.848  32.896  12.388  1.00  0.00    -0.216 NA
ATOM      3  C   UNL     1      37.534  33.118  12.551  1.00  0.00     0.207 A 
ATOM      4  N   UNL     1      37.413  34.349  13.109  1.00  0.00    -0.291 N 
ATOM      5  C   UNL     1      36.337  35.082  13.489  1.00  0.00     0.071 A 
ATOM      6  C   UNL     1      35.110  34.493  13.280  1.00  0.00     0.029 A 
ATOM      7  C   UNL     1      34.002  35.218  13.653  1.00  0.00     0.002 A 
ATOM      8  C   UNL     1      34.103  36.470  14.208  1.00  0.00     0.002 A 
ATOM      9  C   UNL     1      35.331  37.038  14.407  1.00  0.00     0.028 A 
ATOM     10  C   UNL     1      36.456  36.334  14.044  1.00  0.00     0.068 A 
ATOM     11  N   UNL     1      37.725  36.834  14.207  1.00  0.00    -0.302 N 
ATOM     12  C   UNL     1      38.800  36.120  13.834  1.00  0.00     0.279 A 
ATOM     13  O   UNL     1      39.990  36.515  13.952  1.00  0.00    -0.267 OA
ATOM     14  C   UNL     1      38.646  34.866  13.280  1.00  0.00     0.158 A 
ENDROOT
BRANCH   1  15
ATOM     15  N   UNL     1      41.003  34.082  12.814  1.00  0.00    -0.200 N 
ATOM     16  C   UNL     1      44.240  34.838  11.350  1.00  0.00     0.070 C 
ATOM     17  C   UNL     1      43.070  34.469  12.198  1.00  0.00     0.080 A 
ATOM     18  C   UNL     1      41.767  34.469  11.776  1.00  0.00     0.142 A 
ATOM     19  N   UNL     1      43.079  34.085  13.473  1.00  0.00    -0.135 NA
ATOM     20  N   UNL     1      41.821  33.857  13.827  1.00  0.00    -0.061 NA
ENDBRANCH   1  15
BRANCH  11  21
ATOM     21  C   UNL     1      37.842  38.125  14.788  1.00  0.00     0.085 C 
ATOM     22  C   UNL     1      38.510  38.058  16.141  1.00  0.00     0.031 C 
ATOM     23  C   UNL     1      38.636  39.102  13.946  1.00  0.00     0.031 C 
ENDBRANCH  11  21
TORSDOF 2
BEGIN_RES LYS A 135
REMARK  4 active torsions:
REMARK  status: ('A' for Active; 'I' for Inactive)
REMARK    1  A    between atoms: CA   and  CB  
REMARK    2  A    between atoms: CB   and  CG  
REMARK    3  A    between atoms: CG   and  CD  
REMARK    4  A    between atoms: CD   and  CE  
ROOT
ATOM      1  CA  LYS A 135      33.193  34.663   9.290  1.00 25.02     0.186 C 
ENDROOT
BRANCH   1   2
ATOM      2  CB  LYS A 135      32.060  35.360  10.034  1.00 26.63     0.034 C 
BRANCH   2   3
ATOM      3  CG  LYS A 135      30.834  35.589   9.188  1.00 29.45     0.005 C 
BRANCH   3   4
ATOM      4  CD  LYS A 135      30.229  34.264   8.751  1.00 32.00     0.041 C 
BRANCH   4   5
ATOM      5  CE  LYS A 135      28.736  34.409   8.527  1.00 34.25     0.338 C 
ATOM      6  NZ  LYS A 135      27.963  33.697   9.583  1.00 35.99     0.618 N 
ENDBRANCH   4   5
ENDBRANCH   3   4
ENDBRANCH   2   3
ENDBRANCH   1   2
END_RES LYS A 135
BEGIN_RES TYR A 136
REMARK  2 active torsions:
REMARK  status: ('A' for Active; 'I' for Inactive)
REMARK    5  A    between atoms: CA   and  CB  
REMARK    6  A    between atoms: CB   and  CG  
ROOT
ATOM      7  CA  TYR A 136      36.583  36.399   8.994  1.00 26.14     0.191 C 
ENDROOT
BRANCH   7   8
ATOM      8  CB  TYR A 136      37.367  36.835  10.240  1.00 28.16     0.060 C 
BRANCH   8   9
ATOM      9  CG  TYR A 136      37.168  38.294  10.570  1.00 31.88    -0.020 A 
ATOM     10  CD2 TYR A 136      38.119  39.252  10.213  1.00 32.67    -0.002 A 
ATOM     11  CE2 TYR A 136      37.925  40.605  10.526  1.00 33.89     0.027 A 
ATOM     12  CZ  TYR A 136      36.768  41.002  11.202  1.00 34.34     0.131 A 
ATOM     13  OH  TYR A 136      36.552  42.336  11.516  1.00 35.14    -0.190 OA
ATOM     14  CE1 TYR A 136      35.814  40.063  11.565  1.00 35.01     0.027 A 
ATOM     15  CD1 TYR A 136      36.021  38.718  11.254  1.00 33.57    -0.002 A 
ENDBRANCH   8   9
ENDBRANCH   7   8
END_RES TYR A 136
BEGIN_RES ASN A 133
REMARK  2 active torsions:
REMARK  status: ('A' for Active; 'I' for Inactive)
REMARK    7  A    between atoms: CA   and  CB  
REMARK    8  A    between atoms: CB   and  CG  
ROOT
ATOM     16  CA  ASN A 133      31.225  30.257  11.749  1.00 18.15     0.196 C 
ENDROOT
BRANCH  16  17
ATOM     17  CB  ASN A 133      30.092  31.240  11.460  1.00 18.27     0.126 C 
BRANCH  17  18
ATOM     18  CG  ASN A 133      28.751  30.583  11.355  1.00 18.94     0.276 C 
ATOM     19  OD1 ASN A 133      28.575  29.603  10.629  1.00 18.09    -0.269 OA
ATOM     20  ND2 ASN A 133      27.778  31.123  12.088  1.00 18.93    -0.107 N 
ENDBRANCH  17  18
ENDBRANCH  16  17
END_RES ASN A 133
