REMARK VINA RESULT:    -2.953      6.574     14.293
REMARK INTER + INTRA:          -6.780
REMARK INTER:                  -3.557
REMARK INTRA:                  -3.223
REMARK UNBOUND:                -3.223
REMARK SMILES Cc1cn(CCC(=O)O)nn1
REMARK SMILES IDX 6 1 5 2 4 3 1 4 2 5 3 6 11 7 10 8 7 9 8 10 9 11
REMARK H PARENT 9 12
REMARK Flexibility Score: inf
ROOT
ATOM      1  C   UNL     1      30.111  27.063  21.367  1.00  0.00     0.146 C 
ENDROOT
BRANCH   1   2
ATOM      2  C   UNL     1      29.550  28.321  20.695  1.00  0.00     0.158 C 
BRANCH   2   3
ATOM      3  N   UNL     1      28.225  28.066  20.192  1.00  0.00    -0.252 N 
ATOM      4  C   UNL     1      24.874  26.599  20.160  1.00  0.00     0.070 C 
ATOM      5  C   UNL     1      26.157  27.319  19.933  1.00  0.00     0.080 A 
ATOM      6  C   UNL     1      27.297  27.261  20.753  1.00  0.00     0.134 A 
ATOM      7  N   UNL     1      26.452  28.140  18.941  1.00  0.00    -0.136 NA
ATOM      8  N   UNL     1      27.700  28.577  19.115  1.00  0.00    -0.067 NA
ENDBRANCH   2   3
ENDBRANCH   1   2
BRANCH   1   9
ATOM      9  C   UNL     1      31.559  27.070  21.114  1.00  0.00     0.305 C 
ATOM     10  O   UNL     1      32.338  26.966  22.079  1.00  0.00    -0.252 OA
BRANCH   9  11
ATOM     11  O   UNL     1      32.056  27.193  19.830  1.00  0.00    -0.481 OA
ATOM     12  H   UNL     1      32.796  26.610  19.456  1.00  0.00     0.296 HD
ENDBRANCH   9  11
ENDBRANCH   1   9
TORSDOF 4
BEGIN_RES LYS A 135
REMARK  4 active torsions:
REMARK  status: ('A' for Active; 'I' for Inactive)
REMARK    1  A    between atoms: CA   and  CB  
REMARK    2  A    between atoms: CB   and  CG  
REMARK    3  A    between atoms: CG   and  CD  
REMARK    4  A    between atoms: CD   and  CE  
ROOT
ATOM      1  CA  LYS A 135      33.193  34.663   9.290  1.00 25.02     0.186 C 
ENDROOT
BRANCH   1   2
ATOM      2  CB  LYS A 135      32.060  35.360  10.034  1.00 26.63     0.034 C 
BRANCH   2   3
ATOM      3  CG  LYS A 135      30.819  35.550   9.200  1.00 29.45     0.005 C 
BRANCH   3   4
ATOM      4  CD  LYS A 135      30.162  34.211   8.903  1.00 32.00     0.041 C 
BRANCH   4   5
ATOM      5  CE  LYS A 135      28.692  34.399   8.581  1.00 34.25     0.338 C 
ATOM      6  NZ  LYS A 135      27.832  33.699   9.575  1.00 35.99     0.618 N 
ENDBRANCH   4   5
ENDBRANCH   3   4
ENDBRANCH   2   3
ENDBRANCH   1   2
END_RES LYS A 135
BEGIN_RES TYR A 136
REMARK  2 active torsions:
REMARK  status: ('A' for Active; 'I' for Inactive)
REMARK    5  A    between atoms: CA   and  CB  
REMARK    6  A    between atoms: CB   and  CG  
ROOT
ATOM      7  CA  TYR A 136      36.583  36.399   8.994  1.00 26.14     0.191 C 
ENDROOT
BRANCH   7   8
ATOM      8  CB  TYR A 136      37.367  36.835  10.240  1.00 28.16     0.060 C 
BRANCH   8   9
ATOM      9  CG  TYR A 136      37.231  38.311  10.524  1.00 31.88    -0.020 A 
ATOM     10  CD2 TYR A 136      37.916  38.909  11.584  1.00 32.67    -0.002 A 
ATOM     11  CE2 TYR A 136      37.781  40.280  11.841  1.00 33.89     0.027 A 
ATOM     12  CZ  TYR A 136      36.953  41.060  11.030  1.00 34.34     0.131 A 
ATOM     13  OH  TYR A 136      36.810  42.421  11.261  1.00 35.14    -0.190 OA
ATOM     14  CE1 TYR A 136      36.264  40.482   9.973  1.00 35.01     0.027 A 
ATOM     15  CD1 TYR A 136      36.401  39.114   9.731  1.00 33.57    -0.002 A 
ENDBRANCH   8   9
ENDBRANCH   7   8
END_RES TYR A 136
BEGIN_RES ASN A 133
REMARK  2 active torsions:
REMARK  status: ('A' for Active; 'I' for Inactive)
REMARK    7  A    between atoms: CA   and  CB  
REMARK    8  A    between atoms: CB   and  CG  
ROOT
ATOM     16  CA  ASN A 133      31.225  30.257  11.749  1.00 18.15     0.196 C 
ENDROOT
BRANCH  16  17
ATOM     17  CB  ASN A 133      30.092  31.240  11.460  1.00 18.27     0.126 C 
BRANCH  17  18
ATOM     18  CG  ASN A 133      28.753  30.581  11.341  1.00 18.94     0.276 C 
ATOM     19  OD1 ASN A 133      28.584  29.609  10.602  1.00 18.09    -0.269 OA
ATOM     20  ND2 ASN A 133      27.775  31.111  12.074  1.00 18.93    -0.107 N 
ENDBRANCH  17  18
ENDBRANCH  16  17
END_RES ASN A 133
