REMARK VINA RESULT:    -3.511      8.297     14.503
REMARK INTER + INTRA:          -7.157
REMARK INTER:                  -3.921
REMARK INTRA:                  -3.235
REMARK UNBOUND:                -3.235
REMARK SMILES Cc1cn(-c2ccc([N+](=O)[O-])cc2)nn1
REMARK SMILES IDX 5 1 6 2 7 3 8 4 12 5 13 6 4 7 1 8 2 9 3 10 15 11 14 12 9 13
REMARK SMILES IDX 10 14 11 15
REMARK H PARENT
REMARK Flexibility Score: inf
ROOT
ATOM      1  C   UNL     1      28.140  29.742  17.731  1.00  0.00     0.067 A 
ATOM      2  C   UNL     1      27.988  29.772  16.365  1.00  0.00     0.035 A 
ATOM      3  C   UNL     1      28.775  30.621  15.574  1.00  0.00     0.088 A 
ATOM      4  C   UNL     1      29.712  31.439  16.165  1.00  0.00     0.269 A 
ATOM      5  C   UNL     1      29.868  31.416  17.513  1.00  0.00     0.088 A 
ATOM      6  C   UNL     1      29.081  30.567  18.297  1.00  0.00     0.035 A 
ENDROOT
BRANCH   1   7
ATOM      7  N   UNL     1      27.332  28.875  18.497  1.00  0.00    -0.220 N 
ATOM      8  C   UNL     1      24.290  27.060  19.444  1.00  0.00     0.070 C 
ATOM      9  C   UNL     1      25.601  27.701  19.225  1.00  0.00     0.080 A 
ATOM     10  C   UNL     1      26.031  28.577  18.263  1.00  0.00     0.140 A 
ATOM     11  N   UNL     1      26.666  27.481  20.034  1.00  0.00    -0.135 NA
ATOM     12  N   UNL     1      27.683  28.186  19.587  1.00  0.00    -0.062 NA
ENDBRANCH   1   7
BRANCH   4  13
ATOM     13  N   UNL     1      30.502  32.298  15.328  1.00  0.00     0.062 N 
ATOM     14  O   UNL     1      31.655  32.591  15.665  1.00  0.00    -0.258 OA
ATOM     15  O   UNL     1      30.002  32.793  14.170  1.00  0.00    -0.258 OA
ENDBRANCH   4  13
TORSDOF 2
BEGIN_RES LYS A 135
REMARK  4 active torsions:
REMARK  status: ('A' for Active; 'I' for Inactive)
REMARK    1  A    between atoms: CA   and  CB  
REMARK    2  A    between atoms: CB   and  CG  
REMARK    3  A    between atoms: CG   and  CD  
REMARK    4  A    between atoms: CD   and  CE  
ROOT
ATOM      1  CA  LYS A 135      33.193  34.663   9.290  1.00 25.02     0.186 C 
ENDROOT
BRANCH   1   2
ATOM      2  CB  LYS A 135      32.060  35.360  10.034  1.00 26.63     0.034 C 
BRANCH   2   3
ATOM      3  CG  LYS A 135      30.701  34.775   9.747  1.00 29.45     0.005 C 
BRANCH   3   4
ATOM      4  CD  LYS A 135      30.523  34.538   8.256  1.00 32.00     0.041 C 
BRANCH   4   5
ATOM      5  CE  LYS A 135      29.116  34.903   7.823  1.00 34.25     0.338 C 
ATOM      6  NZ  LYS A 135      28.104  34.357   8.770  1.00 35.99     0.618 N 
ENDBRANCH   4   5
ENDBRANCH   3   4
ENDBRANCH   2   3
ENDBRANCH   1   2
END_RES LYS A 135
BEGIN_RES TYR A 136
REMARK  2 active torsions:
REMARK  status: ('A' for Active; 'I' for Inactive)
REMARK    5  A    between atoms: CA   and  CB  
REMARK    6  A    between atoms: CB   and  CG  
ROOT
ATOM      7  CA  TYR A 136      36.583  36.399   8.994  1.00 26.14     0.191 C 
ENDROOT
BRANCH   7   8
ATOM      8  CB  TYR A 136      37.367  36.835  10.240  1.00 28.16     0.060 C 
BRANCH   8   9
ATOM      9  CG  TYR A 136      37.208  38.305  10.540  1.00 31.88    -0.020 A 
ATOM     10  CD2 TYR A 136      37.772  38.874  11.684  1.00 32.67    -0.002 A 
ATOM     11  CE2 TYR A 136      37.617  40.241  11.955  1.00 33.89     0.027 A 
ATOM     12  CZ  TYR A 136      36.891  41.045  11.073  1.00 34.34     0.131 A 
ATOM     13  OH  TYR A 136      36.731  42.402  11.317  1.00 35.14    -0.190 OA
ATOM     14  CE1 TYR A 136      36.324  40.496   9.932  1.00 35.01     0.027 A 
ATOM     15  CD1 TYR A 136      36.479  39.133   9.677  1.00 33.57    -0.002 A 
ENDBRANCH   8   9
ENDBRANCH   7   8
END_RES TYR A 136
BEGIN_RES ASN A 133
REMARK  2 active torsions:
REMARK  status: ('A' for Active; 'I' for Inactive)
REMARK    7  A    between atoms: CA   and  CB  
REMARK    8  A    between atoms: CB   and  CG  
ROOT
ATOM     16  CA  ASN A 133      31.225  30.257  11.749  1.00 18.15     0.196 C 
ENDROOT
BRANCH  16  17
ATOM     17  CB  ASN A 133      30.092  31.240  11.460  1.00 18.27     0.126 C 
BRANCH  17  18
ATOM     18  CG  ASN A 133      28.751  30.583  11.357  1.00 18.94     0.276 C 
ATOM     19  OD1 ASN A 133      28.576  29.599  10.636  1.00 18.09    -0.269 OA
ATOM     20  ND2 ASN A 133      27.777  31.129  12.084  1.00 18.93    -0.107 N 
ENDBRANCH  17  18
ENDBRANCH  16  17
END_RES ASN A 133
