REMARK VINA RESULT:    -3.044      7.037     11.120
REMARK INTER + INTRA:          -6.576
REMARK INTER:                  -3.180
REMARK INTRA:                  -3.396
REMARK UNBOUND:                -3.088
REMARK SMILES Cc1cn(CCO)nn1
REMARK SMILES IDX 5 1 4 2 1 3 2 4 3 5 9 6 8 7 6 8 7 9
REMARK H PARENT 7 10
REMARK Flexibility Score: inf
ROOT
ATOM      1  C   UNL     1      31.899  33.945  16.234  1.00  0.00     0.174 C 
ENDROOT
BRANCH   1   2
ATOM      2  N   UNL     1      32.169  34.568  14.955  1.00  0.00    -0.250 N 
ATOM      3  C   UNL     1      34.462  36.288  12.679  1.00  0.00     0.070 C 
ATOM      4  C   UNL     1      33.344  35.615  13.391  1.00  0.00     0.080 A 
ATOM      5  C   UNL     1      33.373  35.094  14.668  1.00  0.00     0.134 A 
ATOM      6  N   UNL     1      32.089  35.368  12.966  1.00  0.00    -0.136 NA
ATOM      7  N   UNL     1      31.412  34.746  13.914  1.00  0.00    -0.067 NA
ENDBRANCH   1   2
BRANCH   1   8
ATOM      8  C   UNL     1      31.165  32.634  16.080  1.00  0.00     0.179 C 
BRANCH   8   9
ATOM      9  O   UNL     1      31.542  32.006  14.878  1.00  0.00    -0.394 OA
ATOM     10  H   UNL     1      32.510  31.803  14.943  1.00  0.00     0.210 HD
ENDBRANCH   8   9
ENDBRANCH   1   8
TORSDOF 3
BEGIN_RES LYS A 135
REMARK  4 active torsions:
REMARK  status: ('A' for Active; 'I' for Inactive)
REMARK    1  A    between atoms: CA   and  CB  
REMARK    2  A    between atoms: CB   and  CG  
REMARK    3  A    between atoms: CG   and  CD  
REMARK    4  A    between atoms: CD   and  CE  
ROOT
ATOM      1  CA  LYS A 135      33.193  34.663   9.290  1.00 25.02     0.186 C 
ENDROOT
BRANCH   1   2
ATOM      2  CB  LYS A 135      32.060  35.360  10.034  1.00 26.63     0.034 C 
BRANCH   2   3
ATOM      3  CG  LYS A 135      30.806  35.515   9.213  1.00 29.45     0.005 C 
BRANCH   3   4
ATOM      4  CD  LYS A 135      30.152  34.163   8.972  1.00 32.00     0.041 C 
BRANCH   4   5
ATOM      5  CE  LYS A 135      28.690  34.336   8.608  1.00 34.25     0.338 C 
ATOM      6  NZ  LYS A 135      27.806  33.689   9.617  1.00 35.99     0.618 N 
ENDBRANCH   4   5
ENDBRANCH   3   4
ENDBRANCH   2   3
ENDBRANCH   1   2
END_RES LYS A 135
BEGIN_RES TYR A 136
REMARK  2 active torsions:
REMARK  status: ('A' for Active; 'I' for Inactive)
REMARK    5  A    between atoms: CA   and  CB  
REMARK    6  A    between atoms: CB   and  CG  
ROOT
ATOM      7  CA  TYR A 136      36.583  36.399   8.994  1.00 26.14     0.191 C 
ENDROOT
BRANCH   7   8
ATOM      8  CB  TYR A 136      37.367  36.835  10.240  1.00 28.16     0.060 C 
BRANCH   8   9
ATOM      9  CG  TYR A 136      37.033  38.242  10.673  1.00 31.88    -0.020 A 
ATOM     10  CD2 TYR A 136      37.576  38.788  11.838  1.00 32.67    -0.002 A 
ATOM     11  CE2 TYR A 136      37.259  40.095  12.232  1.00 33.89     0.027 A 
ATOM     12  CZ  TYR A 136      36.389  40.862  11.453  1.00 34.34     0.131 A 
ATOM     13  OH  TYR A 136      36.066  42.161  11.820  1.00 35.14    -0.190 OA
ATOM     14  CE1 TYR A 136      35.840  40.335  10.293  1.00 35.01     0.027 A 
ATOM     15  CD1 TYR A 136      36.159  39.030   9.914  1.00 33.57    -0.002 A 
ENDBRANCH   8   9
ENDBRANCH   7   8
END_RES TYR A 136
BEGIN_RES ASN A 133
REMARK  2 active torsions:
REMARK  status: ('A' for Active; 'I' for Inactive)
REMARK    7  A    between atoms: CA   and  CB  
REMARK    8  A    between atoms: CB   and  CG  
ROOT
ATOM     16  CA  ASN A 133      31.225  30.257  11.749  1.00 18.15     0.196 C 
ENDROOT
BRANCH  16  17
ATOM     17  CB  ASN A 133      30.092  31.240  11.460  1.00 18.27     0.126 C 
BRANCH  17  18
ATOM     18  CG  ASN A 133      28.750  30.583  11.361  1.00 18.94     0.276 C 
ATOM     19  OD1 ASN A 133      28.565  29.619  10.617  1.00 18.09    -0.269 OA
ATOM     20  ND2 ASN A 133      27.788  31.107  12.119  1.00 18.93    -0.107 N 
ENDBRANCH  17  18
ENDBRANCH  16  17
END_RES ASN A 133
