REMARK VINA RESULT:    -4.194      2.907      6.847
REMARK INTER + INTRA:          -9.207
REMARK INTER:                  -5.372
REMARK INTRA:                  -3.836
REMARK UNBOUND:                -3.788
REMARK SMILES Cc1cn(CCNC(=O)NCc2ccco2)nn1
REMARK SMILES IDX 7 1 8 2 9 3 10 4 6 7 5 8 4 9 1 10 2 11 3 12 18 13 17 14
REMARK SMILES IDX 11 15 12 16 13 17 16 18 14 19 15 20
REMARK H PARENT 7 5 10 6
REMARK Flexibility Score: inf
ROOT
ATOM      1  N   UNL     1      39.427  34.244  12.092  1.00  0.00    -0.336 N 
ATOM      2  C   UNL     1      38.182  34.167  12.776  1.00  0.00     0.315 C 
ATOM      3  O   UNL     1      38.199  33.926  13.993  1.00  0.00    -0.249 OA
ATOM      4  N   UNL     1      36.940  34.361  12.088  1.00  0.00    -0.331 N 
ATOM      5  H   UNL     1      39.391  34.448  11.071  1.00  0.00     0.165 HD
ATOM      6  H   UNL     1      36.990  34.561  11.067  1.00  0.00     0.165 HD
ENDROOT
BRANCH   1   7
ATOM      7  C   UNL     1      40.684  34.058  12.743  1.00  0.00     0.141 C 
BRANCH   7   8
ATOM      8  C   UNL     1      41.423  35.339  13.031  1.00  0.00     0.167 C 
BRANCH   8   9
ATOM      9  N   UNL     1      41.306  36.177  11.855  1.00  0.00    -0.251 N 
ATOM     10  C   UNL     1      40.701  39.163   9.896  1.00  0.00     0.070 C 
ATOM     11  C   UNL     1      40.998  37.835  10.447  1.00  0.00     0.080 A 
ATOM     12  C   UNL     1      40.976  37.479  11.776  1.00  0.00     0.134 A 
ATOM     13  N   UNL     1      41.339  36.748   9.747  1.00  0.00    -0.136 NA
ATOM     14  N   UNL     1      41.516  35.773  10.615  1.00  0.00    -0.067 NA
ENDBRANCH   8   9
ENDBRANCH   7   8
ENDBRANCH   1   7
BRANCH   4  15
ATOM     15  C   UNL     1      35.705  34.273  12.824  1.00  0.00     0.193 C 
BRANCH  15  16
ATOM     16  C   UNL     1      35.147  35.621  13.091  1.00  0.00     0.122 A 
ATOM     17  C   UNL     1      35.510  36.492  14.093  1.00  0.00     0.047 A 
ATOM     18  O   UNL     1      34.187  36.220  12.392  1.00  0.00    -0.467 OA
ATOM     19  C   UNL     1      34.722  37.644  13.964  1.00  0.00     0.042 A 
ATOM     20  C   UNL     1      33.925  37.389  12.879  1.00  0.00     0.195 A 
ENDBRANCH  15  16
ENDBRANCH   4  15
TORSDOF 5
BEGIN_RES LYS A 135
REMARK  4 active torsions:
REMARK  status: ('A' for Active; 'I' for Inactive)
REMARK    1  A    between atoms: CA   and  CB  
REMARK    2  A    between atoms: CB   and  CG  
REMARK    3  A    between atoms: CG   and  CD  
REMARK    4  A    between atoms: CD   and  CE  
ROOT
ATOM      1  CA  LYS A 135      33.193  34.663   9.290  1.00 25.02     0.186 C 
ENDROOT
BRANCH   1   2
ATOM      2  CB  LYS A 135      32.060  35.360  10.034  1.00 26.63     0.034 C 
BRANCH   2   3
ATOM      3  CG  LYS A 135      30.710  34.733   9.799  1.00 29.45     0.005 C 
BRANCH   3   4
ATOM      4  CD  LYS A 135      30.464  34.530   8.312  1.00 32.00     0.041 C 
BRANCH   4   5
ATOM      5  CE  LYS A 135      29.018  34.830   7.965  1.00 34.25     0.338 C 
ATOM      6  NZ  LYS A 135      28.917  35.554   6.668  1.00 35.99     0.618 N 
ENDBRANCH   4   5
ENDBRANCH   3   4
ENDBRANCH   2   3
ENDBRANCH   1   2
END_RES LYS A 135
BEGIN_RES TYR A 136
REMARK  2 active torsions:
REMARK  status: ('A' for Active; 'I' for Inactive)
REMARK    5  A    between atoms: CA   and  CB  
REMARK    6  A    between atoms: CB   and  CG  
ROOT
ATOM      7  CA  TYR A 136      36.583  36.399   8.994  1.00 26.14     0.191 C 
ENDROOT
BRANCH   7   8
ATOM      8  CB  TYR A 136      37.367  36.835  10.240  1.00 28.16     0.060 C 
BRANCH   8   9
ATOM      9  CG  TYR A 136      36.943  38.191  10.747  1.00 31.88    -0.020 A 
ATOM     10  CD2 TYR A 136      35.947  38.926  10.100  1.00 32.67    -0.002 A 
ATOM     11  CE2 TYR A 136      35.561  40.186  10.579  1.00 33.89     0.027 A 
ATOM     12  CZ  TYR A 136      36.178  40.715  11.715  1.00 34.34     0.131 A 
ATOM     13  OH  TYR A 136      35.807  41.957  12.211  1.00 35.14    -0.190 OA
ATOM     14  CE1 TYR A 136      37.169  39.999  12.370  1.00 35.01     0.027 A 
ATOM     15  CD1 TYR A 136      37.549  38.748  11.880  1.00 33.57    -0.002 A 
ENDBRANCH   8   9
ENDBRANCH   7   8
END_RES TYR A 136
BEGIN_RES ASN A 133
REMARK  2 active torsions:
REMARK  status: ('A' for Active; 'I' for Inactive)
REMARK    7  A    between atoms: CA   and  CB  
REMARK    8  A    between atoms: CB   and  CG  
ROOT
ATOM     16  CA  ASN A 133      31.225  30.257  11.749  1.00 18.15     0.196 C 
ENDROOT
BRANCH  16  17
ATOM     17  CB  ASN A 133      30.092  31.240  11.460  1.00 18.27     0.126 C 
BRANCH  17  18
ATOM     18  CG  ASN A 133      28.756  30.578  11.318  1.00 18.94     0.276 C 
ATOM     19  OD1 ASN A 133      28.598  29.617  10.563  1.00 18.09    -0.269 OA
ATOM     20  ND2 ASN A 133      27.770  31.094  12.050  1.00 18.93    -0.107 N 
ENDBRANCH  17  18
ENDBRANCH  16  17
END_RES ASN A 133
