REMARK VINA RESULT:    -3.725      3.114      4.622
REMARK INTER + INTRA:          -7.717
REMARK INTER:                  -4.519
REMARK INTRA:                  -3.198
REMARK UNBOUND:                -3.447
REMARK SMILES Cc1cn(Cc2cc(Br)cc(Br)c2O)nn1
REMARK SMILES IDX 6 1 7 2 8 3 9 4 10 5 11 6 12 7 13 8 5 9 4 10 1 11 2 12 3 13
REMARK SMILES IDX 16 14 15 15 14 16
REMARK H PARENT 14 17
REMARK Flexibility Score: inf
ROOT
ATOM      1  C   UNL     1      36.933  35.539  15.194  1.00  0.00     0.018 A 
ATOM      2  C   UNL     1      35.733  35.956  14.701  1.00  0.00     0.025 A 
ATOM      3  C   UNL     1      35.201  35.390  13.559  1.00  0.00     0.019 A 
ATOM      4  Br  UNL     1      33.507  35.972  12.858  1.00  0.00    -0.051 Br
ATOM      5  C   UNL     1      35.851  34.382  12.863  1.00  0.00     0.035 A 
ATOM      6  C   UNL     1      37.073  33.971  13.377  1.00  0.00     0.061 A 
ATOM      7  Br  UNL     1      38.011  32.591  12.463  1.00  0.00    -0.047 Br
ATOM      8  C   UNL     1      37.612  34.535  14.524  1.00  0.00     0.134 A 
ENDROOT
BRANCH   1   9
ATOM      9  C   UNL     1      37.582  36.089  16.412  1.00  0.00     0.185 C 
BRANCH   9  10
ATOM     10  N   UNL     1      38.487  37.153  16.147  1.00  0.00    -0.248 N 
ATOM     11  C   UNL     1      39.661  40.565  15.633  1.00  0.00     0.070 C 
ATOM     12  C   UNL     1      39.388  39.122  15.807  1.00  0.00     0.080 A 
ATOM     13  C   UNL     1      38.213  38.463  16.089  1.00  0.00     0.134 A 
ATOM     14  N   UNL     1      40.353  38.181  15.702  1.00  0.00    -0.136 NA
ATOM     15  N   UNL     1      39.778  37.033  15.910  1.00  0.00    -0.067 NA
ENDBRANCH   9  10
ENDBRANCH   1   9
BRANCH   8  16
ATOM     16  O   UNL     1      38.847  34.051  14.961  1.00  0.00    -0.506 OA
ATOM     17  H   UNL     1      38.984  33.889  15.933  1.00  0.00     0.293 HD
ENDBRANCH   8  16
TORSDOF 3
BEGIN_RES LYS A 135
REMARK  4 active torsions:
REMARK  status: ('A' for Active; 'I' for Inactive)
REMARK    1  A    between atoms: CA   and  CB  
REMARK    2  A    between atoms: CB   and  CG  
REMARK    3  A    between atoms: CG   and  CD  
REMARK    4  A    between atoms: CD   and  CE  
ROOT
ATOM      1  CA  LYS A 135      33.193  34.663   9.290  1.00 25.02     0.186 C 
ENDROOT
BRANCH   1   2
ATOM      2  CB  LYS A 135      32.060  35.360  10.034  1.00 26.63     0.034 C 
BRANCH   2   3
ATOM      3  CG  LYS A 135      30.709  34.736   9.795  1.00 29.45     0.005 C 
BRANCH   3   4
ATOM      4  CD  LYS A 135      30.399  34.680   8.308  1.00 32.00     0.041 C 
BRANCH   4   5
ATOM      5  CE  LYS A 135      29.400  35.756   7.930  1.00 34.25     0.338 C 
ATOM      6  NZ  LYS A 135      28.871  35.539   6.555  1.00 35.99     0.618 N 
ENDBRANCH   4   5
ENDBRANCH   3   4
ENDBRANCH   2   3
ENDBRANCH   1   2
END_RES LYS A 135
BEGIN_RES TYR A 136
REMARK  2 active torsions:
REMARK  status: ('A' for Active; 'I' for Inactive)
REMARK    5  A    between atoms: CA   and  CB  
REMARK    6  A    between atoms: CB   and  CG  
ROOT
ATOM      7  CA  TYR A 136      36.583  36.399   8.994  1.00 26.14     0.191 C 
ENDROOT
BRANCH   7   8
ATOM      8  CB  TYR A 136      37.367  36.835  10.240  1.00 28.16     0.060 C 
BRANCH   8   9
ATOM      9  CG  TYR A 136      36.727  38.003  10.949  1.00 31.88    -0.020 A 
ATOM     10  CD2 TYR A 136      37.040  38.304  12.276  1.00 32.67    -0.002 A 
ATOM     11  CE2 TYR A 136      36.439  39.390  12.926  1.00 33.89     0.027 A 
ATOM     12  CZ  TYR A 136      35.516  40.184  12.241  1.00 34.34     0.131 A 
ATOM     13  OH  TYR A 136      34.913  41.269  12.862  1.00 35.14    -0.190 OA
ATOM     14  CE1 TYR A 136      35.192  39.899  10.922  1.00 35.01     0.027 A 
ATOM     15  CD1 TYR A 136      35.792  38.811  10.288  1.00 33.57    -0.002 A 
ENDBRANCH   8   9
ENDBRANCH   7   8
END_RES TYR A 136
BEGIN_RES ASN A 133
REMARK  2 active torsions:
REMARK  status: ('A' for Active; 'I' for Inactive)
REMARK    7  A    between atoms: CA   and  CB  
REMARK    8  A    between atoms: CB   and  CG  
ROOT
ATOM     16  CA  ASN A 133      31.225  30.257  11.749  1.00 18.15     0.196 C 
ENDROOT
BRANCH  16  17
ATOM     17  CB  ASN A 133      30.092  31.240  11.460  1.00 18.27     0.126 C 
BRANCH  17  18
ATOM     18  CG  ASN A 133      28.756  30.579  11.322  1.00 18.94     0.276 C 
ATOM     19  OD1 ASN A 133      28.595  29.616  10.569  1.00 18.09    -0.269 OA
ATOM     20  ND2 ASN A 133      27.771  31.096  12.055  1.00 18.93    -0.107 N 
ENDBRANCH  17  18
ENDBRANCH  16  17
END_RES ASN A 133
