REMARK VINA RESULT:    -5.597      3.549      6.773
REMARK INTER + INTRA:          -7.167
REMARK INTER:                  -5.748
REMARK INTRA:                  -1.419
REMARK UNBOUND:                -1.243
REMARK SMILES Cc1cn(-c2ccccc2Br)nn1
REMARK SMILES IDX 5 1 6 2 7 3 8 4 9 5 10 6 11 7 4 8 1 9 2 10 3 11 13 12 12 13
REMARK H PARENT
REMARK Flexibility Score: inf
ROOT
ATOM      1  C   UNL     1      28.918  35.371   7.920  1.00  0.00     0.081 A 
ATOM      2  C   UNL     1      30.241  34.983   7.935  1.00  0.00     0.029 A 
ATOM      3  C   UNL     1      30.667  34.037   8.845  1.00  0.00     0.002 A 
ATOM      4  C   UNL     1      29.768  33.484   9.733  1.00  0.00     0.001 A 
ATOM      5  C   UNL     1      28.454  33.885   9.700  1.00  0.00     0.018 A 
ATOM      6  C   UNL     1      27.993  34.830   8.803  1.00  0.00     0.043 A 
ATOM      7  Br  UNL     1      26.160  35.369   8.779  1.00  0.00    -0.048 Br
ENDROOT
BRANCH   1   8
ATOM      8  N   UNL     1      28.518  36.342   6.975  1.00  0.00    -0.219 N 
ATOM      9  C   UNL     1      28.313  39.815   5.903  1.00  0.00     0.070 C 
ATOM     10  C   UNL     1      28.250  38.344   6.074  1.00  0.00     0.080 A 
ATOM     11  C   UNL     1      28.749  37.674   7.146  1.00  0.00     0.140 A 
ATOM     12  N   UNL     1      27.719  37.424   5.258  1.00  0.00    -0.135 NA
ATOM     13  N   UNL     1      27.896  36.229   5.826  1.00  0.00    -0.062 NA
ENDBRANCH   1   8
TORSDOF 1
BEGIN_RES LYS A 135
REMARK  4 active torsions:
REMARK  status: ('A' for Active; 'I' for Inactive)
REMARK    1  A    between atoms: CA   and  CB  
REMARK    2  A    between atoms: CB   and  CG  
REMARK    3  A    between atoms: CG   and  CD  
REMARK    4  A    between atoms: CD   and  CE  
ROOT
ATOM      1  CA  LYS A 135      33.193  34.663   9.290  1.00 25.02     0.186 C 
ENDROOT
BRANCH   1   2
ATOM      2  CB  LYS A 135      32.060  35.360  10.034  1.00 26.63     0.034 C 
BRANCH   2   3
ATOM      3  CG  LYS A 135      32.467  35.903  11.380  1.00 29.45     0.005 C 
BRANCH   3   4
ATOM      4  CD  LYS A 135      31.551  37.043  11.798  1.00 32.00     0.041 C 
BRANCH   4   5
ATOM      5  CE  LYS A 135      30.542  37.343  10.706  1.00 34.25     0.338 C 
ATOM      6  NZ  LYS A 135      29.148  37.225  11.217  1.00 35.99     0.618 N 
ENDBRANCH   4   5
ENDBRANCH   3   4
ENDBRANCH   2   3
ENDBRANCH   1   2
END_RES LYS A 135
BEGIN_RES TYR A 136
REMARK  2 active torsions:
REMARK  status: ('A' for Active; 'I' for Inactive)
REMARK    5  A    between atoms: CA   and  CB  
REMARK    6  A    between atoms: CB   and  CG  
ROOT
ATOM      7  CA  TYR A 136      36.583  36.399   8.994  1.00 26.14     0.191 C 
ENDROOT
BRANCH   7   8
ATOM      8  CB  TYR A 136      37.367  36.835  10.240  1.00 28.16     0.060 C 
BRANCH   8   9
ATOM      9  CG  TYR A 136      36.466  37.242  11.379  1.00 31.88    -0.020 A 
ATOM     10  CD2 TYR A 136      35.697  38.407  11.313  1.00 32.67    -0.002 A 
ATOM     11  CE2 TYR A 136      34.864  38.777  12.378  1.00 33.89     0.027 A 
ATOM     12  CZ  TYR A 136      34.800  37.975  13.520  1.00 34.34     0.131 A 
ATOM     13  OH  TYR A 136      33.977  38.319  14.583  1.00 35.14    -0.190 OA
ATOM     14  CE1 TYR A 136      35.558  36.816  13.603  1.00 35.01     0.027 A 
ATOM     15  CD1 TYR A 136      36.388  36.461  12.539  1.00 33.57    -0.002 A 
ENDBRANCH   8   9
ENDBRANCH   7   8
END_RES TYR A 136
BEGIN_RES ASN A 133
REMARK  2 active torsions:
REMARK  status: ('A' for Active; 'I' for Inactive)
REMARK    7  A    between atoms: CA   and  CB  
REMARK    8  A    between atoms: CB   and  CG  
ROOT
ATOM     16  CA  ASN A 133      31.225  30.257  11.749  1.00 18.15     0.196 C 
ENDROOT
BRANCH  16  17
ATOM     17  CB  ASN A 133      30.092  31.240  11.460  1.00 18.27     0.126 C 
BRANCH  17  18
ATOM     18  CG  ASN A 133      28.747  30.586  11.381  1.00 18.94     0.276 C 
ATOM     19  OD1 ASN A 133      28.553  29.612  10.651  1.00 18.09    -0.269 OA
ATOM     20  ND2 ASN A 133      27.793  31.123  12.139  1.00 18.93    -0.107 N 
ENDBRANCH  17  18
ENDBRANCH  16  17
END_RES ASN A 133
