REMARK VINA RESULT:    -3.128      7.615     15.659
REMARK INTER + INTRA:          -6.458
REMARK INTER:                  -3.424
REMARK INTRA:                  -3.034
REMARK UNBOUND:                -3.147
REMARK SMILES Cc1cn(-c2ccncc2)nn1
REMARK SMILES IDX 1 1 2 2 3 3 4 4 11 5 12 6 5 7 6 8 10 9 7 10 9 11 8 12
REMARK H PARENT
REMARK Flexibility Score: inf
ROOT
ATOM      1  C   UNL     1      37.284  33.414  11.712  1.00  0.00     0.070 C 
ATOM      2  C   UNL     1      37.972  33.827  12.951  1.00  0.00     0.080 A 
ATOM      3  C   UNL     1      37.538  33.695  14.263  1.00  0.00     0.140 A 
ATOM      4  N   UNL     1      38.471  34.202  15.082  1.00  0.00    -0.220 N 
ATOM      5  N   UNL     1      39.456  34.636  14.313  1.00  0.00    -0.062 NA
ATOM      6  N   UNL     1      39.174  34.422  13.035  1.00  0.00    -0.135 NA
ENDROOT
BRANCH   4   7
ATOM      7  C   UNL     1      38.396  34.252  16.504  1.00  0.00     0.069 A 
ATOM      8  C   UNL     1      37.931  35.390  17.140  1.00  0.00     0.048 A 
ATOM      9  C   UNL     1      38.772  33.202  17.308  1.00  0.00     0.048 A 
ATOM     10  C   UNL     1      37.863  35.428  18.506  1.00  0.00     0.113 A 
ATOM     11  C   UNL     1      38.702  33.244  18.683  1.00  0.00     0.113 A 
ATOM     12  N   UNL     1      38.242  34.377  19.238  1.00  0.00    -0.265 NA
ENDBRANCH   4   7
TORSDOF 1
BEGIN_RES LYS A 135
REMARK  4 active torsions:
REMARK  status: ('A' for Active; 'I' for Inactive)
REMARK    1  A    between atoms: CA   and  CB  
REMARK    2  A    between atoms: CB   and  CG  
REMARK    3  A    between atoms: CG   and  CD  
REMARK    4  A    between atoms: CD   and  CE  
ROOT
ATOM      1  CA  LYS A 135      33.193  34.663   9.290  1.00 25.02     0.186 C 
ENDROOT
BRANCH   1   2
ATOM      2  CB  LYS A 135      32.060  35.360  10.034  1.00 26.63     0.034 C 
BRANCH   2   3
ATOM      3  CG  LYS A 135      30.834  35.588   9.188  1.00 29.45     0.005 C 
BRANCH   3   4
ATOM      4  CD  LYS A 135      30.270  34.265   8.693  1.00 32.00     0.041 C 
BRANCH   4   5
ATOM      5  CE  LYS A 135      28.763  34.232   8.861  1.00 34.25     0.338 C 
ATOM      6  NZ  LYS A 135      28.085  34.981   7.767  1.00 35.99     0.618 N 
ENDBRANCH   4   5
ENDBRANCH   3   4
ENDBRANCH   2   3
ENDBRANCH   1   2
END_RES LYS A 135
BEGIN_RES TYR A 136
REMARK  2 active torsions:
REMARK  status: ('A' for Active; 'I' for Inactive)
REMARK    5  A    between atoms: CA   and  CB  
REMARK    6  A    between atoms: CB   and  CG  
ROOT
ATOM      7  CA  TYR A 136      36.583  36.399   8.994  1.00 26.14     0.191 C 
ENDROOT
BRANCH   7   8
ATOM      8  CB  TYR A 136      37.367  36.835  10.240  1.00 28.16     0.060 C 
BRANCH   8   9
ATOM      9  CG  TYR A 136      37.192  38.301  10.552  1.00 31.88    -0.020 A 
ATOM     10  CD2 TYR A 136      37.831  39.283   9.792  1.00 32.67    -0.002 A 
ATOM     11  CE2 TYR A 136      37.664  40.642  10.091  1.00 33.89     0.027 A 
ATOM     12  CZ  TYR A 136      36.849  41.022  11.161  1.00 34.34     0.131 A 
ATOM     13  OH  TYR A 136      36.663  42.362  11.471  1.00 35.14    -0.190 OA
ATOM     14  CE1 TYR A 136      36.208  40.059  11.927  1.00 35.01     0.027 A 
ATOM     15  CD1 TYR A 136      36.388  38.709  11.624  1.00 33.57    -0.002 A 
ENDBRANCH   8   9
ENDBRANCH   7   8
END_RES TYR A 136
BEGIN_RES ASN A 133
REMARK  2 active torsions:
REMARK  status: ('A' for Active; 'I' for Inactive)
REMARK    7  A    between atoms: CA   and  CB  
REMARK    8  A    between atoms: CB   and  CG  
ROOT
ATOM     16  CA  ASN A 133      31.225  30.257  11.749  1.00 18.15     0.196 C 
ENDROOT
BRANCH  16  17
ATOM     17  CB  ASN A 133      30.092  31.240  11.460  1.00 18.27     0.126 C 
BRANCH  17  18
ATOM     18  CG  ASN A 133      28.758  30.577  11.307  1.00 18.94     0.276 C 
ATOM     19  OD1 ASN A 133      28.609  29.609  10.559  1.00 18.09    -0.269 OA
ATOM     20  ND2 ASN A 133      27.762  31.099  12.021  1.00 18.93    -0.107 N 
ENDBRANCH  17  18
ENDBRANCH  16  17
END_RES ASN A 133
