REMARK VINA RESULT:    -4.925      5.435      7.832
REMARK INTER + INTRA:          -8.199
REMARK INTER:                  -5.138
REMARK INTRA:                  -3.060
REMARK UNBOUND:                -2.985
REMARK SMILES Cc1cn(-c2c3ccccc3nc3ccccc23)nn1
REMARK SMILES IDX 5 1 6 2 7 3 8 4 9 5 10 6 11 7 12 8 13 9 14 10 15 11 16 12
REMARK SMILES IDX 17 13 18 14 4 15 1 16 2 17 3 18 20 19 19 20
REMARK H PARENT
REMARK Flexibility Score: inf
ROOT
ATOM      1  C   UNL     1      36.757  39.317   4.822  1.00  0.00     0.085 A 
ATOM      2  C   UNL     1      36.813  38.671   3.599  1.00  0.00     0.027 A 
ATOM      3  C   UNL     1      35.676  38.513   2.835  1.00  0.00     0.012 A 
ATOM      4  C   UNL     1      35.760  37.866   1.621  1.00  0.00     0.001 A 
ATOM      5  C   UNL     1      36.992  37.399   1.219  1.00  0.00     0.002 A 
ATOM      6  C   UNL     1      38.118  37.559   1.981  1.00  0.00     0.029 A 
ATOM      7  C   UNL     1      38.054  38.211   3.213  1.00  0.00     0.073 A 
ATOM      8  N   UNL     1      39.170  38.356   3.943  1.00  0.00    -0.248 NA
ATOM      9  C   UNL     1      39.122  38.992   5.151  1.00  0.00     0.073 A 
ATOM     10  C   UNL     1      40.266  39.147   5.910  1.00  0.00     0.029 A 
ATOM     11  C   UNL     1      40.152  39.797   7.119  1.00  0.00     0.002 A 
ATOM     12  C   UNL     1      38.939  40.284   7.569  1.00  0.00     0.001 A 
ATOM     13  C   UNL     1      37.826  40.124   6.809  1.00  0.00     0.012 A 
ATOM     14  C   UNL     1      37.915  39.477   5.598  1.00  0.00     0.027 A 
ENDROOT
BRANCH   1  15
ATOM     15  N   UNL     1      35.527  39.828   5.312  1.00  0.00    -0.219 N 
ATOM     16  C   UNL     1      32.367  39.737   7.173  1.00  0.00     0.070 C 
ATOM     17  C   UNL     1      33.587  40.036   6.341  1.00  0.00     0.080 A 
ATOM     18  C   UNL     1      34.646  39.192   6.092  1.00  0.00     0.140 A 
ATOM     19  N   UNL     1      33.848  41.181   5.698  1.00  0.00    -0.135 NA
ATOM     20  N   UNL     1      35.009  41.014   5.101  1.00  0.00    -0.062 NA
ENDBRANCH   1  15
TORSDOF 1
BEGIN_RES LYS A 135
REMARK  4 active torsions:
REMARK  status: ('A' for Active; 'I' for Inactive)
REMARK    1  A    between atoms: CA   and  CB  
REMARK    2  A    between atoms: CB   and  CG  
REMARK    3  A    between atoms: CG   and  CD  
REMARK    4  A    between atoms: CD   and  CE  
ROOT
ATOM      1  CA  LYS A 135      33.193  34.663   9.290  1.00 25.02     0.186 C 
ENDROOT
BRANCH   1   2
ATOM      2  CB  LYS A 135      32.060  35.360  10.034  1.00 26.63     0.034 C 
BRANCH   2   3
ATOM      3  CG  LYS A 135      30.731  34.662   9.900  1.00 29.45     0.005 C 
BRANCH   3   4
ATOM      4  CD  LYS A 135      30.327  34.554   8.437  1.00 32.00     0.041 C 
BRANCH   4   5
ATOM      5  CE  LYS A 135      28.817  34.530   8.303  1.00 34.25     0.338 C 
ATOM      6  NZ  LYS A 135      28.187  33.820   9.451  1.00 35.99     0.618 N 
ENDBRANCH   4   5
ENDBRANCH   3   4
ENDBRANCH   2   3
ENDBRANCH   1   2
END_RES LYS A 135
BEGIN_RES TYR A 136
REMARK  2 active torsions:
REMARK  status: ('A' for Active; 'I' for Inactive)
REMARK    5  A    between atoms: CA   and  CB  
REMARK    6  A    between atoms: CB   and  CG  
ROOT
ATOM      7  CA  TYR A 136      36.583  36.399   8.994  1.00 26.14     0.191 C 
ENDROOT
BRANCH   7   8
ATOM      8  CB  TYR A 136      37.367  36.835  10.240  1.00 28.16     0.060 C 
BRANCH   8   9
ATOM      9  CG  TYR A 136      37.344  38.330  10.447  1.00 31.88    -0.020 A 
ATOM     10  CD2 TYR A 136      36.249  39.098  10.045  1.00 32.67    -0.002 A 
ATOM     11  CE2 TYR A 136      36.237  40.486  10.240  1.00 33.89     0.027 A 
ATOM     12  CZ  TYR A 136      37.333  41.111  10.842  1.00 34.34     0.131 A 
ATOM     13  OH  TYR A 136      37.340  42.483  11.052  1.00 35.14    -0.190 OA
ATOM     14  CE1 TYR A 136      38.429  40.363  11.246  1.00 35.01     0.027 A 
ATOM     15  CD1 TYR A 136      38.431  38.982  11.041  1.00 33.57    -0.002 A 
ENDBRANCH   8   9
ENDBRANCH   7   8
END_RES TYR A 136
BEGIN_RES ASN A 133
REMARK  2 active torsions:
REMARK  status: ('A' for Active; 'I' for Inactive)
REMARK    7  A    between atoms: CA   and  CB  
REMARK    8  A    between atoms: CB   and  CG  
ROOT
ATOM     16  CA  ASN A 133      31.225  30.257  11.749  1.00 18.15     0.196 C 
ENDROOT
BRANCH  16  17
ATOM     17  CB  ASN A 133      30.092  31.240  11.460  1.00 18.27     0.126 C 
BRANCH  17  18
ATOM     18  CG  ASN A 133      28.752  30.581  11.344  1.00 18.94     0.276 C 
ATOM     19  OD1 ASN A 133      28.586  29.598  10.620  1.00 18.09    -0.269 OA
ATOM     20  ND2 ASN A 133      27.771  31.124  12.063  1.00 18.93    -0.107 N 
ENDBRANCH  17  18
ENDBRANCH  16  17
END_RES ASN A 133
