REMARK VINA RESULT:    -3.262      6.245      7.722
REMARK INTER + INTRA:          -7.660
REMARK INTER:                  -3.888
REMARK INTRA:                  -3.772
REMARK UNBOUND:                -3.635
REMARK SMILES Cc1cn(CCNS(C)(=O)=O)nn1
REMARK SMILES IDX 6 1 5 2 4 3 1 4 2 5 3 6 13 7 12 8 7 9 8 11 10 12 11 13 9 14
REMARK H PARENT 7 10
REMARK Flexibility Score: inf
ROOT
ATOM      1  C   UNL     1      36.752  38.255   5.233  1.00  0.00     0.122 C 
ENDROOT
BRANCH   1   2
ATOM      2  C   UNL     1      35.387  38.586   4.620  1.00  0.00     0.162 C 
BRANCH   2   3
ATOM      3  N   UNL     1      35.647  38.988   3.230  1.00  0.00    -0.251 N 
ATOM      4  C   UNL     1      36.728  41.284   0.601  1.00  0.00     0.070 C 
ATOM      5  C   UNL     1      36.234  40.163   1.451  1.00  0.00     0.080 A 
ATOM      6  C   UNL     1      36.132  40.171   2.823  1.00  0.00     0.134 A 
ATOM      7  N   UNL     1      35.798  38.952   1.068  1.00  0.00    -0.136 NA
ATOM      8  N   UNL     1      35.454  38.268   2.142  1.00  0.00    -0.067 NA
ENDBRANCH   2   3
ENDBRANCH   1   2
BRANCH   1   9
ATOM      9  N   UNL     1      37.288  37.108   4.559  1.00  0.00    -0.214 NA
ATOM     10  H   UNL     1      36.645  36.726   3.857  1.00  0.00     0.141 HD
BRANCH   9  11
ATOM     11  S   UNL     1      38.844  37.448   3.921  1.00  0.00     0.208 S 
ATOM     12  O   UNL     1      39.328  38.784   4.398  1.00  0.00    -0.213 OA
ATOM     13  O   UNL     1      38.741  37.481   2.406  1.00  0.00    -0.213 OA
ATOM     14  C   UNL     1      39.951  36.156   4.358  1.00  0.00     0.176 C 
ENDBRANCH   9  11
ENDBRANCH   1   9
TORSDOF 4
BEGIN_RES LYS A 135
REMARK  4 active torsions:
REMARK  status: ('A' for Active; 'I' for Inactive)
REMARK    1  A    between atoms: CA   and  CB  
REMARK    2  A    between atoms: CB   and  CG  
REMARK    3  A    between atoms: CG   and  CD  
REMARK    4  A    between atoms: CD   and  CE  
ROOT
ATOM      1  CA  LYS A 135      33.193  34.663   9.290  1.00 25.02     0.186 C 
ENDROOT
BRANCH   1   2
ATOM      2  CB  LYS A 135      32.060  35.360  10.034  1.00 26.63     0.034 C 
BRANCH   2   3
ATOM      3  CG  LYS A 135      30.833  35.585   9.189  1.00 29.45     0.005 C 
BRANCH   3   4
ATOM      4  CD  LYS A 135      30.230  34.259   8.753  1.00 32.00     0.041 C 
BRANCH   4   5
ATOM      5  CE  LYS A 135      28.738  34.403   8.520  1.00 34.25     0.338 C 
ATOM      6  NZ  LYS A 135      27.960  33.723   9.593  1.00 35.99     0.618 N 
ENDBRANCH   4   5
ENDBRANCH   3   4
ENDBRANCH   2   3
ENDBRANCH   1   2
END_RES LYS A 135
BEGIN_RES TYR A 136
REMARK  2 active torsions:
REMARK  status: ('A' for Active; 'I' for Inactive)
REMARK    5  A    between atoms: CA   and  CB  
REMARK    6  A    between atoms: CB   and  CG  
ROOT
ATOM      7  CA  TYR A 136      36.583  36.399   8.994  1.00 26.14     0.191 C 
ENDROOT
BRANCH   7   8
ATOM      8  CB  TYR A 136      37.367  36.835  10.240  1.00 28.16     0.060 C 
BRANCH   8   9
ATOM      9  CG  TYR A 136      37.335  38.329  10.452  1.00 31.88    -0.020 A 
ATOM     10  CD2 TYR A 136      36.393  39.131   9.805  1.00 32.67    -0.002 A 
ATOM     11  CE2 TYR A 136      36.373  40.518  10.008  1.00 33.89     0.027 A 
ATOM     12  CZ  TYR A 136      37.306  41.107  10.865  1.00 34.34     0.131 A 
ATOM     13  OH  TYR A 136      37.300  42.477  11.086  1.00 35.14    -0.190 OA
ATOM     14  CE1 TYR A 136      38.250  40.325  11.515  1.00 35.01     0.027 A 
ATOM     15  CD1 TYR A 136      38.264  38.946  11.300  1.00 33.57    -0.002 A 
ENDBRANCH   8   9
ENDBRANCH   7   8
END_RES TYR A 136
BEGIN_RES ASN A 133
REMARK  2 active torsions:
REMARK  status: ('A' for Active; 'I' for Inactive)
REMARK    7  A    between atoms: CA   and  CB  
REMARK    8  A    between atoms: CB   and  CG  
ROOT
ATOM     16  CA  ASN A 133      31.225  30.257  11.749  1.00 18.15     0.196 C 
ENDROOT
BRANCH  16  17
ATOM     17  CB  ASN A 133      30.092  31.240  11.460  1.00 18.27     0.126 C 
BRANCH  17  18
ATOM     18  CG  ASN A 133      28.750  30.583  11.360  1.00 18.94     0.276 C 
ATOM     19  OD1 ASN A 133      28.567  29.614  10.622  1.00 18.09    -0.269 OA
ATOM     20  ND2 ASN A 133      27.785  31.113  12.111  1.00 18.93    -0.107 N 
ENDBRANCH  17  18
ENDBRANCH  16  17
END_RES ASN A 133
