REMARK VINA RESULT:    -5.383      3.262      8.614
REMARK INTER + INTRA:          -8.683
REMARK INTER:                  -7.354
REMARK INTRA:                  -1.329
REMARK UNBOUND:                -2.985
REMARK SMILES Cc1cn(-c2c3ccccc3nc3ccccc23)nn1
REMARK SMILES IDX 5 1 6 2 7 3 8 4 9 5 10 6 11 7 12 8 13 9 14 10 15 11 16 12
REMARK SMILES IDX 17 13 18 14 4 15 1 16 2 17 3 18 20 19 19 20
REMARK H PARENT
REMARK Flexibility Score: inf
ROOT
ATOM      1  C   UNL     1      27.302  36.290   7.794  1.00  0.00     0.085 A 
ATOM      2  C   UNL     1      26.005  36.306   8.276  1.00  0.00     0.027 A 
ATOM      3  C   UNL     1      25.077  37.189   7.766  1.00  0.00     0.012 A 
ATOM      4  C   UNL     1      23.792  37.184   8.264  1.00  0.00     0.001 A 
ATOM      5  C   UNL     1      23.487  36.285   9.263  1.00  0.00     0.002 A 
ATOM      6  C   UNL     1      24.411  35.410   9.765  1.00  0.00     0.029 A 
ATOM      7  C   UNL     1      25.718  35.399   9.275  1.00  0.00     0.073 A 
ATOM      8  N   UNL     1      26.608  34.534   9.783  1.00  0.00    -0.248 NA
ATOM      9  C   UNL     1      27.890  34.513   9.311  1.00  0.00     0.073 A 
ATOM     10  C   UNL     1      28.814  33.624   9.828  1.00  0.00     0.029 A 
ATOM     11  C   UNL     1      30.090  33.653   9.311  1.00  0.00     0.002 A 
ATOM     12  C   UNL     1      30.448  34.534   8.309  1.00  0.00     0.001 A 
ATOM     13  C   UNL     1      29.526  35.399   7.813  1.00  0.00     0.012 A 
ATOM     14  C   UNL     1      28.245  35.390   8.314  1.00  0.00     0.027 A 
ENDROOT
BRANCH   1  15
ATOM     15  N   UNL     1      27.701  37.183   6.766  1.00  0.00    -0.219 N 
ATOM     16  C   UNL     1      29.066  40.291   5.373  1.00  0.00     0.070 C 
ATOM     17  C   UNL     1      28.474  38.938   5.676  1.00  0.00     0.080 A 
ATOM     18  C   UNL     1      28.229  38.402   6.920  1.00  0.00     0.140 A 
ATOM     19  N   UNL     1      28.084  38.023   4.780  1.00  0.00    -0.135 NA
ATOM     20  N   UNL     1      27.632  36.998   5.469  1.00  0.00    -0.062 NA
ENDBRANCH   1  15
TORSDOF 1
BEGIN_RES LYS A 135
REMARK  4 active torsions:
REMARK  status: ('A' for Active; 'I' for Inactive)
REMARK    1  A    between atoms: CA   and  CB  
REMARK    2  A    between atoms: CB   and  CG  
REMARK    3  A    between atoms: CG   and  CD  
REMARK    4  A    between atoms: CD   and  CE  
ROOT
ATOM      1  CA  LYS A 135      33.193  34.663   9.290  1.00 25.02     0.186 C 
ENDROOT
BRANCH   1   2
ATOM      2  CB  LYS A 135      32.060  35.360  10.034  1.00 26.63     0.034 C 
BRANCH   2   3
ATOM      3  CG  LYS A 135      32.508  36.072  11.284  1.00 29.45     0.005 C 
BRANCH   3   4
ATOM      4  CD  LYS A 135      31.940  35.394  12.521  1.00 32.00     0.041 C 
BRANCH   4   5
ATOM      5  CE  LYS A 135      30.431  35.534  12.559  1.00 34.25     0.338 C 
ATOM      6  NZ  LYS A 135      29.801  34.366  13.236  1.00 35.99     0.618 N 
ENDBRANCH   4   5
ENDBRANCH   3   4
ENDBRANCH   2   3
ENDBRANCH   1   2
END_RES LYS A 135
BEGIN_RES TYR A 136
REMARK  2 active torsions:
REMARK  status: ('A' for Active; 'I' for Inactive)
REMARK    5  A    between atoms: CA   and  CB  
REMARK    6  A    between atoms: CB   and  CG  
ROOT
ATOM      7  CA  TYR A 136      36.583  36.399   8.994  1.00 26.14     0.191 C 
ENDROOT
BRANCH   7   8
ATOM      8  CB  TYR A 136      37.367  36.835  10.240  1.00 28.16     0.060 C 
BRANCH   8   9
ATOM      9  CG  TYR A 136      37.109  38.274  10.614  1.00 31.88    -0.020 A 
ATOM     10  CD2 TYR A 136      37.648  38.826  11.778  1.00 32.67    -0.002 A 
ATOM     11  CE2 TYR A 136      37.400  40.164  12.117  1.00 33.89     0.027 A 
ATOM     12  CZ  TYR A 136      36.605  40.955  11.284  1.00 34.34     0.131 A 
ATOM     13  OH  TYR A 136      36.353  42.283  11.597  1.00 35.14    -0.190 OA
ATOM     14  CE1 TYR A 136      36.061  40.422  10.125  1.00 35.01     0.027 A 
ATOM     15  CD1 TYR A 136      36.309  39.087   9.801  1.00 33.57    -0.002 A 
ENDBRANCH   8   9
ENDBRANCH   7   8
END_RES TYR A 136
BEGIN_RES ASN A 133
REMARK  2 active torsions:
REMARK  status: ('A' for Active; 'I' for Inactive)
REMARK    7  A    between atoms: CA   and  CB  
REMARK    8  A    between atoms: CB   and  CG  
ROOT
ATOM     16  CA  ASN A 133      31.225  30.257  11.749  1.00 18.15     0.196 C 
ENDROOT
BRANCH  16  17
ATOM     17  CB  ASN A 133      30.092  31.240  11.460  1.00 18.27     0.126 C 
BRANCH  17  18
ATOM     18  CG  ASN A 133      28.744  30.591  11.411  1.00 18.94     0.276 C 
ATOM     19  OD1 ASN A 133      28.513  29.655  10.643  1.00 18.09    -0.269 OA
ATOM     20  ND2 ASN A 133      27.827  31.088  12.241  1.00 18.93    -0.107 N 
ENDBRANCH  17  18
ENDBRANCH  16  17
END_RES ASN A 133
