REMARK VINA RESULT:    -3.549      5.054      6.722
REMARK INTER + INTRA:          -7.499
REMARK INTER:                  -4.212
REMARK INTRA:                  -3.286
REMARK UNBOUND:                -3.223
REMARK SMILES Cc1cn(CCC(=O)O)nn1
REMARK SMILES IDX 6 1 5 2 4 3 1 4 2 5 3 6 11 7 10 8 7 9 8 10 9 11
REMARK H PARENT 9 12
REMARK Flexibility Score: inf
ROOT
ATOM      1  C   UNL     1      37.866  32.848  13.001  1.00  0.00     0.146 C 
ENDROOT
BRANCH   1   2
ATOM      2  C   UNL     1      38.544  33.965  13.801  1.00  0.00     0.158 C 
BRANCH   2   3
ATOM      3  N   UNL     1      39.615  34.546  13.033  1.00  0.00    -0.252 N 
ATOM      4  C   UNL     1      42.806  34.614  11.246  1.00  0.00     0.070 C 
ATOM      5  C   UNL     1      41.492  34.857  11.902  1.00  0.00     0.080 A 
ATOM      6  C   UNL     1      40.737  33.916  12.621  1.00  0.00     0.134 A 
ATOM      7  N   UNL     1      40.800  35.982  11.917  1.00  0.00    -0.136 NA
ATOM      8  N   UNL     1      39.675  35.774  12.604  1.00  0.00    -0.067 NA
ENDBRANCH   2   3
ENDBRANCH   1   2
BRANCH   1   9
ATOM      9  C   UNL     1      36.948  33.509  12.062  1.00  0.00     0.305 C 
ATOM     10  O   UNL     1      35.864  33.947  12.489  1.00  0.00    -0.252 OA
BRANCH   9  11
ATOM     11  O   UNL     1      37.275  33.644  10.726  1.00  0.00    -0.481 OA
ATOM     12  H   UNL     1      37.855  34.391  10.363  1.00  0.00     0.296 HD
ENDBRANCH   9  11
ENDBRANCH   1   9
TORSDOF 4
BEGIN_RES LYS A 135
REMARK  4 active torsions:
REMARK  status: ('A' for Active; 'I' for Inactive)
REMARK    1  A    between atoms: CA   and  CB  
REMARK    2  A    between atoms: CB   and  CG  
REMARK    3  A    between atoms: CG   and  CD  
REMARK    4  A    between atoms: CD   and  CE  
ROOT
ATOM      1  CA  LYS A 135      33.193  34.663   9.290  1.00 25.02     0.186 C 
ENDROOT
BRANCH   1   2
ATOM      2  CB  LYS A 135      32.060  35.360  10.034  1.00 26.63     0.034 C 
BRANCH   2   3
ATOM      3  CG  LYS A 135      30.700  34.782   9.739  1.00 29.45     0.005 C 
BRANCH   3   4
ATOM      4  CD  LYS A 135      30.537  34.527   8.248  1.00 32.00     0.041 C 
BRANCH   4   5
ATOM      5  CE  LYS A 135      29.137  34.893   7.795  1.00 34.25     0.338 C 
ATOM      6  NZ  LYS A 135      28.112  34.361   8.736  1.00 35.99     0.618 N 
ENDBRANCH   4   5
ENDBRANCH   3   4
ENDBRANCH   2   3
ENDBRANCH   1   2
END_RES LYS A 135
BEGIN_RES TYR A 136
REMARK  2 active torsions:
REMARK  status: ('A' for Active; 'I' for Inactive)
REMARK    5  A    between atoms: CA   and  CB  
REMARK    6  A    between atoms: CB   and  CG  
ROOT
ATOM      7  CA  TYR A 136      36.583  36.399   8.994  1.00 26.14     0.191 C 
ENDROOT
BRANCH   7   8
ATOM      8  CB  TYR A 136      37.367  36.835  10.240  1.00 28.16     0.060 C 
BRANCH   8   9
ATOM      9  CG  TYR A 136      37.193  38.301  10.552  1.00 31.88    -0.020 A 
ATOM     10  CD2 TYR A 136      37.770  38.872  11.688  1.00 32.67    -0.002 A 
ATOM     11  CE2 TYR A 136      37.600  40.235  11.969  1.00 33.89     0.027 A 
ATOM     12  CZ  TYR A 136      36.846  41.033  11.106  1.00 34.34     0.131 A 
ATOM     13  OH  TYR A 136      36.671  42.386  11.361  1.00 35.14    -0.190 OA
ATOM     14  CE1 TYR A 136      36.265  40.482   9.973  1.00 35.01     0.027 A 
ATOM     15  CD1 TYR A 136      36.435  39.122   9.707  1.00 33.57    -0.002 A 
ENDBRANCH   8   9
ENDBRANCH   7   8
END_RES TYR A 136
BEGIN_RES ASN A 133
REMARK  2 active torsions:
REMARK  status: ('A' for Active; 'I' for Inactive)
REMARK    7  A    between atoms: CA   and  CB  
REMARK    8  A    between atoms: CB   and  CG  
ROOT
ATOM     16  CA  ASN A 133      31.225  30.257  11.749  1.00 18.15     0.196 C 
ENDROOT
BRANCH  16  17
ATOM     17  CB  ASN A 133      30.092  31.240  11.460  1.00 18.27     0.126 C 
BRANCH  17  18
ATOM     18  CG  ASN A 133      28.753  30.581  11.341  1.00 18.94     0.276 C 
ATOM     19  OD1 ASN A 133      28.583  29.609  10.603  1.00 18.09    -0.269 OA
ATOM     20  ND2 ASN A 133      27.775  31.111  12.075  1.00 18.93    -0.107 N 
ENDBRANCH  17  18
ENDBRANCH  16  17
END_RES ASN A 133
