REMARK VINA RESULT:    -3.779      8.539     13.626
REMARK INTER + INTRA:          -7.456
REMARK INTER:                  -4.193
REMARK INTRA:                  -3.263
REMARK UNBOUND:                -3.235
REMARK SMILES Cc1cn(-c2ccc([N+](=O)[O-])cc2)nn1
REMARK SMILES IDX 5 1 6 2 7 3 8 4 12 5 13 6 4 7 1 8 2 9 3 10 15 11 14 12 9 13
REMARK SMILES IDX 10 14 11 15
REMARK H PARENT
REMARK Flexibility Score: inf
ROOT
ATOM      1  C   UNL     1      29.650  31.954  15.742  1.00  0.00     0.067 A 
ATOM      2  C   UNL     1      29.122  32.763  14.764  1.00  0.00     0.035 A 
ATOM      3  C   UNL     1      29.887  33.794  14.198  1.00  0.00     0.088 A 
ATOM      4  C   UNL     1      31.180  34.005  14.621  1.00  0.00     0.269 A 
ATOM      5  C   UNL     1      31.707  33.210  15.586  1.00  0.00     0.088 A 
ATOM      6  C   UNL     1      30.942  32.183  16.148  1.00  0.00     0.035 A 
ENDROOT
BRANCH   1   7
ATOM      7  N   UNL     1      28.855  30.926  16.291  1.00  0.00    -0.220 N 
ATOM      8  C   UNL     1      27.086  29.066  18.910  1.00  0.00     0.070 C 
ATOM      9  C   UNL     1      27.729  29.671  17.728  1.00  0.00     0.080 A 
ATOM     10  C   UNL     1      28.503  30.794  17.593  1.00  0.00     0.140 A 
ATOM     11  N   UNL     1      27.624  29.138  16.486  1.00  0.00    -0.135 NA
ATOM     12  N   UNL     1      28.298  29.895  15.648  1.00  0.00    -0.062 NA
ENDBRANCH   1   7
BRANCH   4  13
ATOM     13  N   UNL     1      31.936  35.068  14.022  1.00  0.00     0.062 N 
ATOM     14  O   UNL     1      31.839  35.281  12.808  1.00  0.00    -0.258 OA
ATOM     15  O   UNL     1      32.755  35.847  14.769  1.00  0.00    -0.258 OA
ENDBRANCH   4  13
TORSDOF 2
BEGIN_RES LYS A 135
REMARK  4 active torsions:
REMARK  status: ('A' for Active; 'I' for Inactive)
REMARK    1  A    between atoms: CA   and  CB  
REMARK    2  A    between atoms: CB   and  CG  
REMARK    3  A    between atoms: CG   and  CD  
REMARK    4  A    between atoms: CD   and  CE  
ROOT
ATOM      1  CA  LYS A 135      33.193  34.663   9.290  1.00 25.02     0.186 C 
ENDROOT
BRANCH   1   2
ATOM      2  CB  LYS A 135      32.060  35.360  10.034  1.00 26.63     0.034 C 
BRANCH   2   3
ATOM      3  CG  LYS A 135      30.801  35.502   9.218  1.00 29.45     0.005 C 
BRANCH   3   4
ATOM      4  CD  LYS A 135      30.126  34.152   9.033  1.00 32.00     0.041 C 
BRANCH   4   5
ATOM      5  CE  LYS A 135      28.678  34.333   8.619  1.00 34.25     0.338 C 
ATOM      6  NZ  LYS A 135      27.755  33.718   9.613  1.00 35.99     0.618 N 
ENDBRANCH   4   5
ENDBRANCH   3   4
ENDBRANCH   2   3
ENDBRANCH   1   2
END_RES LYS A 135
BEGIN_RES TYR A 136
REMARK  2 active torsions:
REMARK  status: ('A' for Active; 'I' for Inactive)
REMARK    5  A    between atoms: CA   and  CB  
REMARK    6  A    between atoms: CB   and  CG  
ROOT
ATOM      7  CA  TYR A 136      36.583  36.399   8.994  1.00 26.14     0.191 C 
ENDROOT
BRANCH   7   8
ATOM      8  CB  TYR A 136      37.367  36.835  10.240  1.00 28.16     0.060 C 
BRANCH   8   9
ATOM      9  CG  TYR A 136      37.161  38.292  10.575  1.00 31.88    -0.020 A 
ATOM     10  CD2 TYR A 136      37.721  38.856  11.723  1.00 32.67    -0.002 A 
ATOM     11  CE2 TYR A 136      37.523  40.210  12.026  1.00 33.89     0.027 A 
ATOM     12  CZ  TYR A 136      36.756  41.007  11.172  1.00 34.34     0.131 A 
ATOM     13  OH  TYR A 136      36.552  42.352  11.448  1.00 35.14    -0.190 OA
ATOM     14  CE1 TYR A 136      36.191  40.462  10.027  1.00 35.01     0.027 A 
ATOM     15  CD1 TYR A 136      36.391  39.111   9.740  1.00 33.57    -0.002 A 
ENDBRANCH   8   9
ENDBRANCH   7   8
END_RES TYR A 136
BEGIN_RES ASN A 133
REMARK  2 active torsions:
REMARK  status: ('A' for Active; 'I' for Inactive)
REMARK    7  A    between atoms: CA   and  CB  
REMARK    8  A    between atoms: CB   and  CG  
ROOT
ATOM     16  CA  ASN A 133      31.225  30.257  11.749  1.00 18.15     0.196 C 
ENDROOT
BRANCH  16  17
ATOM     17  CB  ASN A 133      30.092  31.240  11.460  1.00 18.27     0.126 C 
BRANCH  17  18
ATOM     18  CG  ASN A 133      28.754  30.580  11.331  1.00 18.94     0.276 C 
ATOM     19  OD1 ASN A 133      28.602  29.580  10.627  1.00 18.09    -0.269 OA
ATOM     20  ND2 ASN A 133      27.759  31.141  12.016  1.00 18.93    -0.107 N 
ENDBRANCH  17  18
ENDBRANCH  16  17
END_RES ASN A 133
