REMARK VINA RESULT:    -3.620      2.053      3.534
REMARK INTER + INTRA:          -7.896
REMARK INTER:                  -4.181
REMARK INTRA:                  -3.715
REMARK UNBOUND:                -3.429
REMARK SMILES COCC(C(N)=O)n1cc(C)nn1
REMARK SMILES IDX 3 1 4 2 8 3 11 4 10 5 9 6 12 7 13 8 5 9 7 10 6 11 2 14 1 15
REMARK H PARENT 6 12 6 13
REMARK Flexibility Score: inf
ROOT
ATOM      1  C   UNL     1      38.584  34.933  14.524  1.00  0.00     0.197 C 
ENDROOT
BRANCH   1   2
ATOM      2  C   UNL     1      38.570  34.709  13.017  1.00  0.00     0.223 C 
BRANCH   2   3
ATOM      3  N   UNL     1      39.911  34.647  12.485  1.00  0.00    -0.237 N 
ATOM      4  C   UNL     1      42.980  35.686  10.817  1.00  0.00     0.070 C 
ATOM      5  C   UNL     1      41.852  35.019  11.539  1.00  0.00     0.080 A 
ATOM      6  C   UNL     1      40.631  35.572  11.834  1.00  0.00     0.135 A 
ATOM      7  N   UNL     1      41.820  33.764  12.032  1.00  0.00    -0.136 NA
ATOM      8  N   UNL     1      40.663  33.547  12.593  1.00  0.00    -0.066 NA
ENDBRANCH   2   3
BRANCH   2   9
ATOM      9  C   UNL     1      37.785  33.504  12.738  1.00  0.00     0.244 C 
ATOM     10  O   UNL     1      37.077  33.459  11.700  1.00  0.00    -0.273 OA
ATOM     11  N   UNL     1      37.805  32.386  13.607  1.00  0.00    -0.368 N 
ATOM     12  H   UNL     1      38.567  32.199  14.299  1.00  0.00     0.159 HD
ATOM     13  H   UNL     1      37.033  31.659  13.608  1.00  0.00     0.159 HD
ENDBRANCH   2   9
ENDBRANCH   1   2
BRANCH   1  14
ATOM     14  O   UNL     1      37.265  35.045  14.952  1.00  0.00    -0.382 OA
ATOM     15  C   UNL     1      37.251  35.442  16.299  1.00  0.00     0.195 C 
ENDBRANCH   1  14
TORSDOF 4
BEGIN_RES LYS A 135
REMARK  4 active torsions:
REMARK  status: ('A' for Active; 'I' for Inactive)
REMARK    1  A    between atoms: CA   and  CB  
REMARK    2  A    between atoms: CB   and  CG  
REMARK    3  A    between atoms: CG   and  CD  
REMARK    4  A    between atoms: CD   and  CE  
ROOT
ATOM      1  CA  LYS A 135      33.193  34.663   9.290  1.00 25.02     0.186 C 
ENDROOT
BRANCH   1   2
ATOM      2  CB  LYS A 135      32.060  35.360  10.034  1.00 26.63     0.034 C 
BRANCH   2   3
ATOM      3  CG  LYS A 135      30.800  35.500   9.219  1.00 29.45     0.005 C 
BRANCH   3   4
ATOM      4  CD  LYS A 135      30.051  34.178   9.158  1.00 32.00     0.041 C 
BRANCH   4   5
ATOM      5  CE  LYS A 135      28.645  34.386   8.630  1.00 34.25     0.338 C 
ATOM      6  NZ  LYS A 135      27.639  33.728   9.508  1.00 35.99     0.618 N 
ENDBRANCH   4   5
ENDBRANCH   3   4
ENDBRANCH   2   3
ENDBRANCH   1   2
END_RES LYS A 135
BEGIN_RES TYR A 136
REMARK  2 active torsions:
REMARK  status: ('A' for Active; 'I' for Inactive)
REMARK    5  A    between atoms: CA   and  CB  
REMARK    6  A    between atoms: CB   and  CG  
ROOT
ATOM      7  CA  TYR A 136      36.583  36.399   8.994  1.00 26.14     0.191 C 
ENDROOT
BRANCH   7   8
ATOM      8  CB  TYR A 136      37.367  36.835  10.240  1.00 28.16     0.060 C 
BRANCH   8   9
ATOM      9  CG  TYR A 136      37.311  38.325  10.468  1.00 31.88    -0.020 A 
ATOM     10  CD2 TYR A 136      38.166  38.950  11.380  1.00 32.67    -0.002 A 
ATOM     11  CE2 TYR A 136      38.105  40.335  11.586  1.00 33.89     0.027 A 
ATOM     12  CZ  TYR A 136      37.180  41.102  10.874  1.00 34.34     0.131 A 
ATOM     13  OH  TYR A 136      37.106  42.476  11.057  1.00 35.14    -0.190 OA
ATOM     14  CE1 TYR A 136      36.322  40.498   9.966  1.00 35.01     0.027 A 
ATOM     15  CD1 TYR A 136      36.388  39.117   9.774  1.00 33.57    -0.002 A 
ENDBRANCH   8   9
ENDBRANCH   7   8
END_RES TYR A 136
BEGIN_RES ASN A 133
REMARK  2 active torsions:
REMARK  status: ('A' for Active; 'I' for Inactive)
REMARK    7  A    between atoms: CA   and  CB  
REMARK    8  A    between atoms: CB   and  CG  
ROOT
ATOM     16  CA  ASN A 133      31.225  30.257  11.749  1.00 18.15     0.196 C 
ENDROOT
BRANCH  16  17
ATOM     17  CB  ASN A 133      30.092  31.240  11.460  1.00 18.27     0.126 C 
BRANCH  17  18
ATOM     18  CG  ASN A 133      28.757  30.578  11.316  1.00 18.94     0.276 C 
ATOM     19  OD1 ASN A 133      28.600  29.613  10.566  1.00 18.09    -0.269 OA
ATOM     20  ND2 ASN A 133      27.767  31.098  12.041  1.00 18.93    -0.107 N 
ENDBRANCH  17  18
ENDBRANCH  16  17
END_RES ASN A 133
