REMARK VINA RESULT:    -6.250      1.211      3.621
REMARK INTER + INTRA:         -10.034
REMARK INTER:                  -7.014
REMARK INTRA:                  -3.019
REMARK UNBOUND:                -2.688
REMARK SMILES Cc1cn(C(c2ccccc2)c2ccccc2)nn1
REMARK SMILES IDX 5 1 4 2 1 3 2 4 3 5 19 6 18 7 6 8 7 9 11 10 8 11 10 12 9 13
REMARK SMILES IDX 12 14 13 15 17 16 14 17 16 18 15 19
REMARK H PARENT
REMARK Flexibility Score: inf
ROOT
ATOM      1  C   UNL     1      33.539  35.047  13.930  1.00  0.00     0.169 C 
ENDROOT
BRANCH   1   2
ATOM      2  N   UNL     1      33.073  36.322  13.386  1.00  0.00    -0.240 N 
ATOM      3  C   UNL     1      32.174  38.771  10.828  1.00  0.00     0.070 C 
ATOM      4  C   UNL     1      32.472  37.964  12.016  1.00  0.00     0.080 A 
ATOM      5  C   UNL     1      32.945  36.659  12.091  1.00  0.00     0.135 A 
ATOM      6  N   UNL     1      32.335  38.360  13.295  1.00  0.00    -0.136 NA
ATOM      7  N   UNL     1      32.696  37.373  14.089  1.00  0.00    -0.066 NA
ENDBRANCH   1   2
BRANCH   1   8
ATOM      8  C   UNL     1      32.825  34.645  15.160  1.00  0.00    -0.019 A 
ATOM      9  C   UNL     1      32.896  35.337  16.339  1.00  0.00     0.006 A 
ATOM     10  C   UNL     1      32.019  33.508  15.157  1.00  0.00     0.006 A 
ATOM     11  C   UNL     1      32.186  34.898  17.462  1.00  0.00     0.000 A 
ATOM     12  C   UNL     1      31.323  33.076  16.258  1.00  0.00     0.000 A 
ATOM     13  C   UNL     1      31.401  33.773  17.431  1.00  0.00     0.000 A 
ENDBRANCH   1   8
BRANCH   1  14
ATOM     14  C   UNL     1      34.999  34.994  14.026  1.00  0.00    -0.019 A 
ATOM     15  C   UNL     1      35.738  35.588  15.026  1.00  0.00     0.006 A 
ATOM     16  C   UNL     1      35.723  34.297  13.078  1.00  0.00     0.006 A 
ATOM     17  C   UNL     1      37.095  35.483  15.059  1.00  0.00     0.000 A 
ATOM     18  C   UNL     1      37.095  34.176  13.088  1.00  0.00     0.000 A 
ATOM     19  C   UNL     1      37.780  34.782  14.097  1.00  0.00     0.000 A 
ENDBRANCH   1  14
TORSDOF 3
BEGIN_RES LYS A 135
REMARK  4 active torsions:
REMARK  status: ('A' for Active; 'I' for Inactive)
REMARK    1  A    between atoms: CA   and  CB  
REMARK    2  A    between atoms: CB   and  CG  
REMARK    3  A    between atoms: CG   and  CD  
REMARK    4  A    between atoms: CD   and  CE  
ROOT
ATOM      1  CA  LYS A 135      33.193  34.663   9.290  1.00 25.02     0.186 C 
ENDROOT
BRANCH   1   2
ATOM      2  CB  LYS A 135      32.060  35.360  10.034  1.00 26.63     0.034 C 
BRANCH   2   3
ATOM      3  CG  LYS A 135      30.826  35.568   9.195  1.00 29.45     0.005 C 
BRANCH   3   4
ATOM      4  CD  LYS A 135      30.294  34.237   8.684  1.00 32.00     0.041 C 
BRANCH   4   5
ATOM      5  CE  LYS A 135      28.898  33.982   9.218  1.00 34.25     0.338 C 
ATOM      6  NZ  LYS A 135      27.867  34.614   8.348  1.00 35.99     0.618 N 
ENDBRANCH   4   5
ENDBRANCH   3   4
ENDBRANCH   2   3
ENDBRANCH   1   2
END_RES LYS A 135
BEGIN_RES TYR A 136
REMARK  2 active torsions:
REMARK  status: ('A' for Active; 'I' for Inactive)
REMARK    5  A    between atoms: CA   and  CB  
REMARK    6  A    between atoms: CB   and  CG  
ROOT
ATOM      7  CA  TYR A 136      36.583  36.399   8.994  1.00 26.14     0.191 C 
ENDROOT
BRANCH   7   8
ATOM      8  CB  TYR A 136      37.367  36.835  10.240  1.00 28.16     0.060 C 
BRANCH   8   9
ATOM      9  CG  TYR A 136      36.701  37.971  10.977  1.00 31.88    -0.020 A 
ATOM     10  CD2 TYR A 136      36.551  37.943  12.365  1.00 32.67    -0.002 A 
ATOM     11  CE2 TYR A 136      35.929  39.002  13.040  1.00 33.89     0.027 A 
ATOM     12  CZ  TYR A 136      35.452  40.099  12.319  1.00 34.34     0.131 A 
ATOM     13  OH  TYR A 136      34.838  41.162  12.967  1.00 35.14    -0.190 OA
ATOM     14  CE1 TYR A 136      35.590  40.143  10.939  1.00 35.01     0.027 A 
ATOM     15  CD1 TYR A 136      36.206  39.079  10.277  1.00 33.57    -0.002 A 
ENDBRANCH   8   9
ENDBRANCH   7   8
END_RES TYR A 136
BEGIN_RES ASN A 133
REMARK  2 active torsions:
REMARK  status: ('A' for Active; 'I' for Inactive)
REMARK    7  A    between atoms: CA   and  CB  
REMARK    8  A    between atoms: CB   and  CG  
ROOT
ATOM     16  CA  ASN A 133      31.225  30.257  11.749  1.00 18.15     0.196 C 
ENDROOT
BRANCH  16  17
ATOM     17  CB  ASN A 133      30.092  31.240  11.460  1.00 18.27     0.126 C 
BRANCH  17  18
ATOM     18  CG  ASN A 133      28.756  30.578  11.319  1.00 18.94     0.276 C 
ATOM     19  OD1 ASN A 133      28.607  29.589  10.599  1.00 18.09    -0.269 OA
ATOM     20  ND2 ASN A 133      27.759  31.125  12.012  1.00 18.93    -0.107 N 
ENDBRANCH  17  18
ENDBRANCH  16  17
END_RES ASN A 133
