REMARK VINA RESULT:    -3.947      8.119     13.951
REMARK INTER + INTRA:          -7.392
REMARK INTER:                  -4.221
REMARK INTRA:                  -3.171
REMARK UNBOUND:                -3.214
REMARK SMILES Cc1cn(C2CCN(C)CC2)nn1
REMARK SMILES IDX 5 1 6 2 7 3 8 4 9 5 10 6 11 7 4 8 1 9 2 10 3 11 13 12 12 13
REMARK H PARENT
REMARK Flexibility Score: inf
ROOT
ATOM      1  C   UNL     1      36.136  34.542  13.712  1.00  0.00     0.111 C 
ATOM      2  C   UNL     1      36.616  33.936  12.426  1.00  0.00     0.043 C 
ATOM      3  C   UNL     1      37.961  34.589  12.100  1.00  0.00     0.086 C 
ATOM      4  N   UNL     1      38.802  34.395  13.221  1.00  0.00    -0.306 NA
ATOM      5  C   UNL     1      40.173  34.195  12.973  1.00  0.00     0.105 C 
ATOM      6  C   UNL     1      38.443  35.069  14.407  1.00  0.00     0.086 C 
ATOM      7  C   UNL     1      37.031  35.639  14.226  1.00  0.00     0.043 C 
ENDROOT
BRANCH   1   8
ATOM      8  N   UNL     1      34.811  35.081  13.475  1.00  0.00    -0.249 N 
ATOM      9  C   UNL     1      32.426  37.323  11.967  1.00  0.00     0.070 C 
ATOM     10  C   UNL     1      33.159  36.285  12.727  1.00  0.00     0.080 A 
ATOM     11  C   UNL     1      34.517  36.093  12.662  1.00  0.00     0.134 A 
ATOM     12  N   UNL     1      32.664  35.377  13.581  1.00  0.00    -0.136 NA
ATOM     13  N   UNL     1      33.688  34.670  14.012  1.00  0.00    -0.067 NA
ENDBRANCH   1   8
TORSDOF 1
BEGIN_RES LYS A 135
REMARK  4 active torsions:
REMARK  status: ('A' for Active; 'I' for Inactive)
REMARK    1  A    between atoms: CA   and  CB  
REMARK    2  A    between atoms: CB   and  CG  
REMARK    3  A    between atoms: CG   and  CD  
REMARK    4  A    between atoms: CD   and  CE  
ROOT
ATOM      1  CA  LYS A 135      33.193  34.663   9.290  1.00 25.02     0.186 C 
ENDROOT
BRANCH   1   2
ATOM      2  CB  LYS A 135      32.060  35.360  10.034  1.00 26.63     0.034 C 
BRANCH   2   3
ATOM      3  CG  LYS A 135      30.729  34.668   9.889  1.00 29.45     0.005 C 
BRANCH   3   4
ATOM      4  CD  LYS A 135      30.354  34.528   8.422  1.00 32.00     0.041 C 
BRANCH   4   5
ATOM      5  CE  LYS A 135      28.847  34.550   8.253  1.00 34.25     0.338 C 
ATOM      6  NZ  LYS A 135      28.169  33.869   9.390  1.00 35.99     0.618 N 
ENDBRANCH   4   5
ENDBRANCH   3   4
ENDBRANCH   2   3
ENDBRANCH   1   2
END_RES LYS A 135
BEGIN_RES TYR A 136
REMARK  2 active torsions:
REMARK  status: ('A' for Active; 'I' for Inactive)
REMARK    5  A    between atoms: CA   and  CB  
REMARK    6  A    between atoms: CB   and  CG  
ROOT
ATOM      7  CA  TYR A 136      36.583  36.399   8.994  1.00 26.14     0.191 C 
ENDROOT
BRANCH   7   8
ATOM      8  CB  TYR A 136      37.367  36.835  10.240  1.00 28.16     0.060 C 
BRANCH   8   9
ATOM      9  CG  TYR A 136      36.859  38.132  10.820  1.00 31.88    -0.020 A 
ATOM     10  CD2 TYR A 136      35.924  38.913  10.138  1.00 32.67    -0.002 A 
ATOM     11  CE2 TYR A 136      35.460  40.117  10.685  1.00 33.89     0.027 A 
ATOM     12  CZ  TYR A 136      35.937  40.544  11.927  1.00 34.34     0.131 A 
ATOM     13  OH  TYR A 136      35.487  41.729  12.491  1.00 35.14    -0.190 OA
ATOM     14  CE1 TYR A 136      36.868  39.782  12.618  1.00 35.01     0.027 A 
ATOM     15  CD1 TYR A 136      37.327  38.587  12.060  1.00 33.57    -0.002 A 
ENDBRANCH   8   9
ENDBRANCH   7   8
END_RES TYR A 136
BEGIN_RES ASN A 133
REMARK  2 active torsions:
REMARK  status: ('A' for Active; 'I' for Inactive)
REMARK    7  A    between atoms: CA   and  CB  
REMARK    8  A    between atoms: CB   and  CG  
ROOT
ATOM     16  CA  ASN A 133      31.225  30.257  11.749  1.00 18.15     0.196 C 
ENDROOT
BRANCH  16  17
ATOM     17  CB  ASN A 133      30.092  31.240  11.460  1.00 18.27     0.126 C 
BRANCH  17  18
ATOM     18  CG  ASN A 133      28.752  30.581  11.345  1.00 18.94     0.276 C 
ATOM     19  OD1 ASN A 133      28.585  29.597  10.622  1.00 18.09    -0.269 OA
ATOM     20  ND2 ASN A 133      27.771  31.126  12.064  1.00 18.93    -0.107 N 
ENDBRANCH  17  18
ENDBRANCH  16  17
END_RES ASN A 133
