REMARK VINA RESULT:    -3.635      5.946      8.904
REMARK INTER + INTRA:          -6.926
REMARK INTER:                  -3.681
REMARK INTRA:                  -3.245
REMARK UNBOUND:                -3.079
REMARK SMILES Cc1cn(-c2ccc(Br)cc2)nn1
REMARK SMILES IDX 5 1 6 2 7 3 8 4 9 5 10 6 11 7 4 8 1 9 2 10 3 11 13 12 12 13
REMARK H PARENT
REMARK Flexibility Score: inf
ROOT
ATOM      1  C   UNL     1      34.795  39.093   4.619  1.00  0.00     0.066 A 
ATOM      2  C   UNL     1      35.876  38.279   4.958  1.00  0.00     0.029 A 
ATOM      3  C   UNL     1      36.774  37.855   4.024  1.00  0.00     0.018 A 
ATOM      4  C   UNL     1      36.597  38.246   2.720  1.00  0.00     0.018 A 
ATOM      5  Br  UNL     1      37.851  37.654   1.408  1.00  0.00    -0.051 Br
ATOM      6  C   UNL     1      35.540  39.054   2.333  1.00  0.00     0.018 A 
ATOM      7  C   UNL     1      34.646  39.469   3.299  1.00  0.00     0.029 A 
ENDROOT
BRANCH   1   8
ATOM      8  N   UNL     1      33.873  39.527   5.596  1.00  0.00    -0.220 N 
ATOM      9  C   UNL     1      32.527  40.503   8.859  1.00  0.00     0.070 C 
ATOM     10  C   UNL     1      32.836  40.155   7.451  1.00  0.00     0.080 A 
ATOM     11  C   UNL     1      34.021  39.732   6.914  1.00  0.00     0.140 A 
ATOM     12  N   UNL     1      31.969  40.199   6.417  1.00  0.00    -0.135 NA
ATOM     13  N   UNL     1      32.609  39.820   5.320  1.00  0.00    -0.062 NA
ENDBRANCH   1   8
TORSDOF 1
BEGIN_RES LYS A 135
REMARK  4 active torsions:
REMARK  status: ('A' for Active; 'I' for Inactive)
REMARK    1  A    between atoms: CA   and  CB  
REMARK    2  A    between atoms: CB   and  CG  
REMARK    3  A    between atoms: CG   and  CD  
REMARK    4  A    between atoms: CD   and  CE  
ROOT
ATOM      1  CA  LYS A 135      33.193  34.663   9.290  1.00 25.02     0.186 C 
ENDROOT
BRANCH   1   2
ATOM      2  CB  LYS A 135      32.060  35.360  10.034  1.00 26.63     0.034 C 
BRANCH   2   3
ATOM      3  CG  LYS A 135      30.852  35.630   9.175  1.00 29.45     0.005 C 
BRANCH   3   4
ATOM      4  CD  LYS A 135      30.289  34.332   8.617  1.00 32.00     0.041 C 
BRANCH   4   5
ATOM      5  CE  LYS A 135      28.782  34.424   8.470  1.00 34.25     0.338 C 
ATOM      6  NZ  LYS A 135      28.090  33.746   9.600  1.00 35.99     0.618 N 
ENDBRANCH   4   5
ENDBRANCH   3   4
ENDBRANCH   2   3
ENDBRANCH   1   2
END_RES LYS A 135
BEGIN_RES TYR A 136
REMARK  2 active torsions:
REMARK  status: ('A' for Active; 'I' for Inactive)
REMARK    5  A    between atoms: CA   and  CB  
REMARK    6  A    between atoms: CB   and  CG  
ROOT
ATOM      7  CA  TYR A 136      36.583  36.399   8.994  1.00 26.14     0.191 C 
ENDROOT
BRANCH   7   8
ATOM      8  CB  TYR A 136      37.367  36.835  10.240  1.00 28.16     0.060 C 
BRANCH   8   9
ATOM      9  CG  TYR A 136      37.133  38.283  10.596  1.00 31.88    -0.020 A 
ATOM     10  CD2 TYR A 136      37.651  38.831  11.771  1.00 32.67    -0.002 A 
ATOM     11  CE2 TYR A 136      37.426  40.177  12.093  1.00 33.89     0.027 A 
ATOM     12  CZ  TYR A 136      36.675  40.980  11.232  1.00 34.34     0.131 A 
ATOM     13  OH  TYR A 136      36.446  42.317  11.527  1.00 35.14    -0.190 OA
ATOM     14  CE1 TYR A 136      36.152  40.451  10.061  1.00 35.01     0.027 A 
ATOM     15  CD1 TYR A 136      36.377  39.108   9.754  1.00 33.57    -0.002 A 
ENDBRANCH   8   9
ENDBRANCH   7   8
END_RES TYR A 136
BEGIN_RES ASN A 133
REMARK  2 active torsions:
REMARK  status: ('A' for Active; 'I' for Inactive)
REMARK    7  A    between atoms: CA   and  CB  
REMARK    8  A    between atoms: CB   and  CG  
ROOT
ATOM     16  CA  ASN A 133      31.225  30.257  11.749  1.00 18.15     0.196 C 
ENDROOT
BRANCH  16  17
ATOM     17  CB  ASN A 133      30.092  31.240  11.460  1.00 18.27     0.126 C 
BRANCH  17  18
ATOM     18  CG  ASN A 133      28.751  30.582  11.353  1.00 18.94     0.276 C 
ATOM     19  OD1 ASN A 133      28.576  29.605  10.623  1.00 18.09    -0.269 OA
ATOM     20  ND2 ASN A 133      27.778  31.120  12.087  1.00 18.93    -0.107 N 
ENDBRANCH  17  18
ENDBRANCH  16  17
END_RES ASN A 133
