REMARK VINA RESULT:    -4.733      2.884      6.784
REMARK INTER + INTRA:          -9.174
REMARK INTER:                  -5.759
REMARK INTRA:                  -3.415
REMARK UNBOUND:                -3.335
REMARK SMILES Cc1cn(-c2ccc(S(=O)(=O)Nc3nccs3)cc2)nn1
REMARK SMILES IDX 9 1 10 2 11 3 8 4 5 5 6 6 19 7 7 8 18 9 4 10 1 11 2 12 3 13
REMARK SMILES IDX 21 14 20 15 12 16 13 18 14 19 17 20 15 21 16 22
REMARK H PARENT 12 17
REMARK Flexibility Score: inf
ROOT
ATOM      1  S   UNL     1      32.973  35.427  14.531  1.00  0.00     0.263 S 
ATOM      2  O   UNL     1      32.476  34.297  15.371  1.00  0.00    -0.201 OA
ATOM      3  O   UNL     1      32.832  36.714  15.318  1.00  0.00    -0.201 OA
ENDROOT
BRANCH   1   4
ATOM      4  C   UNL     1      34.679  35.157  14.247  1.00  0.00     0.088 A 
ATOM      5  C   UNL     1      37.368  34.800  13.905  1.00  0.00     0.066 A 
ATOM      6  C   UNL     1      36.904  35.493  14.989  1.00  0.00     0.030 A 
ATOM      7  C   UNL     1      36.488  34.288  12.994  1.00  0.00     0.030 A 
ATOM      8  C   UNL     1      35.565  35.684  15.182  1.00  0.00     0.024 A 
ATOM      9  C   UNL     1      35.144  34.469  13.167  1.00  0.00     0.024 A 
BRANCH   5  10
ATOM     10  N   UNL     1      38.799  34.648  13.786  1.00  0.00    -0.220 N 
ATOM     11  C   UNL     1      41.934  33.715  12.121  1.00  0.00     0.070 C 
ATOM     12  C   UNL     1      40.815  34.164  12.988  1.00  0.00     0.080 A 
ATOM     13  C   UNL     1      39.461  34.149  12.728  1.00  0.00     0.140 A 
ATOM     14  N   UNL     1      40.919  34.685  14.223  1.00  0.00    -0.135 NA
ATOM     15  N   UNL     1      39.710  34.964  14.678  1.00  0.00    -0.062 NA
ENDBRANCH   5  10
ENDBRANCH   1   4
BRANCH   1  16
ATOM     16  N   UNL     1      32.107  35.549  13.069  1.00  0.00    -0.255 N 
ATOM     17  H   UNL     1      31.952  34.663  12.515  1.00  0.00     0.182 HD
BRANCH  16  18
ATOM     18  C   UNL     1      31.614  36.818  12.615  1.00  0.00     0.196 A 
ATOM     19  N   UNL     1      30.696  37.475  12.669  1.00  0.00    -0.228 NA
ATOM     20  S   UNL     1      32.775  37.872  11.551  1.00  0.00    -0.105 S 
ATOM     21  C   UNL     1      30.459  38.657  12.147  1.00  0.00     0.125 A 
ATOM     22  C   UNL     1      31.471  39.193  11.421  1.00  0.00     0.089 A 
ENDBRANCH  16  18
ENDBRANCH   1  16
TORSDOF 4
BEGIN_RES LYS A 135
REMARK  4 active torsions:
REMARK  status: ('A' for Active; 'I' for Inactive)
REMARK    1  A    between atoms: CA   and  CB  
REMARK    2  A    between atoms: CB   and  CG  
REMARK    3  A    between atoms: CG   and  CD  
REMARK    4  A    between atoms: CD   and  CE  
ROOT
ATOM      1  CA  LYS A 135      33.193  34.663   9.290  1.00 25.02     0.186 C 
ENDROOT
BRANCH   1   2
ATOM      2  CB  LYS A 135      32.060  35.360  10.034  1.00 26.63     0.034 C 
BRANCH   2   3
ATOM      3  CG  LYS A 135      30.700  34.779   9.742  1.00 29.45     0.005 C 
BRANCH   3   4
ATOM      4  CD  LYS A 135      30.476  34.667   8.242  1.00 32.00     0.041 C 
BRANCH   4   5
ATOM      5  CE  LYS A 135      29.026  34.950   7.898  1.00 34.25     0.338 C 
ATOM      6  NZ  LYS A 135      28.903  35.553   6.542  1.00 35.99     0.618 N 
ENDBRANCH   4   5
ENDBRANCH   3   4
ENDBRANCH   2   3
ENDBRANCH   1   2
END_RES LYS A 135
BEGIN_RES TYR A 136
REMARK  2 active torsions:
REMARK  status: ('A' for Active; 'I' for Inactive)
REMARK    5  A    between atoms: CA   and  CB  
REMARK    6  A    between atoms: CB   and  CG  
ROOT
ATOM      7  CA  TYR A 136      36.583  36.399   8.994  1.00 26.14     0.191 C 
ENDROOT
BRANCH   7   8
ATOM      8  CB  TYR A 136      37.367  36.835  10.240  1.00 28.16     0.060 C 
BRANCH   8   9
ATOM      9  CG  TYR A 136      36.764  38.044  10.911  1.00 31.88    -0.020 A 
ATOM     10  CD2 TYR A 136      36.273  39.117  10.163  1.00 32.67    -0.002 A 
ATOM     11  CE2 TYR A 136      35.716  40.236  10.796  1.00 33.89     0.027 A 
ATOM     12  CZ  TYR A 136      35.651  40.283  12.191  1.00 34.34     0.131 A 
ATOM     13  OH  TYR A 136      35.097  41.379  12.839  1.00 35.14    -0.190 OA
ATOM     14  CE1 TYR A 136      36.135  39.228  12.950  1.00 35.01     0.027 A 
ATOM     15  CD1 TYR A 136      36.693  38.121  12.308  1.00 33.57    -0.002 A 
ENDBRANCH   8   9
ENDBRANCH   7   8
END_RES TYR A 136
BEGIN_RES ASN A 133
REMARK  2 active torsions:
REMARK  status: ('A' for Active; 'I' for Inactive)
REMARK    7  A    between atoms: CA   and  CB  
REMARK    8  A    between atoms: CB   and  CG  
ROOT
ATOM     16  CA  ASN A 133      31.225  30.257  11.749  1.00 18.15     0.196 C 
ENDROOT
BRANCH  16  17
ATOM     17  CB  ASN A 133      30.092  31.240  11.460  1.00 18.27     0.126 C 
BRANCH  17  18
ATOM     18  CG  ASN A 133      28.748  30.586  11.379  1.00 18.94     0.276 C 
ATOM     19  OD1 ASN A 133      28.562  29.594  10.671  1.00 18.09    -0.269 OA
ATOM     20  ND2 ASN A 133      27.783  31.143  12.111  1.00 18.93    -0.107 N 
ENDBRANCH  17  18
ENDBRANCH  16  17
END_RES ASN A 133
