REMARK VINA RESULT:    -5.653      2.073      3.677
REMARK INTER + INTRA:          -9.365
REMARK INTER:                  -6.053
REMARK INTRA:                  -3.311
REMARK UNBOUND:                -3.381
REMARK SMILES Cc1cn(C2c3ccccc3-c3ccccc32)nn1
REMARK SMILES IDX 5 1 6 2 7 3 8 4 9 5 10 6 11 7 12 8 13 9 14 10 15 11 16 12
REMARK SMILES IDX 17 13 4 14 1 15 2 16 3 17 19 18 18 19
REMARK H PARENT
REMARK Flexibility Score: inf
ROOT
ATOM      1  C   UNL     1      36.025  37.035  15.072  1.00  0.00     0.170 C 
ATOM      2  C   UNL     1      34.840  37.311  14.247  1.00  0.00    -0.011 A 
ATOM      3  C   UNL     1      33.942  38.364  14.332  1.00  0.00     0.007 A 
ATOM      4  C   UNL     1      32.885  38.436  13.449  1.00  0.00     0.000 A 
ATOM      5  C   UNL     1      32.743  37.444  12.489  1.00  0.00     0.001 A 
ATOM      6  C   UNL     1      33.639  36.390  12.403  1.00  0.00     0.009 A 
ATOM      7  C   UNL     1      34.693  36.337  13.297  1.00  0.00    -0.012 A 
ATOM      8  C   UNL     1      35.778  35.390  13.469  1.00  0.00    -0.012 A 
ATOM      9  C   UNL     1      36.057  34.226  12.740  1.00  0.00     0.009 A 
ATOM     10  C   UNL     1      37.151  33.488  13.094  1.00  0.00     0.001 A 
ATOM     11  C   UNL     1      37.991  33.838  14.138  1.00  0.00     0.000 A 
ATOM     12  C   UNL     1      37.673  34.982  14.816  1.00  0.00     0.007 A 
ATOM     13  C   UNL     1      36.575  35.789  14.514  1.00  0.00    -0.011 A 
ENDROOT
BRANCH   1  14
ATOM     14  N   UNL     1      35.712  36.960  16.460  1.00  0.00    -0.240 N 
ATOM     15  C   UNL     1      33.973  35.605  19.348  1.00  0.00     0.070 C 
ATOM     16  C   UNL     1      34.814  36.344  18.382  1.00  0.00     0.080 A 
ATOM     17  C   UNL     1      34.841  36.108  17.015  1.00  0.00     0.135 A 
ATOM     18  N   UNL     1      35.678  37.338  18.597  1.00  0.00    -0.136 NA
ATOM     19  N   UNL     1      36.216  37.702  17.423  1.00  0.00    -0.066 NA
ENDBRANCH   1  14
TORSDOF 1
BEGIN_RES LYS A 135
REMARK  4 active torsions:
REMARK  status: ('A' for Active; 'I' for Inactive)
REMARK    1  A    between atoms: CA   and  CB  
REMARK    2  A    between atoms: CB   and  CG  
REMARK    3  A    between atoms: CG   and  CD  
REMARK    4  A    between atoms: CD   and  CE  
ROOT
ATOM      1  CA  LYS A 135      33.193  34.663   9.290  1.00 25.02     0.186 C 
ENDROOT
BRANCH   1   2
ATOM      2  CB  LYS A 135      32.060  35.360  10.034  1.00 26.63     0.034 C 
BRANCH   2   3
ATOM      3  CG  LYS A 135      30.803  35.507   9.216  1.00 29.45     0.005 C 
BRANCH   3   4
ATOM      4  CD  LYS A 135      30.124  34.159   9.028  1.00 32.00     0.041 C 
BRANCH   4   5
ATOM      5  CE  LYS A 135      28.669  34.345   8.642  1.00 34.25     0.338 C 
ATOM      6  NZ  LYS A 135      27.765  33.680   9.621  1.00 35.99     0.618 N 
ENDBRANCH   4   5
ENDBRANCH   3   4
ENDBRANCH   2   3
ENDBRANCH   1   2
END_RES LYS A 135
BEGIN_RES TYR A 136
REMARK  2 active torsions:
REMARK  status: ('A' for Active; 'I' for Inactive)
REMARK    5  A    between atoms: CA   and  CB  
REMARK    6  A    between atoms: CB   and  CG  
ROOT
ATOM      7  CA  TYR A 136      36.583  36.399   8.994  1.00 26.14     0.191 C 
ENDROOT
BRANCH   7   8
ATOM      8  CB  TYR A 136      37.367  36.835  10.240  1.00 28.16     0.060 C 
BRANCH   8   9
ATOM      9  CG  TYR A 136      36.819  38.098  10.858  1.00 31.88    -0.020 A 
ATOM     10  CD2 TYR A 136      35.697  38.736  10.324  1.00 32.67    -0.002 A 
ATOM     11  CE2 TYR A 136      35.197  39.910  10.905  1.00 33.89     0.027 A 
ATOM     12  CZ  TYR A 136      35.825  40.450  12.030  1.00 34.34     0.131 A 
ATOM     13  OH  TYR A 136      35.343  41.607  12.625  1.00 35.14    -0.190 OA
ATOM     14  CE1 TYR A 136      36.941  39.829  12.572  1.00 35.01     0.027 A 
ATOM     15  CD1 TYR A 136      37.434  38.664  11.982  1.00 33.57    -0.002 A 
ENDBRANCH   8   9
ENDBRANCH   7   8
END_RES TYR A 136
BEGIN_RES ASN A 133
REMARK  2 active torsions:
REMARK  status: ('A' for Active; 'I' for Inactive)
REMARK    7  A    between atoms: CA   and  CB  
REMARK    8  A    between atoms: CB   and  CG  
ROOT
ATOM     16  CA  ASN A 133      31.225  30.257  11.749  1.00 18.15     0.196 C 
ENDROOT
BRANCH  16  17
ATOM     17  CB  ASN A 133      30.092  31.240  11.460  1.00 18.27     0.126 C 
BRANCH  17  18
ATOM     18  CG  ASN A 133      28.749  30.584  11.367  1.00 18.94     0.276 C 
ATOM     19  OD1 ASN A 133      28.564  29.609  10.637  1.00 18.09    -0.269 OA
ATOM     20  ND2 ASN A 133      27.786  31.121  12.115  1.00 18.93    -0.107 N 
ENDBRANCH  17  18
ENDBRANCH  16  17
END_RES ASN A 133
