REMARK VINA RESULT:    -4.085      4.863      9.585
REMARK INTER + INTRA:          -7.087
REMARK INTER:                  -5.084
REMARK INTRA:                  -2.003
REMARK UNBOUND:                -2.762
REMARK SMILES Cc1cc(C)c(-n2cc(C)nn2)c(C)c1
REMARK SMILES IDX 6 1 4 2 5 3 3 4 2 5 1 6 15 7 13 8 14 9 7 10 10 11 9 12 8 13
REMARK SMILES IDX 11 14 12 15
REMARK H PARENT
REMARK Flexibility Score: inf
ROOT
ATOM      1  C   UNL     1      26.925  37.452   7.966  1.00  0.00     0.072 A 
ATOM      2  C   UNL     1      26.734  37.254   9.319  1.00  0.00    -0.025 A 
ATOM      3  C   UNL     1      26.305  38.395  10.190  1.00  0.00     0.047 C 
ATOM      4  C   UNL     1      26.938  35.998   9.886  1.00  0.00     0.009 A 
ATOM      5  C   UNL     1      27.334  34.920   9.120  1.00  0.00    -0.050 A 
ATOM      6  C   UNL     1      27.551  33.573   9.738  1.00  0.00     0.044 C 
ATOM      7  C   UNL     1      27.525  35.107   7.778  1.00  0.00     0.009 A 
ATOM      8  C   UNL     1      27.324  36.349   7.214  1.00  0.00    -0.025 A 
ATOM      9  C   UNL     1      27.536  36.532   5.757  1.00  0.00     0.047 C 
ENDROOT
BRANCH   1  10
ATOM     10  N   UNL     1      26.724  38.726   7.359  1.00  0.00    -0.220 N 
ATOM     11  C   UNL     1      24.942  41.485   5.752  1.00  0.00     0.070 C 
ATOM     12  C   UNL     1      25.870  40.519   6.381  1.00  0.00     0.080 A 
ATOM     13  C   UNL     1      25.596  39.263   6.877  1.00  0.00     0.140 A 
ATOM     14  N   UNL     1      27.192  40.709   6.584  1.00  0.00    -0.135 NA
ATOM     15  N   UNL     1      27.683  39.638   7.164  1.00  0.00    -0.062 NA
ENDBRANCH   1  10
TORSDOF 1
BEGIN_RES LYS A 135
REMARK  4 active torsions:
REMARK  status: ('A' for Active; 'I' for Inactive)
REMARK    1  A    between atoms: CA   and  CB  
REMARK    2  A    between atoms: CB   and  CG  
REMARK    3  A    between atoms: CG   and  CD  
REMARK    4  A    between atoms: CD   and  CE  
ROOT
ATOM      1  CA  LYS A 135      33.193  34.663   9.290  1.00 25.02     0.186 C 
ENDROOT
BRANCH   1   2
ATOM      2  CB  LYS A 135      32.060  35.360  10.034  1.00 26.63     0.034 C 
BRANCH   2   3
ATOM      3  CG  LYS A 135      30.813  35.535   9.206  1.00 29.45     0.005 C 
BRANCH   3   4
ATOM      4  CD  LYS A 135      30.509  37.011   9.000  1.00 32.00     0.041 C 
BRANCH   4   5
ATOM      5  CE  LYS A 135      30.464  37.737  10.331  1.00 34.25     0.338 C 
ATOM      6  NZ  LYS A 135      29.871  39.095  10.182  1.00 35.99     0.618 N 
ENDBRANCH   4   5
ENDBRANCH   3   4
ENDBRANCH   2   3
ENDBRANCH   1   2
END_RES LYS A 135
BEGIN_RES TYR A 136
REMARK  2 active torsions:
REMARK  status: ('A' for Active; 'I' for Inactive)
REMARK    5  A    between atoms: CA   and  CB  
REMARK    6  A    between atoms: CB   and  CG  
ROOT
ATOM      7  CA  TYR A 136      36.583  36.399   8.994  1.00 26.14     0.191 C 
ENDROOT
BRANCH   7   8
ATOM      8  CB  TYR A 136      37.367  36.835  10.240  1.00 28.16     0.060 C 
BRANCH   8   9
ATOM      9  CG  TYR A 136      37.194  38.301  10.551  1.00 31.88    -0.020 A 
ATOM     10  CD2 TYR A 136      37.725  38.862  11.715  1.00 32.67    -0.002 A 
ATOM     11  CE2 TYR A 136      37.557  40.225  11.995  1.00 33.89     0.027 A 
ATOM     12  CZ  TYR A 136      36.851  41.035  11.102  1.00 34.34     0.131 A 
ATOM     13  OH  TYR A 136      36.679  42.388  11.355  1.00 35.14    -0.190 OA
ATOM     14  CE1 TYR A 136      36.316  40.495   9.941  1.00 35.01     0.027 A 
ATOM     15  CD1 TYR A 136      36.484  39.134   9.676  1.00 33.57    -0.002 A 
ENDBRANCH   8   9
ENDBRANCH   7   8
END_RES TYR A 136
BEGIN_RES ASN A 133
REMARK  2 active torsions:
REMARK  status: ('A' for Active; 'I' for Inactive)
REMARK    7  A    between atoms: CA   and  CB  
REMARK    8  A    between atoms: CB   and  CG  
ROOT
ATOM     16  CA  ASN A 133      31.225  30.257  11.749  1.00 18.15     0.196 C 
ENDROOT
BRANCH  16  17
ATOM     17  CB  ASN A 133      30.092  31.240  11.460  1.00 18.27     0.126 C 
BRANCH  17  18
ATOM     18  CG  ASN A 133      28.743  30.592  11.416  1.00 18.94     0.276 C 
ATOM     19  OD1 ASN A 133      28.497  29.683  10.620  1.00 18.09    -0.269 OA
ATOM     20  ND2 ASN A 133      27.843  31.059  12.280  1.00 18.93    -0.107 N 
ENDBRANCH  17  18
ENDBRANCH  16  17
END_RES ASN A 133
