REMARK VINA RESULT:    -4.305      8.880     16.239
REMARK INTER + INTRA:          -7.820
REMARK INTER:                  -4.555
REMARK INTRA:                  -3.266
REMARK UNBOUND:                -3.264
REMARK SMILES Cc1cn(-c2cnc3ccccc3c2)nn1
REMARK SMILES IDX 5 1 6 2 7 3 8 4 9 5 10 6 11 7 12 8 13 9 14 10 4 11 1 12 2 13
REMARK SMILES IDX 3 14 16 15 15 16
REMARK H PARENT
REMARK Flexibility Score: inf
ROOT
ATOM      1  C   UNL     1      22.045  34.065  -0.975  1.00  0.00     0.085 A 
ATOM      2  C   UNL     1      20.833  34.425  -1.492  1.00  0.00     0.140 A 
ATOM      3  N   UNL     1      20.642  35.670  -1.972  1.00  0.00    -0.254 NA
ATOM      4  C   UNL     1      21.621  36.599  -1.963  1.00  0.00     0.070 A 
ATOM      5  C   UNL     1      21.434  37.875  -2.453  1.00  0.00     0.029 A 
ATOM      6  C   UNL     1      22.465  38.797  -2.424  1.00  0.00     0.002 A 
ATOM      7  C   UNL     1      23.711  38.449  -1.901  1.00  0.00     0.001 A 
ATOM      8  C   UNL     1      23.895  37.190  -1.419  1.00  0.00     0.010 A 
ATOM      9  C   UNL     1      22.863  36.280  -1.451  1.00  0.00     0.002 A 
ATOM     10  C   UNL     1      23.051  35.009  -0.964  1.00  0.00     0.040 A 
ENDROOT
BRANCH   1  11
ATOM     11  N   UNL     1      22.298  32.746  -0.450  1.00  0.00    -0.219 N 
ATOM     12  C   UNL     1      22.426  29.087  -0.627  1.00  0.00     0.070 C 
ATOM     13  C   UNL     1      22.468  30.536  -0.292  1.00  0.00     0.080 A 
ATOM     14  C   UNL     1      22.122  31.595  -1.124  1.00  0.00     0.140 A 
ATOM     15  N   UNL     1      22.843  31.121   0.862  1.00  0.00    -0.135 NA
ATOM     16  N   UNL     1      22.737  32.436   0.756  1.00  0.00    -0.062 NA
ENDBRANCH   1  11
TORSDOF 1
BEGIN_RES LYS A 135
REMARK  4 active torsions:
REMARK  status: ('A' for Active; 'I' for Inactive)
REMARK    1  A    between atoms: CA   and  CB  
REMARK    2  A    between atoms: CB   and  CG  
REMARK    3  A    between atoms: CG   and  CD  
REMARK    4  A    between atoms: CD   and  CE  
ROOT
ATOM      1  CA  LYS A 135      33.193  34.663   9.290  1.00 25.02     0.186 C 
ENDROOT
BRANCH   1   2
ATOM      2  CB  LYS A 135      32.060  35.360  10.034  1.00 26.63     0.034 C 
BRANCH   2   3
ATOM      3  CG  LYS A 135      30.851  35.628   9.176  1.00 29.45     0.005 C 
BRANCH   3   4
ATOM      4  CD  LYS A 135      30.302  34.330   8.603  1.00 32.00     0.041 C 
BRANCH   4   5
ATOM      5  CE  LYS A 135      28.796  34.414   8.443  1.00 34.25     0.338 C 
ATOM      6  NZ  LYS A 135      28.098  33.768   9.589  1.00 35.99     0.618 N 
ENDBRANCH   4   5
ENDBRANCH   3   4
ENDBRANCH   2   3
ENDBRANCH   1   2
END_RES LYS A 135
BEGIN_RES TYR A 136
REMARK  2 active torsions:
REMARK  status: ('A' for Active; 'I' for Inactive)
REMARK    5  A    between atoms: CA   and  CB  
REMARK    6  A    between atoms: CB   and  CG  
ROOT
ATOM      7  CA  TYR A 136      36.583  36.399   8.994  1.00 26.14     0.191 C 
ENDROOT
BRANCH   7   8
ATOM      8  CB  TYR A 136      37.367  36.835  10.240  1.00 28.16     0.060 C 
BRANCH   8   9
ATOM      9  CG  TYR A 136      37.244  38.313  10.515  1.00 31.88    -0.020 A 
ATOM     10  CD2 TYR A 136      36.432  39.131   9.726  1.00 32.67    -0.002 A 
ATOM     11  CE2 TYR A 136      36.325  40.503   9.989  1.00 33.89     0.027 A 
ATOM     12  CZ  TYR A 136      37.038  41.063  11.051  1.00 34.34     0.131 A 
ATOM     13  OH  TYR A 136      36.943  42.419  11.335  1.00 35.14    -0.190 OA
ATOM     14  CE1 TYR A 136      37.851  40.266  11.845  1.00 35.01     0.027 A 
ATOM     15  CD1 TYR A 136      37.953  38.902  11.570  1.00 33.57    -0.002 A 
ENDBRANCH   8   9
ENDBRANCH   7   8
END_RES TYR A 136
BEGIN_RES ASN A 133
REMARK  2 active torsions:
REMARK  status: ('A' for Active; 'I' for Inactive)
REMARK    7  A    between atoms: CA   and  CB  
REMARK    8  A    between atoms: CB   and  CG  
ROOT
ATOM     16  CA  ASN A 133      31.225  30.257  11.749  1.00 18.15     0.196 C 
ENDROOT
BRANCH  16  17
ATOM     17  CB  ASN A 133      30.092  31.240  11.460  1.00 18.27     0.126 C 
BRANCH  17  18
ATOM     18  CG  ASN A 133      28.748  30.585  11.374  1.00 18.94     0.276 C 
ATOM     19  OD1 ASN A 133      28.564  29.598  10.659  1.00 18.09    -0.269 OA
ATOM     20  ND2 ASN A 133      27.783  31.136  12.109  1.00 18.93    -0.107 N 
ENDBRANCH  17  18
ENDBRANCH  16  17
END_RES ASN A 133
