REMARK VINA RESULT:    -3.790      5.590      8.483
REMARK INTER + INTRA:          -8.605
REMARK INTER:                  -4.903
REMARK INTRA:                  -3.702
REMARK UNBOUND:                -3.485
REMARK SMILES Cc1cn([C@@H](CCC(=O)O)C(=O)O)nn1
REMARK SMILES IDX 6 1 5 2 4 3 1 4 2 5 3 6 15 7 14 8 11 9 12 10 13 11 7 13 8 14
REMARK SMILES IDX 9 15 10 16
REMARK H PARENT 13 12 10 17
REMARK Flexibility Score: inf
ROOT
ATOM      1  C   UNL     1      36.056  39.249   2.862  1.00  0.00     0.051 C 
ENDROOT
BRANCH   1   2
ATOM      2  C   UNL     1      35.118  38.819   3.960  1.00  0.00     0.219 C 
BRANCH   2   3
ATOM      3  N   UNL     1      34.262  39.894   4.402  1.00  0.00    -0.238 N 
ATOM      4  C   UNL     1      33.287  43.384   4.859  1.00  0.00     0.070 C 
ATOM      5  C   UNL     1      33.437  41.905   4.807  1.00  0.00     0.080 A 
ATOM      6  C   UNL     1      34.483  41.232   4.256  1.00  0.00     0.135 A 
ATOM      7  N   UNL     1      32.587  40.977   5.283  1.00  0.00    -0.136 NA
ATOM      8  N   UNL     1      33.087  39.789   5.037  1.00  0.00    -0.066 NA
ENDBRANCH   2   3
BRANCH   2   9
ATOM      9  C   UNL     1      35.790  38.182   5.088  1.00  0.00     0.328 C 
ATOM     10  O   UNL     1      36.848  37.543   4.896  1.00  0.00    -0.250 OA
BRANCH   9  11
ATOM     11  O   UNL     1      35.306  38.250   6.379  1.00  0.00    -0.480 OA
ATOM     12  H   UNL     1      34.447  38.766   6.614  1.00  0.00     0.296 HD
ENDBRANCH   9  11
ENDBRANCH   2   9
ENDBRANCH   1   2
BRANCH   1  13
ATOM     13  C   UNL     1      35.868  38.439   1.599  1.00  0.00     0.125 C 
BRANCH  13  14
ATOM     14  C   UNL     1      37.072  37.605   1.348  1.00  0.00     0.303 C 
ATOM     15  O   UNL     1      38.182  37.853   1.882  1.00  0.00    -0.252 OA
BRANCH  14  16
ATOM     16  O   UNL     1      37.017  36.507   0.501  1.00  0.00    -0.481 OA
ATOM     17  H   UNL     1      36.652  35.603   0.822  1.00  0.00     0.296 HD
ENDBRANCH  14  16
ENDBRANCH  13  14
ENDBRANCH   1  13
TORSDOF 7
BEGIN_RES LYS A 135
REMARK  4 active torsions:
REMARK  status: ('A' for Active; 'I' for Inactive)
REMARK    1  A    between atoms: CA   and  CB  
REMARK    2  A    between atoms: CB   and  CG  
REMARK    3  A    between atoms: CG   and  CD  
REMARK    4  A    between atoms: CD   and  CE  
ROOT
ATOM      1  CA  LYS A 135      33.193  34.663   9.290  1.00 25.02     0.186 C 
ENDROOT
BRANCH   1   2
ATOM      2  CB  LYS A 135      32.060  35.360  10.034  1.00 26.63     0.034 C 
BRANCH   2   3
ATOM      3  CG  LYS A 135      30.705  34.756   9.771  1.00 29.45     0.005 C 
BRANCH   3   4
ATOM      4  CD  LYS A 135      30.469  34.597   8.277  1.00 32.00     0.041 C 
BRANCH   4   5
ATOM      5  CE  LYS A 135      29.023  34.894   7.931  1.00 34.25     0.338 C 
ATOM      6  NZ  LYS A 135      28.917  35.586   6.617  1.00 35.99     0.618 N 
ENDBRANCH   4   5
ENDBRANCH   3   4
ENDBRANCH   2   3
ENDBRANCH   1   2
END_RES LYS A 135
BEGIN_RES TYR A 136
REMARK  2 active torsions:
REMARK  status: ('A' for Active; 'I' for Inactive)
REMARK    5  A    between atoms: CA   and  CB  
REMARK    6  A    between atoms: CB   and  CG  
ROOT
ATOM      7  CA  TYR A 136      36.583  36.399   8.994  1.00 26.14     0.191 C 
ENDROOT
BRANCH   7   8
ATOM      8  CB  TYR A 136      37.367  36.835  10.240  1.00 28.16     0.060 C 
BRANCH   8   9
ATOM      9  CG  TYR A 136      37.274  38.320  10.494  1.00 31.88    -0.020 A 
ATOM     10  CD2 TYR A 136      38.390  39.148  10.352  1.00 32.67    -0.002 A 
ATOM     11  CE2 TYR A 136      38.293  40.526  10.592  1.00 33.89     0.027 A 
ATOM     12  CZ  TYR A 136      37.070  41.079  10.977  1.00 34.34     0.131 A 
ATOM     13  OH  TYR A 136      36.950  42.442  11.213  1.00 35.14    -0.190 OA
ATOM     14  CE1 TYR A 136      35.952  40.270  11.124  1.00 35.01     0.027 A 
ATOM     15  CD1 TYR A 136      36.062  38.899  10.889  1.00 33.57    -0.002 A 
ENDBRANCH   8   9
ENDBRANCH   7   8
END_RES TYR A 136
BEGIN_RES ASN A 133
REMARK  2 active torsions:
REMARK  status: ('A' for Active; 'I' for Inactive)
REMARK    7  A    between atoms: CA   and  CB  
REMARK    8  A    between atoms: CB   and  CG  
ROOT
ATOM     16  CA  ASN A 133      31.225  30.257  11.749  1.00 18.15     0.196 C 
ENDROOT
BRANCH  16  17
ATOM     17  CB  ASN A 133      30.092  31.240  11.460  1.00 18.27     0.126 C 
BRANCH  17  18
ATOM     18  CG  ASN A 133      28.749  30.585  11.371  1.00 18.94     0.276 C 
ATOM     19  OD1 ASN A 133      28.562  29.608  10.644  1.00 18.09    -0.269 OA
ATOM     20  ND2 ASN A 133      27.787  31.124  12.119  1.00 18.93    -0.107 N 
ENDBRANCH  17  18
ENDBRANCH  16  17
END_RES ASN A 133
