REMARK VINA RESULT:    -3.239      7.980     11.576
REMARK INTER + INTRA:          -6.850
REMARK INTER:                  -3.553
REMARK INTRA:                  -3.297
REMARK UNBOUND:                -3.232
REMARK SMILES Cc1cn(Cc2ccsc2)nn1
REMARK SMILES IDX 5 1 4 2 1 3 2 4 3 5 12 6 11 7 6 8 7 9 10 10 8 11 9 12
REMARK H PARENT
REMARK Flexibility Score: inf
ROOT
ATOM      1  C   UNL     1      36.980  37.598   2.934  1.00  0.00     0.182 C 
ENDROOT
BRANCH   1   2
ATOM      2  N   UNL     1      38.287  37.714   3.522  1.00  0.00    -0.248 N 
ATOM      3  C   UNL     1      41.359  36.724   5.212  1.00  0.00     0.070 C 
ATOM      4  C   UNL     1      40.188  37.316   4.516  1.00  0.00     0.080 A 
ATOM      5  C   UNL     1      39.021  36.759   4.101  1.00  0.00     0.134 A 
ATOM      6  N   UNL     1      40.137  38.615   4.176  1.00  0.00    -0.136 NA
ATOM      7  N   UNL     1      38.990  38.822   3.585  1.00  0.00    -0.067 NA
ENDBRANCH   1   2
BRANCH   1   8
ATOM      8  C   UNL     1      35.945  38.360   3.748  1.00  0.00    -0.016 A 
ATOM      9  C   UNL     1      35.746  38.252   5.047  1.00  0.00     0.017 A 
ATOM     10  C   UNL     1      35.079  39.293   3.077  1.00  0.00     0.070 A 
ATOM     11  C   UNL     1      34.784  38.978   5.705  1.00  0.00     0.065 A 
ATOM     12  S   UNL     1      34.074  39.933   4.305  1.00  0.00    -0.152 S 
ENDBRANCH   1   8
TORSDOF 2
BEGIN_RES LYS A 135
REMARK  4 active torsions:
REMARK  status: ('A' for Active; 'I' for Inactive)
REMARK    1  A    between atoms: CA   and  CB  
REMARK    2  A    between atoms: CB   and  CG  
REMARK    3  A    between atoms: CG   and  CD  
REMARK    4  A    between atoms: CD   and  CE  
ROOT
ATOM      1  CA  LYS A 135      33.193  34.663   9.290  1.00 25.02     0.186 C 
ENDROOT
BRANCH   1   2
ATOM      2  CB  LYS A 135      32.060  35.360  10.034  1.00 26.63     0.034 C 
BRANCH   2   3
ATOM      3  CG  LYS A 135      30.831  35.579   9.191  1.00 29.45     0.005 C 
BRANCH   3   4
ATOM      4  CD  LYS A 135      30.224  34.250   8.770  1.00 32.00     0.041 C 
BRANCH   4   5
ATOM      5  CE  LYS A 135      28.733  34.396   8.534  1.00 34.25     0.338 C 
ATOM      6  NZ  LYS A 135      27.951  33.694   9.590  1.00 35.99     0.618 N 
ENDBRANCH   4   5
ENDBRANCH   3   4
ENDBRANCH   2   3
ENDBRANCH   1   2
END_RES LYS A 135
BEGIN_RES TYR A 136
REMARK  2 active torsions:
REMARK  status: ('A' for Active; 'I' for Inactive)
REMARK    5  A    between atoms: CA   and  CB  
REMARK    6  A    between atoms: CB   and  CG  
ROOT
ATOM      7  CA  TYR A 136      36.583  36.399   8.994  1.00 26.14     0.191 C 
ENDROOT
BRANCH   7   8
ATOM      8  CB  TYR A 136      37.367  36.835  10.240  1.00 28.16     0.060 C 
BRANCH   8   9
ATOM      9  CG  TYR A 136      37.256  38.316  10.506  1.00 31.88    -0.020 A 
ATOM     10  CD2 TYR A 136      37.864  38.898  11.621  1.00 32.67    -0.002 A 
ATOM     11  CE2 TYR A 136      37.754  40.274  11.860  1.00 33.89     0.027 A 
ATOM     12  CZ  TYR A 136      37.028  41.076  10.976  1.00 34.34     0.131 A 
ATOM     13  OH  TYR A 136      36.911  42.443  11.190  1.00 35.14    -0.190 OA
ATOM     14  CE1 TYR A 136      36.416  40.515   9.865  1.00 35.01     0.027 A 
ATOM     15  CD1 TYR A 136      36.528  39.142   9.640  1.00 33.57    -0.002 A 
ENDBRANCH   8   9
ENDBRANCH   7   8
END_RES TYR A 136
BEGIN_RES ASN A 133
REMARK  2 active torsions:
REMARK  status: ('A' for Active; 'I' for Inactive)
REMARK    7  A    between atoms: CA   and  CB  
REMARK    8  A    between atoms: CB   and  CG  
ROOT
ATOM     16  CA  ASN A 133      31.225  30.257  11.749  1.00 18.15     0.196 C 
ENDROOT
BRANCH  16  17
ATOM     17  CB  ASN A 133      30.092  31.240  11.460  1.00 18.27     0.126 C 
BRANCH  17  18
ATOM     18  CG  ASN A 133      28.751  30.583  11.354  1.00 18.94     0.276 C 
ATOM     19  OD1 ASN A 133      28.574  29.607  10.622  1.00 18.09    -0.269 OA
ATOM     20  ND2 ASN A 133      27.780  31.118  12.093  1.00 18.93    -0.107 N 
ENDBRANCH  17  18
ENDBRANCH  16  17
END_RES ASN A 133
