REMARK VINA RESULT:    -4.067      4.300      7.480
REMARK INTER + INTRA:          -8.335
REMARK INTER:                  -5.567
REMARK INTRA:                  -2.768
REMARK UNBOUND:                -3.317
REMARK SMILES Cc1cn(CC(=O)NCc2cccs2)nn1
REMARK SMILES IDX 6 1 7 2 8 3 5 5 4 6 1 7 2 8 3 9 16 10 15 11 9 12 10 13 11 14
REMARK SMILES IDX 14 15 12 16 13 17
REMARK H PARENT 8 4
REMARK Flexibility Score: inf
ROOT
ATOM      1  C   UNL     1      29.049  38.110   5.766  1.00  0.00     0.242 C 
ATOM      2  O   UNL     1      28.211  38.189   4.831  1.00  0.00    -0.273 OA
ATOM      3  N   UNL     1      29.097  36.906   6.491  1.00  0.00    -0.350 N 
ATOM      4  H   UNL     1      29.758  36.778   7.272  1.00  0.00     0.163 HD
ENDROOT
BRANCH   1   5
ATOM      5  C   UNL     1      29.912  39.288   6.022  1.00  0.00     0.245 C 
BRANCH   5   6
ATOM      6  N   UNL     1      30.497  39.245   7.331  1.00  0.00    -0.243 N 
ATOM      7  C   UNL     1      33.288  39.569   9.704  1.00  0.00     0.070 C 
ATOM      8  C   UNL     1      31.998  39.377   8.951  1.00  0.00     0.080 A 
ATOM      9  C   UNL     1      31.804  39.506   7.596  1.00  0.00     0.134 A 
ATOM     10  N   UNL     1      30.785  39.038   9.454  1.00  0.00    -0.136 NA
ATOM     11  N   UNL     1      29.919  38.970   8.461  1.00  0.00    -0.067 NA
ENDBRANCH   5   6
ENDBRANCH   1   5
BRANCH   3  12
ATOM     12  C   UNL     1      28.208  35.779   6.176  1.00  0.00     0.162 C 
BRANCH  12  13
ATOM     13  C   UNL     1      27.233  35.724   7.283  1.00  0.00     0.024 A 
ATOM     14  C   UNL     1      26.798  34.749   8.102  1.00  0.00     0.017 A 
ATOM     15  S   UNL     1      26.277  37.158   7.851  1.00  0.00    -0.147 S 
ATOM     16  C   UNL     1      25.883  35.004   9.031  1.00  0.00     0.012 A 
ATOM     17  C   UNL     1      25.398  36.296   9.124  1.00  0.00     0.065 A 
ENDBRANCH  12  13
ENDBRANCH   3  12
TORSDOF 4
BEGIN_RES LYS A 135
REMARK  4 active torsions:
REMARK  status: ('A' for Active; 'I' for Inactive)
REMARK    1  A    between atoms: CA   and  CB  
REMARK    2  A    between atoms: CB   and  CG  
REMARK    3  A    between atoms: CG   and  CD  
REMARK    4  A    between atoms: CD   and  CE  
ROOT
ATOM      1  CA  LYS A 135      33.193  34.663   9.290  1.00 25.02     0.186 C 
ENDROOT
BRANCH   1   2
ATOM      2  CB  LYS A 135      32.060  35.360  10.034  1.00 26.63     0.034 C 
BRANCH   2   3
ATOM      3  CG  LYS A 135      30.768  35.403   9.260  1.00 29.45     0.005 C 
BRANCH   3   4
ATOM      4  CD  LYS A 135      29.790  34.366   9.790  1.00 32.00     0.041 C 
BRANCH   4   5
ATOM      5  CE  LYS A 135      29.102  34.874  11.042  1.00 34.25     0.338 C 
ATOM      6  NZ  LYS A 135      28.685  36.295  10.887  1.00 35.99     0.618 N 
ENDBRANCH   4   5
ENDBRANCH   3   4
ENDBRANCH   2   3
ENDBRANCH   1   2
END_RES LYS A 135
BEGIN_RES TYR A 136
REMARK  2 active torsions:
REMARK  status: ('A' for Active; 'I' for Inactive)
REMARK    5  A    between atoms: CA   and  CB  
REMARK    6  A    between atoms: CB   and  CG  
ROOT
ATOM      7  CA  TYR A 136      36.583  36.399   8.994  1.00 26.14     0.191 C 
ENDROOT
BRANCH   7   8
ATOM      8  CB  TYR A 136      37.367  36.835  10.240  1.00 28.16     0.060 C 
BRANCH   8   9
ATOM      9  CG  TYR A 136      37.046  38.248  10.662  1.00 31.88    -0.020 A 
ATOM     10  CD2 TYR A 136      37.339  39.334   9.835  1.00 32.67    -0.002 A 
ATOM     11  CE2 TYR A 136      37.038  40.642  10.237  1.00 33.89     0.027 A 
ATOM     12  CZ  TYR A 136      36.440  40.866  11.480  1.00 34.34     0.131 A 
ATOM     13  OH  TYR A 136      36.127  42.152  11.896  1.00 35.14    -0.190 OA
ATOM     14  CE1 TYR A 136      36.144  39.799  12.315  1.00 35.01     0.027 A 
ATOM     15  CD1 TYR A 136      36.453  38.500  11.906  1.00 33.57    -0.002 A 
ENDBRANCH   8   9
ENDBRANCH   7   8
END_RES TYR A 136
BEGIN_RES ASN A 133
REMARK  2 active torsions:
REMARK  status: ('A' for Active; 'I' for Inactive)
REMARK    7  A    between atoms: CA   and  CB  
REMARK    8  A    between atoms: CB   and  CG  
ROOT
ATOM     16  CA  ASN A 133      31.225  30.257  11.749  1.00 18.15     0.196 C 
ENDROOT
BRANCH  16  17
ATOM     17  CB  ASN A 133      30.092  31.240  11.460  1.00 18.27     0.126 C 
BRANCH  17  18
ATOM     18  CG  ASN A 133      28.757  30.578  11.315  1.00 18.94     0.276 C 
ATOM     19  OD1 ASN A 133      28.603  29.608  10.570  1.00 18.09    -0.269 OA
ATOM     20  ND2 ASN A 133      27.765  31.103  12.033  1.00 18.93    -0.107 N 
ENDBRANCH  17  18
ENDBRANCH  16  17
END_RES ASN A 133
