REMARK VINA RESULT:    -5.617     10.119     15.480
REMARK INTER + INTRA:         -10.109
REMARK INTER:                  -6.489
REMARK INTRA:                  -3.620
REMARK UNBOUND:                -3.343
REMARK SMILES Cc1cn(-c2ccc(S(=O)(=O)c3ccc(N)cc3)cc2)nn1
REMARK SMILES IDX 9 1 10 2 11 3 8 4 5 5 6 6 20 7 7 8 19 9 4 10 1 11 2 12 3 13
REMARK SMILES IDX 22 14 21 15 12 16 13 17 18 18 14 19 17 20 15 21 16 22
REMARK H PARENT 16 23 16 24
REMARK Flexibility Score: inf
ROOT
ATOM      1  S   UNL     1      21.997  36.436  -1.757  1.00  0.00     0.206 S 
ATOM      2  O   UNL     1      21.381  36.105  -3.105  1.00  0.00    -0.219 OA
ATOM      3  O   UNL     1      20.972  37.243  -1.008  1.00  0.00    -0.219 OA
ENDROOT
BRANCH   1   4
ATOM      4  C   UNL     1      23.492  37.300  -1.971  1.00  0.00     0.072 A 
ATOM      5  C   UNL     1      25.948  38.602  -2.347  1.00  0.00     0.066 A 
ATOM      6  C   UNL     1      25.801  37.229  -2.577  1.00  0.00     0.030 A 
ATOM      7  C   UNL     1      24.856  39.298  -1.931  1.00  0.00     0.030 A 
ATOM      8  C   UNL     1      24.592  36.591  -2.392  1.00  0.00     0.023 A 
ATOM      9  C   UNL     1      23.631  38.653  -1.742  1.00  0.00     0.023 A 
BRANCH   5  10
ATOM     10  N   UNL     1      27.229  39.192  -2.559  1.00  0.00    -0.220 N 
ATOM     11  C   UNL     1      30.755  39.512  -3.421  1.00  0.00     0.070 C 
ATOM     12  C   UNL     1      29.339  39.599  -3.029  1.00  0.00     0.080 A 
ATOM     13  C   UNL     1      28.359  38.633  -2.977  1.00  0.00     0.140 A 
ATOM     14  N   UNL     1      28.745  40.750  -2.627  1.00  0.00    -0.135 NA
ATOM     15  N   UNL     1      27.498  40.467  -2.358  1.00  0.00    -0.062 NA
ENDBRANCH   5  10
ENDBRANCH   1   4
BRANCH   1  16
ATOM     16  C   UNL     1      22.244  34.943  -0.862  1.00  0.00     0.072 A 
ATOM     17  C   UNL     1      21.811  33.723  -1.335  1.00  0.00     0.023 A 
ATOM     18  C   UNL     1      22.892  34.957   0.364  1.00  0.00     0.023 A 
ATOM     19  C   UNL     1      22.010  32.544  -0.622  1.00  0.00     0.027 A 
ATOM     20  C   UNL     1      23.089  33.777   1.074  1.00  0.00     0.027 A 
ATOM     21  C   UNL     1      22.651  32.562   0.590  1.00  0.00     0.031 A 
BRANCH  21  22
ATOM     22  N   UNL     1      22.843  31.343   1.303  1.00  0.00    -0.399 N 
ATOM     23  H   UNL     1      23.677  31.190   1.885  1.00  0.00     0.156 HD
ATOM     24  H   UNL     1      22.126  30.589   1.233  1.00  0.00     0.156 HD
ENDBRANCH  21  22
ENDBRANCH   1  16
TORSDOF 4
BEGIN_RES LYS A 135
REMARK  4 active torsions:
REMARK  status: ('A' for Active; 'I' for Inactive)
REMARK    1  A    between atoms: CA   and  CB  
REMARK    2  A    between atoms: CB   and  CG  
REMARK    3  A    between atoms: CG   and  CD  
REMARK    4  A    between atoms: CD   and  CE  
ROOT
ATOM      1  CA  LYS A 135      33.193  34.663   9.290  1.00 25.02     0.186 C 
ENDROOT
BRANCH   1   2
ATOM      2  CB  LYS A 135      32.060  35.360  10.034  1.00 26.63     0.034 C 
BRANCH   2   3
ATOM      3  CG  LYS A 135      30.744  34.631   9.947  1.00 29.45     0.005 C 
BRANCH   3   4
ATOM      4  CD  LYS A 135      30.335  34.432   8.496  1.00 32.00     0.041 C 
BRANCH   4   5
ATOM      5  CE  LYS A 135      28.831  34.554   8.345  1.00 34.25     0.338 C 
ATOM      6  NZ  LYS A 135      28.122  33.796   9.412  1.00 35.99     0.618 N 
ENDBRANCH   4   5
ENDBRANCH   3   4
ENDBRANCH   2   3
ENDBRANCH   1   2
END_RES LYS A 135
BEGIN_RES TYR A 136
REMARK  2 active torsions:
REMARK  status: ('A' for Active; 'I' for Inactive)
REMARK    5  A    between atoms: CA   and  CB  
REMARK    6  A    between atoms: CB   and  CG  
ROOT
ATOM      7  CA  TYR A 136      36.583  36.399   8.994  1.00 26.14     0.191 C 
ENDROOT
BRANCH   7   8
ATOM      8  CB  TYR A 136      37.367  36.835  10.240  1.00 28.16     0.060 C 
BRANCH   8   9
ATOM      9  CG  TYR A 136      37.277  38.320  10.492  1.00 31.88    -0.020 A 
ATOM     10  CD2 TYR A 136      38.044  38.933  11.485  1.00 32.67    -0.002 A 
ATOM     11  CE2 TYR A 136      37.952  40.313  11.712  1.00 33.89     0.027 A 
ATOM     12  CZ  TYR A 136      37.083  41.087  10.939  1.00 34.34     0.131 A 
ATOM     13  OH  TYR A 136      36.981  42.456  11.141  1.00 35.14    -0.190 OA
ATOM     14  CE1 TYR A 136      36.313  40.494   9.948  1.00 35.01     0.027 A 
ATOM     15  CD1 TYR A 136      36.409  39.118   9.736  1.00 33.57    -0.002 A 
ENDBRANCH   8   9
ENDBRANCH   7   8
END_RES TYR A 136
BEGIN_RES ASN A 133
REMARK  2 active torsions:
REMARK  status: ('A' for Active; 'I' for Inactive)
REMARK    7  A    between atoms: CA   and  CB  
REMARK    8  A    between atoms: CB   and  CG  
ROOT
ATOM     16  CA  ASN A 133      31.225  30.257  11.749  1.00 18.15     0.196 C 
ENDROOT
BRANCH  16  17
ATOM     17  CB  ASN A 133      30.092  31.240  11.460  1.00 18.27     0.126 C 
BRANCH  17  18
ATOM     18  CG  ASN A 133      28.751  30.583  11.355  1.00 18.94     0.276 C 
ATOM     19  OD1 ASN A 133      28.578  29.597  10.636  1.00 18.09    -0.269 OA
ATOM     20  ND2 ASN A 133      27.775  31.130  12.079  1.00 18.93    -0.107 N 
ENDBRANCH  17  18
ENDBRANCH  16  17
END_RES ASN A 133
