REMARK VINA RESULT:    -5.720      3.665      6.997
REMARK INTER + INTRA:         -10.726
REMARK INTER:                  -7.073
REMARK INTRA:                  -3.654
REMARK UNBOUND:                -3.836
REMARK SMILES Cc1cn(-c2ccc(-c3c4ccc(=O)cc-4oc4cc(O)ccc34)c(C(=O)[O-])c2)nn1
REMARK SMILES IDX 9 1 24 2 23 3 22 4 20 5 19 6 18 7 17 8 16 9 15 10 13 11
REMARK SMILES IDX 14 12 12 13 11 14 10 15 8 16 5 17 29 18 6 19 25 20 7 21 4 22
REMARK SMILES IDX 1 23 2 24 3 25 31 26 30 27 26 28 27 29 28 30 21 31
REMARK H PARENT 21 32
REMARK Flexibility Score: inf
ROOT
ATOM      1  C   UNL     1      28.923  31.038  17.603  1.00  0.00     0.004 A 
ATOM      2  C   UNL     1      29.332  30.521  18.813  1.00  0.00     0.026 A 
ATOM      3  C   UNL     1      30.527  30.931  19.365  1.00  0.00     0.016 A 
ATOM      4  C   UNL     1      30.978  30.437  20.579  1.00  0.00     0.047 A 
ATOM      5  C   UNL     1      30.191  29.513  21.234  1.00  0.00     0.119 A 
ATOM      6  C   UNL     1      28.995  29.103  20.683  1.00  0.00     0.093 A 
ATOM      7  C   UNL     1      28.530  29.592  19.461  1.00  0.00     0.139 A 
ATOM      8  O   UNL     1      27.386  29.179  18.966  1.00  0.00    -0.456 OA
ATOM      9  C   UNL     1      26.917  29.607  17.837  1.00  0.00     0.139 A 
ATOM     10  C   UNL     1      25.725  29.198  17.288  1.00  0.00     0.099 A 
ATOM     11  C   UNL     1      25.335  29.726  16.080  1.00  0.00     0.182 A 
ATOM     12  O   UNL     1      24.245  29.347  15.586  1.00  0.00    -0.290 OA
ATOM     13  C   UNL     1      26.097  30.654  15.393  1.00  0.00     0.053 A 
ATOM     14  C   UNL     1      27.301  31.109  15.883  1.00  0.00     0.016 A 
ATOM     15  C   UNL     1      27.719  30.594  17.100  1.00  0.00     0.026 A 
ENDROOT
BRANCH   1  16
ATOM     16  C   UNL     1      29.765  32.007  16.934  1.00  0.00    -0.008 A 
ATOM     17  C   UNL     1      31.355  33.931  15.679  1.00  0.00     0.067 A 
ATOM     18  C   UNL     1      30.373  34.322  16.564  1.00  0.00     0.039 A 
ATOM     19  C   UNL     1      31.553  32.585  15.413  1.00  0.00     0.029 A 
ATOM     20  C   UNL     1      29.596  33.354  17.176  1.00  0.00     0.007 A 
ATOM     21  C   UNL     1      30.757  31.642  16.042  1.00  0.00     0.012 A 
BRANCH  17  22
ATOM     22  N   UNL     1      32.184  34.881  15.021  1.00  0.00    -0.220 N 
ATOM     23  C   UNL     1      33.123  36.919  12.102  1.00  0.00     0.070 C 
ATOM     24  C   UNL     1      32.969  36.217  13.410  1.00  0.00     0.080 A 
ATOM     25  C   UNL     1      31.992  35.298  13.736  1.00  0.00     0.140 A 
ATOM     26  N   UNL     1      33.727  36.330  14.515  1.00  0.00    -0.135 NA
ATOM     27  N   UNL     1      33.234  35.523  15.453  1.00  0.00    -0.062 NA
ENDBRANCH  17  22
BRANCH  20  28
ATOM     28  C   UNL     1      28.561  33.782  18.110  1.00  0.00     0.072 C 
ATOM     29  O   UNL     1      27.392  34.026  17.734  1.00  0.00    -0.545 OA
ATOM     30  O   UNL     1      28.837  33.931  19.462  1.00  0.00    -0.545 OA
ENDBRANCH  20  28
ENDBRANCH   1  16
BRANCH   5  31
ATOM     31  O   UNL     1      30.638  29.007  22.465  1.00  0.00    -0.508 OA
ATOM     32  H   UNL     1      29.975  28.622  23.122  1.00  0.00     0.293 HD
ENDBRANCH   5  31
TORSDOF 4
BEGIN_RES LYS A 135
REMARK  4 active torsions:
REMARK  status: ('A' for Active; 'I' for Inactive)
REMARK    1  A    between atoms: CA   and  CB  
REMARK    2  A    between atoms: CB   and  CG  
REMARK    3  A    between atoms: CG   and  CD  
REMARK    4  A    between atoms: CD   and  CE  
ROOT
ATOM      1  CA  LYS A 135      33.193  34.663   9.290  1.00 25.02     0.186 C 
ENDROOT
BRANCH   1   2
ATOM      2  CB  LYS A 135      32.060  35.360  10.034  1.00 26.63     0.034 C 
BRANCH   2   3
ATOM      3  CG  LYS A 135      30.760  34.598  10.003  1.00 29.45     0.005 C 
BRANCH   3   4
ATOM      4  CD  LYS A 135      30.331  34.328   8.569  1.00 32.00     0.041 C 
BRANCH   4   5
ATOM      5  CE  LYS A 135      28.842  34.566   8.405  1.00 34.25     0.338 C 
ATOM      6  NZ  LYS A 135      28.060  33.769   9.391  1.00 35.99     0.618 N 
ENDBRANCH   4   5
ENDBRANCH   3   4
ENDBRANCH   2   3
ENDBRANCH   1   2
END_RES LYS A 135
BEGIN_RES TYR A 136
REMARK  2 active torsions:
REMARK  status: ('A' for Active; 'I' for Inactive)
REMARK    5  A    between atoms: CA   and  CB  
REMARK    6  A    between atoms: CB   and  CG  
ROOT
ATOM      7  CA  TYR A 136      36.583  36.399   8.994  1.00 26.14     0.191 C 
ENDROOT
BRANCH   7   8
ATOM      8  CB  TYR A 136      37.367  36.835  10.240  1.00 28.16     0.060 C 
BRANCH   8   9
ATOM      9  CG  TYR A 136      36.672  37.932  11.008  1.00 31.88    -0.020 A 
ATOM     10  CD2 TYR A 136      35.981  38.951  10.349  1.00 32.67    -0.002 A 
ATOM     11  CE2 TYR A 136      35.340  39.966  11.072  1.00 33.89     0.027 A 
ATOM     12  CZ  TYR A 136      35.392  39.962  12.468  1.00 34.34     0.131 A 
ATOM     13  OH  TYR A 136      34.758  40.953  13.205  1.00 35.14    -0.190 OA
ATOM     14  CE1 TYR A 136      36.074  38.958  13.139  1.00 35.01     0.027 A 
ATOM     15  CD1 TYR A 136      36.714  37.956  12.408  1.00 33.57    -0.002 A 
ENDBRANCH   8   9
ENDBRANCH   7   8
END_RES TYR A 136
BEGIN_RES ASN A 133
REMARK  2 active torsions:
REMARK  status: ('A' for Active; 'I' for Inactive)
REMARK    7  A    between atoms: CA   and  CB  
REMARK    8  A    between atoms: CB   and  CG  
ROOT
ATOM     16  CA  ASN A 133      31.225  30.257  11.749  1.00 18.15     0.196 C 
ENDROOT
BRANCH  16  17
ATOM     17  CB  ASN A 133      30.092  31.240  11.460  1.00 18.27     0.126 C 
BRANCH  17  18
ATOM     18  CG  ASN A 133      28.751  30.582  11.353  1.00 18.94     0.276 C 
ATOM     19  OD1 ASN A 133      28.576  29.604  10.624  1.00 18.09    -0.269 OA
ATOM     20  ND2 ASN A 133      27.778  31.121  12.086  1.00 18.93    -0.107 N 
ENDBRANCH  17  18
ENDBRANCH  16  17
END_RES ASN A 133
