REMARK VINA RESULT:    -4.074      8.322     13.965
REMARK INTER + INTRA:          -7.455
REMARK INTER:                  -4.368
REMARK INTRA:                  -3.087
REMARK UNBOUND:                -3.143
REMARK SMILES Cc1cn(-c2ccc3c(c2)OCO3)nn1
REMARK SMILES IDX 5 1 6 2 7 3 8 4 9 5 10 6 11 7 12 8 13 9 4 10 1 11 2 12 3 13
REMARK SMILES IDX 15 14 14 15
REMARK H PARENT
REMARK Flexibility Score: inf
ROOT
ATOM      1  C   UNL     1      31.645  33.491  16.332  1.00  0.00     0.070 A 
ATOM      2  C   UNL     1      31.270  32.385  15.602  1.00  0.00     0.032 A 
ATOM      3  C   UNL     1      30.514  31.390  16.183  1.00  0.00     0.053 A 
ATOM      4  C   UNL     1      30.148  31.548  17.522  1.00  0.00     0.165 A 
ATOM      5  C   UNL     1      30.520  32.649  18.258  1.00  0.00     0.167 A 
ATOM      6  C   UNL     1      31.270  33.617  17.649  1.00  0.00     0.079 A 
ATOM      7  O   UNL     1      29.991  32.492  19.557  1.00  0.00    -0.454 OA
ATOM      8  C   UNL     1      29.734  31.111  19.736  1.00  0.00     0.468 C 
ATOM      9  O   UNL     1      29.405  30.745  18.388  1.00  0.00    -0.454 OA
ENDROOT
BRANCH   1  10
ATOM     10  N   UNL     1      32.437  34.513  15.693  1.00  0.00    -0.220 N 
ATOM     11  C   UNL     1      33.860  36.304  12.808  1.00  0.00     0.070 C 
ATOM     12  C   UNL     1      33.417  35.757  14.136  1.00  0.00     0.080 A 
ATOM     13  C   UNL     1      32.588  34.676  14.365  1.00  0.00     0.140 A 
ATOM     14  N   UNL     1      33.745  36.220  15.355  1.00  0.00    -0.135 NA
ATOM     15  N   UNL     1      33.147  35.459  16.261  1.00  0.00    -0.062 NA
ENDBRANCH   1  10
TORSDOF 1
BEGIN_RES LYS A 135
REMARK  4 active torsions:
REMARK  status: ('A' for Active; 'I' for Inactive)
REMARK    1  A    between atoms: CA   and  CB  
REMARK    2  A    between atoms: CB   and  CG  
REMARK    3  A    between atoms: CG   and  CD  
REMARK    4  A    between atoms: CD   and  CE  
ROOT
ATOM      1  CA  LYS A 135      33.193  34.663   9.290  1.00 25.02     0.186 C 
ENDROOT
BRANCH   1   2
ATOM      2  CB  LYS A 135      32.060  35.360  10.034  1.00 26.63     0.034 C 
BRANCH   2   3
ATOM      3  CG  LYS A 135      30.727  34.675   9.880  1.00 29.45     0.005 C 
BRANCH   3   4
ATOM      4  CD  LYS A 135      30.307  34.640   8.418  1.00 32.00     0.041 C 
BRANCH   4   5
ATOM      5  CE  LYS A 135      28.795  34.635   8.298  1.00 34.25     0.338 C 
ATOM      6  NZ  LYS A 135      28.171  33.884   9.422  1.00 35.99     0.618 N 
ENDBRANCH   4   5
ENDBRANCH   3   4
ENDBRANCH   2   3
ENDBRANCH   1   2
END_RES LYS A 135
BEGIN_RES TYR A 136
REMARK  2 active torsions:
REMARK  status: ('A' for Active; 'I' for Inactive)
REMARK    5  A    between atoms: CA   and  CB  
REMARK    6  A    between atoms: CB   and  CG  
ROOT
ATOM      7  CA  TYR A 136      36.583  36.399   8.994  1.00 26.14     0.191 C 
ENDROOT
BRANCH   7   8
ATOM      8  CB  TYR A 136      37.367  36.835  10.240  1.00 28.16     0.060 C 
BRANCH   8   9
ATOM      9  CG  TYR A 136      36.742  38.020  10.934  1.00 31.88    -0.020 A 
ATOM     10  CD2 TYR A 136      35.922  38.914  10.241  1.00 32.67    -0.002 A 
ATOM     11  CE2 TYR A 136      35.347  40.013  10.894  1.00 33.89     0.027 A 
ATOM     12  CZ  TYR A 136      35.596  40.219  12.253  1.00 34.34     0.131 A 
ATOM     13  OH  TYR A 136      35.032  41.297  12.922  1.00 35.14    -0.190 OA
ATOM     14  CE1 TYR A 136      36.409  39.343  12.957  1.00 35.01     0.027 A 
ATOM     15  CD1 TYR A 136      36.981  38.255  12.294  1.00 33.57    -0.002 A 
ENDBRANCH   8   9
ENDBRANCH   7   8
END_RES TYR A 136
BEGIN_RES ASN A 133
REMARK  2 active torsions:
REMARK  status: ('A' for Active; 'I' for Inactive)
REMARK    7  A    between atoms: CA   and  CB  
REMARK    8  A    between atoms: CB   and  CG  
ROOT
ATOM     16  CA  ASN A 133      31.225  30.257  11.749  1.00 18.15     0.196 C 
ENDROOT
BRANCH  16  17
ATOM     17  CB  ASN A 133      30.092  31.240  11.460  1.00 18.27     0.126 C 
BRANCH  17  18
ATOM     18  CG  ASN A 133      28.759  30.577  11.302  1.00 18.94     0.276 C 
ATOM     19  OD1 ASN A 133      28.610  29.614  10.547  1.00 18.09    -0.269 OA
ATOM     20  ND2 ASN A 133      27.763  31.092  12.022  1.00 18.93    -0.107 N 
ENDBRANCH  17  18
ENDBRANCH  16  17
END_RES ASN A 133
