REMARK VINA RESULT:    -4.235      2.911      4.663
REMARK INTER + INTRA:          -8.542
REMARK INTER:                  -5.037
REMARK INTRA:                  -3.505
REMARK UNBOUND:                -3.317
REMARK SMILES Cc1cn(CC(=O)NCc2cccs2)nn1
REMARK SMILES IDX 6 1 7 2 8 3 5 5 4 6 1 7 2 8 3 9 16 10 15 11 9 12 10 13 11 14
REMARK SMILES IDX 14 15 12 16 13 17
REMARK H PARENT 8 4
REMARK Flexibility Score: inf
ROOT
ATOM      1  C   UNL     1      37.873  34.574  13.578  1.00  0.00     0.242 C 
ATOM      2  O   UNL     1      38.106  34.781  12.359  1.00  0.00    -0.273 OA
ATOM      3  N   UNL     1      36.540  34.310  13.945  1.00  0.00    -0.350 N 
ATOM      4  H   UNL     1      36.281  34.136  14.928  1.00  0.00     0.163 HD
ENDROOT
BRANCH   1   5
ATOM      5  C   UNL     1      39.016  34.624  14.520  1.00  0.00     0.245 C 
BRANCH   5   6
ATOM      6  N   UNL     1      38.586  34.530  15.884  1.00  0.00    -0.243 N 
ATOM      7  C   UNL     1      38.456  32.932  19.196  1.00  0.00     0.070 C 
ATOM      8  C   UNL     1      38.350  33.774  17.951  1.00  0.00     0.080 A 
ATOM      9  C   UNL     1      38.939  33.529  16.733  1.00  0.00     0.134 A 
ATOM     10  N   UNL     1      37.656  34.928  17.785  1.00  0.00    -0.136 NA
ATOM     11  N   UNL     1      37.822  35.346  16.545  1.00  0.00    -0.067 NA
ENDBRANCH   5   6
ENDBRANCH   1   5
BRANCH   3  12
ATOM     12  C   UNL     1      35.458  34.275  12.951  1.00  0.00     0.162 C 
BRANCH  12  13
ATOM     13  C   UNL     1      34.604  35.439  13.257  1.00  0.00     0.024 A 
ATOM     14  C   UNL     1      33.745  36.187  12.540  1.00  0.00     0.017 A 
ATOM     15  S   UNL     1      34.523  36.223  14.891  1.00  0.00    -0.147 S 
ATOM     16  C   UNL     1      33.103  37.206  13.101  1.00  0.00     0.012 A 
ATOM     17  C   UNL     1      33.347  37.467  14.437  1.00  0.00     0.065 A 
ENDBRANCH  12  13
ENDBRANCH   3  12
TORSDOF 4
BEGIN_RES LYS A 135
REMARK  4 active torsions:
REMARK  status: ('A' for Active; 'I' for Inactive)
REMARK    1  A    between atoms: CA   and  CB  
REMARK    2  A    between atoms: CB   and  CG  
REMARK    3  A    between atoms: CG   and  CD  
REMARK    4  A    between atoms: CD   and  CE  
ROOT
ATOM      1  CA  LYS A 135      33.193  34.663   9.290  1.00 25.02     0.186 C 
ENDROOT
BRANCH   1   2
ATOM      2  CB  LYS A 135      32.060  35.360  10.034  1.00 26.63     0.034 C 
BRANCH   2   3
ATOM      3  CG  LYS A 135      30.703  34.767   9.757  1.00 29.45     0.005 C 
BRANCH   3   4
ATOM      4  CD  LYS A 135      30.573  34.385   8.291  1.00 32.00     0.041 C 
BRANCH   4   5
ATOM      5  CE  LYS A 135      29.417  35.125   7.647  1.00 34.25     0.338 C 
ATOM      6  NZ  LYS A 135      28.115  34.700   8.233  1.00 35.99     0.618 N 
ENDBRANCH   4   5
ENDBRANCH   3   4
ENDBRANCH   2   3
ENDBRANCH   1   2
END_RES LYS A 135
BEGIN_RES TYR A 136
REMARK  2 active torsions:
REMARK  status: ('A' for Active; 'I' for Inactive)
REMARK    5  A    between atoms: CA   and  CB  
REMARK    6  A    between atoms: CB   and  CG  
ROOT
ATOM      7  CA  TYR A 136      36.583  36.399   8.994  1.00 26.14     0.191 C 
ENDROOT
BRANCH   7   8
ATOM      8  CB  TYR A 136      37.367  36.835  10.240  1.00 28.16     0.060 C 
BRANCH   8   9
ATOM      9  CG  TYR A 136      36.690  37.957  10.988  1.00 31.88    -0.020 A 
ATOM     10  CD2 TYR A 136      36.949  38.183  12.342  1.00 32.67    -0.002 A 
ATOM     11  CE2 TYR A 136      36.314  39.228  13.028  1.00 33.89     0.027 A 
ATOM     12  CZ  TYR A 136      35.412  40.053  12.353  1.00 34.34     0.131 A 
ATOM     13  OH  TYR A 136      34.777  41.098  13.010  1.00 35.14    -0.190 OA
ATOM     14  CE1 TYR A 136      35.142  39.843  11.008  1.00 35.01     0.027 A 
ATOM     15  CD1 TYR A 136      35.776  38.796  10.337  1.00 33.57    -0.002 A 
ENDBRANCH   8   9
ENDBRANCH   7   8
END_RES TYR A 136
BEGIN_RES ASN A 133
REMARK  2 active torsions:
REMARK  status: ('A' for Active; 'I' for Inactive)
REMARK    7  A    between atoms: CA   and  CB  
REMARK    8  A    between atoms: CB   and  CG  
ROOT
ATOM     16  CA  ASN A 133      31.225  30.257  11.749  1.00 18.15     0.196 C 
ENDROOT
BRANCH  16  17
ATOM     17  CB  ASN A 133      30.092  31.240  11.460  1.00 18.27     0.126 C 
BRANCH  17  18
ATOM     18  CG  ASN A 133      28.751  30.582  11.350  1.00 18.94     0.276 C 
ATOM     19  OD1 ASN A 133      28.578  29.605  10.619  1.00 18.09    -0.269 OA
ATOM     20  ND2 ASN A 133      27.777  31.118  12.084  1.00 18.93    -0.107 N 
ENDBRANCH  17  18
ENDBRANCH  16  17
END_RES ASN A 133
