REMARK VINA RESULT:    -3.131      5.584      9.088
REMARK INTER + INTRA:          -7.499
REMARK INTER:                  -4.151
REMARK INTRA:                  -3.348
REMARK UNBOUND:                -3.635
REMARK SMILES Cc1cn(CCNS(C)(=O)=O)nn1
REMARK SMILES IDX 6 1 5 2 4 3 1 4 2 5 3 6 13 7 12 8 7 9 8 11 10 12 11 13 9 14
REMARK H PARENT 7 10
REMARK Flexibility Score: inf
ROOT
ATOM      1  C   UNL     1      28.706  37.195   5.492  1.00  0.00     0.122 C 
ENDROOT
BRANCH   1   2
ATOM      2  C   UNL     1      28.282  36.007   6.363  1.00  0.00     0.162 C 
BRANCH   2   3
ATOM      3  N   UNL     1      27.548  36.575   7.503  1.00  0.00    -0.251 N 
ATOM      4  C   UNL     1      24.726  36.857   9.808  1.00  0.00     0.070 C 
ATOM      5  C   UNL     1      25.992  36.960   9.026  1.00  0.00     0.080 A 
ATOM      6  C   UNL     1      26.338  36.191   7.939  1.00  0.00     0.134 A 
ATOM      7  N   UNL     1      27.024  37.799   9.213  1.00  0.00    -0.136 NA
ATOM      8  N   UNL     1      27.939  37.553   8.296  1.00  0.00    -0.067 NA
ENDBRANCH   2   3
ENDBRANCH   1   2
BRANCH   1   9
ATOM      9  N   UNL     1      27.540  37.733   4.854  1.00  0.00    -0.214 NA
ATOM     10  H   UNL     1      26.671  37.310   5.199  1.00  0.00     0.141 HD
BRANCH   9  11
ATOM     11  S   UNL     1      27.530  39.446   4.946  1.00  0.00     0.208 S 
ATOM     12  O   UNL     1      27.193  40.043   3.612  1.00  0.00    -0.213 OA
ATOM     13  O   UNL     1      28.919  39.910   5.348  1.00  0.00    -0.213 OA
ATOM     14  C   UNL     1      26.407  39.958   6.196  1.00  0.00     0.176 C 
ENDBRANCH   9  11
ENDBRANCH   1   9
TORSDOF 4
BEGIN_RES LYS A 135
REMARK  4 active torsions:
REMARK  status: ('A' for Active; 'I' for Inactive)
REMARK    1  A    between atoms: CA   and  CB  
REMARK    2  A    between atoms: CB   and  CG  
REMARK    3  A    between atoms: CG   and  CD  
REMARK    4  A    between atoms: CD   and  CE  
ROOT
ATOM      1  CA  LYS A 135      33.193  34.663   9.290  1.00 25.02     0.186 C 
ENDROOT
BRANCH   1   2
ATOM      2  CB  LYS A 135      32.060  35.360  10.034  1.00 26.63     0.034 C 
BRANCH   2   3
ATOM      3  CG  LYS A 135      30.778  35.436   9.245  1.00 29.45     0.005 C 
BRANCH   3   4
ATOM      4  CD  LYS A 135      30.241  34.042   8.959  1.00 32.00     0.041 C 
BRANCH   4   5
ATOM      5  CE  LYS A 135      28.798  33.924   9.408  1.00 34.25     0.338 C 
ATOM      6  NZ  LYS A 135      28.547  34.741  10.628  1.00 35.99     0.618 N 
ENDBRANCH   4   5
ENDBRANCH   3   4
ENDBRANCH   2   3
ENDBRANCH   1   2
END_RES LYS A 135
BEGIN_RES TYR A 136
REMARK  2 active torsions:
REMARK  status: ('A' for Active; 'I' for Inactive)
REMARK    5  A    between atoms: CA   and  CB  
REMARK    6  A    between atoms: CB   and  CG  
ROOT
ATOM      7  CA  TYR A 136      36.583  36.399   8.994  1.00 26.14     0.191 C 
ENDROOT
BRANCH   7   8
ATOM      8  CB  TYR A 136      37.367  36.835  10.240  1.00 28.16     0.060 C 
BRANCH   8   9
ATOM      9  CG  TYR A 136      37.195  38.302  10.550  1.00 31.88    -0.020 A 
ATOM     10  CD2 TYR A 136      38.174  39.234  10.201  1.00 32.67    -0.002 A 
ATOM     11  CE2 TYR A 136      38.005  40.594  10.496  1.00 33.89     0.027 A 
ATOM     12  CZ  TYR A 136      36.845  41.025  11.145  1.00 34.34     0.131 A 
ATOM     13  OH  TYR A 136      36.654  42.367  11.440  1.00 35.14    -0.190 OA
ATOM     14  CE1 TYR A 136      35.863  40.112  11.500  1.00 35.01     0.027 A 
ATOM     15  CD1 TYR A 136      36.045  38.759  11.207  1.00 33.57    -0.002 A 
ENDBRANCH   8   9
ENDBRANCH   7   8
END_RES TYR A 136
BEGIN_RES ASN A 133
REMARK  2 active torsions:
REMARK  status: ('A' for Active; 'I' for Inactive)
REMARK    7  A    between atoms: CA   and  CB  
REMARK    8  A    between atoms: CB   and  CG  
ROOT
ATOM     16  CA  ASN A 133      31.225  30.257  11.749  1.00 18.15     0.196 C 
ENDROOT
BRANCH  16  17
ATOM     17  CB  ASN A 133      30.092  31.240  11.460  1.00 18.27     0.126 C 
BRANCH  17  18
ATOM     18  CG  ASN A 133      28.750  30.584  11.362  1.00 18.94     0.276 C 
ATOM     19  OD1 ASN A 133      28.579  29.581  10.665  1.00 18.09    -0.269 OA
ATOM     20  ND2 ASN A 133      27.771  31.150  12.066  1.00 18.93    -0.107 N 
ENDBRANCH  17  18
ENDBRANCH  16  17
END_RES ASN A 133
