REMARK VINA RESULT:    -4.616      0.000      0.000
REMARK INTER + INTRA:          -8.781
REMARK INTER:                  -5.226
REMARK INTRA:                  -3.555
REMARK UNBOUND:                -3.355
REMARK SMILES Cc1cn(CC(=O)Nc2ncccn2)nn1
REMARK SMILES IDX 6 1 7 2 8 3 5 5 4 6 1 7 2 8 3 9 16 10 15 11 9 12 10 13 14 14
REMARK SMILES IDX 11 15 13 16 12 17
REMARK H PARENT 8 4
REMARK Flexibility Score: inf
ROOT
ATOM      1  C   UNL     1      33.450  35.325  13.260  1.00  0.00     0.248 C 
ATOM      2  O   UNL     1      33.922  36.401  12.814  1.00  0.00    -0.272 OA
ATOM      3  N   UNL     1      34.392  34.285  13.559  1.00  0.00    -0.293 N 
ATOM      4  H   UNL     1      34.023  33.386  13.929  1.00  0.00     0.173 HD
ENDROOT
BRANCH   1   5
ATOM      5  C   UNL     1      32.029  35.072  13.492  1.00  0.00     0.246 C 
BRANCH   5   6
ATOM      6  N   UNL     1      31.809  34.352  14.731  1.00  0.00    -0.243 N 
ATOM      7  C   UNL     1      30.477  31.655  16.847  1.00  0.00     0.070 C 
ATOM      8  C   UNL     1      31.128  32.847  16.222  1.00  0.00     0.080 A 
ATOM      9  C   UNL     1      31.105  33.222  14.888  1.00  0.00     0.134 A 
ATOM     10  N   UNL     1      31.869  33.796  16.835  1.00  0.00    -0.136 NA
ATOM     11  N   UNL     1      32.256  34.668  15.937  1.00  0.00    -0.067 NA
ENDBRANCH   5   6
ENDBRANCH   1   5
BRANCH   3  12
ATOM     12  C   UNL     1      35.781  34.446  13.365  1.00  0.00     0.229 A 
ATOM     13  N   UNL     1      36.387  34.070  12.231  1.00  0.00    -0.221 NA
ATOM     14  N   UNL     1      36.519  34.990  14.338  1.00  0.00    -0.221 NA
ATOM     15  C   UNL     1      37.711  34.214  12.026  1.00  0.00     0.117 A 
ATOM     16  C   UNL     1      37.851  35.176  14.224  1.00  0.00     0.117 A 
ATOM     17  C   UNL     1      38.455  34.785  13.058  1.00  0.00     0.040 A 
ENDBRANCH   3  12
TORSDOF 3
BEGIN_RES LYS A 135
REMARK  4 active torsions:
REMARK  status: ('A' for Active; 'I' for Inactive)
REMARK    1  A    between atoms: CA   and  CB  
REMARK    2  A    between atoms: CB   and  CG  
REMARK    3  A    between atoms: CG   and  CD  
REMARK    4  A    between atoms: CD   and  CE  
ROOT
ATOM      1  CA  LYS A 135      33.193  34.663   9.290  1.00 25.02     0.186 C 
ENDROOT
BRANCH   1   2
ATOM      2  CB  LYS A 135      32.060  35.360  10.034  1.00 26.63     0.034 C 
BRANCH   2   3
ATOM      3  CG  LYS A 135      30.744  34.631   9.947  1.00 29.45     0.005 C 
BRANCH   3   4
ATOM      4  CD  LYS A 135      30.354  34.398   8.495  1.00 32.00     0.041 C 
BRANCH   4   5
ATOM      5  CE  LYS A 135      28.854  34.532   8.318  1.00 34.25     0.338 C 
ATOM      6  NZ  LYS A 135      28.120  33.795   9.384  1.00 35.99     0.618 N 
ENDBRANCH   4   5
ENDBRANCH   3   4
ENDBRANCH   2   3
ENDBRANCH   1   2
END_RES LYS A 135
BEGIN_RES TYR A 136
REMARK  2 active torsions:
REMARK  status: ('A' for Active; 'I' for Inactive)
REMARK    5  A    between atoms: CA   and  CB  
REMARK    6  A    between atoms: CB   and  CG  
ROOT
ATOM      7  CA  TYR A 136      36.583  36.399   8.994  1.00 26.14     0.191 C 
ENDROOT
BRANCH   7   8
ATOM      8  CB  TYR A 136      37.367  36.835  10.240  1.00 28.16     0.060 C 
BRANCH   8   9
ATOM      9  CG  TYR A 136      36.754  38.033  10.921  1.00 31.88    -0.020 A 
ATOM     10  CD2 TYR A 136      36.885  38.228  12.298  1.00 32.67    -0.002 A 
ATOM     11  CE2 TYR A 136      36.310  39.344  12.922  1.00 33.89     0.027 A 
ATOM     12  CZ  TYR A 136      35.597  40.273  12.161  1.00 34.34     0.131 A 
ATOM     13  OH  TYR A 136      35.025  41.389  12.756  1.00 35.14    -0.190 OA
ATOM     14  CE1 TYR A 136      35.455  40.095  10.792  1.00 35.01     0.027 A 
ATOM     15  CD1 TYR A 136      36.027  38.976  10.183  1.00 33.57    -0.002 A 
ENDBRANCH   8   9
ENDBRANCH   7   8
END_RES TYR A 136
BEGIN_RES ASN A 133
REMARK  2 active torsions:
REMARK  status: ('A' for Active; 'I' for Inactive)
REMARK    7  A    between atoms: CA   and  CB  
REMARK    8  A    between atoms: CB   and  CG  
ROOT
ATOM     16  CA  ASN A 133      31.225  30.257  11.749  1.00 18.15     0.196 C 
ENDROOT
BRANCH  16  17
ATOM     17  CB  ASN A 133      30.092  31.240  11.460  1.00 18.27     0.126 C 
BRANCH  17  18
ATOM     18  CG  ASN A 133      28.753  30.580  11.338  1.00 18.94     0.276 C 
ATOM     19  OD1 ASN A 133      28.590  29.598  10.611  1.00 18.09    -0.269 OA
ATOM     20  ND2 ASN A 133      27.769  31.122  12.055  1.00 18.93    -0.107 N 
ENDBRANCH  17  18
ENDBRANCH  16  17
END_RES ASN A 133
