REMARK VINA RESULT:    -4.187      1.986      3.393
REMARK INTER + INTRA:          -9.217
REMARK INTER:                  -5.319
REMARK INTRA:                  -3.898
REMARK UNBOUND:                -3.439
REMARK SMILES Cc1cn(C[C@H](CC(=O)O)CC(C)C)nn1
REMARK SMILES IDX 7 1 6 2 5 3 4 4 1 5 2 6 3 7 16 8 15 9 11 10 12 11 13 12
REMARK SMILES IDX 14 13 8 14 9 15 10 16
REMARK H PARENT 10 17
REMARK Flexibility Score: inf
ROOT
ATOM      1  C   UNL     1      37.390  35.018  12.670  1.00  0.00     0.128 C 
ENDROOT
BRANCH   1   2
ATOM      2  C   UNL     1      37.633  35.397  14.098  1.00  0.00     0.022 C 
BRANCH   2   3
ATOM      3  C   UNL     1      36.807  36.552  14.592  1.00  0.00     0.150 C 
BRANCH   3   4
ATOM      4  N   UNL     1      35.388  36.223  14.634  1.00  0.00    -0.252 N 
ATOM      5  C   UNL     1      32.373  35.025  16.254  1.00  0.00     0.070 C 
ATOM      6  C   UNL     1      33.438  35.549  15.374  1.00  0.00     0.080 A 
ATOM      7  C   UNL     1      34.777  35.733  15.722  1.00  0.00     0.134 A 
ATOM      8  N   UNL     1      33.316  35.934  14.105  1.00  0.00    -0.136 NA
ATOM      9  N   UNL     1      34.494  36.340  13.665  1.00  0.00    -0.067 NA
ENDBRANCH   3   4
ENDBRANCH   2   3
BRANCH   2  10
ATOM     10  C   UNL     1      37.985  34.333  15.028  1.00  0.00     0.009 C 
BRANCH  10  11
ATOM     11  C   UNL     1      38.586  34.537  16.341  1.00  0.00    -0.017 C 
ATOM     12  C   UNL     1      40.078  34.896  16.053  1.00  0.00     0.007 C 
ATOM     13  C   UNL     1      38.701  33.328  17.241  1.00  0.00     0.007 C 
ENDBRANCH  10  11
ENDBRANCH   2  10
ENDBRANCH   1   2
BRANCH   1  14
ATOM     14  C   UNL     1      36.706  33.774  12.401  1.00  0.00     0.303 C 
ATOM     15  O   UNL     1      37.267  32.790  11.899  1.00  0.00    -0.252 OA
BRANCH  14  16
ATOM     16  O   UNL     1      35.360  33.664  12.714  1.00  0.00    -0.481 OA
ATOM     17  H   UNL     1      34.981  32.932  13.292  1.00  0.00     0.296 HD
ENDBRANCH  14  16
ENDBRANCH   1  14
TORSDOF 7
BEGIN_RES LYS A 135
REMARK  4 active torsions:
REMARK  status: ('A' for Active; 'I' for Inactive)
REMARK    1  A    between atoms: CA   and  CB  
REMARK    2  A    between atoms: CB   and  CG  
REMARK    3  A    between atoms: CG   and  CD  
REMARK    4  A    between atoms: CD   and  CE  
ROOT
ATOM      1  CA  LYS A 135      33.193  34.663   9.290  1.00 25.02     0.186 C 
ENDROOT
BRANCH   1   2
ATOM      2  CB  LYS A 135      32.060  35.360  10.034  1.00 26.63     0.034 C 
BRANCH   2   3
ATOM      3  CG  LYS A 135      30.837  35.595   9.186  1.00 29.45     0.005 C 
BRANCH   3   4
ATOM      4  CD  LYS A 135      30.265  34.275   8.691  1.00 32.00     0.041 C 
BRANCH   4   5
ATOM      5  CE  LYS A 135      28.759  34.368   8.545  1.00 34.25     0.338 C 
ATOM      6  NZ  LYS A 135      28.067  33.773   9.722  1.00 35.99     0.618 N 
ENDBRANCH   4   5
ENDBRANCH   3   4
ENDBRANCH   2   3
ENDBRANCH   1   2
END_RES LYS A 135
BEGIN_RES TYR A 136
REMARK  2 active torsions:
REMARK  status: ('A' for Active; 'I' for Inactive)
REMARK    5  A    between atoms: CA   and  CB  
REMARK    6  A    between atoms: CB   and  CG  
ROOT
ATOM      7  CA  TYR A 136      36.583  36.399   8.994  1.00 26.14     0.191 C 
ENDROOT
BRANCH   7   8
ATOM      8  CB  TYR A 136      37.367  36.835  10.240  1.00 28.16     0.060 C 
BRANCH   8   9
ATOM      9  CG  TYR A 136      37.159  38.291  10.576  1.00 31.88    -0.020 A 
ATOM     10  CD2 TYR A 136      37.674  38.843  11.751  1.00 32.67    -0.002 A 
ATOM     11  CE2 TYR A 136      37.474  40.196  12.055  1.00 33.89     0.027 A 
ATOM     12  CZ  TYR A 136      36.751  41.005  11.175  1.00 34.34     0.131 A 
ATOM     13  OH  TYR A 136      36.546  42.350  11.452  1.00 35.14    -0.190 OA
ATOM     14  CE1 TYR A 136      36.231  40.474  10.004  1.00 35.01     0.027 A 
ATOM     15  CD1 TYR A 136      36.431  39.123   9.715  1.00 33.57    -0.002 A 
ENDBRANCH   8   9
ENDBRANCH   7   8
END_RES TYR A 136
BEGIN_RES ASN A 133
REMARK  2 active torsions:
REMARK  status: ('A' for Active; 'I' for Inactive)
REMARK    7  A    between atoms: CA   and  CB  
REMARK    8  A    between atoms: CB   and  CG  
ROOT
ATOM     16  CA  ASN A 133      31.225  30.257  11.749  1.00 18.15     0.196 C 
ENDROOT
BRANCH  16  17
ATOM     17  CB  ASN A 133      30.092  31.240  11.460  1.00 18.27     0.126 C 
BRANCH  17  18
ATOM     18  CG  ASN A 133      28.755  30.579  11.327  1.00 18.94     0.276 C 
ATOM     19  OD1 ASN A 133      28.586  29.628  10.562  1.00 18.09    -0.269 OA
ATOM     20  ND2 ASN A 133      27.778  31.084  12.080  1.00 18.93    -0.107 N 
ENDBRANCH  17  18
ENDBRANCH  16  17
END_RES ASN A 133
