REMARK VINA RESULT:    -4.987      2.777      4.434
REMARK INTER + INTRA:          -8.390
REMARK INTER:                  -5.188
REMARK INTRA:                  -3.202
REMARK UNBOUND:                -2.529
REMARK SMILES Cc1cn(Cc2cccc(C#N)c2)nn1
REMARK SMILES IDX 6 1 7 2 8 3 9 4 10 5 13 6 5 7 4 8 1 9 2 10 3 11 15 12 14 13
REMARK SMILES IDX 11 14 12 15
REMARK H PARENT
REMARK Flexibility Score: inf
ROOT
ATOM      1  C   UNL     1      34.886  35.530  13.423  1.00  0.00    -0.025 A 
ATOM      2  C   UNL     1      34.994  36.253  14.585  1.00  0.00     0.006 A 
ATOM      3  C   UNL     1      34.304  37.429  14.809  1.00  0.00     0.002 A 
ATOM      4  C   UNL     1      33.470  37.889  13.810  1.00  0.00     0.019 A 
ATOM      5  C   UNL     1      33.329  37.197  12.625  1.00  0.00     0.052 A 
ATOM      6  C   UNL     1      34.045  36.012  12.440  1.00  0.00     0.025 A 
ENDROOT
BRANCH   1   7
ATOM      7  C   UNL     1      35.621  34.274  13.181  1.00  0.00     0.181 C 
BRANCH   7   8
ATOM      8  N   UNL     1      37.034  34.399  13.347  1.00  0.00    -0.248 N 
ATOM      9  C   UNL     1      40.347  35.334  12.149  1.00  0.00     0.070 C 
ATOM     10  C   UNL     1      39.130  34.869  12.889  1.00  0.00     0.080 A 
ATOM     11  C   UNL     1      37.855  34.893  12.403  1.00  0.00     0.134 A 
ATOM     12  N   UNL     1      39.067  34.358  14.132  1.00  0.00    -0.136 NA
ATOM     13  N   UNL     1      37.804  34.082  14.387  1.00  0.00    -0.067 NA
ENDBRANCH   7   8
ENDBRANCH   1   7
BRANCH   5  14
ATOM     14  C   UNL     1      32.446  37.731  11.630  1.00  0.00     0.099 C 
ATOM     15  N   UNL     1      31.723  38.145  10.831  1.00  0.00    -0.192 NA
ENDBRANCH   5  14
TORSDOF 3
BEGIN_RES LYS A 135
REMARK  4 active torsions:
REMARK  status: ('A' for Active; 'I' for Inactive)
REMARK    1  A    between atoms: CA   and  CB  
REMARK    2  A    between atoms: CB   and  CG  
REMARK    3  A    between atoms: CG   and  CD  
REMARK    4  A    between atoms: CD   and  CE  
ROOT
ATOM      1  CA  LYS A 135      33.193  34.663   9.290  1.00 25.02     0.186 C 
ENDROOT
BRANCH   1   2
ATOM      2  CB  LYS A 135      32.060  35.360  10.034  1.00 26.63     0.034 C 
BRANCH   2   3
ATOM      3  CG  LYS A 135      30.733  34.658   9.905  1.00 29.45     0.005 C 
BRANCH   3   4
ATOM      4  CD  LYS A 135      30.351  34.497   8.442  1.00 32.00     0.041 C 
BRANCH   4   5
ATOM      5  CE  LYS A 135      28.845  34.563   8.274  1.00 34.25     0.338 C 
ATOM      6  NZ  LYS A 135      28.150  33.873   9.395  1.00 35.99     0.618 N 
ENDBRANCH   4   5
ENDBRANCH   3   4
ENDBRANCH   2   3
ENDBRANCH   1   2
END_RES LYS A 135
BEGIN_RES TYR A 136
REMARK  2 active torsions:
REMARK  status: ('A' for Active; 'I' for Inactive)
REMARK    5  A    between atoms: CA   and  CB  
REMARK    6  A    between atoms: CB   and  CG  
ROOT
ATOM      7  CA  TYR A 136      36.583  36.399   8.994  1.00 26.14     0.191 C 
ENDROOT
BRANCH   7   8
ATOM      8  CB  TYR A 136      37.367  36.835  10.240  1.00 28.16     0.060 C 
BRANCH   8   9
ATOM      9  CG  TYR A 136      36.777  38.058  10.898  1.00 31.88    -0.020 A 
ATOM     10  CD2 TYR A 136      37.151  38.436  12.190  1.00 32.67    -0.002 A 
ATOM     11  CE2 TYR A 136      36.596  39.573  12.793  1.00 33.89     0.027 A 
ATOM     12  CZ  TYR A 136      35.658  40.339  12.097  1.00 34.34     0.131 A 
ATOM     13  OH  TYR A 136      35.100  41.472  12.671  1.00 35.14    -0.190 OA
ATOM     14  CE1 TYR A 136      35.274  39.977  10.813  1.00 35.01     0.027 A 
ATOM     15  CD1 TYR A 136      35.829  38.839  10.226  1.00 33.57    -0.002 A 
ENDBRANCH   8   9
ENDBRANCH   7   8
END_RES TYR A 136
BEGIN_RES ASN A 133
REMARK  2 active torsions:
REMARK  status: ('A' for Active; 'I' for Inactive)
REMARK    7  A    between atoms: CA   and  CB  
REMARK    8  A    between atoms: CB   and  CG  
ROOT
ATOM     16  CA  ASN A 133      31.225  30.257  11.749  1.00 18.15     0.196 C 
ENDROOT
BRANCH  16  17
ATOM     17  CB  ASN A 133      30.092  31.240  11.460  1.00 18.27     0.126 C 
BRANCH  17  18
ATOM     18  CG  ASN A 133      28.757  30.578  11.315  1.00 18.94     0.276 C 
ATOM     19  OD1 ASN A 133      28.603  29.609  10.569  1.00 18.09    -0.269 OA
ATOM     20  ND2 ASN A 133      27.765  31.102  12.033  1.00 18.93    -0.107 N 
ENDBRANCH  17  18
ENDBRANCH  16  17
END_RES ASN A 133
