REMARK VINA RESULT:    -4.290      8.330     13.739
REMARK INTER + INTRA:          -7.684
REMARK INTER:                  -4.660
REMARK INTRA:                  -3.024
REMARK UNBOUND:                -3.143
REMARK SMILES Cc1cn(-c2ccc3c(c2)OCO3)nn1
REMARK SMILES IDX 5 1 6 2 7 3 8 4 9 5 10 6 11 7 12 8 13 9 4 10 1 11 2 12 3 13
REMARK SMILES IDX 15 14 14 15
REMARK H PARENT
REMARK Flexibility Score: inf
ROOT
ATOM      1  C   UNL     1      34.173  35.197  13.444  1.00  0.00     0.070 A 
ATOM      2  C   UNL     1      33.828  36.191  12.555  1.00  0.00     0.032 A 
ATOM      3  C   UNL     1      32.536  36.666  12.508  1.00  0.00     0.053 A 
ATOM      4  C   UNL     1      31.603  36.107  13.386  1.00  0.00     0.165 A 
ATOM      5  C   UNL     1      31.940  35.113  14.276  1.00  0.00     0.167 A 
ATOM      6  C   UNL     1      33.232  34.666  14.295  1.00  0.00     0.079 A 
ATOM      7  O   UNL     1      30.777  34.780  15.003  1.00  0.00    -0.454 OA
ATOM      8  C   UNL     1      29.669  35.209  14.232  1.00  0.00     0.468 C 
ATOM      9  O   UNL     1      30.246  36.355  13.589  1.00  0.00    -0.454 OA
ENDROOT
BRANCH   1  10
ATOM     10  N   UNL     1      35.535  34.722  13.466  1.00  0.00    -0.220 N 
ATOM     11  C   UNL     1      38.953  34.479  14.811  1.00  0.00     0.070 C 
ATOM     12  C   UNL     1      37.648  34.405  14.070  1.00  0.00     0.080 A 
ATOM     13  C   UNL     1      36.469  35.055  14.377  1.00  0.00     0.140 A 
ATOM     14  N   UNL     1      37.383  33.687  12.965  1.00  0.00    -0.135 NA
ATOM     15  N   UNL     1      36.117  33.897  12.629  1.00  0.00    -0.062 NA
ENDBRANCH   1  10
TORSDOF 1
BEGIN_RES LYS A 135
REMARK  4 active torsions:
REMARK  status: ('A' for Active; 'I' for Inactive)
REMARK    1  A    between atoms: CA   and  CB  
REMARK    2  A    between atoms: CB   and  CG  
REMARK    3  A    between atoms: CG   and  CD  
REMARK    4  A    between atoms: CD   and  CE  
ROOT
ATOM      1  CA  LYS A 135      33.193  34.663   9.290  1.00 25.02     0.186 C 
ENDROOT
BRANCH   1   2
ATOM      2  CB  LYS A 135      32.060  35.360  10.034  1.00 26.63     0.034 C 
BRANCH   2   3
ATOM      3  CG  LYS A 135      30.726  34.677   9.876  1.00 29.45     0.005 C 
BRANCH   3   4
ATOM      4  CD  LYS A 135      30.333  34.600   8.409  1.00 32.00     0.041 C 
BRANCH   4   5
ATOM      5  CE  LYS A 135      28.824  34.550   8.264  1.00 34.25     0.338 C 
ATOM      6  NZ  LYS A 135      28.197  33.845   9.416  1.00 35.99     0.618 N 
ENDBRANCH   4   5
ENDBRANCH   3   4
ENDBRANCH   2   3
ENDBRANCH   1   2
END_RES LYS A 135
BEGIN_RES TYR A 136
REMARK  2 active torsions:
REMARK  status: ('A' for Active; 'I' for Inactive)
REMARK    5  A    between atoms: CA   and  CB  
REMARK    6  A    between atoms: CB   and  CG  
ROOT
ATOM      7  CA  TYR A 136      36.583  36.399   8.994  1.00 26.14     0.191 C 
ENDROOT
BRANCH   7   8
ATOM      8  CB  TYR A 136      37.367  36.835  10.240  1.00 28.16     0.060 C 
BRANCH   8   9
ATOM      9  CG  TYR A 136      36.673  37.933  11.008  1.00 31.88    -0.020 A 
ATOM     10  CD2 TYR A 136      36.908  38.122  12.371  1.00 32.67    -0.002 A 
ATOM     11  CE2 TYR A 136      36.257  39.144  13.075  1.00 33.89     0.027 A 
ATOM     12  CZ  TYR A 136      35.361  39.984  12.409  1.00 34.34     0.131 A 
ATOM     13  OH  TYR A 136      34.710  41.007  13.084  1.00 35.14    -0.190 OA
ATOM     14  CE1 TYR A 136      35.115  39.810  11.055  1.00 35.01     0.027 A 
ATOM     15  CD1 TYR A 136      35.764  38.785  10.365  1.00 33.57    -0.002 A 
ENDBRANCH   8   9
ENDBRANCH   7   8
END_RES TYR A 136
BEGIN_RES ASN A 133
REMARK  2 active torsions:
REMARK  status: ('A' for Active; 'I' for Inactive)
REMARK    7  A    between atoms: CA   and  CB  
REMARK    8  A    between atoms: CB   and  CG  
ROOT
ATOM     16  CA  ASN A 133      31.225  30.257  11.749  1.00 18.15     0.196 C 
ENDROOT
BRANCH  16  17
ATOM     17  CB  ASN A 133      30.092  31.240  11.460  1.00 18.27     0.126 C 
BRANCH  17  18
ATOM     18  CG  ASN A 133      28.752  30.581  11.344  1.00 18.94     0.276 C 
ATOM     19  OD1 ASN A 133      28.585  29.599  10.618  1.00 18.09    -0.269 OA
ATOM     20  ND2 ASN A 133      27.772  31.123  12.065  1.00 18.93    -0.107 N 
ENDBRANCH  17  18
ENDBRANCH  16  17
END_RES ASN A 133
