REMARK VINA RESULT:    -3.302      7.990     13.671
REMARK INTER + INTRA:          -7.680
REMARK INTER:                  -4.281
REMARK INTRA:                  -3.399
REMARK UNBOUND:                -3.413
REMARK SMILES CCN(CC)CCn1cc(C)nn1
REMARK SMILES IDX 6 1 7 2 8 3 11 4 10 5 9 6 12 7 13 8 3 9 2 10 1 11 4 12 5 13
REMARK H PARENT
REMARK Flexibility Score: inf
ROOT
ATOM      1  C   UNL     1      35.899  34.451  13.018  1.00  0.00     0.108 C 
ENDROOT
BRANCH   1   2
ATOM      2  C   UNL     1      34.538  34.706  13.543  1.00  0.00     0.161 C 
BRANCH   2   3
ATOM      3  N   UNL     1      33.911  35.865  12.870  1.00  0.00    -0.251 N 
ATOM      4  C   UNL     1      33.698  39.180  11.336  1.00  0.00     0.070 C 
ATOM      5  C   UNL     1      33.556  37.829  11.904  1.00  0.00     0.080 A 
ATOM      6  C   UNL     1      34.496  37.018  12.501  1.00  0.00     0.134 A 
ATOM      7  N   UNL     1      32.415  37.126  11.931  1.00  0.00    -0.136 NA
ATOM      8  N   UNL     1      32.634  35.964  12.505  1.00  0.00    -0.067 NA
ENDBRANCH   2   3
ENDBRANCH   1   2
BRANCH   1   9
ATOM      9  N   UNL     1      37.009  34.654  13.852  1.00  0.00    -0.302 NA
BRANCH   9  10
ATOM     10  C   UNL     1      36.886  35.413  15.033  1.00  0.00     0.081 C 
ATOM     11  C   UNL     1      37.430  36.790  14.849  1.00  0.00     0.021 C 
ENDBRANCH   9  10
BRANCH   9  12
ATOM     12  C   UNL     1      37.881  33.497  13.937  1.00  0.00     0.081 C 
ATOM     13  C   UNL     1      37.907  32.697  12.669  1.00  0.00     0.021 C 
ENDBRANCH   9  12
ENDBRANCH   1   9
TORSDOF 5
BEGIN_RES LYS A 135
REMARK  4 active torsions:
REMARK  status: ('A' for Active; 'I' for Inactive)
REMARK    1  A    between atoms: CA   and  CB  
REMARK    2  A    between atoms: CB   and  CG  
REMARK    3  A    between atoms: CG   and  CD  
REMARK    4  A    between atoms: CD   and  CE  
ROOT
ATOM      1  CA  LYS A 135      33.193  34.663   9.290  1.00 25.02     0.186 C 
ENDROOT
BRANCH   1   2
ATOM      2  CB  LYS A 135      32.060  35.360  10.034  1.00 26.63     0.034 C 
BRANCH   2   3
ATOM      3  CG  LYS A 135      30.701  34.777   9.744  1.00 29.45     0.005 C 
BRANCH   3   4
ATOM      4  CD  LYS A 135      30.524  34.543   8.252  1.00 32.00     0.041 C 
BRANCH   4   5
ATOM      5  CE  LYS A 135      29.113  34.895   7.822  1.00 34.25     0.338 C 
ATOM      6  NZ  LYS A 135      28.108  34.334   8.767  1.00 35.99     0.618 N 
ENDBRANCH   4   5
ENDBRANCH   3   4
ENDBRANCH   2   3
ENDBRANCH   1   2
END_RES LYS A 135
BEGIN_RES TYR A 136
REMARK  2 active torsions:
REMARK  status: ('A' for Active; 'I' for Inactive)
REMARK    5  A    between atoms: CA   and  CB  
REMARK    6  A    between atoms: CB   and  CG  
ROOT
ATOM      7  CA  TYR A 136      36.583  36.399   8.994  1.00 26.14     0.191 C 
ENDROOT
BRANCH   7   8
ATOM      8  CB  TYR A 136      37.367  36.835  10.240  1.00 28.16     0.060 C 
BRANCH   8   9
ATOM      9  CG  TYR A 136      37.300  38.324  10.476  1.00 31.88    -0.020 A 
ATOM     10  CD2 TYR A 136      37.620  38.874  11.720  1.00 32.67    -0.002 A 
ATOM     11  CE2 TYR A 136      37.552  40.258  11.929  1.00 33.89     0.027 A 
ATOM     12  CZ  TYR A 136      37.161  41.100  10.885  1.00 34.34     0.131 A 
ATOM     13  OH  TYR A 136      37.094  42.474  11.068  1.00 35.14    -0.190 OA
ATOM     14  CE1 TYR A 136      36.838  40.570   9.644  1.00 35.01     0.027 A 
ATOM     15  CD1 TYR A 136      36.903  39.189   9.449  1.00 33.57    -0.002 A 
ENDBRANCH   8   9
ENDBRANCH   7   8
END_RES TYR A 136
BEGIN_RES ASN A 133
REMARK  2 active torsions:
REMARK  status: ('A' for Active; 'I' for Inactive)
REMARK    7  A    between atoms: CA   and  CB  
REMARK    8  A    between atoms: CB   and  CG  
ROOT
ATOM     16  CA  ASN A 133      31.225  30.257  11.749  1.00 18.15     0.196 C 
ENDROOT
BRANCH  16  17
ATOM     17  CB  ASN A 133      30.092  31.240  11.460  1.00 18.27     0.126 C 
BRANCH  17  18
ATOM     18  CG  ASN A 133      28.749  30.584  11.365  1.00 18.94     0.276 C 
ATOM     19  OD1 ASN A 133      28.566  29.607  10.636  1.00 18.09    -0.269 OA
ATOM     20  ND2 ASN A 133      27.784  31.122  12.109  1.00 18.93    -0.107 N 
ENDBRANCH  17  18
ENDBRANCH  16  17
END_RES ASN A 133
