REMARK VINA RESULT:    -4.097      8.135     15.534
REMARK INTER + INTRA:          -7.460
REMARK INTER:                  -4.271
REMARK INTRA:                  -3.189
REMARK UNBOUND:                -3.123
REMARK SMILES Cc1cn(C2CCCCC2)nn1
REMARK SMILES IDX 5 1 6 2 7 3 8 4 9 5 10 6 4 7 1 8 2 9 3 10 12 11 11 12
REMARK H PARENT
REMARK Flexibility Score: inf
ROOT
ATOM      1  C   UNL     1      38.473  34.780  14.216  1.00  0.00     0.109 C 
ATOM      2  C   UNL     1      36.990  34.612  14.139  1.00  0.00     0.027 C 
ATOM      3  C   UNL     1      36.466  34.596  12.721  1.00  0.00     0.002 C 
ATOM      4  C   UNL     1      37.021  33.402  11.981  1.00  0.00     0.000 C 
ATOM      5  C   UNL     1      38.293  32.904  12.586  1.00  0.00     0.002 C 
ATOM      6  C   UNL     1      39.174  34.016  13.121  1.00  0.00     0.027 C 
ENDROOT
BRANCH   1   7
ATOM      7  N   UNL     1      38.941  34.380  15.532  1.00  0.00    -0.249 N 
ATOM      8  C   UNL     1      38.840  32.910  18.863  1.00  0.00     0.070 C 
ATOM      9  C   UNL     1      39.180  33.585  17.575  1.00  0.00     0.080 A 
ATOM     10  C   UNL     1      38.323  33.739  16.511  1.00  0.00     0.134 A 
ATOM     11  N   UNL     1      40.333  34.158  17.194  1.00  0.00    -0.136 NA
ATOM     12  N   UNL     1      40.180  34.630  15.973  1.00  0.00    -0.067 NA
ENDBRANCH   1   7
TORSDOF 1
BEGIN_RES LYS A 135
REMARK  4 active torsions:
REMARK  status: ('A' for Active; 'I' for Inactive)
REMARK    1  A    between atoms: CA   and  CB  
REMARK    2  A    between atoms: CB   and  CG  
REMARK    3  A    between atoms: CG   and  CD  
REMARK    4  A    between atoms: CD   and  CE  
ROOT
ATOM      1  CA  LYS A 135      33.193  34.663   9.290  1.00 25.02     0.186 C 
ENDROOT
BRANCH   1   2
ATOM      2  CB  LYS A 135      32.060  35.360  10.034  1.00 26.63     0.034 C 
BRANCH   2   3
ATOM      3  CG  LYS A 135      30.825  35.564   9.196  1.00 29.45     0.005 C 
BRANCH   3   4
ATOM      4  CD  LYS A 135      30.211  34.227   8.809  1.00 32.00     0.041 C 
BRANCH   4   5
ATOM      5  CE  LYS A 135      28.723  34.376   8.559  1.00 34.25     0.338 C 
ATOM      6  NZ  LYS A 135      27.930  33.704   9.625  1.00 35.99     0.618 N 
ENDBRANCH   4   5
ENDBRANCH   3   4
ENDBRANCH   2   3
ENDBRANCH   1   2
END_RES LYS A 135
BEGIN_RES TYR A 136
REMARK  2 active torsions:
REMARK  status: ('A' for Active; 'I' for Inactive)
REMARK    5  A    between atoms: CA   and  CB  
REMARK    6  A    between atoms: CB   and  CG  
ROOT
ATOM      7  CA  TYR A 136      36.583  36.399   8.994  1.00 26.14     0.191 C 
ENDROOT
BRANCH   7   8
ATOM      8  CB  TYR A 136      37.367  36.835  10.240  1.00 28.16     0.060 C 
BRANCH   8   9
ATOM      9  CG  TYR A 136      36.786  38.067  10.890  1.00 31.88    -0.020 A 
ATOM     10  CD2 TYR A 136      36.146  39.050  10.132  1.00 32.67    -0.002 A 
ATOM     11  CE2 TYR A 136      35.611  40.192  10.745  1.00 33.89     0.027 A 
ATOM     12  CZ  TYR A 136      35.718  40.351  12.129  1.00 34.34     0.131 A 
ATOM     13  OH  TYR A 136      35.189  41.469  12.758  1.00 35.14    -0.190 OA
ATOM     14  CE1 TYR A 136      36.351  39.384  12.896  1.00 35.01     0.027 A 
ATOM     15  CD1 TYR A 136      36.886  38.255  12.274  1.00 33.57    -0.002 A 
ENDBRANCH   8   9
ENDBRANCH   7   8
END_RES TYR A 136
BEGIN_RES ASN A 133
REMARK  2 active torsions:
REMARK  status: ('A' for Active; 'I' for Inactive)
REMARK    7  A    between atoms: CA   and  CB  
REMARK    8  A    between atoms: CB   and  CG  
ROOT
ATOM     16  CA  ASN A 133      31.225  30.257  11.749  1.00 18.15     0.196 C 
ENDROOT
BRANCH  16  17
ATOM     17  CB  ASN A 133      30.092  31.240  11.460  1.00 18.27     0.126 C 
BRANCH  17  18
ATOM     18  CG  ASN A 133      28.749  30.585  11.370  1.00 18.94     0.276 C 
ATOM     19  OD1 ASN A 133      28.561  29.613  10.634  1.00 18.09    -0.269 OA
ATOM     20  ND2 ASN A 133      27.789  31.117  12.125  1.00 18.93    -0.107 N 
ENDBRANCH  17  18
ENDBRANCH  16  17
END_RES ASN A 133
