REMARK VINA RESULT:    -4.452      9.187     16.139
REMARK INTER + INTRA:          -8.140
REMARK INTER:                  -4.774
REMARK INTRA:                  -3.366
REMARK UNBOUND:                -3.168
REMARK SMILES Cc1cn(-c2ccccc2C(N)=O)nn1
REMARK SMILES IDX 5 1 10 2 9 3 8 4 7 5 6 6 4 7 1 8 2 9 3 10 15 11 14 12 11 13
REMARK SMILES IDX 13 14 12 15
REMARK H PARENT 12 16 12 17
REMARK Flexibility Score: inf
ROOT
ATOM      1  C   UNL     1      22.493  30.496  -0.856  1.00  0.00     0.079 A 
ATOM      2  C   UNL     1      22.529  31.411   0.160  1.00  0.00     0.065 A 
ATOM      3  C   UNL     1      23.013  31.002   1.392  1.00  0.00     0.016 A 
ATOM      4  C   UNL     1      23.453  29.719   1.610  1.00  0.00     0.001 A 
ATOM      5  C   UNL     1      23.411  28.805   0.571  1.00  0.00     0.002 A 
ATOM      6  C   UNL     1      22.930  29.205  -0.654  1.00  0.00     0.029 A 
ENDROOT
BRANCH   1   7
ATOM      7  N   UNL     1      21.989  30.913  -2.145  1.00  0.00    -0.220 N 
ATOM      8  C   UNL     1      22.152  31.972  -5.668  1.00  0.00     0.070 C 
ATOM      9  C   UNL     1      21.841  31.566  -4.275  1.00  0.00     0.080 A 
ATOM     10  C   UNL     1      22.695  31.212  -3.251  1.00  0.00     0.140 A 
ATOM     11  N   UNL     1      20.610  31.467  -3.747  1.00  0.00    -0.135 NA
ATOM     12  N   UNL     1      20.722  31.081  -2.487  1.00  0.00    -0.062 NA
ENDBRANCH   1   7
BRANCH   2  13
ATOM     13  C   UNL     1      22.063  32.769  -0.073  1.00  0.00     0.250 C 
ATOM     14  O   UNL     1      22.911  33.656  -0.339  1.00  0.00    -0.269 OA
ATOM     15  N   UNL     1      20.671  33.112  -0.006  1.00  0.00    -0.366 N 
ATOM     16  H   UNL     1      20.344  33.730   0.741  1.00  0.00     0.159 HD
ATOM     17  H   UNL     1      20.057  32.708  -0.728  1.00  0.00     0.159 HD
ENDBRANCH   2  13
TORSDOF 2
BEGIN_RES LYS A 135
REMARK  4 active torsions:
REMARK  status: ('A' for Active; 'I' for Inactive)
REMARK    1  A    between atoms: CA   and  CB  
REMARK    2  A    between atoms: CB   and  CG  
REMARK    3  A    between atoms: CG   and  CD  
REMARK    4  A    between atoms: CD   and  CE  
ROOT
ATOM      1  CA  LYS A 135      33.193  34.663   9.290  1.00 25.02     0.186 C 
ENDROOT
BRANCH   1   2
ATOM      2  CB  LYS A 135      32.060  35.360  10.034  1.00 26.63     0.034 C 
BRANCH   2   3
ATOM      3  CG  LYS A 135      30.803  35.507   9.216  1.00 29.45     0.005 C 
BRANCH   3   4
ATOM      4  CD  LYS A 135      30.132  34.157   9.015  1.00 32.00     0.041 C 
BRANCH   4   5
ATOM      5  CE  LYS A 135      28.681  34.338   8.613  1.00 34.25     0.338 C 
ATOM      6  NZ  LYS A 135      27.765  33.765   9.637  1.00 35.99     0.618 N 
ENDBRANCH   4   5
ENDBRANCH   3   4
ENDBRANCH   2   3
ENDBRANCH   1   2
END_RES LYS A 135
BEGIN_RES TYR A 136
REMARK  2 active torsions:
REMARK  status: ('A' for Active; 'I' for Inactive)
REMARK    5  A    between atoms: CA   and  CB  
REMARK    6  A    between atoms: CB   and  CG  
ROOT
ATOM      7  CA  TYR A 136      36.583  36.399   8.994  1.00 26.14     0.191 C 
ENDROOT
BRANCH   7   8
ATOM      8  CB  TYR A 136      37.367  36.835  10.240  1.00 28.16     0.060 C 
BRANCH   8   9
ATOM      9  CG  TYR A 136      37.202  38.304  10.545  1.00 31.88    -0.020 A 
ATOM     10  CD2 TYR A 136      37.681  38.853  11.736  1.00 32.67    -0.002 A 
ATOM     11  CE2 TYR A 136      37.521  40.218  12.011  1.00 33.89     0.027 A 
ATOM     12  CZ  TYR A 136      36.876  41.041  11.084  1.00 34.34     0.131 A 
ATOM     13  OH  TYR A 136      36.712  42.397  11.332  1.00 35.14    -0.190 OA
ATOM     14  CE1 TYR A 136      36.393  40.512   9.896  1.00 35.01     0.027 A 
ATOM     15  CD1 TYR A 136      36.552  39.150   9.637  1.00 33.57    -0.002 A 
ENDBRANCH   8   9
ENDBRANCH   7   8
END_RES TYR A 136
BEGIN_RES ASN A 133
REMARK  2 active torsions:
REMARK  status: ('A' for Active; 'I' for Inactive)
REMARK    7  A    between atoms: CA   and  CB  
REMARK    8  A    between atoms: CB   and  CG  
ROOT
ATOM     16  CA  ASN A 133      31.225  30.257  11.749  1.00 18.15     0.196 C 
ENDROOT
BRANCH  16  17
ATOM     17  CB  ASN A 133      30.092  31.240  11.460  1.00 18.27     0.126 C 
BRANCH  17  18
ATOM     18  CG  ASN A 133      28.757  30.578  11.312  1.00 18.94     0.276 C 
ATOM     19  OD1 ASN A 133      28.604  29.612  10.561  1.00 18.09    -0.269 OA
ATOM     20  ND2 ASN A 133      27.765  31.097  12.034  1.00 18.93    -0.107 N 
ENDBRANCH  17  18
ENDBRANCH  16  17
END_RES ASN A 133
