REMARK VINA RESULT:    -4.215      3.726      5.054
REMARK INTER + INTRA:          -8.279
REMARK INTER:                  -4.909
REMARK INTRA:                  -3.370
REMARK UNBOUND:                -3.447
REMARK SMILES Cc1cn(Cc2cc(Br)cc(Br)c2O)nn1
REMARK SMILES IDX 6 1 7 2 8 3 9 4 10 5 11 6 12 7 13 8 5 9 4 10 1 11 2 12 3 13
REMARK SMILES IDX 16 14 15 15 14 16
REMARK H PARENT 14 17
REMARK Flexibility Score: inf
ROOT
ATOM      1  C   UNL     1      40.512  36.789  11.914  1.00  0.00     0.018 A 
ATOM      2  C   UNL     1      40.452  37.759  12.869  1.00  0.00     0.025 A 
ATOM      3  C   UNL     1      40.545  39.095  12.530  1.00  0.00     0.019 A 
ATOM      4  Br  UNL     1      40.460  40.469  13.873  1.00  0.00    -0.051 Br
ATOM      5  C   UNL     1      40.705  39.513  11.218  1.00  0.00     0.035 A 
ATOM      6  C   UNL     1      40.766  38.513  10.258  1.00  0.00     0.061 A 
ATOM      7  Br  UNL     1      40.983  39.029   8.439  1.00  0.00    -0.047 Br
ATOM      8  C   UNL     1      40.672  37.171  10.592  1.00  0.00     0.134 A 
ENDROOT
BRANCH   1   9
ATOM      9  C   UNL     1      40.421  35.332  12.184  1.00  0.00     0.185 C 
BRANCH   9  10
ATOM     10  N   UNL     1      39.176  34.930  12.741  1.00  0.00    -0.248 N 
ATOM     11  C   UNL     1      35.579  34.389  12.982  1.00  0.00     0.070 C 
ATOM     12  C   UNL     1      37.049  34.522  13.079  1.00  0.00     0.080 A 
ATOM     13  C   UNL     1      37.961  35.036  12.186  1.00  0.00     0.134 A 
ATOM     14  N   UNL     1      37.746  34.113  14.164  1.00  0.00    -0.136 NA
ATOM     15  N   UNL     1      38.998  34.373  13.921  1.00  0.00    -0.067 NA
ENDBRANCH   9  10
ENDBRANCH   1   9
BRANCH   8  16
ATOM     16  O   UNL     1      40.744  36.240   9.552  1.00  0.00    -0.506 OA
ATOM     17  H   UNL     1      41.444  36.351   8.854  1.00  0.00     0.293 HD
ENDBRANCH   8  16
TORSDOF 3
BEGIN_RES LYS A 135
REMARK  4 active torsions:
REMARK  status: ('A' for Active; 'I' for Inactive)
REMARK    1  A    between atoms: CA   and  CB  
REMARK    2  A    between atoms: CB   and  CG  
REMARK    3  A    between atoms: CG   and  CD  
REMARK    4  A    between atoms: CD   and  CE  
ROOT
ATOM      1  CA  LYS A 135      33.193  34.663   9.290  1.00 25.02     0.186 C 
ENDROOT
BRANCH   1   2
ATOM      2  CB  LYS A 135      32.060  35.360  10.034  1.00 26.63     0.034 C 
BRANCH   2   3
ATOM      3  CG  LYS A 135      30.706  34.751   9.776  1.00 29.45     0.005 C 
BRANCH   3   4
ATOM      4  CD  LYS A 135      30.471  34.577   8.284  1.00 32.00     0.041 C 
BRANCH   4   5
ATOM      5  CE  LYS A 135      29.022  34.859   7.936  1.00 34.25     0.338 C 
ATOM      6  NZ  LYS A 135      28.911  35.570   6.632  1.00 35.99     0.618 N 
ENDBRANCH   4   5
ENDBRANCH   3   4
ENDBRANCH   2   3
ENDBRANCH   1   2
END_RES LYS A 135
BEGIN_RES TYR A 136
REMARK  2 active torsions:
REMARK  status: ('A' for Active; 'I' for Inactive)
REMARK    5  A    between atoms: CA   and  CB  
REMARK    6  A    between atoms: CB   and  CG  
ROOT
ATOM      7  CA  TYR A 136      36.583  36.399   8.994  1.00 26.14     0.191 C 
ENDROOT
BRANCH   7   8
ATOM      8  CB  TYR A 136      37.367  36.835  10.240  1.00 28.16     0.060 C 
BRANCH   8   9
ATOM      9  CG  TYR A 136      37.198  38.302  10.548  1.00 31.88    -0.020 A 
ATOM     10  CD2 TYR A 136      37.251  39.264   9.537  1.00 32.67    -0.002 A 
ATOM     11  CE2 TYR A 136      37.094  40.625   9.833  1.00 33.89     0.027 A 
ATOM     12  CZ  TYR A 136      36.883  41.027  11.154  1.00 34.34     0.131 A 
ATOM     13  OH  TYR A 136      36.718  42.369  11.471  1.00 35.14    -0.190 OA
ATOM     14  CE1 TYR A 136      36.829  40.085  12.172  1.00 35.01     0.027 A 
ATOM     15  CD1 TYR A 136      36.992  38.734  11.865  1.00 33.57    -0.002 A 
ENDBRANCH   8   9
ENDBRANCH   7   8
END_RES TYR A 136
BEGIN_RES ASN A 133
REMARK  2 active torsions:
REMARK  status: ('A' for Active; 'I' for Inactive)
REMARK    7  A    between atoms: CA   and  CB  
REMARK    8  A    between atoms: CB   and  CG  
ROOT
ATOM     16  CA  ASN A 133      31.225  30.257  11.749  1.00 18.15     0.196 C 
ENDROOT
BRANCH  16  17
ATOM     17  CB  ASN A 133      30.092  31.240  11.460  1.00 18.27     0.126 C 
BRANCH  17  18
ATOM     18  CG  ASN A 133      28.754  30.580  11.330  1.00 18.94     0.276 C 
ATOM     19  OD1 ASN A 133      28.585  29.626  10.568  1.00 18.09    -0.269 OA
ATOM     20  ND2 ASN A 133      27.778  31.088  12.081  1.00 18.93    -0.107 N 
ENDBRANCH  17  18
ENDBRANCH  16  17
END_RES ASN A 133
