REMARK VINA RESULT:    -3.824      0.000      0.000
REMARK INTER + INTRA:          -7.166
REMARK INTER:                  -4.088
REMARK INTRA:                  -3.078
REMARK UNBOUND:                -3.119
REMARK SMILES Cc1cn(C2CCCC2)nn1
REMARK SMILES IDX 5 1 6 2 7 3 8 4 9 5 4 6 1 7 2 8 3 9 11 10 10 11
REMARK H PARENT
REMARK Flexibility Score: inf
ROOT
ATOM      1  C   UNL     1      36.645  34.439  13.672  1.00  0.00     0.109 C 
ATOM      2  C   UNL     1      38.045  35.036  13.535  1.00  0.00     0.027 C 
ATOM      3  C   UNL     1      38.851  33.790  13.210  1.00  0.00     0.002 C 
ATOM      4  C   UNL     1      37.905  32.856  12.482  1.00  0.00     0.002 C 
ATOM      5  C   UNL     1      36.556  33.584  12.452  1.00  0.00     0.027 C 
ENDROOT
BRANCH   1   6
ATOM      6  N   UNL     1      35.635  35.487  13.707  1.00  0.00    -0.249 N 
ATOM      7  C   UNL     1      32.773  37.334  12.316  1.00  0.00     0.070 C 
ATOM      8  C   UNL     1      33.925  36.756  13.096  1.00  0.00     0.080 A 
ATOM      9  C   UNL     1      34.719  35.688  12.746  1.00  0.00     0.134 A 
ATOM     10  N   UNL     1      34.411  37.162  14.280  1.00  0.00    -0.136 NA
ATOM     11  N   UNL     1      35.424  36.399  14.628  1.00  0.00    -0.067 NA
ENDBRANCH   1   6
TORSDOF 1
BEGIN_RES LYS A 135
REMARK  4 active torsions:
REMARK  status: ('A' for Active; 'I' for Inactive)
REMARK    1  A    between atoms: CA   and  CB  
REMARK    2  A    between atoms: CB   and  CG  
REMARK    3  A    between atoms: CG   and  CD  
REMARK    4  A    between atoms: CD   and  CE  
ROOT
ATOM      1  CA  LYS A 135      33.193  34.663   9.290  1.00 25.02     0.186 C 
ENDROOT
BRANCH   1   2
ATOM      2  CB  LYS A 135      32.060  35.360  10.034  1.00 26.63     0.034 C 
BRANCH   2   3
ATOM      3  CG  LYS A 135      30.804  35.511   9.215  1.00 29.45     0.005 C 
BRANCH   3   4
ATOM      4  CD  LYS A 135      30.143  34.160   8.991  1.00 32.00     0.041 C 
BRANCH   4   5
ATOM      5  CE  LYS A 135      28.680  34.336   8.634  1.00 34.25     0.338 C 
ATOM      6  NZ  LYS A 135      27.800  33.674   9.638  1.00 35.99     0.618 N 
ENDBRANCH   4   5
ENDBRANCH   3   4
ENDBRANCH   2   3
ENDBRANCH   1   2
END_RES LYS A 135
BEGIN_RES TYR A 136
REMARK  2 active torsions:
REMARK  status: ('A' for Active; 'I' for Inactive)
REMARK    5  A    between atoms: CA   and  CB  
REMARK    6  A    between atoms: CB   and  CG  
ROOT
ATOM      7  CA  TYR A 136      36.583  36.399   8.994  1.00 26.14     0.191 C 
ENDROOT
BRANCH   7   8
ATOM      8  CB  TYR A 136      37.367  36.835  10.240  1.00 28.16     0.060 C 
BRANCH   8   9
ATOM      9  CG  TYR A 136      36.765  38.046  10.910  1.00 31.88    -0.020 A 
ATOM     10  CD2 TYR A 136      35.772  38.801  10.282  1.00 32.67    -0.002 A 
ATOM     11  CE2 TYR A 136      35.221  39.925  10.912  1.00 33.89     0.027 A 
ATOM     12  CZ  TYR A 136      35.668  40.297  12.182  1.00 34.34     0.131 A 
ATOM     13  OH  TYR A 136      35.131  41.402  12.828  1.00 35.14    -0.190 OA
ATOM     14  CE1 TYR A 136      36.654  39.559  12.820  1.00 35.01     0.027 A 
ATOM     15  CD1 TYR A 136      37.200  38.445  12.180  1.00 33.57    -0.002 A 
ENDBRANCH   8   9
ENDBRANCH   7   8
END_RES TYR A 136
BEGIN_RES ASN A 133
REMARK  2 active torsions:
REMARK  status: ('A' for Active; 'I' for Inactive)
REMARK    7  A    between atoms: CA   and  CB  
REMARK    8  A    between atoms: CB   and  CG  
ROOT
ATOM     16  CA  ASN A 133      31.225  30.257  11.749  1.00 18.15     0.196 C 
ENDROOT
BRANCH  16  17
ATOM     17  CB  ASN A 133      30.092  31.240  11.460  1.00 18.27     0.126 C 
BRANCH  17  18
ATOM     18  CG  ASN A 133      28.750  30.583  11.361  1.00 18.94     0.276 C 
ATOM     19  OD1 ASN A 133      28.566  29.616  10.619  1.00 18.09    -0.269 OA
ATOM     20  ND2 ASN A 133      27.786  31.110  12.115  1.00 18.93    -0.107 N 
ENDBRANCH  17  18
ENDBRANCH  16  17
END_RES ASN A 133
