REMARK VINA RESULT:    -3.911      2.202      2.623
REMARK INTER + INTRA:          -7.953
REMARK INTER:                  -4.424
REMARK INTRA:                  -3.528
REMARK UNBOUND:                -3.355
REMARK SMILES Cc1cn(CC(=O)Nc2ncccn2)nn1
REMARK SMILES IDX 6 1 7 2 8 3 5 5 4 6 1 7 2 8 3 9 16 10 15 11 9 12 10 13 14 14
REMARK SMILES IDX 11 15 13 16 12 17
REMARK H PARENT 8 4
REMARK Flexibility Score: inf
ROOT
ATOM      1  C   UNL     1      30.780  34.769  13.473  1.00  0.00     0.248 C 
ATOM      2  O   UNL     1      30.441  35.878  13.956  1.00  0.00    -0.272 OA
ATOM      3  N   UNL     1      32.127  34.662  12.991  1.00  0.00    -0.293 N 
ATOM      4  H   UNL     1      32.428  33.753  12.587  1.00  0.00     0.173 HD
ENDROOT
BRANCH   1   5
ATOM      5  C   UNL     1      29.905  33.602  13.372  1.00  0.00     0.246 C 
BRANCH   5   6
ATOM      6  N   UNL     1      29.993  32.764  14.552  1.00  0.00    -0.243 N 
ATOM      7  C   UNL     1      28.695  30.603  17.230  1.00  0.00     0.070 C 
ATOM      8  C   UNL     1      29.469  31.438  16.260  1.00  0.00     0.080 A 
ATOM      9  C   UNL     1      28.980  32.141  15.171  1.00  0.00     0.134 A 
ATOM     10  N   UNL     1      30.799  31.673  16.255  1.00  0.00    -0.136 NA
ATOM     11  N   UNL     1      31.080  32.455  15.241  1.00  0.00    -0.067 NA
ENDBRANCH   5   6
ENDBRANCH   1   5
BRANCH   3  12
ATOM     12  C   UNL     1      33.037  35.739  13.050  1.00  0.00     0.229 A 
ATOM     13  N   UNL     1      33.105  36.664  12.083  1.00  0.00    -0.221 NA
ATOM     14  N   UNL     1      33.859  35.846  14.100  1.00  0.00    -0.221 NA
ATOM     15  C   UNL     1      33.967  37.699  12.120  1.00  0.00     0.117 A 
ATOM     16  C   UNL     1      34.754  36.848  14.225  1.00  0.00     0.117 A 
ATOM     17  C   UNL     1      34.810  37.784  13.226  1.00  0.00     0.040 A 
ENDBRANCH   3  12
TORSDOF 3
BEGIN_RES LYS A 135
REMARK  4 active torsions:
REMARK  status: ('A' for Active; 'I' for Inactive)
REMARK    1  A    between atoms: CA   and  CB  
REMARK    2  A    between atoms: CB   and  CG  
REMARK    3  A    between atoms: CG   and  CD  
REMARK    4  A    between atoms: CD   and  CE  
ROOT
ATOM      1  CA  LYS A 135      33.193  34.663   9.290  1.00 25.02     0.186 C 
ENDROOT
BRANCH   1   2
ATOM      2  CB  LYS A 135      32.060  35.360  10.034  1.00 26.63     0.034 C 
BRANCH   2   3
ATOM      3  CG  LYS A 135      30.694  34.824   9.690  1.00 29.45     0.005 C 
BRANCH   3   4
ATOM      4  CD  LYS A 135      30.576  34.574   8.195  1.00 32.00     0.041 C 
BRANCH   4   5
ATOM      5  CE  LYS A 135      29.183  34.920   7.705  1.00 34.25     0.338 C 
ATOM      6  NZ  LYS A 135      28.144  34.417   8.645  1.00 35.99     0.618 N 
ENDBRANCH   4   5
ENDBRANCH   3   4
ENDBRANCH   2   3
ENDBRANCH   1   2
END_RES LYS A 135
BEGIN_RES TYR A 136
REMARK  2 active torsions:
REMARK  status: ('A' for Active; 'I' for Inactive)
REMARK    5  A    between atoms: CA   and  CB  
REMARK    6  A    between atoms: CB   and  CG  
ROOT
ATOM      7  CA  TYR A 136      36.583  36.399   8.994  1.00 26.14     0.191 C 
ENDROOT
BRANCH   7   8
ATOM      8  CB  TYR A 136      37.367  36.835  10.240  1.00 28.16     0.060 C 
BRANCH   8   9
ATOM      9  CG  TYR A 136      37.253  38.316  10.508  1.00 31.88    -0.020 A 
ATOM     10  CD2 TYR A 136      36.445  39.134   9.716  1.00 32.67    -0.002 A 
ATOM     11  CE2 TYR A 136      36.348  40.508   9.973  1.00 33.89     0.027 A 
ATOM     12  CZ  TYR A 136      37.066  41.069  11.032  1.00 34.34     0.131 A 
ATOM     13  OH  TYR A 136      36.980  42.426  11.309  1.00 35.14    -0.190 OA
ATOM     14  CE1 TYR A 136      37.875  40.271  11.828  1.00 35.01     0.027 A 
ATOM     15  CD1 TYR A 136      37.969  38.905  11.559  1.00 33.57    -0.002 A 
ENDBRANCH   8   9
ENDBRANCH   7   8
END_RES TYR A 136
BEGIN_RES ASN A 133
REMARK  2 active torsions:
REMARK  status: ('A' for Active; 'I' for Inactive)
REMARK    7  A    between atoms: CA   and  CB  
REMARK    8  A    between atoms: CB   and  CG  
ROOT
ATOM     16  CA  ASN A 133      31.225  30.257  11.749  1.00 18.15     0.196 C 
ENDROOT
BRANCH  16  17
ATOM     17  CB  ASN A 133      30.092  31.240  11.460  1.00 18.27     0.126 C 
BRANCH  17  18
ATOM     18  CG  ASN A 133      28.762  30.575  11.283  1.00 18.94     0.276 C 
ATOM     19  OD1 ASN A 133      28.637  29.580  10.566  1.00 18.09    -0.269 OA
ATOM     20  ND2 ASN A 133      27.743  31.125  11.941  1.00 18.93    -0.107 N 
ENDBRANCH  17  18
ENDBRANCH  16  17
END_RES ASN A 133
