REMARK VINA RESULT:    -5.117      0.000      0.000
REMARK INTER + INTRA:          -9.461
REMARK INTER:                  -6.295
REMARK INTRA:                  -3.166
REMARK UNBOUND:                -3.298
REMARK SMILES Cc1cn(Cc2ccc(C(=O)O)cc2)nn1
REMARK SMILES IDX 6 1 7 2 8 3 9 4 13 5 14 6 5 7 4 8 1 9 2 10 3 11 16 12 15 13
REMARK SMILES IDX 10 14 11 15 12 16
REMARK H PARENT 12 17
REMARK Flexibility Score: inf
ROOT
ATOM      1  C   UNL     1      34.914  35.461  14.160  1.00  0.00    -0.026 A 
ATOM      2  C   UNL     1      35.083  34.763  12.990  1.00  0.00     0.006 A 
ATOM      3  C   UNL     1      36.317  34.228  12.699  1.00  0.00     0.016 A 
ATOM      4  C   UNL     1      37.411  34.353  13.527  1.00  0.00     0.059 A 
ATOM      5  C   UNL     1      37.190  35.065  14.693  1.00  0.00     0.016 A 
ATOM      6  C   UNL     1      35.969  35.611  15.013  1.00  0.00     0.006 A 
ENDROOT
BRANCH   1   7
ATOM      7  C   UNL     1      33.596  36.059  14.520  1.00  0.00     0.181 C 
BRANCH   7   8
ATOM      8  N   UNL     1      32.874  35.116  15.362  1.00  0.00    -0.248 N 
ATOM      9  C   UNL     1      30.898  32.089  16.060  1.00  0.00     0.070 C 
ATOM     10  C   UNL     1      31.679  33.347  16.006  1.00  0.00     0.080 A 
ATOM     11  C   UNL     1      32.252  33.984  14.936  1.00  0.00     0.134 A 
ATOM     12  N   UNL     1      31.970  34.116  17.076  1.00  0.00    -0.136 NA
ATOM     13  N   UNL     1      32.680  35.161  16.668  1.00  0.00    -0.067 NA
ENDBRANCH   7   8
ENDBRANCH   1   7
BRANCH   4  14
ATOM     14  C   UNL     1      38.707  33.778  13.196  1.00  0.00     0.335 C 
ATOM     15  O   UNL     1      39.727  34.355  13.646  1.00  0.00    -0.246 OA
BRANCH  14  16
ATOM     16  O   UNL     1      38.868  32.655  12.429  1.00  0.00    -0.478 OA
ATOM     17  H   UNL     1      39.709  32.074  12.431  1.00  0.00     0.297 HD
ENDBRANCH  14  16
ENDBRANCH   4  14
TORSDOF 4
BEGIN_RES LYS A 135
REMARK  4 active torsions:
REMARK  status: ('A' for Active; 'I' for Inactive)
REMARK    1  A    between atoms: CA   and  CB  
REMARK    2  A    between atoms: CB   and  CG  
REMARK    3  A    between atoms: CG   and  CD  
REMARK    4  A    between atoms: CD   and  CE  
ROOT
ATOM      1  CA  LYS A 135      33.193  34.663   9.290  1.00 25.02     0.186 C 
ENDROOT
BRANCH   1   2
ATOM      2  CB  LYS A 135      32.060  35.360  10.034  1.00 26.63     0.034 C 
BRANCH   2   3
ATOM      3  CG  LYS A 135      30.816  35.541   9.204  1.00 29.45     0.005 C 
BRANCH   3   4
ATOM      4  CD  LYS A 135      30.188  34.195   8.876  1.00 32.00     0.041 C 
BRANCH   4   5
ATOM      5  CE  LYS A 135      28.708  34.354   8.584  1.00 34.25     0.338 C 
ATOM      6  NZ  LYS A 135      27.881  33.683   9.625  1.00 35.99     0.618 N 
ENDBRANCH   4   5
ENDBRANCH   3   4
ENDBRANCH   2   3
ENDBRANCH   1   2
END_RES LYS A 135
BEGIN_RES TYR A 136
REMARK  2 active torsions:
REMARK  status: ('A' for Active; 'I' for Inactive)
REMARK    5  A    between atoms: CA   and  CB  
REMARK    6  A    between atoms: CB   and  CG  
ROOT
ATOM      7  CA  TYR A 136      36.583  36.399   8.994  1.00 26.14     0.191 C 
ENDROOT
BRANCH   7   8
ATOM      8  CB  TYR A 136      37.367  36.835  10.240  1.00 28.16     0.060 C 
BRANCH   8   9
ATOM      9  CG  TYR A 136      36.653  37.904  11.030  1.00 31.88    -0.020 A 
ATOM     10  CD2 TYR A 136      36.850  38.039  12.406  1.00 32.67    -0.002 A 
ATOM     11  CE2 TYR A 136      36.181  39.035  13.131  1.00 33.89     0.027 A 
ATOM     12  CZ  TYR A 136      35.306  39.903  12.472  1.00 34.34     0.131 A 
ATOM     13  OH  TYR A 136      34.638  40.901  13.169  1.00 35.14    -0.190 OA
ATOM     14  CE1 TYR A 136      35.098  39.783  11.106  1.00 35.01     0.027 A 
ATOM     15  CD1 TYR A 136      35.766  38.783  10.396  1.00 33.57    -0.002 A 
ENDBRANCH   8   9
ENDBRANCH   7   8
END_RES TYR A 136
BEGIN_RES ASN A 133
REMARK  2 active torsions:
REMARK  status: ('A' for Active; 'I' for Inactive)
REMARK    7  A    between atoms: CA   and  CB  
REMARK    8  A    between atoms: CB   and  CG  
ROOT
ATOM     16  CA  ASN A 133      31.225  30.257  11.749  1.00 18.15     0.196 C 
ENDROOT
BRANCH  16  17
ATOM     17  CB  ASN A 133      30.092  31.240  11.460  1.00 18.27     0.126 C 
BRANCH  17  18
ATOM     18  CG  ASN A 133      28.748  30.586  11.376  1.00 18.94     0.276 C 
ATOM     19  OD1 ASN A 133      28.557  29.610  10.648  1.00 18.09    -0.269 OA
ATOM     20  ND2 ASN A 133      27.789  31.124  12.129  1.00 18.93    -0.107 N 
ENDBRANCH  17  18
ENDBRANCH  16  17
END_RES ASN A 133
