REMARK VINA RESULT:    -4.533      0.000      0.000
REMARK INTER + INTRA:         -11.170
REMARK INTER:                  -6.931
REMARK INTRA:                  -4.239
REMARK UNBOUND:                -3.589
REMARK SMILES Cc1cn(CCCCCCCCCCC(=O)O)nn1
REMARK SMILES IDX 10 1 9 2 8 3 7 4 6 5 5 6 4 7 1 8 2 9 3 10 19 11 18 12 11 13
REMARK SMILES IDX 12 14 13 15 14 16 15 17 16 18 17 19
REMARK H PARENT 17 20
REMARK Flexibility Score: inf
ROOT
ATOM      1  C   UNL     1      33.432  35.393  15.915  1.00  0.00     0.000 C 
ENDROOT
BRANCH   1   2
ATOM      2  C   UNL     1      32.305  34.997  16.766  1.00  0.00     0.000 C 
BRANCH   2   3
ATOM      3  C   UNL     1      31.700  33.657  16.740  1.00  0.00     0.000 C 
BRANCH   3   4
ATOM      4  C   UNL     1      31.522  32.973  15.438  1.00  0.00     0.002 C 
BRANCH   4   5
ATOM      5  C   UNL     1      30.107  33.259  14.908  1.00  0.00     0.024 C 
BRANCH   5   6
ATOM      6  C   UNL     1      30.080  33.684  13.483  1.00  0.00     0.146 C 
BRANCH   6   7
ATOM      7  N   UNL     1      30.696  35.021  13.366  1.00  0.00    -0.252 N 
ATOM      8  C   UNL     1      33.191  37.369  12.050  1.00  0.00     0.070 C 
ATOM      9  C   UNL     1      32.083  36.644  12.722  1.00  0.00     0.080 A 
ATOM     10  C   UNL     1      31.775  35.306  12.595  1.00  0.00     0.134 A 
ATOM     11  N   UNL     1      31.163  37.129  13.578  1.00  0.00    -0.136 NA
ATOM     12  N   UNL     1      30.347  36.139  13.948  1.00  0.00    -0.067 NA
ENDBRANCH   6   7
ENDBRANCH   5   6
ENDBRANCH   4   5
ENDBRANCH   3   4
ENDBRANCH   2   3
ENDBRANCH   1   2
BRANCH   1  13
ATOM     13  C   UNL     1      34.505  36.255  16.449  1.00  0.00     0.000 C 
BRANCH  13  14
ATOM     14  C   UNL     1      35.846  35.941  15.753  1.00  0.00     0.001 C 
BRANCH  14  15
ATOM     15  C   UNL     1      35.708  35.879  14.264  1.00  0.00     0.012 C 
BRANCH  15  16
ATOM     16  C   UNL     1      36.824  35.031  13.652  1.00  0.00     0.122 C 
BRANCH  16  17
ATOM     17  C   UNL     1      36.254  34.007  12.743  1.00  0.00     0.303 C 
ATOM     18  O   UNL     1      36.943  33.435  11.868  1.00  0.00    -0.252 OA
BRANCH  17  19
ATOM     19  O   UNL     1      34.918  33.659  12.853  1.00  0.00    -0.481 OA
ATOM     20  H   UNL     1      34.596  32.722  12.998  1.00  0.00     0.296 HD
ENDBRANCH  17  19
ENDBRANCH  16  17
ENDBRANCH  15  16
ENDBRANCH  14  15
ENDBRANCH  13  14
ENDBRANCH   1  13
TORSDOF 12
BEGIN_RES LYS A 135
REMARK  4 active torsions:
REMARK  status: ('A' for Active; 'I' for Inactive)
REMARK    1  A    between atoms: CA   and  CB  
REMARK    2  A    between atoms: CB   and  CG  
REMARK    3  A    between atoms: CG   and  CD  
REMARK    4  A    between atoms: CD   and  CE  
ROOT
ATOM      1  CA  LYS A 135      33.193  34.663   9.290  1.00 25.02     0.186 C 
ENDROOT
BRANCH   1   2
ATOM      2  CB  LYS A 135      32.060  35.360  10.034  1.00 26.63     0.034 C 
BRANCH   2   3
ATOM      3  CG  LYS A 135      30.832  35.582   9.190  1.00 29.45     0.005 C 
BRANCH   3   4
ATOM      4  CD  LYS A 135      30.281  34.257   8.684  1.00 32.00     0.041 C 
BRANCH   4   5
ATOM      5  CE  LYS A 135      28.765  34.269   8.702  1.00 34.25     0.338 C 
ATOM      6  NZ  LYS A 135      28.224  35.253   7.724  1.00 35.99     0.618 N 
ENDBRANCH   4   5
ENDBRANCH   3   4
ENDBRANCH   2   3
ENDBRANCH   1   2
END_RES LYS A 135
BEGIN_RES TYR A 136
REMARK  2 active torsions:
REMARK  status: ('A' for Active; 'I' for Inactive)
REMARK    5  A    between atoms: CA   and  CB  
REMARK    6  A    between atoms: CB   and  CG  
ROOT
ATOM      7  CA  TYR A 136      36.583  36.399   8.994  1.00 26.14     0.191 C 
ENDROOT
BRANCH   7   8
ATOM      8  CB  TYR A 136      37.367  36.835  10.240  1.00 28.16     0.060 C 
BRANCH   8   9
ATOM      9  CG  TYR A 136      36.852  38.126  10.827  1.00 31.88    -0.020 A 
ATOM     10  CD2 TYR A 136      36.114  39.027  10.057  1.00 32.67    -0.002 A 
ATOM     11  CE2 TYR A 136      35.641  40.224  10.612  1.00 33.89     0.027 A 
ATOM     12  CZ  TYR A 136      35.910  40.522  11.950  1.00 34.34     0.131 A 
ATOM     13  OH  TYR A 136      35.446  41.699  12.522  1.00 35.14    -0.190 OA
ATOM     14  CE1 TYR A 136      36.643  39.639  12.730  1.00 35.01     0.027 A 
ATOM     15  CD1 TYR A 136      37.113  38.453  12.164  1.00 33.57    -0.002 A 
ENDBRANCH   8   9
ENDBRANCH   7   8
END_RES TYR A 136
BEGIN_RES ASN A 133
REMARK  2 active torsions:
REMARK  status: ('A' for Active; 'I' for Inactive)
REMARK    7  A    between atoms: CA   and  CB  
REMARK    8  A    between atoms: CB   and  CG  
ROOT
ATOM     16  CA  ASN A 133      31.225  30.257  11.749  1.00 18.15     0.196 C 
ENDROOT
BRANCH  16  17
ATOM     17  CB  ASN A 133      30.092  31.240  11.460  1.00 18.27     0.126 C 
BRANCH  17  18
ATOM     18  CG  ASN A 133      28.749  30.585  11.370  1.00 18.94     0.276 C 
ATOM     19  OD1 ASN A 133      28.562  29.610  10.639  1.00 18.09    -0.269 OA
ATOM     20  ND2 ASN A 133      27.787  31.121  12.120  1.00 18.93    -0.107 N 
ENDBRANCH  17  18
ENDBRANCH  16  17
END_RES ASN A 133
