REMARK VINA RESULT:    -3.231      7.834     16.517
REMARK INTER + INTRA:          -7.061
REMARK INTER:                  -3.764
REMARK INTRA:                  -3.297
REMARK UNBOUND:                -3.263
REMARK SMILES Cc1cn(CCN2CCCC2)nn1
REMARK SMILES IDX 5 1 4 2 1 3 2 4 3 5 13 6 12 7 6 8 7 9 8 10 11 11 9 12 10 13
REMARK H PARENT
REMARK Flexibility Score: inf
ROOT
ATOM      1  C   UNL     1      38.011  35.988  16.896  1.00  0.00     0.161 C 
ENDROOT
BRANCH   1   2
ATOM      2  N   UNL     1      37.703  35.210  15.715  1.00  0.00    -0.251 N 
ATOM      3  C   UNL     1      35.634  34.520  12.789  1.00  0.00     0.070 C 
ATOM      4  C   UNL     1      36.644  34.544  13.869  1.00  0.00     0.080 A 
ATOM      5  C   UNL     1      36.647  35.464  14.894  1.00  0.00     0.134 A 
ATOM      6  N   UNL     1      37.706  33.759  14.107  1.00  0.00    -0.136 NA
ATOM      7  N   UNL     1      38.322  34.170  15.206  1.00  0.00    -0.067 NA
ENDBRANCH   1   2
BRANCH   1   8
ATOM      8  C   UNL     1      37.469  35.342  18.149  1.00  0.00     0.108 C 
BRANCH   8   9
ATOM      9  N   UNL     1      38.478  35.035  19.109  1.00  0.00    -0.301 NA
ATOM     10  C   UNL     1      39.453  34.079  18.696  1.00  0.00     0.084 C 
ATOM     11  C   UNL     1      37.819  34.367  20.232  1.00  0.00     0.084 C 
ATOM     12  C   UNL     1      38.701  32.790  18.674  1.00  0.00     0.017 C 
ATOM     13  C   UNL     1      37.865  32.902  19.937  1.00  0.00     0.017 C 
ENDBRANCH   8   9
ENDBRANCH   1   8
TORSDOF 3
BEGIN_RES LYS A 135
REMARK  4 active torsions:
REMARK  status: ('A' for Active; 'I' for Inactive)
REMARK    1  A    between atoms: CA   and  CB  
REMARK    2  A    between atoms: CB   and  CG  
REMARK    3  A    between atoms: CG   and  CD  
REMARK    4  A    between atoms: CD   and  CE  
ROOT
ATOM      1  CA  LYS A 135      33.193  34.663   9.290  1.00 25.02     0.186 C 
ENDROOT
BRANCH   1   2
ATOM      2  CB  LYS A 135      32.060  35.360  10.034  1.00 26.63     0.034 C 
BRANCH   2   3
ATOM      3  CG  LYS A 135      30.705  34.756   9.771  1.00 29.45     0.005 C 
BRANCH   3   4
ATOM      4  CD  LYS A 135      30.475  34.584   8.277  1.00 32.00     0.041 C 
BRANCH   4   5
ATOM      5  CE  LYS A 135      29.026  34.864   7.926  1.00 34.25     0.338 C 
ATOM      6  NZ  LYS A 135      28.917  35.568   6.619  1.00 35.99     0.618 N 
ENDBRANCH   4   5
ENDBRANCH   3   4
ENDBRANCH   2   3
ENDBRANCH   1   2
END_RES LYS A 135
BEGIN_RES TYR A 136
REMARK  2 active torsions:
REMARK  status: ('A' for Active; 'I' for Inactive)
REMARK    5  A    between atoms: CA   and  CB  
REMARK    6  A    between atoms: CB   and  CG  
ROOT
ATOM      7  CA  TYR A 136      36.583  36.399   8.994  1.00 26.14     0.191 C 
ENDROOT
BRANCH   7   8
ATOM      8  CB  TYR A 136      37.367  36.835  10.240  1.00 28.16     0.060 C 
BRANCH   8   9
ATOM      9  CG  TYR A 136      36.811  38.090  10.866  1.00 31.88    -0.020 A 
ATOM     10  CD2 TYR A 136      36.351  39.148  10.078  1.00 32.67    -0.002 A 
ATOM     11  CE2 TYR A 136      35.837  40.311  10.670  1.00 33.89     0.027 A 
ATOM     12  CZ  TYR A 136      35.784  40.415  12.062  1.00 34.34     0.131 A 
ATOM     13  OH  TYR A 136      35.273  41.554  12.669  1.00 35.14    -0.190 OA
ATOM     14  CE1 TYR A 136      36.238  39.375  12.859  1.00 35.01     0.027 A 
ATOM     15  CD1 TYR A 136      36.753  38.225  12.259  1.00 33.57    -0.002 A 
ENDBRANCH   8   9
ENDBRANCH   7   8
END_RES TYR A 136
BEGIN_RES ASN A 133
REMARK  2 active torsions:
REMARK  status: ('A' for Active; 'I' for Inactive)
REMARK    7  A    between atoms: CA   and  CB  
REMARK    8  A    between atoms: CB   and  CG  
ROOT
ATOM     16  CA  ASN A 133      31.225  30.257  11.749  1.00 18.15     0.196 C 
ENDROOT
BRANCH  16  17
ATOM     17  CB  ASN A 133      30.092  31.240  11.460  1.00 18.27     0.126 C 
BRANCH  17  18
ATOM     18  CG  ASN A 133      28.749  30.584  11.366  1.00 18.94     0.276 C 
ATOM     19  OD1 ASN A 133      28.563  29.613  10.631  1.00 18.09    -0.269 OA
ATOM     20  ND2 ASN A 133      27.787  31.116  12.119  1.00 18.93    -0.107 N 
ENDBRANCH  17  18
ENDBRANCH  16  17
END_RES ASN A 133
