REMARK VINA RESULT:    -6.098      3.201      6.324
REMARK INTER + INTRA:         -11.182
REMARK INTER:                  -7.430
REMARK INTRA:                  -3.752
REMARK UNBOUND:                -3.836
REMARK SMILES Cc1cn(-c2ccc(-c3c4ccc(=O)cc-4oc4cc(O)ccc34)c(C(=O)[O-])c2)nn1
REMARK SMILES IDX 9 1 24 2 23 3 22 4 20 5 19 6 18 7 17 8 16 9 15 10 13 11
REMARK SMILES IDX 14 12 12 13 11 14 10 15 8 16 5 17 29 18 6 19 25 20 7 21 4 22
REMARK SMILES IDX 1 23 2 24 3 25 31 26 30 27 26 28 27 29 28 30 21 31
REMARK H PARENT 21 32
REMARK Flexibility Score: inf
ROOT
ATOM      1  C   UNL     1      34.934  36.460  14.280  1.00  0.00     0.004 A 
ATOM      2  C   UNL     1      35.333  37.265  15.325  1.00  0.00     0.026 A 
ATOM      3  C   UNL     1      34.512  38.285  15.756  1.00  0.00     0.016 A 
ATOM      4  C   UNL     1      34.874  39.119  16.803  1.00  0.00     0.047 A 
ATOM      5  C   UNL     1      36.090  38.902  17.412  1.00  0.00     0.119 A 
ATOM      6  C   UNL     1      36.912  37.882  16.982  1.00  0.00     0.093 A 
ATOM      7  C   UNL     1      36.560  37.035  15.930  1.00  0.00     0.139 A 
ATOM      8  O   UNL     1      37.368  36.073  15.546  1.00  0.00    -0.456 OA
ATOM      9  C   UNL     1      37.082  35.264  14.575  1.00  0.00     0.139 A 
ATOM     10  C   UNL     1      37.900  34.247  14.146  1.00  0.00     0.099 A 
ATOM     11  C   UNL     1      37.483  33.455  13.102  1.00  0.00     0.182 A 
ATOM     12  O   UNL     1      38.238  32.528  12.717  1.00  0.00    -0.290 OA
ATOM     13  C   UNL     1      36.270  33.642  12.465  1.00  0.00     0.053 A 
ATOM     14  C   UNL     1      35.400  34.641  12.842  1.00  0.00     0.016 A 
ATOM     15  C   UNL     1      35.794  35.455  13.892  1.00  0.00     0.026 A 
ENDROOT
BRANCH   1  16
ATOM     16  C   UNL     1      33.652  36.707  13.655  1.00  0.00    -0.008 A 
ATOM     17  C   UNL     1      31.146  37.136  12.496  1.00  0.00     0.067 A 
ATOM     18  C   UNL     1      31.274  36.258  13.552  1.00  0.00     0.039 A 
ATOM     19  C   UNL     1      32.259  37.805  12.012  1.00  0.00     0.029 A 
ATOM     20  C   UNL     1      32.523  36.058  14.112  1.00  0.00     0.007 A 
ATOM     21  C   UNL     1      33.495  37.582  12.596  1.00  0.00     0.012 A 
BRANCH  17  22
ATOM     22  N   UNL     1      29.888  37.380  11.881  1.00  0.00    -0.220 N 
ATOM     23  C   UNL     1      26.365  36.538  11.218  1.00  0.00     0.070 C 
ATOM     24  C   UNL     1      27.744  37.103  11.314  1.00  0.00     0.080 A 
ATOM     25  C   UNL     1      28.791  36.584  12.046  1.00  0.00     0.140 A 
ATOM     26  N   UNL     1      28.239  38.206  10.724  1.00  0.00    -0.135 NA
ATOM     27  N   UNL     1      29.515  38.341  11.082  1.00  0.00    -0.062 NA
ENDBRANCH  17  22
BRANCH  20  28
ATOM     28  C   UNL     1      32.645  35.128  15.228  1.00  0.00     0.072 C 
ATOM     29  O   UNL     1      32.769  33.894  15.049  1.00  0.00    -0.545 OA
ATOM     30  O   UNL     1      32.629  35.580  16.540  1.00  0.00    -0.545 OA
ENDBRANCH  20  28
ENDBRANCH   1  16
BRANCH   5  31
ATOM     31  O   UNL     1      36.465  39.741  18.474  1.00  0.00    -0.508 OA
ATOM     32  H   UNL     1      36.263  40.730  18.431  1.00  0.00     0.293 HD
ENDBRANCH   5  31
TORSDOF 4
BEGIN_RES LYS A 135
REMARK  4 active torsions:
REMARK  status: ('A' for Active; 'I' for Inactive)
REMARK    1  A    between atoms: CA   and  CB  
REMARK    2  A    between atoms: CB   and  CG  
REMARK    3  A    between atoms: CG   and  CD  
REMARK    4  A    between atoms: CD   and  CE  
ROOT
ATOM      1  CA  LYS A 135      33.193  34.663   9.290  1.00 25.02     0.186 C 
ENDROOT
BRANCH   1   2
ATOM      2  CB  LYS A 135      32.060  35.360  10.034  1.00 26.63     0.034 C 
BRANCH   2   3
ATOM      3  CG  LYS A 135      30.832  35.583   9.190  1.00 29.45     0.005 C 
BRANCH   3   4
ATOM      4  CD  LYS A 135      30.167  34.258   8.850  1.00 32.00     0.041 C 
BRANCH   4   5
ATOM      5  CE  LYS A 135      28.679  34.450   8.629  1.00 34.25     0.338 C 
ATOM      6  NZ  LYS A 135      27.885  33.666   9.616  1.00 35.99     0.618 N 
ENDBRANCH   4   5
ENDBRANCH   3   4
ENDBRANCH   2   3
ENDBRANCH   1   2
END_RES LYS A 135
BEGIN_RES TYR A 136
REMARK  2 active torsions:
REMARK  status: ('A' for Active; 'I' for Inactive)
REMARK    5  A    between atoms: CA   and  CB  
REMARK    6  A    between atoms: CB   and  CG  
ROOT
ATOM      7  CA  TYR A 136      36.583  36.399   8.994  1.00 26.14     0.191 C 
ENDROOT
BRANCH   7   8
ATOM      8  CB  TYR A 136      37.367  36.835  10.240  1.00 28.16     0.060 C 
BRANCH   8   9
ATOM      9  CG  TYR A 136      36.813  38.093  10.863  1.00 31.88    -0.020 A 
ATOM     10  CD2 TYR A 136      35.969  38.943  10.147  1.00 32.67    -0.002 A 
ATOM     11  CE2 TYR A 136      35.461  40.110  10.734  1.00 33.89     0.027 A 
ATOM     12  CZ  TYR A 136      35.802  40.429  12.051  1.00 34.34     0.131 A 
ATOM     13  OH  TYR A 136      35.306  41.576  12.655  1.00 35.14    -0.190 OA
ATOM     14  CE1 TYR A 136      36.641  39.596  12.777  1.00 35.01     0.027 A 
ATOM     15  CD1 TYR A 136      37.146  38.440  12.179  1.00 33.57    -0.002 A 
ENDBRANCH   8   9
ENDBRANCH   7   8
END_RES TYR A 136
BEGIN_RES ASN A 133
REMARK  2 active torsions:
REMARK  status: ('A' for Active; 'I' for Inactive)
REMARK    7  A    between atoms: CA   and  CB  
REMARK    8  A    between atoms: CB   and  CG  
ROOT
ATOM     16  CA  ASN A 133      31.225  30.257  11.749  1.00 18.15     0.196 C 
ENDROOT
BRANCH  16  17
ATOM     17  CB  ASN A 133      30.092  31.240  11.460  1.00 18.27     0.126 C 
BRANCH  17  18
ATOM     18  CG  ASN A 133      28.755  30.580  11.329  1.00 18.94     0.276 C 
ATOM     19  OD1 ASN A 133      28.586  29.625  10.568  1.00 18.09    -0.269 OA
ATOM     20  ND2 ASN A 133      27.778  31.088  12.079  1.00 18.93    -0.107 N 
ENDBRANCH  17  18
ENDBRANCH  16  17
END_RES ASN A 133
