REMARK VINA RESULT:    -5.118      3.032      6.506
REMARK INTER + INTRA:          -9.649
REMARK INTER:                  -6.282
REMARK INTRA:                  -3.368
REMARK UNBOUND:                -3.335
REMARK SMILES Cc1cn(-c2ccc(S(=O)(=O)Nc3nccs3)cc2)nn1
REMARK SMILES IDX 9 1 10 2 11 3 8 4 5 5 6 6 19 7 7 8 18 9 4 10 1 11 2 12 3 13
REMARK SMILES IDX 21 14 20 15 12 16 13 18 14 19 17 20 15 21 16 22
REMARK H PARENT 12 17
REMARK Flexibility Score: inf
ROOT
ATOM      1  S   UNL     1      29.785  31.482  18.455  1.00  0.00     0.263 S 
ATOM      2  O   UNL     1      30.765  31.127  19.524  1.00  0.00    -0.201 OA
ATOM      3  O   UNL     1      28.736  32.402  19.047  1.00  0.00    -0.201 OA
ENDROOT
BRANCH   1   4
ATOM      4  C   UNL     1      30.651  32.380  17.227  1.00  0.00     0.088 A 
ATOM      5  C   UNL     1      32.022  33.872  15.390  1.00  0.00     0.066 A 
ATOM      6  C   UNL     1      31.850  34.345  16.662  1.00  0.00     0.030 A 
ATOM      7  C   UNL     1      31.509  32.656  15.039  1.00  0.00     0.030 A 
ATOM      8  C   UNL     1      31.169  33.618  17.598  1.00  0.00     0.024 A 
ATOM      9  C   UNL     1      30.823  31.912  15.959  1.00  0.00     0.024 A 
BRANCH   5  10
ATOM     10  N   UNL     1      32.756  34.710  14.472  1.00  0.00    -0.220 N 
ATOM     11  C   UNL     1      33.163  37.336  11.941  1.00  0.00     0.070 C 
ATOM     12  C   UNL     1      33.250  36.245  12.944  1.00  0.00     0.080 A 
ATOM     13  C   UNL     1      32.238  35.661  13.675  1.00  0.00     0.140 A 
ATOM     14  N   UNL     1      34.367  35.608  13.339  1.00  0.00    -0.135 NA
ATOM     15  N   UNL     1      34.050  34.700  14.245  1.00  0.00    -0.062 NA
ENDBRANCH   5  10
ENDBRANCH   1   4
BRANCH   1  16
ATOM     16  N   UNL     1      29.035  30.098  17.805  1.00  0.00    -0.255 N 
ATOM     17  H   UNL     1      29.477  29.160  18.008  1.00  0.00     0.182 HD
BRANCH  16  18
ATOM     18  C   UNL     1      27.847  30.215  17.010  1.00  0.00     0.196 A 
ATOM     19  N   UNL     1      27.415  30.817  16.155  1.00  0.00    -0.228 NA
ATOM     20  S   UNL     1      26.420  29.029  17.398  1.00  0.00    -0.105 S 
ATOM     21  C   UNL     1      26.244  30.744  15.564  1.00  0.00     0.125 A 
ATOM     22  C   UNL     1      25.401  29.796  16.044  1.00  0.00     0.089 A 
ENDBRANCH  16  18
ENDBRANCH   1  16
TORSDOF 4
BEGIN_RES LYS A 135
REMARK  4 active torsions:
REMARK  status: ('A' for Active; 'I' for Inactive)
REMARK    1  A    between atoms: CA   and  CB  
REMARK    2  A    between atoms: CB   and  CG  
REMARK    3  A    between atoms: CG   and  CD  
REMARK    4  A    between atoms: CD   and  CE  
ROOT
ATOM      1  CA  LYS A 135      33.193  34.663   9.290  1.00 25.02     0.186 C 
ENDROOT
BRANCH   1   2
ATOM      2  CB  LYS A 135      32.060  35.360  10.034  1.00 26.63     0.034 C 
BRANCH   2   3
ATOM      3  CG  LYS A 135      30.705  34.755   9.772  1.00 29.45     0.005 C 
BRANCH   3   4
ATOM      4  CD  LYS A 135      30.457  34.622   8.277  1.00 32.00     0.041 C 
BRANCH   4   5
ATOM      5  CE  LYS A 135      28.973  34.703   7.975  1.00 34.25     0.338 C 
ATOM      6  NZ  LYS A 135      28.165  34.148   9.096  1.00 35.99     0.618 N 
ENDBRANCH   4   5
ENDBRANCH   3   4
ENDBRANCH   2   3
ENDBRANCH   1   2
END_RES LYS A 135
BEGIN_RES TYR A 136
REMARK  2 active torsions:
REMARK  status: ('A' for Active; 'I' for Inactive)
REMARK    5  A    between atoms: CA   and  CB  
REMARK    6  A    between atoms: CB   and  CG  
ROOT
ATOM      7  CA  TYR A 136      36.583  36.399   8.994  1.00 26.14     0.191 C 
ENDROOT
BRANCH   7   8
ATOM      8  CB  TYR A 136      37.367  36.835  10.240  1.00 28.16     0.060 C 
BRANCH   8   9
ATOM      9  CG  TYR A 136      36.754  38.034  10.921  1.00 31.88    -0.020 A 
ATOM     10  CD2 TYR A 136      36.792  38.174  12.310  1.00 32.67    -0.002 A 
ATOM     11  CE2 TYR A 136      36.218  39.291  12.933  1.00 33.89     0.027 A 
ATOM     12  CZ  TYR A 136      35.600  40.276  12.159  1.00 34.34     0.131 A 
ATOM     13  OH  TYR A 136      35.032  41.394  12.754  1.00 35.14    -0.190 OA
ATOM     14  CE1 TYR A 136      35.553  40.152  10.778  1.00 35.01     0.027 A 
ATOM     15  CD1 TYR A 136      36.122  39.033  10.169  1.00 33.57    -0.002 A 
ENDBRANCH   8   9
ENDBRANCH   7   8
END_RES TYR A 136
BEGIN_RES ASN A 133
REMARK  2 active torsions:
REMARK  status: ('A' for Active; 'I' for Inactive)
REMARK    7  A    between atoms: CA   and  CB  
REMARK    8  A    between atoms: CB   and  CG  
ROOT
ATOM     16  CA  ASN A 133      31.225  30.257  11.749  1.00 18.15     0.196 C 
ENDROOT
BRANCH  16  17
ATOM     17  CB  ASN A 133      30.092  31.240  11.460  1.00 18.27     0.126 C 
BRANCH  17  18
ATOM     18  CG  ASN A 133      28.755  30.579  11.329  1.00 18.94     0.276 C 
ATOM     19  OD1 ASN A 133      28.586  29.624  10.568  1.00 18.09    -0.269 OA
ATOM     20  ND2 ASN A 133      27.777  31.089  12.077  1.00 18.93    -0.107 N 
ENDBRANCH  17  18
ENDBRANCH  16  17
END_RES ASN A 133
