REMARK VINA RESULT:    -3.151      8.364     12.965
REMARK INTER + INTRA:          -6.947
REMARK INTER:                  -3.799
REMARK INTRA:                  -3.149
REMARK UNBOUND:                -3.243
REMARK SMILES Cc1cn(CCC2OCCO2)nn1
REMARK SMILES IDX 5 1 4 2 1 3 2 4 3 5 13 6 12 7 6 8 7 9 8 10 11 11 9 12 10 13
REMARK H PARENT
REMARK Flexibility Score: inf
ROOT
ATOM      1  C   UNL     1      30.978  34.510  15.468  1.00  0.00     0.151 C 
ENDROOT
BRANCH   1   2
ATOM      2  N   UNL     1      31.910  34.923  14.453  1.00  0.00    -0.252 N 
ATOM      3  C   UNL     1      35.224  35.313  13.035  1.00  0.00     0.070 C 
ATOM      4  C   UNL     1      33.778  35.272  13.391  1.00  0.00     0.080 A 
ATOM      5  C   UNL     1      33.235  34.755  14.545  1.00  0.00     0.134 A 
ATOM      6  N   UNL     1      32.763  35.735  12.642  1.00  0.00    -0.136 NA
ATOM      7  N   UNL     1      31.639  35.514  13.303  1.00  0.00    -0.067 NA
ENDBRANCH   1   2
BRANCH   1   8
ATOM      8  C   UNL     1      31.524  33.310  16.166  1.00  0.00     0.086 C 
BRANCH   8   9
ATOM      9  C   UNL     1      30.943  32.013  15.641  1.00  0.00     0.251 C 
ATOM     10  O   UNL     1      29.792  32.201  14.918  1.00  0.00    -0.350 OA
ATOM     11  O   UNL     1      30.691  31.103  16.639  1.00  0.00    -0.350 OA
ATOM     12  C   UNL     1      28.798  31.425  15.466  1.00  0.00     0.192 C 
ATOM     13  C   UNL     1      29.310  31.196  16.873  1.00  0.00     0.192 C 
ENDBRANCH   8   9
ENDBRANCH   1   8
TORSDOF 3
BEGIN_RES LYS A 135
REMARK  4 active torsions:
REMARK  status: ('A' for Active; 'I' for Inactive)
REMARK    1  A    between atoms: CA   and  CB  
REMARK    2  A    between atoms: CB   and  CG  
REMARK    3  A    between atoms: CG   and  CD  
REMARK    4  A    between atoms: CD   and  CE  
ROOT
ATOM      1  CA  LYS A 135      33.193  34.663   9.290  1.00 25.02     0.186 C 
ENDROOT
BRANCH   1   2
ATOM      2  CB  LYS A 135      32.060  35.360  10.034  1.00 26.63     0.034 C 
BRANCH   2   3
ATOM      3  CG  LYS A 135      30.705  34.755   9.771  1.00 29.45     0.005 C 
BRANCH   3   4
ATOM      4  CD  LYS A 135      30.473  34.587   8.278  1.00 32.00     0.041 C 
BRANCH   4   5
ATOM      5  CE  LYS A 135      29.012  34.810   7.938  1.00 34.25     0.338 C 
ATOM      6  NZ  LYS A 135      28.271  35.378   9.098  1.00 35.99     0.618 N 
ENDBRANCH   4   5
ENDBRANCH   3   4
ENDBRANCH   2   3
ENDBRANCH   1   2
END_RES LYS A 135
BEGIN_RES TYR A 136
REMARK  2 active torsions:
REMARK  status: ('A' for Active; 'I' for Inactive)
REMARK    5  A    between atoms: CA   and  CB  
REMARK    6  A    between atoms: CB   and  CG  
ROOT
ATOM      7  CA  TYR A 136      36.583  36.399   8.994  1.00 26.14     0.191 C 
ENDROOT
BRANCH   7   8
ATOM      8  CB  TYR A 136      37.367  36.835  10.240  1.00 28.16     0.060 C 
BRANCH   8   9
ATOM      9  CG  TYR A 136      36.979  38.213  10.717  1.00 31.88    -0.020 A 
ATOM     10  CD2 TYR A 136      36.388  39.137   9.853  1.00 32.67    -0.002 A 
ATOM     11  CE2 TYR A 136      36.033  40.416  10.305  1.00 33.89     0.027 A 
ATOM     12  CZ  TYR A 136      36.272  40.772  11.635  1.00 34.34     0.131 A 
ATOM     13  OH  TYR A 136      35.922  42.029  12.107  1.00 35.14    -0.190 OA
ATOM     14  CE1 TYR A 136      36.859  39.866  12.507  1.00 35.01     0.027 A 
ATOM     15  CD1 TYR A 136      37.214  38.599  12.043  1.00 33.57    -0.002 A 
ENDBRANCH   8   9
ENDBRANCH   7   8
END_RES TYR A 136
BEGIN_RES ASN A 133
REMARK  2 active torsions:
REMARK  status: ('A' for Active; 'I' for Inactive)
REMARK    7  A    between atoms: CA   and  CB  
REMARK    8  A    between atoms: CB   and  CG  
ROOT
ATOM     16  CA  ASN A 133      31.225  30.257  11.749  1.00 18.15     0.196 C 
ENDROOT
BRANCH  16  17
ATOM     17  CB  ASN A 133      30.092  31.240  11.460  1.00 18.27     0.126 C 
BRANCH  17  18
ATOM     18  CG  ASN A 133      28.754  30.580  11.332  1.00 18.94     0.276 C 
ATOM     19  OD1 ASN A 133      28.598  29.588  10.618  1.00 18.09    -0.269 OA
ATOM     20  ND2 ASN A 133      27.763  31.132  12.030  1.00 18.93    -0.107 N 
ENDBRANCH  17  18
ENDBRANCH  16  17
END_RES ASN A 133
