REMARK VINA RESULT:    -3.101      3.083      4.159
REMARK INTER + INTRA:          -7.462
REMARK INTER:                  -4.192
REMARK INTRA:                  -3.270
REMARK UNBOUND:                -3.635
REMARK SMILES Cc1cn(CCNS(C)(=O)=O)nn1
REMARK SMILES IDX 6 1 5 2 4 3 1 4 2 5 3 6 13 7 12 8 7 9 8 11 10 12 11 13 9 14
REMARK H PARENT 7 10
REMARK Flexibility Score: inf
ROOT
ATOM      1  C   UNL     1      34.205  35.327  12.947  1.00  0.00     0.122 C 
ENDROOT
BRANCH   1   2
ATOM      2  C   UNL     1      35.533  36.000  13.313  1.00  0.00     0.162 C 
BRANCH   2   3
ATOM      3  N   UNL     1      36.589  35.041  12.961  1.00  0.00    -0.251 N 
ATOM      4  C   UNL     1      40.039  33.851  12.759  1.00  0.00     0.070 C 
ATOM      5  C   UNL     1      38.566  34.082  12.710  1.00  0.00     0.080 A 
ATOM      6  C   UNL     1      37.904  35.193  13.180  1.00  0.00     0.134 A 
ATOM      7  N   UNL     1      37.610  33.281  12.212  1.00  0.00    -0.136 NA
ATOM      8  N   UNL     1      36.441  33.871  12.372  1.00  0.00    -0.067 NA
ENDBRANCH   2   3
ENDBRANCH   1   2
BRANCH   1   9
ATOM      9  N   UNL     1      33.977  34.243  13.858  1.00  0.00    -0.214 NA
ATOM     10  H   UNL     1      34.818  33.989  14.387  1.00  0.00     0.141 HD
BRANCH   9  11
ATOM     11  S   UNL     1      32.629  34.569  14.868  1.00  0.00     0.208 S 
ATOM     12  O   UNL     1      32.000  33.291  15.336  1.00  0.00    -0.213 OA
ATOM     13  O   UNL     1      31.605  35.347  14.061  1.00  0.00    -0.213 OA
ATOM     14  C   UNL     1      33.136  35.580  16.213  1.00  0.00     0.176 C 
ENDBRANCH   9  11
ENDBRANCH   1   9
TORSDOF 4
BEGIN_RES LYS A 135
REMARK  4 active torsions:
REMARK  status: ('A' for Active; 'I' for Inactive)
REMARK    1  A    between atoms: CA   and  CB  
REMARK    2  A    between atoms: CB   and  CG  
REMARK    3  A    between atoms: CG   and  CD  
REMARK    4  A    between atoms: CD   and  CE  
ROOT
ATOM      1  CA  LYS A 135      33.193  34.663   9.290  1.00 25.02     0.186 C 
ENDROOT
BRANCH   1   2
ATOM      2  CB  LYS A 135      32.060  35.360  10.034  1.00 26.63     0.034 C 
BRANCH   2   3
ATOM      3  CG  LYS A 135      30.732  34.660   9.901  1.00 29.45     0.005 C 
BRANCH   3   4
ATOM      4  CD  LYS A 135      30.406  34.402   8.438  1.00 32.00     0.041 C 
BRANCH   4   5
ATOM      5  CE  LYS A 135      28.932  34.639   8.171  1.00 34.25     0.338 C 
ATOM      6  NZ  LYS A 135      28.633  36.095   8.069  1.00 35.99     0.618 N 
ENDBRANCH   4   5
ENDBRANCH   3   4
ENDBRANCH   2   3
ENDBRANCH   1   2
END_RES LYS A 135
BEGIN_RES TYR A 136
REMARK  2 active torsions:
REMARK  status: ('A' for Active; 'I' for Inactive)
REMARK    5  A    between atoms: CA   and  CB  
REMARK    6  A    between atoms: CB   and  CG  
ROOT
ATOM      7  CA  TYR A 136      36.583  36.399   8.994  1.00 26.14     0.191 C 
ENDROOT
BRANCH   7   8
ATOM      8  CB  TYR A 136      37.367  36.835  10.240  1.00 28.16     0.060 C 
BRANCH   8   9
ATOM      9  CG  TYR A 136      37.124  38.280  10.602  1.00 31.88    -0.020 A 
ATOM     10  CD2 TYR A 136      36.387  39.121   9.766  1.00 32.67    -0.002 A 
ATOM     11  CE2 TYR A 136      36.169  40.462  10.110  1.00 33.89     0.027 A 
ATOM     12  CZ  TYR A 136      36.693  40.965  11.304  1.00 34.34     0.131 A 
ATOM     13  OH  TYR A 136      36.483  42.288  11.669  1.00 35.14    -0.190 OA
ATOM     14  CE1 TYR A 136      37.428  40.144  12.146  1.00 35.01     0.027 A 
ATOM     15  CD1 TYR A 136      37.644  38.812  11.789  1.00 33.57    -0.002 A 
ENDBRANCH   8   9
ENDBRANCH   7   8
END_RES TYR A 136
BEGIN_RES ASN A 133
REMARK  2 active torsions:
REMARK  status: ('A' for Active; 'I' for Inactive)
REMARK    7  A    between atoms: CA   and  CB  
REMARK    8  A    between atoms: CB   and  CG  
ROOT
ATOM     16  CA  ASN A 133      31.225  30.257  11.749  1.00 18.15     0.196 C 
ENDROOT
BRANCH  16  17
ATOM     17  CB  ASN A 133      30.092  31.240  11.460  1.00 18.27     0.126 C 
BRANCH  17  18
ATOM     18  CG  ASN A 133      28.749  30.584  11.367  1.00 18.94     0.276 C 
ATOM     19  OD1 ASN A 133      28.563  29.611  10.634  1.00 18.09    -0.269 OA
ATOM     20  ND2 ASN A 133      27.786  31.118  12.117  1.00 18.93    -0.107 N 
ENDBRANCH  17  18
ENDBRANCH  16  17
END_RES ASN A 133
