REMARK VINA RESULT:    -4.236      2.575      4.308
REMARK INTER + INTRA:          -7.627
REMARK INTER:                  -4.477
REMARK INTRA:                  -3.150
REMARK UNBOUND:                -3.143
REMARK SMILES Cc1cn(-c2ccc3c(c2)OCO3)nn1
REMARK SMILES IDX 5 1 6 2 7 3 8 4 9 5 10 6 11 7 12 8 13 9 4 10 1 11 2 12 3 13
REMARK SMILES IDX 15 14 14 15
REMARK H PARENT
REMARK Flexibility Score: inf
ROOT
ATOM      1  C   UNL     1      21.750  32.807  -1.043  1.00  0.00     0.070 A 
ATOM      2  C   UNL     1      20.924  32.789  -2.146  1.00  0.00     0.032 A 
ATOM      3  C   UNL     1      20.450  33.967  -2.680  1.00  0.00     0.053 A 
ATOM      4  C   UNL     1      20.834  35.162  -2.067  1.00  0.00     0.165 A 
ATOM      5  C   UNL     1      21.657  35.188  -0.964  1.00  0.00     0.167 A 
ATOM      6  C   UNL     1      22.110  34.000  -0.461  1.00  0.00     0.079 A 
ATOM      7  O   UNL     1      21.842  36.540  -0.603  1.00  0.00    -0.454 OA
ATOM      8  C   UNL     1      20.768  37.271  -1.165  1.00  0.00     0.468 C 
ATOM      9  O   UNL     1      20.535  36.495  -2.350  1.00  0.00    -0.454 OA
ENDROOT
BRANCH   1  10
ATOM     10  N   UNL     1      22.229  31.556  -0.509  1.00  0.00    -0.220 N 
ATOM     11  C   UNL     1      23.738  29.393   2.060  1.00  0.00     0.070 C 
ATOM     12  C   UNL     1      23.108  30.046   0.862  1.00  0.00     0.080 A 
ATOM     13  C   UNL     1      22.770  31.377   0.711  1.00  0.00     0.140 A 
ATOM     14  N   UNL     1      22.752  29.454  -0.291  1.00  0.00    -0.135 NA
ATOM     15  N   UNL     1      22.233  30.378  -1.088  1.00  0.00    -0.062 NA
ENDBRANCH   1  10
TORSDOF 1
BEGIN_RES LYS A 135
REMARK  4 active torsions:
REMARK  status: ('A' for Active; 'I' for Inactive)
REMARK    1  A    between atoms: CA   and  CB  
REMARK    2  A    between atoms: CB   and  CG  
REMARK    3  A    between atoms: CG   and  CD  
REMARK    4  A    between atoms: CD   and  CE  
ROOT
ATOM      1  CA  LYS A 135      33.193  34.663   9.290  1.00 25.02     0.186 C 
ENDROOT
BRANCH   1   2
ATOM      2  CB  LYS A 135      32.060  35.360  10.034  1.00 26.63     0.034 C 
BRANCH   2   3
ATOM      3  CG  LYS A 135      30.836  35.592   9.187  1.00 29.45     0.005 C 
BRANCH   3   4
ATOM      4  CD  LYS A 135      30.308  34.276   8.635  1.00 32.00     0.041 C 
BRANCH   4   5
ATOM      5  CE  LYS A 135      28.905  34.009   9.146  1.00 34.25     0.338 C 
ATOM      6  NZ  LYS A 135      27.886  34.669   8.284  1.00 35.99     0.618 N 
ENDBRANCH   4   5
ENDBRANCH   3   4
ENDBRANCH   2   3
ENDBRANCH   1   2
END_RES LYS A 135
BEGIN_RES TYR A 136
REMARK  2 active torsions:
REMARK  status: ('A' for Active; 'I' for Inactive)
REMARK    5  A    between atoms: CA   and  CB  
REMARK    6  A    between atoms: CB   and  CG  
ROOT
ATOM      7  CA  TYR A 136      36.583  36.399   8.994  1.00 26.14     0.191 C 
ENDROOT
BRANCH   7   8
ATOM      8  CB  TYR A 136      37.367  36.835  10.240  1.00 28.16     0.060 C 
BRANCH   8   9
ATOM      9  CG  TYR A 136      37.178  38.297  10.562  1.00 31.88    -0.020 A 
ATOM     10  CD2 TYR A 136      37.286  39.276   9.571  1.00 32.67    -0.002 A 
ATOM     11  CE2 TYR A 136      37.110  40.631   9.882  1.00 33.89     0.027 A 
ATOM     12  CZ  TYR A 136      36.825  41.011  11.195  1.00 34.34     0.131 A 
ATOM     13  OH  TYR A 136      36.640  42.347  11.524  1.00 35.14    -0.190 OA
ATOM     14  CE1 TYR A 136      36.716  40.052  12.192  1.00 35.01     0.027 A 
ATOM     15  CD1 TYR A 136      36.899  38.706  11.872  1.00 33.57    -0.002 A 
ENDBRANCH   8   9
ENDBRANCH   7   8
END_RES TYR A 136
BEGIN_RES ASN A 133
REMARK  2 active torsions:
REMARK  status: ('A' for Active; 'I' for Inactive)
REMARK    7  A    between atoms: CA   and  CB  
REMARK    8  A    between atoms: CB   and  CG  
ROOT
ATOM     16  CA  ASN A 133      31.225  30.257  11.749  1.00 18.15     0.196 C 
ENDROOT
BRANCH  16  17
ATOM     17  CB  ASN A 133      30.092  31.240  11.460  1.00 18.27     0.126 C 
BRANCH  17  18
ATOM     18  CG  ASN A 133      28.759  30.577  11.304  1.00 18.94     0.276 C 
ATOM     19  OD1 ASN A 133      28.614  29.598  10.569  1.00 18.09    -0.269 OA
ATOM     20  ND2 ASN A 133      27.757  31.110  12.003  1.00 18.93    -0.107 N 
ENDBRANCH  17  18
ENDBRANCH  16  17
END_RES ASN A 133
