REMARK VINA RESULT:    -4.036      5.088      8.643
REMARK INTER + INTRA:          -7.136
REMARK INTER:                  -4.046
REMARK INTRA:                  -3.090
REMARK UNBOUND:                -2.865
REMARK SMILES Cc1ccc(-n2cc(C)nn2)cc1
REMARK SMILES IDX 5 1 4 2 3 3 2 4 1 5 13 6 12 7 6 8 9 9 8 10 7 11 10 12 11 13
REMARK H PARENT
REMARK Flexibility Score: inf
ROOT
ATOM      1  C   UNL     1      36.370  38.831   5.073  1.00  0.00     0.066 A 
ATOM      2  C   UNL     1      35.010  38.893   4.910  1.00  0.00     0.029 A 
ATOM      3  C   UNL     1      34.216  39.381   5.930  1.00  0.00     0.005 A 
ATOM      4  C   UNL     1      34.734  39.819   7.131  1.00  0.00    -0.051 A 
ATOM      5  C   UNL     1      33.861  40.340   8.216  1.00  0.00     0.044 C 
ATOM      6  C   UNL     1      36.110  39.746   7.271  1.00  0.00     0.005 A 
ATOM      7  C   UNL     1      36.922  39.262   6.261  1.00  0.00     0.029 A 
ENDROOT
BRANCH   1   8
ATOM      8  N   UNL     1      37.197  38.340   4.051  1.00  0.00    -0.220 N 
ATOM      9  C   UNL     1      38.373  38.231   0.610  1.00  0.00     0.070 C 
ATOM     10  C   UNL     1      38.120  38.043   2.071  1.00  0.00     0.080 A 
ATOM     11  C   UNL     1      37.168  38.748   2.768  1.00  0.00     0.140 A 
ATOM     12  N   UNL     1      38.702  37.228   2.941  1.00  0.00    -0.135 NA
ATOM     13  N   UNL     1      38.149  37.407   4.125  1.00  0.00    -0.062 NA
ENDBRANCH   1   8
TORSDOF 1
BEGIN_RES LYS A 135
REMARK  4 active torsions:
REMARK  status: ('A' for Active; 'I' for Inactive)
REMARK    1  A    between atoms: CA   and  CB  
REMARK    2  A    between atoms: CB   and  CG  
REMARK    3  A    between atoms: CG   and  CD  
REMARK    4  A    between atoms: CD   and  CE  
ROOT
ATOM      1  CA  LYS A 135      33.193  34.663   9.290  1.00 25.02     0.186 C 
ENDROOT
BRANCH   1   2
ATOM      2  CB  LYS A 135      32.060  35.360  10.034  1.00 26.63     0.034 C 
BRANCH   2   3
ATOM      3  CG  LYS A 135      30.842  35.608   9.182  1.00 29.45     0.005 C 
BRANCH   3   4
ATOM      4  CD  LYS A 135      30.293  34.299   8.636  1.00 32.00     0.041 C 
BRANCH   4   5
ATOM      5  CE  LYS A 135      28.779  34.283   8.713  1.00 34.25     0.338 C 
ATOM      6  NZ  LYS A 135      28.178  35.122   7.638  1.00 35.99     0.618 N 
ENDBRANCH   4   5
ENDBRANCH   3   4
ENDBRANCH   2   3
ENDBRANCH   1   2
END_RES LYS A 135
BEGIN_RES TYR A 136
REMARK  2 active torsions:
REMARK  status: ('A' for Active; 'I' for Inactive)
REMARK    5  A    between atoms: CA   and  CB  
REMARK    6  A    between atoms: CB   and  CG  
ROOT
ATOM      7  CA  TYR A 136      36.583  36.399   8.994  1.00 26.14     0.191 C 
ENDROOT
BRANCH   7   8
ATOM      8  CB  TYR A 136      37.367  36.835  10.240  1.00 28.16     0.060 C 
BRANCH   8   9
ATOM      9  CG  TYR A 136      37.319  38.326  10.463  1.00 31.88    -0.020 A 
ATOM     10  CD2 TYR A 136      38.415  39.138  10.165  1.00 32.67    -0.002 A 
ATOM     11  CE2 TYR A 136      38.360  40.523  10.378  1.00 33.89     0.027 A 
ATOM     12  CZ  TYR A 136      37.198  41.100  10.895  1.00 34.34     0.131 A 
ATOM     13  OH  TYR A 136      37.119  42.469  11.107  1.00 35.14    -0.190 OA
ATOM     14  CE1 TYR A 136      36.100  40.308  11.198  1.00 35.01     0.027 A 
ATOM     15  CD1 TYR A 136      36.168  38.930  10.988  1.00 33.57    -0.002 A 
ENDBRANCH   8   9
ENDBRANCH   7   8
END_RES TYR A 136
BEGIN_RES ASN A 133
REMARK  2 active torsions:
REMARK  status: ('A' for Active; 'I' for Inactive)
REMARK    7  A    between atoms: CA   and  CB  
REMARK    8  A    between atoms: CB   and  CG  
ROOT
ATOM     16  CA  ASN A 133      31.225  30.257  11.749  1.00 18.15     0.196 C 
ENDROOT
BRANCH  16  17
ATOM     17  CB  ASN A 133      30.092  31.240  11.460  1.00 18.27     0.126 C 
BRANCH  17  18
ATOM     18  CG  ASN A 133      28.750  30.584  11.362  1.00 18.94     0.276 C 
ATOM     19  OD1 ASN A 133      28.569  29.605  10.636  1.00 18.09    -0.269 OA
ATOM     20  ND2 ASN A 133      27.782  31.124  12.101  1.00 18.93    -0.107 N 
ENDBRANCH  17  18
ENDBRANCH  16  17
END_RES ASN A 133
