REMARK VINA RESULT:    -3.090      8.196     12.132
REMARK INTER + INTRA:          -7.039
REMARK INTER:                  -3.757
REMARK INTRA:                  -3.283
REMARK UNBOUND:                -3.227
REMARK SMILES CCOC(=O)Cn1cc(C)nn1
REMARK SMILES IDX 4 1 5 2 6 3 7 4 10 5 9 6 8 7 11 8 12 9 3 10 2 11 1 12
REMARK H PARENT
REMARK Flexibility Score: inf
ROOT
ATOM      1  C   UNL     1      37.309  37.592   3.309  1.00  0.00     0.327 C 
ATOM      2  O   UNL     1      36.373  37.621   2.450  1.00  0.00    -0.250 OA
ENDROOT
BRANCH   1   3
ATOM      3  C   UNL     1      38.696  37.613   2.812  1.00  0.00     0.268 C 
BRANCH   3   4
ATOM      4  N   UNL     1      39.636  37.122   3.786  1.00  0.00    -0.241 N 
ATOM      5  C   UNL     1      42.229  37.217   6.342  1.00  0.00     0.070 C 
ATOM      6  C   UNL     1      41.183  36.941   5.323  1.00  0.00     0.080 A 
ATOM      7  C   UNL     1      40.459  37.815   4.562  1.00  0.00     0.134 A 
ATOM      8  N   UNL     1      40.772  35.688   4.986  1.00  0.00    -0.136 NA
ATOM      9  N   UNL     1      39.849  35.844   4.068  1.00  0.00    -0.067 NA
ENDBRANCH   3   4
ENDBRANCH   1   3
BRANCH   1  10
ATOM     10  O   UNL     1      36.916  37.543   4.623  1.00  0.00    -0.465 OA
BRANCH  10  11
ATOM     11  C   UNL     1      36.617  38.733   5.355  1.00  0.00     0.229 C 
ATOM     12  C   UNL     1      35.170  38.841   5.683  1.00  0.00     0.049 C 
ENDBRANCH  10  11
ENDBRANCH   1  10
TORSDOF 4
BEGIN_RES LYS A 135
REMARK  4 active torsions:
REMARK  status: ('A' for Active; 'I' for Inactive)
REMARK    1  A    between atoms: CA   and  CB  
REMARK    2  A    between atoms: CB   and  CG  
REMARK    3  A    between atoms: CG   and  CD  
REMARK    4  A    between atoms: CD   and  CE  
ROOT
ATOM      1  CA  LYS A 135      33.193  34.663   9.290  1.00 25.02     0.186 C 
ENDROOT
BRANCH   1   2
ATOM      2  CB  LYS A 135      32.060  35.360  10.034  1.00 26.63     0.034 C 
BRANCH   2   3
ATOM      3  CG  LYS A 135      30.849  35.623   9.177  1.00 29.45     0.005 C 
BRANCH   3   4
ATOM      4  CD  LYS A 135      30.311  34.325   8.595  1.00 32.00     0.041 C 
BRANCH   4   5
ATOM      5  CE  LYS A 135      28.794  34.340   8.573  1.00 34.25     0.338 C 
ATOM      6  NZ  LYS A 135      28.235  33.975   9.904  1.00 35.99     0.618 N 
ENDBRANCH   4   5
ENDBRANCH   3   4
ENDBRANCH   2   3
ENDBRANCH   1   2
END_RES LYS A 135
BEGIN_RES TYR A 136
REMARK  2 active torsions:
REMARK  status: ('A' for Active; 'I' for Inactive)
REMARK    5  A    between atoms: CA   and  CB  
REMARK    6  A    between atoms: CB   and  CG  
ROOT
ATOM      7  CA  TYR A 136      36.583  36.399   8.994  1.00 26.14     0.191 C 
ENDROOT
BRANCH   7   8
ATOM      8  CB  TYR A 136      37.367  36.835  10.240  1.00 28.16     0.060 C 
BRANCH   8   9
ATOM      9  CG  TYR A 136      37.328  38.328  10.457  1.00 31.88    -0.020 A 
ATOM     10  CD2 TYR A 136      37.953  38.915  11.560  1.00 32.67    -0.002 A 
ATOM     11  CE2 TYR A 136      37.909  40.302  11.753  1.00 33.89     0.027 A 
ATOM     12  CZ  TYR A 136      37.233  41.110  10.835  1.00 34.34     0.131 A 
ATOM     13  OH  TYR A 136      37.183  42.486  11.003  1.00 35.14    -0.190 OA
ATOM     14  CE1 TYR A 136      36.605  40.543   9.736  1.00 35.01     0.027 A 
ATOM     15  CD1 TYR A 136      36.650  39.160   9.557  1.00 33.57    -0.002 A 
ENDBRANCH   8   9
ENDBRANCH   7   8
END_RES TYR A 136
BEGIN_RES ASN A 133
REMARK  2 active torsions:
REMARK  status: ('A' for Active; 'I' for Inactive)
REMARK    7  A    between atoms: CA   and  CB  
REMARK    8  A    between atoms: CB   and  CG  
ROOT
ATOM     16  CA  ASN A 133      31.225  30.257  11.749  1.00 18.15     0.196 C 
ENDROOT
BRANCH  16  17
ATOM     17  CB  ASN A 133      30.092  31.240  11.460  1.00 18.27     0.126 C 
BRANCH  17  18
ATOM     18  CG  ASN A 133      28.752  30.582  11.347  1.00 18.94     0.276 C 
ATOM     19  OD1 ASN A 133      28.579  29.607  10.613  1.00 18.09    -0.269 OA
ATOM     20  ND2 ASN A 133      27.777  31.115  12.082  1.00 18.93    -0.107 N 
ENDBRANCH  17  18
ENDBRANCH  16  17
END_RES ASN A 133
