REMARK VINA RESULT:    -3.850      4.216      8.592
REMARK INTER + INTRA:          -8.253
REMARK INTER:                  -5.943
REMARK INTRA:                  -2.310
REMARK UNBOUND:                -3.502
REMARK SMILES CCOC(=O)c1cccc(-n2cc(C)nn2)c1
REMARK SMILES IDX 4 1 5 2 6 3 10 4 17 5 9 6 8 7 7 8 11 9 14 10 13 11 12 12
REMARK SMILES IDX 15 13 16 14 3 15 2 16 1 17
REMARK H PARENT
REMARK Flexibility Score: inf
ROOT
ATOM      1  C   UNL     1      24.629  35.622   9.636  1.00  0.00     0.338 C 
ATOM      2  O   UNL     1      23.437  35.427   9.286  1.00  0.00    -0.246 OA
ENDROOT
BRANCH   1   3
ATOM      3  C   UNL     1      25.725  35.713   8.685  1.00  0.00     0.062 A 
ATOM      4  C   UNL     1      26.941  36.918   6.981  1.00  0.00     0.067 A 
ATOM      5  C   UNL     1      25.904  36.829   7.882  1.00  0.00     0.044 A 
ATOM      6  C   UNL     1      27.811  35.859   6.892  1.00  0.00     0.028 A 
ATOM      7  C   UNL     1      27.683  34.715   7.671  1.00  0.00     0.003 A 
ATOM      8  C   UNL     1      26.626  34.679   8.558  1.00  0.00     0.016 A 
BRANCH   4   9
ATOM      9  N   UNL     1      27.128  38.058   6.156  1.00  0.00    -0.220 N 
ATOM     10  C   UNL     1      26.819  41.615   5.251  1.00  0.00     0.070 C 
ATOM     11  C   UNL     1      27.090  40.157   5.353  1.00  0.00     0.080 A 
ATOM     12  C   UNL     1      26.719  39.327   6.391  1.00  0.00     0.140 A 
ATOM     13  N   UNL     1      27.734  39.345   4.490  1.00  0.00    -0.135 NA
ATOM     14  N   UNL     1      27.751  38.114   4.971  1.00  0.00    -0.062 NA
ENDBRANCH   4   9
ENDBRANCH   1   3
BRANCH   1  15
ATOM     15  O   UNL     1      24.860  35.749  10.995  1.00  0.00    -0.462 OA
BRANCH  15  16
ATOM     16  C   UNL     1      24.465  34.742  11.905  1.00  0.00     0.230 C 
ATOM     17  C   UNL     1      25.687  34.024  12.390  1.00  0.00     0.049 C 
ENDBRANCH  15  16
ENDBRANCH   1  15
TORSDOF 4
BEGIN_RES LYS A 135
REMARK  4 active torsions:
REMARK  status: ('A' for Active; 'I' for Inactive)
REMARK    1  A    between atoms: CA   and  CB  
REMARK    2  A    between atoms: CB   and  CG  
REMARK    3  A    between atoms: CG   and  CD  
REMARK    4  A    between atoms: CD   and  CE  
ROOT
ATOM      1  CA  LYS A 135      33.193  34.663   9.290  1.00 25.02     0.186 C 
ENDROOT
BRANCH   1   2
ATOM      2  CB  LYS A 135      32.060  35.360  10.034  1.00 26.63     0.034 C 
BRANCH   2   3
ATOM      3  CG  LYS A 135      30.818  35.548   9.201  1.00 29.45     0.005 C 
BRANCH   3   4
ATOM      4  CD  LYS A 135      30.026  36.753   9.684  1.00 32.00     0.041 C 
BRANCH   4   5
ATOM      5  CE  LYS A 135      29.098  36.360  10.818  1.00 34.25     0.338 C 
ATOM      6  NZ  LYS A 135      27.961  37.315  10.936  1.00 35.99     0.618 N 
ENDBRANCH   4   5
ENDBRANCH   3   4
ENDBRANCH   2   3
ENDBRANCH   1   2
END_RES LYS A 135
BEGIN_RES TYR A 136
REMARK  2 active torsions:
REMARK  status: ('A' for Active; 'I' for Inactive)
REMARK    5  A    between atoms: CA   and  CB  
REMARK    6  A    between atoms: CB   and  CG  
ROOT
ATOM      7  CA  TYR A 136      36.583  36.399   8.994  1.00 26.14     0.191 C 
ENDROOT
BRANCH   7   8
ATOM      8  CB  TYR A 136      37.367  36.835  10.240  1.00 28.16     0.060 C 
BRANCH   8   9
ATOM      9  CG  TYR A 136      37.230  38.310  10.525  1.00 31.88    -0.020 A 
ATOM     10  CD2 TYR A 136      36.428  39.130   9.727  1.00 32.67    -0.002 A 
ATOM     11  CE2 TYR A 136      36.309  40.499   9.999  1.00 33.89     0.027 A 
ATOM     12  CZ  TYR A 136      36.998  41.054  11.080  1.00 34.34     0.131 A 
ATOM     13  OH  TYR A 136      36.889  42.407  11.373  1.00 35.14    -0.190 OA
ATOM     14  CE1 TYR A 136      37.799  40.255  11.883  1.00 35.01     0.027 A 
ATOM     15  CD1 TYR A 136      37.915  38.894  11.598  1.00 33.57    -0.002 A 
ENDBRANCH   8   9
ENDBRANCH   7   8
END_RES TYR A 136
BEGIN_RES ASN A 133
REMARK  2 active torsions:
REMARK  status: ('A' for Active; 'I' for Inactive)
REMARK    7  A    between atoms: CA   and  CB  
REMARK    8  A    between atoms: CB   and  CG  
ROOT
ATOM     16  CA  ASN A 133      31.225  30.257  11.749  1.00 18.15     0.196 C 
ENDROOT
BRANCH  16  17
ATOM     17  CB  ASN A 133      30.092  31.240  11.460  1.00 18.27     0.126 C 
BRANCH  17  18
ATOM     18  CG  ASN A 133      28.750  30.583  11.361  1.00 18.94     0.276 C 
ATOM     19  OD1 ASN A 133      28.561  29.627  10.606  1.00 18.09    -0.269 OA
ATOM     20  ND2 ASN A 133      27.791  31.098  12.130  1.00 18.93    -0.107 N 
ENDBRANCH  17  18
ENDBRANCH  16  17
END_RES ASN A 133
