REMARK VINA RESULT:    -3.647      6.861     12.693
REMARK INTER + INTRA:          -7.429
REMARK INTER:                  -4.151
REMARK INTRA:                  -3.278
REMARK UNBOUND:                -3.249
REMARK SMILES Cc1cn(-c2ccc(S(N)(=O)=O)cc2)nn1
REMARK SMILES IDX 5 1 6 2 7 3 8 4 13 5 14 6 4 7 1 8 2 9 3 10 16 11 15 12 9 13
REMARK SMILES IDX 11 14 12 15 10 16
REMARK H PARENT 10 17 10 18
REMARK Flexibility Score: inf
ROOT
ATOM      1  C   UNL     1      29.364  31.343  16.974  1.00  0.00     0.066 A 
ATOM      2  C   UNL     1      28.306  30.508  16.680  1.00  0.00     0.030 A 
ATOM      3  C   UNL     1      27.829  29.575  17.608  1.00  0.00     0.024 A 
ATOM      4  C   UNL     1      28.411  29.466  18.851  1.00  0.00     0.082 A 
ATOM      5  C   UNL     1      29.460  30.290  19.151  1.00  0.00     0.024 A 
ATOM      6  C   UNL     1      29.926  31.203  18.242  1.00  0.00     0.030 A 
ENDROOT
BRANCH   1   7
ATOM      7  N   UNL     1      29.886  32.303  16.073  1.00  0.00    -0.220 N 
ATOM      8  C   UNL     1      29.891  33.980  12.852  1.00  0.00     0.070 C 
ATOM      9  C   UNL     1      30.149  33.514  14.219  1.00  0.00     0.080 A 
ATOM     10  C   UNL     1      29.413  32.501  14.835  1.00  0.00     0.140 A 
ATOM     11  N   UNL     1      31.049  33.886  15.137  1.00  0.00    -0.135 NA
ATOM     12  N   UNL     1      30.879  33.152  16.242  1.00  0.00    -0.062 NA
ENDBRANCH   1   7
BRANCH   4  13
ATOM     13  S   UNL     1      27.814  28.300  20.010  1.00  0.00     0.238 S 
ATOM     14  O   UNL     1      27.611  28.975  21.339  1.00  0.00    -0.207 OA
ATOM     15  O   UNL     1      26.523  27.711  19.565  1.00  0.00    -0.207 OA
BRANCH  13  16
ATOM     16  N   UNL     1      29.019  27.082  20.243  1.00  0.00    -0.225 NA
ATOM     17  H   UNL     1      29.058  26.474  19.392  1.00  0.00     0.137 HD
ATOM     18  H   UNL     1      29.938  27.599  20.323  1.00  0.00     0.137 HD
ENDBRANCH  13  16
ENDBRANCH   4  13
TORSDOF 3
BEGIN_RES LYS A 135
REMARK  4 active torsions:
REMARK  status: ('A' for Active; 'I' for Inactive)
REMARK    1  A    between atoms: CA   and  CB  
REMARK    2  A    between atoms: CB   and  CG  
REMARK    3  A    between atoms: CG   and  CD  
REMARK    4  A    between atoms: CD   and  CE  
ROOT
ATOM      1  CA  LYS A 135      33.193  34.663   9.290  1.00 25.02     0.186 C 
ENDROOT
BRANCH   1   2
ATOM      2  CB  LYS A 135      32.060  35.360  10.034  1.00 26.63     0.034 C 
BRANCH   2   3
ATOM      3  CG  LYS A 135      30.804  35.509   9.215  1.00 29.45     0.005 C 
BRANCH   3   4
ATOM      4  CD  LYS A 135      30.153  34.155   8.979  1.00 32.00     0.041 C 
BRANCH   4   5
ATOM      5  CE  LYS A 135      28.690  34.324   8.616  1.00 34.25     0.338 C 
ATOM      6  NZ  LYS A 135      27.807  33.727   9.656  1.00 35.99     0.618 N 
ENDBRANCH   4   5
ENDBRANCH   3   4
ENDBRANCH   2   3
ENDBRANCH   1   2
END_RES LYS A 135
BEGIN_RES TYR A 136
REMARK  2 active torsions:
REMARK  status: ('A' for Active; 'I' for Inactive)
REMARK    5  A    between atoms: CA   and  CB  
REMARK    6  A    between atoms: CB   and  CG  
ROOT
ATOM      7  CA  TYR A 136      36.583  36.399   8.994  1.00 26.14     0.191 C 
ENDROOT
BRANCH   7   8
ATOM      8  CB  TYR A 136      37.367  36.835  10.240  1.00 28.16     0.060 C 
BRANCH   8   9
ATOM      9  CG  TYR A 136      37.213  38.306  10.537  1.00 31.88    -0.020 A 
ATOM     10  CD2 TYR A 136      36.469  39.139   9.698  1.00 32.67    -0.002 A 
ATOM     11  CE2 TYR A 136      36.334  40.505   9.982  1.00 33.89     0.027 A 
ATOM     12  CZ  TYR A 136      36.950  41.043  11.115  1.00 34.34     0.131 A 
ATOM     13  OH  TYR A 136      36.824  42.391  11.419  1.00 35.14    -0.190 OA
ATOM     14  CE1 TYR A 136      37.694  40.230  11.958  1.00 35.01     0.027 A 
ATOM     15  CD1 TYR A 136      37.827  38.873  11.662  1.00 33.57    -0.002 A 
ENDBRANCH   8   9
ENDBRANCH   7   8
END_RES TYR A 136
BEGIN_RES ASN A 133
REMARK  2 active torsions:
REMARK  status: ('A' for Active; 'I' for Inactive)
REMARK    7  A    between atoms: CA   and  CB  
REMARK    8  A    between atoms: CB   and  CG  
ROOT
ATOM     16  CA  ASN A 133      31.225  30.257  11.749  1.00 18.15     0.196 C 
ENDROOT
BRANCH  16  17
ATOM     17  CB  ASN A 133      30.092  31.240  11.460  1.00 18.27     0.126 C 
BRANCH  17  18
ATOM     18  CG  ASN A 133      28.758  30.577  11.311  1.00 18.94     0.276 C 
ATOM     19  OD1 ASN A 133      28.607  29.605  10.569  1.00 18.09    -0.269 OA
ATOM     20  ND2 ASN A 133      27.762  31.105  12.023  1.00 18.93    -0.107 N 
ENDBRANCH  17  18
ENDBRANCH  16  17
END_RES ASN A 133
