REMARK VINA RESULT:    -4.133      7.886     13.357
REMARK INTER + INTRA:          -7.996
REMARK INTER:                  -4.868
REMARK INTRA:                  -3.128
REMARK UNBOUND:                -3.259
REMARK SMILES Cc1cn(-c2ccc(CO)cn2)nn1
REMARK SMILES IDX 5 1 6 2 7 3 8 4 11 5 12 6 4 7 1 8 2 9 3 10 14 11 13 12 9 13
REMARK SMILES IDX 10 14
REMARK H PARENT 10 15
REMARK Flexibility Score: inf
ROOT
ATOM      1  C   UNL     1      32.066  34.034  15.457  1.00  0.00     0.155 A 
ATOM      2  C   UNL     1      31.517  32.791  15.195  1.00  0.00     0.049 A 
ATOM      3  C   UNL     1      30.893  32.035  16.178  1.00  0.00     0.011 A 
ATOM      4  C   UNL     1      30.838  32.574  17.443  1.00  0.00    -0.004 A 
ATOM      5  C   UNL     1      31.393  33.819  17.689  1.00  0.00     0.119 A 
ATOM      6  N   UNL     1      31.990  34.521  16.707  1.00  0.00    -0.237 NA
ENDROOT
BRANCH   1   7
ATOM      7  N   UNL     1      32.704  34.794  14.428  1.00  0.00    -0.202 N 
ATOM      8  C   UNL     1      33.023  37.328  11.780  1.00  0.00     0.070 C 
ATOM      9  C   UNL     1      33.160  36.246  12.793  1.00  0.00     0.080 A 
ATOM     10  C   UNL     1      32.190  35.784  13.670  1.00  0.00     0.142 A 
ATOM     11  N   UNL     1      34.249  35.497  13.061  1.00  0.00    -0.135 NA
ATOM     12  N   UNL     1      33.961  34.632  14.043  1.00  0.00    -0.061 NA
ENDBRANCH   1   7
BRANCH   4  13
ATOM     13  C   UNL     1      30.182  31.813  18.541  1.00  0.00     0.193 C 
BRANCH  13  14
ATOM     14  O   UNL     1      30.222  30.464  18.270  1.00  0.00    -0.392 OA
ATOM     15  H   UNL     1      30.010  29.954  19.097  1.00  0.00     0.211 HD
ENDBRANCH  13  14
ENDBRANCH   4  13
TORSDOF 3
BEGIN_RES LYS A 135
REMARK  4 active torsions:
REMARK  status: ('A' for Active; 'I' for Inactive)
REMARK    1  A    between atoms: CA   and  CB  
REMARK    2  A    between atoms: CB   and  CG  
REMARK    3  A    between atoms: CG   and  CD  
REMARK    4  A    between atoms: CD   and  CE  
ROOT
ATOM      1  CA  LYS A 135      33.193  34.663   9.290  1.00 25.02     0.186 C 
ENDROOT
BRANCH   1   2
ATOM      2  CB  LYS A 135      32.060  35.360  10.034  1.00 26.63     0.034 C 
BRANCH   2   3
ATOM      3  CG  LYS A 135      30.706  34.752   9.776  1.00 29.45     0.005 C 
BRANCH   3   4
ATOM      4  CD  LYS A 135      30.468  34.586   8.283  1.00 32.00     0.041 C 
BRANCH   4   5
ATOM      5  CE  LYS A 135      29.019  34.873   7.939  1.00 34.25     0.338 C 
ATOM      6  NZ  LYS A 135      28.906  35.561   6.623  1.00 35.99     0.618 N 
ENDBRANCH   4   5
ENDBRANCH   3   4
ENDBRANCH   2   3
ENDBRANCH   1   2
END_RES LYS A 135
BEGIN_RES TYR A 136
REMARK  2 active torsions:
REMARK  status: ('A' for Active; 'I' for Inactive)
REMARK    5  A    between atoms: CA   and  CB  
REMARK    6  A    between atoms: CB   and  CG  
ROOT
ATOM      7  CA  TYR A 136      36.583  36.399   8.994  1.00 26.14     0.191 C 
ENDROOT
BRANCH   7   8
ATOM      8  CB  TYR A 136      37.367  36.835  10.240  1.00 28.16     0.060 C 
BRANCH   8   9
ATOM      9  CG  TYR A 136      36.734  38.011  10.942  1.00 31.88    -0.020 A 
ATOM     10  CD2 TYR A 136      36.711  38.095  12.336  1.00 32.67    -0.002 A 
ATOM     11  CE2 TYR A 136      36.119  39.191  12.978  1.00 33.89     0.027 A 
ATOM     12  CZ  TYR A 136      35.543  40.212  12.219  1.00 34.34     0.131 A 
ATOM     13  OH  TYR A 136      34.957  41.310  12.833  1.00 35.14    -0.190 OA
ATOM     14  CE1 TYR A 136      35.555  40.144  10.833  1.00 35.01     0.027 A 
ATOM     15  CD1 TYR A 136      36.142  39.045  10.205  1.00 33.57    -0.002 A 
ENDBRANCH   8   9
ENDBRANCH   7   8
END_RES TYR A 136
BEGIN_RES ASN A 133
REMARK  2 active torsions:
REMARK  status: ('A' for Active; 'I' for Inactive)
REMARK    7  A    between atoms: CA   and  CB  
REMARK    8  A    between atoms: CB   and  CG  
ROOT
ATOM     16  CA  ASN A 133      31.225  30.257  11.749  1.00 18.15     0.196 C 
ENDROOT
BRANCH  16  17
ATOM     17  CB  ASN A 133      30.092  31.240  11.460  1.00 18.27     0.126 C 
BRANCH  17  18
ATOM     18  CG  ASN A 133      28.751  30.583  11.357  1.00 18.94     0.276 C 
ATOM     19  OD1 ASN A 133      28.572  29.607  10.625  1.00 18.09    -0.269 OA
ATOM     20  ND2 ASN A 133      27.781  31.119  12.096  1.00 18.93    -0.107 N 
ENDBRANCH  17  18
ENDBRANCH  16  17
END_RES ASN A 133
