REMARK VINA RESULT:    -4.091      2.156      3.156
REMARK INTER + INTRA:          -7.824
REMARK INTER:                  -4.640
REMARK INTRA:                  -3.184
REMARK UNBOUND:                -3.254
REMARK SMILES Cc1cn(Cc2cccc(Br)c2)nn1
REMARK SMILES IDX 5 1 4 2 1 3 2 4 3 5 14 6 13 7 6 8 7 9 12 10 8 11 10 12 9 13
REMARK SMILES IDX 11 14
REMARK H PARENT
REMARK Flexibility Score: inf
ROOT
ATOM      1  C   UNL     1      34.562  35.149  14.086  1.00  0.00     0.181 C 
ENDROOT
BRANCH   1   2
ATOM      2  N   UNL     1      34.068  36.382  13.531  1.00  0.00    -0.248 N 
ATOM      3  C   UNL     1      32.817  39.809  13.440  1.00  0.00     0.070 C 
ATOM      4  C   UNL     1      33.301  38.433  13.260  1.00  0.00     0.080 A 
ATOM      5  C   UNL     1      33.717  37.503  14.184  1.00  0.00     0.134 A 
ATOM      6  N   UNL     1      33.421  37.818  12.059  1.00  0.00    -0.136 NA
ATOM      7  N   UNL     1      33.883  36.586  12.238  1.00  0.00    -0.067 NA
ENDBRANCH   1   2
BRANCH   1   8
ATOM      8  C   UNL     1      35.914  34.810  13.617  1.00  0.00    -0.025 A 
ATOM      9  C   UNL     1      36.048  33.841  12.635  1.00  0.00     0.006 A 
ATOM     10  C   UNL     1      37.074  35.389  14.083  1.00  0.00     0.021 A 
ATOM     11  C   UNL     1      37.277  33.463  12.138  1.00  0.00     0.002 A 
ATOM     12  C   UNL     1      38.313  35.018  13.592  1.00  0.00     0.018 A 
ATOM     13  C   UNL     1      38.416  34.048  12.613  1.00  0.00     0.016 A 
ATOM     14  Br  UNL     1      39.858  35.874  14.297  1.00  0.00    -0.051 Br
ENDBRANCH   1   8
TORSDOF 2
BEGIN_RES LYS A 135
REMARK  4 active torsions:
REMARK  status: ('A' for Active; 'I' for Inactive)
REMARK    1  A    between atoms: CA   and  CB  
REMARK    2  A    between atoms: CB   and  CG  
REMARK    3  A    between atoms: CG   and  CD  
REMARK    4  A    between atoms: CD   and  CE  
ROOT
ATOM      1  CA  LYS A 135      33.193  34.663   9.290  1.00 25.02     0.186 C 
ENDROOT
BRANCH   1   2
ATOM      2  CB  LYS A 135      32.060  35.360  10.034  1.00 26.63     0.034 C 
BRANCH   2   3
ATOM      3  CG  LYS A 135      30.856  35.640   9.172  1.00 29.45     0.005 C 
BRANCH   3   4
ATOM      4  CD  LYS A 135      30.319  34.353   8.565  1.00 32.00     0.041 C 
BRANCH   4   5
ATOM      5  CE  LYS A 135      28.985  33.987   9.186  1.00 34.25     0.338 C 
ATOM      6  NZ  LYS A 135      27.855  34.579   8.418  1.00 35.99     0.618 N 
ENDBRANCH   4   5
ENDBRANCH   3   4
ENDBRANCH   2   3
ENDBRANCH   1   2
END_RES LYS A 135
BEGIN_RES TYR A 136
REMARK  2 active torsions:
REMARK  status: ('A' for Active; 'I' for Inactive)
REMARK    5  A    between atoms: CA   and  CB  
REMARK    6  A    between atoms: CB   and  CG  
ROOT
ATOM      7  CA  TYR A 136      36.583  36.399   8.994  1.00 26.14     0.191 C 
ENDROOT
BRANCH   7   8
ATOM      8  CB  TYR A 136      37.367  36.835  10.240  1.00 28.16     0.060 C 
BRANCH   8   9
ATOM      9  CG  TYR A 136      36.889  38.155  10.794  1.00 31.88    -0.020 A 
ATOM     10  CD2 TYR A 136      36.200  39.068   9.993  1.00 32.67    -0.002 A 
ATOM     11  CE2 TYR A 136      35.762  40.292  10.516  1.00 33.89     0.027 A 
ATOM     12  CZ  TYR A 136      36.017  40.606  11.853  1.00 34.34     0.131 A 
ATOM     13  OH  TYR A 136      35.587  41.809  12.395  1.00 35.14    -0.190 OA
ATOM     14  CE1 TYR A 136      36.702  39.711  12.663  1.00 35.01     0.027 A 
ATOM     15  CD1 TYR A 136      37.138  38.498  12.129  1.00 33.57    -0.002 A 
ENDBRANCH   8   9
ENDBRANCH   7   8
END_RES TYR A 136
BEGIN_RES ASN A 133
REMARK  2 active torsions:
REMARK  status: ('A' for Active; 'I' for Inactive)
REMARK    7  A    between atoms: CA   and  CB  
REMARK    8  A    between atoms: CB   and  CG  
ROOT
ATOM     16  CA  ASN A 133      31.225  30.257  11.749  1.00 18.15     0.196 C 
ENDROOT
BRANCH  16  17
ATOM     17  CB  ASN A 133      30.092  31.240  11.460  1.00 18.27     0.126 C 
BRANCH  17  18
ATOM     18  CG  ASN A 133      28.752  30.582  11.347  1.00 18.94     0.276 C 
ATOM     19  OD1 ASN A 133      28.583  29.599  10.622  1.00 18.09    -0.269 OA
ATOM     20  ND2 ASN A 133      27.773  31.124  12.070  1.00 18.93    -0.107 N 
ENDBRANCH  17  18
ENDBRANCH  16  17
END_RES ASN A 133
