REMARK VINA RESULT:    -2.895      7.947     16.325
REMARK INTER + INTRA:          -8.105
REMARK INTER:                  -4.629
REMARK INTRA:                  -3.476
REMARK UNBOUND:                -4.110
REMARK SMILES Cc1cn(CCCCCC(=O)O)nn1
REMARK SMILES IDX 7 1 6 2 5 3 4 4 1 5 2 6 3 7 14 8 13 9 8 10 9 11 10 12 11 13
REMARK SMILES IDX 12 14
REMARK H PARENT 12 15
REMARK Flexibility Score: inf
ROOT
ATOM      1  C   UNL     1      39.549  34.995  13.792  1.00  0.00     0.002 C 
ENDROOT
BRANCH   1   2
ATOM      2  C   UNL     1      40.076  35.734  15.006  1.00  0.00     0.024 C 
BRANCH   2   3
ATOM      3  C   UNL     1      40.497  34.669  16.017  1.00  0.00     0.146 C 
BRANCH   3   4
ATOM      4  N   UNL     1      39.448  34.511  17.034  1.00  0.00    -0.252 N 
ATOM      5  C   UNL     1      37.920  32.798  19.898  1.00  0.00     0.070 C 
ATOM      6  C   UNL     1      38.312  33.679  18.751  1.00  0.00     0.080 A 
ATOM      7  C   UNL     1      39.437  33.529  17.958  1.00  0.00     0.134 A 
ATOM      8  N   UNL     1      37.682  34.756  18.271  1.00  0.00    -0.136 NA
ATOM      9  N   UNL     1      38.379  35.240  17.241  1.00  0.00    -0.067 NA
ENDBRANCH   3   4
ENDBRANCH   2   3
ENDBRANCH   1   2
BRANCH   1  10
ATOM     10  C   UNL     1      38.139  35.446  13.451  1.00  0.00     0.012 C 
BRANCH  10  11
ATOM     11  C   UNL     1      37.199  34.349  13.868  1.00  0.00     0.122 C 
BRANCH  11  12
ATOM     12  C   UNL     1      36.412  33.834  12.724  1.00  0.00     0.303 C 
ATOM     13  O   UNL     1      37.023  33.506  11.677  1.00  0.00    -0.252 OA
BRANCH  12  14
ATOM     14  O   UNL     1      35.036  33.698  12.759  1.00  0.00    -0.481 OA
ATOM     15  H   UNL     1      34.428  34.072  12.042  1.00  0.00     0.296 HD
ENDBRANCH  12  14
ENDBRANCH  11  12
ENDBRANCH  10  11
ENDBRANCH   1  10
TORSDOF 7
BEGIN_RES LYS A 135
REMARK  4 active torsions:
REMARK  status: ('A' for Active; 'I' for Inactive)
REMARK    1  A    between atoms: CA   and  CB  
REMARK    2  A    between atoms: CB   and  CG  
REMARK    3  A    between atoms: CG   and  CD  
REMARK    4  A    between atoms: CD   and  CE  
ROOT
ATOM      1  CA  LYS A 135      33.193  34.663   9.290  1.00 25.02     0.186 C 
ENDROOT
BRANCH   1   2
ATOM      2  CB  LYS A 135      32.060  35.360  10.034  1.00 26.63     0.034 C 
BRANCH   2   3
ATOM      3  CG  LYS A 135      30.708  34.741   9.790  1.00 29.45     0.005 C 
BRANCH   3   4
ATOM      4  CD  LYS A 135      30.469  34.543   8.301  1.00 32.00     0.041 C 
BRANCH   4   5
ATOM      5  CE  LYS A 135      29.023  34.834   7.950  1.00 34.25     0.338 C 
ATOM      6  NZ  LYS A 135      28.919  35.537   6.641  1.00 35.99     0.618 N 
ENDBRANCH   4   5
ENDBRANCH   3   4
ENDBRANCH   2   3
ENDBRANCH   1   2
END_RES LYS A 135
BEGIN_RES TYR A 136
REMARK  2 active torsions:
REMARK  status: ('A' for Active; 'I' for Inactive)
REMARK    5  A    between atoms: CA   and  CB  
REMARK    6  A    between atoms: CB   and  CG  
ROOT
ATOM      7  CA  TYR A 136      36.583  36.399   8.994  1.00 26.14     0.191 C 
ENDROOT
BRANCH   7   8
ATOM      8  CB  TYR A 136      37.367  36.835  10.240  1.00 28.16     0.060 C 
BRANCH   8   9
ATOM      9  CG  TYR A 136      37.094  38.268  10.625  1.00 31.88    -0.020 A 
ATOM     10  CD2 TYR A 136      36.416  39.132   9.762  1.00 32.67    -0.002 A 
ATOM     11  CE2 TYR A 136      36.169  40.462  10.129  1.00 33.89     0.027 A 
ATOM     12  CZ  TYR A 136      36.606  40.932  11.370  1.00 34.34     0.131 A 
ATOM     13  OH  TYR A 136      36.366  42.244  11.757  1.00 35.14    -0.190 OA
ATOM     14  CE1 TYR A 136      37.282  40.088  12.238  1.00 35.01     0.027 A 
ATOM     15  CD1 TYR A 136      37.528  38.768  11.860  1.00 33.57    -0.002 A 
ENDBRANCH   8   9
ENDBRANCH   7   8
END_RES TYR A 136
BEGIN_RES ASN A 133
REMARK  2 active torsions:
REMARK  status: ('A' for Active; 'I' for Inactive)
REMARK    7  A    between atoms: CA   and  CB  
REMARK    8  A    between atoms: CB   and  CG  
ROOT
ATOM     16  CA  ASN A 133      31.225  30.257  11.749  1.00 18.15     0.196 C 
ENDROOT
BRANCH  16  17
ATOM     17  CB  ASN A 133      30.092  31.240  11.460  1.00 18.27     0.126 C 
BRANCH  17  18
ATOM     18  CG  ASN A 133      28.755  30.579  11.327  1.00 18.94     0.276 C 
ATOM     19  OD1 ASN A 133      28.589  29.621  10.570  1.00 18.09    -0.269 OA
ATOM     20  ND2 ASN A 133      27.775  31.092  12.071  1.00 18.93    -0.107 N 
ENDBRANCH  17  18
ENDBRANCH  16  17
END_RES ASN A 133
