REMARK VINA RESULT:    -3.744      3.177      4.670
REMARK INTER + INTRA:          -7.436
REMARK INTER:                  -4.181
REMARK INTRA:                  -3.254
REMARK UNBOUND:                -3.254
REMARK SMILES Cc1cn(Cc2cccc(Br)c2)nn1
REMARK SMILES IDX 5 1 4 2 1 3 2 4 3 5 14 6 13 7 6 8 7 9 12 10 8 11 10 12 9 13
REMARK SMILES IDX 11 14
REMARK H PARENT
REMARK Flexibility Score: inf
ROOT
ATOM      1  C   UNL     1      29.677  30.955  18.684  1.00  0.00     0.181 C 
ENDROOT
BRANCH   1   2
ATOM      2  N   UNL     1      28.322  30.679  18.280  1.00  0.00    -0.248 N 
ATOM      3  C   UNL     1      25.402  28.732  17.280  1.00  0.00     0.070 C 
ATOM      4  C   UNL     1      26.449  29.689  17.663  1.00  0.00     0.080 A 
ATOM      5  C   UNL     1      27.764  29.486  18.010  1.00  0.00     0.134 A 
ATOM      6  N   UNL     1      26.265  31.029  17.741  1.00  0.00    -0.136 NA
ATOM      7  N   UNL     1      27.399  31.610  18.112  1.00  0.00    -0.067 NA
ENDBRANCH   1   2
BRANCH   1   8
ATOM      8  C   UNL     1      30.386  31.837  17.745  1.00  0.00    -0.025 A 
ATOM      9  C   UNL     1      30.549  31.412  16.436  1.00  0.00     0.006 A 
ATOM     10  C   UNL     1      30.909  33.069  18.071  1.00  0.00     0.021 A 
ATOM     11  C   UNL     1      31.201  32.177  15.491  1.00  0.00     0.002 A 
ATOM     12  C   UNL     1      31.566  33.844  17.131  1.00  0.00     0.018 A 
ATOM     13  C   UNL     1      31.714  33.396  15.832  1.00  0.00     0.016 A 
ATOM     14  Br  UNL     1      32.254  35.532  17.673  1.00  0.00    -0.051 Br
ENDBRANCH   1   8
TORSDOF 2
BEGIN_RES LYS A 135
REMARK  4 active torsions:
REMARK  status: ('A' for Active; 'I' for Inactive)
REMARK    1  A    between atoms: CA   and  CB  
REMARK    2  A    between atoms: CB   and  CG  
REMARK    3  A    between atoms: CG   and  CD  
REMARK    4  A    between atoms: CD   and  CE  
ROOT
ATOM      1  CA  LYS A 135      33.193  34.663   9.290  1.00 25.02     0.186 C 
ENDROOT
BRANCH   1   2
ATOM      2  CB  LYS A 135      32.060  35.360  10.034  1.00 26.63     0.034 C 
BRANCH   2   3
ATOM      3  CG  LYS A 135      30.732  34.661   9.900  1.00 29.45     0.005 C 
BRANCH   3   4
ATOM      4  CD  LYS A 135      30.325  34.557   8.438  1.00 32.00     0.041 C 
BRANCH   4   5
ATOM      5  CE  LYS A 135      28.815  34.531   8.305  1.00 34.25     0.338 C 
ATOM      6  NZ  LYS A 135      28.188  33.821   9.454  1.00 35.99     0.618 N 
ENDBRANCH   4   5
ENDBRANCH   3   4
ENDBRANCH   2   3
ENDBRANCH   1   2
END_RES LYS A 135
BEGIN_RES TYR A 136
REMARK  2 active torsions:
REMARK  status: ('A' for Active; 'I' for Inactive)
REMARK    5  A    between atoms: CA   and  CB  
REMARK    6  A    between atoms: CB   and  CG  
ROOT
ATOM      7  CA  TYR A 136      36.583  36.399   8.994  1.00 26.14     0.191 C 
ENDROOT
BRANCH   7   8
ATOM      8  CB  TYR A 136      37.367  36.835  10.240  1.00 28.16     0.060 C 
BRANCH   8   9
ATOM      9  CG  TYR A 136      37.177  38.297  10.563  1.00 31.88    -0.020 A 
ATOM     10  CD2 TYR A 136      36.360  38.704  11.619  1.00 32.67    -0.002 A 
ATOM     11  CE2 TYR A 136      36.189  40.064  11.910  1.00 33.89     0.027 A 
ATOM     12  CZ  TYR A 136      36.842  41.026  11.135  1.00 34.34     0.131 A 
ATOM     13  OH  TYR A 136      36.693  42.379  11.409  1.00 35.14    -0.190 OA
ATOM     14  CE1 TYR A 136      37.657  40.640  10.081  1.00 35.01     0.027 A 
ATOM     15  CD1 TYR A 136      37.814  39.282   9.798  1.00 33.57    -0.002 A 
ENDBRANCH   8   9
ENDBRANCH   7   8
END_RES TYR A 136
BEGIN_RES ASN A 133
REMARK  2 active torsions:
REMARK  status: ('A' for Active; 'I' for Inactive)
REMARK    7  A    between atoms: CA   and  CB  
REMARK    8  A    between atoms: CB   and  CG  
ROOT
ATOM     16  CA  ASN A 133      31.225  30.257  11.749  1.00 18.15     0.196 C 
ENDROOT
BRANCH  16  17
ATOM     17  CB  ASN A 133      30.092  31.240  11.460  1.00 18.27     0.126 C 
BRANCH  17  18
ATOM     18  CG  ASN A 133      28.752  30.582  11.350  1.00 18.94     0.276 C 
ATOM     19  OD1 ASN A 133      28.581  29.598  10.628  1.00 18.09    -0.269 OA
ATOM     20  ND2 ASN A 133      27.774  31.127  12.072  1.00 18.93    -0.107 N 
ENDBRANCH  17  18
ENDBRANCH  16  17
END_RES ASN A 133
