REMARK VINA RESULT:    -4.777      2.721      3.880
REMARK INTER + INTRA:          -8.143
REMARK INTER:                  -4.941
REMARK INTRA:                  -3.202
REMARK UNBOUND:                -2.529
REMARK SMILES Cc1cn(Cc2cccc(C#N)c2)nn1
REMARK SMILES IDX 6 1 7 2 8 3 9 4 10 5 13 6 5 7 4 8 1 9 2 10 3 11 15 12 14 13
REMARK SMILES IDX 11 14 12 15
REMARK H PARENT
REMARK Flexibility Score: inf
ROOT
ATOM      1  C   UNL     1      36.678  35.850  15.533  1.00  0.00    -0.025 A 
ATOM      2  C   UNL     1      35.324  36.080  15.519  1.00  0.00     0.006 A 
ATOM      3  C   UNL     1      34.480  35.554  14.561  1.00  0.00     0.002 A 
ATOM      4  C   UNL     1      35.035  34.762  13.575  1.00  0.00     0.019 A 
ATOM      5  C   UNL     1      36.389  34.504  13.547  1.00  0.00     0.052 A 
ATOM      6  C   UNL     1      37.206  35.055  14.536  1.00  0.00     0.025 A 
ENDROOT
BRANCH   1   7
ATOM      7  C   UNL     1      37.582  36.409  16.556  1.00  0.00     0.181 C 
BRANCH   7   8
ATOM      8  N   UNL     1      38.355  35.421  17.237  1.00  0.00    -0.248 N 
ATOM      9  C   UNL     1      38.699  32.664  19.598  1.00  0.00     0.070 C 
ATOM     10  C   UNL     1      38.850  33.760  18.586  1.00  0.00     0.080 A 
ATOM     11  C   UNL     1      37.842  34.559  18.133  1.00  0.00     0.134 A 
ATOM     12  N   UNL     1      39.973  34.147  17.954  1.00  0.00    -0.136 NA
ATOM     13  N   UNL     1      39.655  35.143  17.150  1.00  0.00    -0.067 NA
ENDBRANCH   7   8
ENDBRANCH   1   7
BRANCH   5  14
ATOM     14  C   UNL     1      36.899  33.673  12.496  1.00  0.00     0.099 C 
ATOM     15  N   UNL     1      37.296  32.991  11.653  1.00  0.00    -0.192 NA
ENDBRANCH   5  14
TORSDOF 3
BEGIN_RES LYS A 135
REMARK  4 active torsions:
REMARK  status: ('A' for Active; 'I' for Inactive)
REMARK    1  A    between atoms: CA   and  CB  
REMARK    2  A    between atoms: CB   and  CG  
REMARK    3  A    between atoms: CG   and  CD  
REMARK    4  A    between atoms: CD   and  CE  
ROOT
ATOM      1  CA  LYS A 135      33.193  34.663   9.290  1.00 25.02     0.186 C 
ENDROOT
BRANCH   1   2
ATOM      2  CB  LYS A 135      32.060  35.360  10.034  1.00 26.63     0.034 C 
BRANCH   2   3
ATOM      3  CG  LYS A 135      30.706  34.750   9.778  1.00 29.45     0.005 C 
BRANCH   3   4
ATOM      4  CD  LYS A 135      30.471  34.573   8.286  1.00 32.00     0.041 C 
BRANCH   4   5
ATOM      5  CE  LYS A 135      29.024  34.864   7.937  1.00 34.25     0.338 C 
ATOM      6  NZ  LYS A 135      28.912  35.485   6.588  1.00 35.99     0.618 N 
ENDBRANCH   4   5
ENDBRANCH   3   4
ENDBRANCH   2   3
ENDBRANCH   1   2
END_RES LYS A 135
BEGIN_RES TYR A 136
REMARK  2 active torsions:
REMARK  status: ('A' for Active; 'I' for Inactive)
REMARK    5  A    between atoms: CA   and  CB  
REMARK    6  A    between atoms: CB   and  CG  
ROOT
ATOM      7  CA  TYR A 136      36.583  36.399   8.994  1.00 26.14     0.191 C 
ENDROOT
BRANCH   7   8
ATOM      8  CB  TYR A 136      37.367  36.835  10.240  1.00 28.16     0.060 C 
BRANCH   8   9
ATOM      9  CG  TYR A 136      36.700  37.970  10.977  1.00 31.88    -0.020 A 
ATOM     10  CD2 TYR A 136      36.107  39.031  10.289  1.00 32.67    -0.002 A 
ATOM     11  CE2 TYR A 136      35.492  40.081  10.983  1.00 33.89     0.027 A 
ATOM     12  CZ  TYR A 136      35.470  40.070  12.380  1.00 34.34     0.131 A 
ATOM     13  OH  TYR A 136      34.860  41.096  13.089  1.00 35.14    -0.190 OA
ATOM     14  CE1 TYR A 136      36.055  39.025  13.080  1.00 35.01     0.027 A 
ATOM     15  CD1 TYR A 136      36.670  37.988  12.378  1.00 33.57    -0.002 A 
ENDBRANCH   8   9
ENDBRANCH   7   8
END_RES TYR A 136
BEGIN_RES ASN A 133
REMARK  2 active torsions:
REMARK  status: ('A' for Active; 'I' for Inactive)
REMARK    7  A    between atoms: CA   and  CB  
REMARK    8  A    between atoms: CB   and  CG  
ROOT
ATOM     16  CA  ASN A 133      31.225  30.257  11.749  1.00 18.15     0.196 C 
ENDROOT
BRANCH  16  17
ATOM     17  CB  ASN A 133      30.092  31.240  11.460  1.00 18.27     0.126 C 
BRANCH  17  18
ATOM     18  CG  ASN A 133      28.754  30.580  11.336  1.00 18.94     0.276 C 
ATOM     19  OD1 ASN A 133      28.579  29.631  10.570  1.00 18.09    -0.269 OA
ATOM     20  ND2 ASN A 133      27.783  31.084  12.096  1.00 18.93    -0.107 N 
ENDBRANCH  17  18
ENDBRANCH  16  17
END_RES ASN A 133
