REMARK VINA RESULT:    -3.729      4.459      7.827
REMARK INTER + INTRA:          -7.139
REMARK INTER:                  -4.894
REMARK INTRA:                  -2.245
REMARK UNBOUND:                -2.974
REMARK SMILES COc1ccc(-n2cc(C)nn2)cc1
REMARK SMILES IDX 6 1 5 2 4 3 3 4 14 5 13 6 7 7 10 8 9 9 8 10 11 11 12 12 2 13
REMARK SMILES IDX 1 14
REMARK H PARENT
REMARK Flexibility Score: inf
ROOT
ATOM      1  C   UNL     1      25.591  35.653   8.868  1.00  0.00     0.067 A 
ATOM      2  C   UNL     1      26.541  34.710   8.531  1.00  0.00     0.032 A 
ATOM      3  C   UNL     1      27.486  34.947   7.553  1.00  0.00     0.048 A 
ATOM      4  C   UNL     1      27.527  36.140   6.862  1.00  0.00     0.119 A 
ATOM      5  C   UNL     1      26.582  37.084   7.195  1.00  0.00     0.048 A 
ATOM      6  C   UNL     1      25.639  36.845   8.174  1.00  0.00     0.032 A 
ENDROOT
BRANCH   1   7
ATOM      7  N   UNL     1      24.616  35.408   9.878  1.00  0.00    -0.220 N 
ATOM      8  C   UNL     1      23.414  34.699  13.263  1.00  0.00     0.070 C 
ATOM      9  C   UNL     1      23.640  34.990  11.801  1.00  0.00     0.080 A 
ATOM     10  C   UNL     1      24.850  35.173  11.179  1.00  0.00     0.140 A 
ATOM     11  N   UNL     1      22.685  35.117  10.865  1.00  0.00    -0.135 NA
ATOM     12  N   UNL     1      23.301  35.366   9.730  1.00  0.00    -0.062 NA
ENDBRANCH   1   7
BRANCH   4  13
ATOM     13  O   UNL     1      28.484  36.381   5.870  1.00  0.00    -0.497 OA
ATOM     14  C   UNL     1      28.641  37.655   5.278  1.00  0.00     0.278 C 
ENDBRANCH   4  13
TORSDOF 2
BEGIN_RES LYS A 135
REMARK  4 active torsions:
REMARK  status: ('A' for Active; 'I' for Inactive)
REMARK    1  A    between atoms: CA   and  CB  
REMARK    2  A    between atoms: CB   and  CG  
REMARK    3  A    between atoms: CG   and  CD  
REMARK    4  A    between atoms: CD   and  CE  
ROOT
ATOM      1  CA  LYS A 135      33.193  34.663   9.290  1.00 25.02     0.186 C 
ENDROOT
BRANCH   1   2
ATOM      2  CB  LYS A 135      32.060  35.360  10.034  1.00 26.63     0.034 C 
BRANCH   2   3
ATOM      3  CG  LYS A 135      30.704  35.132   9.417  1.00 29.45     0.005 C 
BRANCH   3   4
ATOM      4  CD  LYS A 135      29.682  34.773  10.485  1.00 32.00     0.041 C 
BRANCH   4   5
ATOM      5  CE  LYS A 135      29.050  36.026  11.060  1.00 34.25     0.338 C 
ATOM      6  NZ  LYS A 135      28.962  37.102  10.034  1.00 35.99     0.618 N 
ENDBRANCH   4   5
ENDBRANCH   3   4
ENDBRANCH   2   3
ENDBRANCH   1   2
END_RES LYS A 135
BEGIN_RES TYR A 136
REMARK  2 active torsions:
REMARK  status: ('A' for Active; 'I' for Inactive)
REMARK    5  A    between atoms: CA   and  CB  
REMARK    6  A    between atoms: CB   and  CG  
ROOT
ATOM      7  CA  TYR A 136      36.583  36.399   8.994  1.00 26.14     0.191 C 
ENDROOT
BRANCH   7   8
ATOM      8  CB  TYR A 136      37.367  36.835  10.240  1.00 28.16     0.060 C 
BRANCH   8   9
ATOM      9  CG  TYR A 136      37.208  38.305  10.541  1.00 31.88    -0.020 A 
ATOM     10  CD2 TYR A 136      37.774  38.875  11.683  1.00 32.67    -0.002 A 
ATOM     11  CE2 TYR A 136      37.619  40.241  11.954  1.00 33.89     0.027 A 
ATOM     12  CZ  TYR A 136      36.890  41.045  11.074  1.00 34.34     0.131 A 
ATOM     13  OH  TYR A 136      36.729  42.401  11.319  1.00 35.14    -0.190 OA
ATOM     14  CE1 TYR A 136      36.319  40.495   9.935  1.00 35.01     0.027 A 
ATOM     15  CD1 TYR A 136      36.475  39.132   9.679  1.00 33.57    -0.002 A 
ENDBRANCH   8   9
ENDBRANCH   7   8
END_RES TYR A 136
BEGIN_RES ASN A 133
REMARK  2 active torsions:
REMARK  status: ('A' for Active; 'I' for Inactive)
REMARK    7  A    between atoms: CA   and  CB  
REMARK    8  A    between atoms: CB   and  CG  
ROOT
ATOM     16  CA  ASN A 133      31.225  30.257  11.749  1.00 18.15     0.196 C 
ENDROOT
BRANCH  16  17
ATOM     17  CB  ASN A 133      30.092  31.240  11.460  1.00 18.27     0.126 C 
BRANCH  17  18
ATOM     18  CG  ASN A 133      28.750  30.583  11.361  1.00 18.94     0.276 C 
ATOM     19  OD1 ASN A 133      28.567  29.613  10.624  1.00 18.09    -0.269 OA
ATOM     20  ND2 ASN A 133      27.785  31.114  12.111  1.00 18.93    -0.107 N 
ENDBRANCH  17  18
ENDBRANCH  16  17
END_RES ASN A 133
