REMARK VINA RESULT:    -4.685      2.380      3.610
REMARK INTER + INTRA:          -9.073
REMARK INTER:                  -5.806
REMARK INTRA:                  -3.267
REMARK UNBOUND:                -3.429
REMARK SMILES Cc1cn(-c2cccc(C=CC(=O)O)c2)nn1
REMARK SMILES IDX 10 1 11 2 9 3 5 4 15 5 6 6 7 7 8 8 4 9 1 10 2 11 3 12 17 13
REMARK SMILES IDX 16 14 12 15 13 16 14 17
REMARK H PARENT 14 18
REMARK Flexibility Score: inf
ROOT
ATOM      1  C   UNL     1      36.110  33.898  12.767  1.00  0.00     0.015 C 
ATOM      2  C   UNL     1      37.299  33.664  12.421  1.00  0.00     0.094 C 
ENDROOT
BRANCH   1   3
ATOM      3  C   UNL     1      35.444  35.013  13.359  1.00  0.00    -0.023 A 
ATOM      4  C   UNL     1      33.963  36.924  13.385  1.00  0.00     0.067 A 
ATOM      5  C   UNL     1      34.499  35.792  12.758  1.00  0.00     0.036 A 
ATOM      6  C   UNL     1      34.409  37.246  14.643  1.00  0.00     0.028 A 
ATOM      7  C   UNL     1      35.360  36.470  15.269  1.00  0.00     0.003 A 
ATOM      8  C   UNL     1      35.878  35.371  14.654  1.00  0.00     0.008 A 
BRANCH   4   9
ATOM      9  N   UNL     1      32.982  37.711  12.721  1.00  0.00    -0.220 N 
ATOM     10  C   UNL     1      30.676  38.588   9.979  1.00  0.00     0.070 C 
ATOM     11  C   UNL     1      31.518  38.449  11.202  1.00  0.00     0.080 A 
ATOM     12  C   UNL     1      32.430  37.461  11.507  1.00  0.00     0.140 A 
ATOM     13  N   UNL     1      31.549  39.284  12.265  1.00  0.00    -0.135 NA
ATOM     14  N   UNL     1      32.419  38.837  13.158  1.00  0.00    -0.062 NA
ENDBRANCH   4   9
ENDBRANCH   1   3
BRANCH   2  15
ATOM     15  C   UNL     1      38.538  34.349  12.444  1.00  0.00     0.328 C 
ATOM     16  O   UNL     1      39.444  34.293  13.299  1.00  0.00    -0.247 OA
BRANCH  15  17
ATOM     17  O   UNL     1      38.843  35.244  11.357  1.00  0.00    -0.478 OA
ATOM     18  H   UNL     1      38.105  35.913  11.128  1.00  0.00     0.297 HD
ENDBRANCH  15  17
ENDBRANCH   2  15
TORSDOF 4
BEGIN_RES LYS A 135
REMARK  4 active torsions:
REMARK  status: ('A' for Active; 'I' for Inactive)
REMARK    1  A    between atoms: CA   and  CB  
REMARK    2  A    between atoms: CB   and  CG  
REMARK    3  A    between atoms: CG   and  CD  
REMARK    4  A    between atoms: CD   and  CE  
ROOT
ATOM      1  CA  LYS A 135      33.193  34.663   9.290  1.00 25.02     0.186 C 
ENDROOT
BRANCH   1   2
ATOM      2  CB  LYS A 135      32.060  35.360  10.034  1.00 26.63     0.034 C 
BRANCH   2   3
ATOM      3  CG  LYS A 135      30.695  34.813   9.703  1.00 29.45     0.005 C 
BRANCH   3   4
ATOM      4  CD  LYS A 135      30.592  34.490   8.220  1.00 32.00     0.041 C 
BRANCH   4   5
ATOM      5  CE  LYS A 135      29.311  35.059   7.640  1.00 34.25     0.338 C 
ATOM      6  NZ  LYS A 135      28.125  34.623   8.428  1.00 35.99     0.618 N 
ENDBRANCH   4   5
ENDBRANCH   3   4
ENDBRANCH   2   3
ENDBRANCH   1   2
END_RES LYS A 135
BEGIN_RES TYR A 136
REMARK  2 active torsions:
REMARK  status: ('A' for Active; 'I' for Inactive)
REMARK    5  A    between atoms: CA   and  CB  
REMARK    6  A    between atoms: CB   and  CG  
ROOT
ATOM      7  CA  TYR A 136      36.583  36.399   8.994  1.00 26.14     0.191 C 
ENDROOT
BRANCH   7   8
ATOM      8  CB  TYR A 136      37.367  36.835  10.240  1.00 28.16     0.060 C 
BRANCH   8   9
ATOM      9  CG  TYR A 136      36.757  38.037  10.919  1.00 31.88    -0.020 A 
ATOM     10  CD2 TYR A 136      37.154  38.422  12.201  1.00 32.67    -0.002 A 
ATOM     11  CE2 TYR A 136      36.579  39.539  12.823  1.00 33.89     0.027 A 
ATOM     12  CZ  TYR A 136      35.598  40.277  12.156  1.00 34.34     0.131 A 
ATOM     13  OH  TYR A 136      35.020  41.390  12.750  1.00 35.14    -0.190 OA
ATOM     14  CE1 TYR A 136      35.190  39.907  10.882  1.00 35.01     0.027 A 
ATOM     15  CD1 TYR A 136      35.765  38.789  10.275  1.00 33.57    -0.002 A 
ENDBRANCH   8   9
ENDBRANCH   7   8
END_RES TYR A 136
BEGIN_RES ASN A 133
REMARK  2 active torsions:
REMARK  status: ('A' for Active; 'I' for Inactive)
REMARK    7  A    between atoms: CA   and  CB  
REMARK    8  A    between atoms: CB   and  CG  
ROOT
ATOM     16  CA  ASN A 133      31.225  30.257  11.749  1.00 18.15     0.196 C 
ENDROOT
BRANCH  16  17
ATOM     17  CB  ASN A 133      30.092  31.240  11.460  1.00 18.27     0.126 C 
BRANCH  17  18
ATOM     18  CG  ASN A 133      28.756  30.579  11.323  1.00 18.94     0.276 C 
ATOM     19  OD1 ASN A 133      28.594  29.616  10.570  1.00 18.09    -0.269 OA
ATOM     20  ND2 ASN A 133      27.771  31.097  12.056  1.00 18.93    -0.107 N 
ENDBRANCH  17  18
ENDBRANCH  16  17
END_RES ASN A 133
