REMARK VINA RESULT:    -4.414      9.279     14.467
REMARK INTER + INTRA:          -8.747
REMARK INTER:                  -5.296
REMARK INTRA:                  -3.450
REMARK UNBOUND:                -3.429
REMARK SMILES Cc1cn(-c2cccc(C=CC(=O)O)c2)nn1
REMARK SMILES IDX 10 1 11 2 9 3 5 4 15 5 6 6 7 7 8 8 4 9 1 10 2 11 3 12 17 13
REMARK SMILES IDX 16 14 12 15 13 16 14 17
REMARK H PARENT 14 18
REMARK Flexibility Score: inf
ROOT
ATOM      1  C   UNL     1      21.974  33.157  -1.711  1.00  0.00     0.015 C 
ATOM      2  C   UNL     1      22.228  32.523  -0.652  1.00  0.00     0.094 C 
ENDROOT
BRANCH   1   3
ATOM      3  C   UNL     1      22.131  34.516  -2.122  1.00  0.00    -0.023 A 
ATOM      4  C   UNL     1      23.380  36.512  -2.672  1.00  0.00     0.067 A 
ATOM      5  C   UNL     1      23.316  35.148  -2.359  1.00  0.00     0.036 A 
ATOM      6  C   UNL     1      22.206  37.221  -2.741  1.00  0.00     0.028 A 
ATOM      7  C   UNL     1      20.997  36.601  -2.509  1.00  0.00     0.003 A 
ATOM      8  C   UNL     1      20.943  35.274  -2.204  1.00  0.00     0.008 A 
BRANCH   4   9
ATOM      9  N   UNL     1      24.636  37.133  -2.909  1.00  0.00    -0.220 N 
ATOM     10  C   UNL     1      28.187  37.883  -2.246  1.00  0.00     0.070 C 
ATOM     11  C   UNL     1      26.779  37.741  -2.716  1.00  0.00     0.080 A 
ATOM     12  C   UNL     1      25.767  36.977  -2.175  1.00  0.00     0.140 A 
ATOM     13  N   UNL     1      26.215  38.349  -3.785  1.00  0.00    -0.135 NA
ATOM     14  N   UNL     1      24.947  37.981  -3.888  1.00  0.00    -0.062 NA
ENDBRANCH   4   9
ENDBRANCH   1   3
BRANCH   2  15
ATOM     15  C   UNL     1      22.768  32.811   0.624  1.00  0.00     0.328 C 
ATOM     16  O   UNL     1      23.090  33.916   1.103  1.00  0.00    -0.247 OA
BRANCH  15  17
ATOM     17  O   UNL     1      22.997  31.716   1.532  1.00  0.00    -0.478 OA
ATOM     18  H   UNL     1      22.233  31.042   1.598  1.00  0.00     0.297 HD
ENDBRANCH  15  17
ENDBRANCH   2  15
TORSDOF 4
BEGIN_RES LYS A 135
REMARK  4 active torsions:
REMARK  status: ('A' for Active; 'I' for Inactive)
REMARK    1  A    between atoms: CA   and  CB  
REMARK    2  A    between atoms: CB   and  CG  
REMARK    3  A    between atoms: CG   and  CD  
REMARK    4  A    between atoms: CD   and  CE  
ROOT
ATOM      1  CA  LYS A 135      33.193  34.663   9.290  1.00 25.02     0.186 C 
ENDROOT
BRANCH   1   2
ATOM      2  CB  LYS A 135      32.060  35.360  10.034  1.00 26.63     0.034 C 
BRANCH   2   3
ATOM      3  CG  LYS A 135      30.821  35.556   9.198  1.00 29.45     0.005 C 
BRANCH   3   4
ATOM      4  CD  LYS A 135      30.156  34.221   8.904  1.00 32.00     0.041 C 
BRANCH   4   5
ATOM      5  CE  LYS A 135      28.710  34.425   8.494  1.00 34.25     0.338 C 
ATOM      6  NZ  LYS A 135      27.783  33.735   9.434  1.00 35.99     0.618 N 
ENDBRANCH   4   5
ENDBRANCH   3   4
ENDBRANCH   2   3
ENDBRANCH   1   2
END_RES LYS A 135
BEGIN_RES TYR A 136
REMARK  2 active torsions:
REMARK  status: ('A' for Active; 'I' for Inactive)
REMARK    5  A    between atoms: CA   and  CB  
REMARK    6  A    between atoms: CB   and  CG  
ROOT
ATOM      7  CA  TYR A 136      36.583  36.399   8.994  1.00 26.14     0.191 C 
ENDROOT
BRANCH   7   8
ATOM      8  CB  TYR A 136      37.367  36.835  10.240  1.00 28.16     0.060 C 
BRANCH   8   9
ATOM      9  CG  TYR A 136      37.228  38.310  10.526  1.00 31.88    -0.020 A 
ATOM     10  CD2 TYR A 136      38.225  39.215  10.158  1.00 32.67    -0.002 A 
ATOM     11  CE2 TYR A 136      38.087  40.583  10.430  1.00 33.89     0.027 A 
ATOM     12  CZ  TYR A 136      36.940  41.049  11.077  1.00 34.34     0.131 A 
ATOM     13  OH  TYR A 136      36.779  42.401  11.351  1.00 35.14    -0.190 OA
ATOM     14  CE1 TYR A 136      35.940  40.164  11.452  1.00 35.01     0.027 A 
ATOM     15  CD1 TYR A 136      36.092  38.803  11.181  1.00 33.57    -0.002 A 
ENDBRANCH   8   9
ENDBRANCH   7   8
END_RES TYR A 136
BEGIN_RES ASN A 133
REMARK  2 active torsions:
REMARK  status: ('A' for Active; 'I' for Inactive)
REMARK    7  A    between atoms: CA   and  CB  
REMARK    8  A    between atoms: CB   and  CG  
ROOT
ATOM     16  CA  ASN A 133      31.225  30.257  11.749  1.00 18.15     0.196 C 
ENDROOT
BRANCH  16  17
ATOM     17  CB  ASN A 133      30.092  31.240  11.460  1.00 18.27     0.126 C 
BRANCH  17  18
ATOM     18  CG  ASN A 133      28.749  30.585  11.370  1.00 18.94     0.276 C 
ATOM     19  OD1 ASN A 133      28.569  29.591  10.664  1.00 18.09    -0.269 OA
ATOM     20  ND2 ASN A 133      27.778  31.143  12.093  1.00 18.93    -0.107 N 
ENDBRANCH  17  18
ENDBRANCH  16  17
END_RES ASN A 133
