REMARK VINA RESULT:    -5.898      3.247      5.053
REMARK INTER + INTRA:         -10.942
REMARK INTER:                  -7.237
REMARK INTRA:                  -3.705
REMARK UNBOUND:                -3.836
REMARK SMILES Cc1cn(-c2ccc(-c3c4ccc(=O)cc-4oc4cc(O)ccc34)c(C(=O)[O-])c2)nn1
REMARK SMILES IDX 9 1 24 2 23 3 22 4 20 5 19 6 18 7 17 8 16 9 15 10 13 11
REMARK SMILES IDX 14 12 12 13 11 14 10 15 8 16 5 17 29 18 6 19 25 20 7 21 4 22
REMARK SMILES IDX 1 23 2 24 3 25 31 26 30 27 26 28 27 29 28 30 21 31
REMARK H PARENT 21 32
REMARK Flexibility Score: inf
ROOT
ATOM      1  C   UNL     1      36.321  36.360  14.289  1.00  0.00     0.004 A 
ATOM      2  C   UNL     1      37.038  35.318  13.741  1.00  0.00     0.026 A 
ATOM      3  C   UNL     1      38.406  35.267  13.902  1.00  0.00     0.016 A 
ATOM      4  C   UNL     1      39.166  34.238  13.368  1.00  0.00     0.047 A 
ATOM      5  C   UNL     1      38.513  33.251  12.661  1.00  0.00     0.119 A 
ATOM      6  C   UNL     1      37.144  33.301  12.499  1.00  0.00     0.093 A 
ATOM      7  C   UNL     1      36.367  34.331  13.032  1.00  0.00     0.139 A 
ATOM      8  O   UNL     1      35.066  34.347  12.858  1.00  0.00    -0.456 OA
ATOM      9  C   UNL     1      34.307  35.283  13.335  1.00  0.00     0.139 A 
ATOM     10  C   UNL     1      32.943  35.332  13.174  1.00  0.00     0.099 A 
ATOM     11  C   UNL     1      32.247  36.380  13.729  1.00  0.00     0.182 A 
ATOM     12  O   UNL     1      31.001  36.417  13.576  1.00  0.00    -0.290 OA
ATOM     13  C   UNL     1      32.866  37.389  14.444  1.00  0.00     0.053 A 
ATOM     14  C   UNL     1      34.229  37.403  14.645  1.00  0.00     0.016 A 
ATOM     15  C   UNL     1      34.956  36.359  14.097  1.00  0.00     0.026 A 
ENDROOT
BRANCH   1  16
ATOM     16  C   UNL     1      37.029  37.384  15.028  1.00  0.00    -0.008 A 
ATOM     17  C   UNL     1      38.385  39.322  16.515  1.00  0.00     0.067 A 
ATOM     18  C   UNL     1      37.900  38.191  17.138  1.00  0.00     0.039 A 
ATOM     19  C   UNL     1      38.200  39.495  15.152  1.00  0.00     0.029 A 
ATOM     20  C   UNL     1      37.231  37.244  16.385  1.00  0.00     0.007 A 
ATOM     21  C   UNL     1      37.525  38.527  14.427  1.00  0.00     0.012 A 
BRANCH  17  22
ATOM     22  N   UNL     1      39.081  40.329  17.238  1.00  0.00    -0.220 N 
ATOM     23  C   UNL     1      41.771  42.817  17.592  1.00  0.00     0.070 C 
ATOM     24  C   UNL     1      40.603  41.895  17.712  1.00  0.00     0.080 A 
ATOM     25  C   UNL     1      40.178  40.987  16.763  1.00  0.00     0.140 A 
ATOM     26  N   UNL     1      39.745  41.760  18.738  1.00  0.00    -0.135 NA
ATOM     27  N   UNL     1      38.853  40.821  18.424  1.00  0.00    -0.062 NA
ENDBRANCH  17  22
BRANCH  20  28
ATOM     28  C   UNL     1      36.724  36.053  17.057  1.00  0.00     0.072 C 
ATOM     29  O   UNL     1      37.434  35.034  17.221  1.00  0.00    -0.545 OA
ATOM     30  O   UNL     1      35.425  36.006  17.544  1.00  0.00    -0.545 OA
ENDBRANCH  20  28
ENDBRANCH   1  16
BRANCH   5  31
ATOM     31  O   UNL     1      39.274  32.204  12.116  1.00  0.00    -0.508 OA
ATOM     32  H   UNL     1      38.859  31.579  11.440  1.00  0.00     0.293 HD
ENDBRANCH   5  31
TORSDOF 4
BEGIN_RES LYS A 135
REMARK  4 active torsions:
REMARK  status: ('A' for Active; 'I' for Inactive)
REMARK    1  A    between atoms: CA   and  CB  
REMARK    2  A    between atoms: CB   and  CG  
REMARK    3  A    between atoms: CG   and  CD  
REMARK    4  A    between atoms: CD   and  CE  
ROOT
ATOM      1  CA  LYS A 135      33.193  34.663   9.290  1.00 25.02     0.186 C 
ENDROOT
BRANCH   1   2
ATOM      2  CB  LYS A 135      32.060  35.360  10.034  1.00 26.63     0.034 C 
BRANCH   2   3
ATOM      3  CG  LYS A 135      30.732  34.660   9.901  1.00 29.45     0.005 C 
BRANCH   3   4
ATOM      4  CD  LYS A 135      30.329  34.547   8.439  1.00 32.00     0.041 C 
BRANCH   4   5
ATOM      5  CE  LYS A 135      28.818  34.525   8.303  1.00 34.25     0.338 C 
ATOM      6  NZ  LYS A 135      28.187  33.821   9.454  1.00 35.99     0.618 N 
ENDBRANCH   4   5
ENDBRANCH   3   4
ENDBRANCH   2   3
ENDBRANCH   1   2
END_RES LYS A 135
BEGIN_RES TYR A 136
REMARK  2 active torsions:
REMARK  status: ('A' for Active; 'I' for Inactive)
REMARK    5  A    between atoms: CA   and  CB  
REMARK    6  A    between atoms: CB   and  CG  
ROOT
ATOM      7  CA  TYR A 136      36.583  36.399   8.994  1.00 26.14     0.191 C 
ENDROOT
BRANCH   7   8
ATOM      8  CB  TYR A 136      37.367  36.835  10.240  1.00 28.16     0.060 C 
BRANCH   8   9
ATOM      9  CG  TYR A 136      36.927  38.181  10.761  1.00 31.88    -0.020 A 
ATOM     10  CD2 TYR A 136      35.625  38.389  11.220  1.00 32.67    -0.002 A 
ATOM     11  CE2 TYR A 136      35.226  39.643  11.700  1.00 33.89     0.027 A 
ATOM     12  CZ  TYR A 136      36.138  40.701  11.720  1.00 34.34     0.131 A 
ATOM     13  OH  TYR A 136      35.768  41.950  12.198  1.00 35.14    -0.190 OA
ATOM     14  CE1 TYR A 136      37.436  40.513  11.266  1.00 35.01     0.027 A 
ATOM     15  CD1 TYR A 136      37.820  39.260  10.784  1.00 33.57    -0.002 A 
ENDBRANCH   8   9
ENDBRANCH   7   8
END_RES TYR A 136
BEGIN_RES ASN A 133
REMARK  2 active torsions:
REMARK  status: ('A' for Active; 'I' for Inactive)
REMARK    7  A    between atoms: CA   and  CB  
REMARK    8  A    between atoms: CB   and  CG  
ROOT
ATOM     16  CA  ASN A 133      31.225  30.257  11.749  1.00 18.15     0.196 C 
ENDROOT
BRANCH  16  17
ATOM     17  CB  ASN A 133      30.092  31.240  11.460  1.00 18.27     0.126 C 
BRANCH  17  18
ATOM     18  CG  ASN A 133      28.757  30.578  11.314  1.00 18.94     0.276 C 
ATOM     19  OD1 ASN A 133      28.604  29.607  10.570  1.00 18.09    -0.269 OA
ATOM     20  ND2 ASN A 133      27.764  31.104  12.030  1.00 18.93    -0.107 N 
ENDBRANCH  17  18
ENDBRANCH  16  17
END_RES ASN A 133
