REMARK VINA RESULT:    -4.285      3.097      4.253
REMARK INTER + INTRA:          -7.614
REMARK INTER:                  -4.553
REMARK INTRA:                  -3.061
REMARK UNBOUND:                -3.079
REMARK SMILES Cc1cn(-c2ccc(Br)cc2)nn1
REMARK SMILES IDX 5 1 6 2 7 3 8 4 9 5 10 6 11 7 4 8 1 9 2 10 3 11 13 12 12 13
REMARK H PARENT
REMARK Flexibility Score: inf
ROOT
ATOM      1  C   UNL     1      36.555  34.700  13.819  1.00  0.00     0.066 A 
ATOM      2  C   UNL     1      35.325  34.453  13.209  1.00  0.00     0.029 A 
ATOM      3  C   UNL     1      34.171  35.010  13.671  1.00  0.00     0.018 A 
ATOM      4  C   UNL     1      34.235  35.835  14.767  1.00  0.00     0.018 A 
ATOM      5  Br  UNL     1      32.621  36.618  15.418  1.00  0.00    -0.051 Br
ATOM      6  C   UNL     1      35.432  36.111  15.408  1.00  0.00     0.018 A 
ATOM      7  C   UNL     1      36.585  35.533  14.920  1.00  0.00     0.029 A 
ENDROOT
BRANCH   1   8
ATOM      8  N   UNL     1      37.744  34.116  13.330  1.00  0.00    -0.220 N 
ATOM      9  C   UNL     1      41.290  33.711  12.509  1.00  0.00     0.070 C 
ATOM     10  C   UNL     1      39.826  33.644  12.736  1.00  0.00     0.080 A 
ATOM     11  C   UNL     1      39.007  34.569  13.322  1.00  0.00     0.140 A 
ATOM     12  N   UNL     1      39.018  32.618  12.391  1.00  0.00    -0.135 NA
ATOM     13  N   UNL     1      37.780  32.921  12.755  1.00  0.00    -0.062 NA
ENDBRANCH   1   8
TORSDOF 1
BEGIN_RES LYS A 135
REMARK  4 active torsions:
REMARK  status: ('A' for Active; 'I' for Inactive)
REMARK    1  A    between atoms: CA   and  CB  
REMARK    2  A    between atoms: CB   and  CG  
REMARK    3  A    between atoms: CG   and  CD  
REMARK    4  A    between atoms: CD   and  CE  
ROOT
ATOM      1  CA  LYS A 135      33.193  34.663   9.290  1.00 25.02     0.186 C 
ENDROOT
BRANCH   1   2
ATOM      2  CB  LYS A 135      32.060  35.360  10.034  1.00 26.63     0.034 C 
BRANCH   2   3
ATOM      3  CG  LYS A 135      30.738  34.644   9.926  1.00 29.45     0.005 C 
BRANCH   3   4
ATOM      4  CD  LYS A 135      30.325  34.499   8.470  1.00 32.00     0.041 C 
BRANCH   4   5
ATOM      5  CE  LYS A 135      28.814  34.528   8.339  1.00 34.25     0.338 C 
ATOM      6  NZ  LYS A 135      28.164  33.819   9.476  1.00 35.99     0.618 N 
ENDBRANCH   4   5
ENDBRANCH   3   4
ENDBRANCH   2   3
ENDBRANCH   1   2
END_RES LYS A 135
BEGIN_RES TYR A 136
REMARK  2 active torsions:
REMARK  status: ('A' for Active; 'I' for Inactive)
REMARK    5  A    between atoms: CA   and  CB  
REMARK    6  A    between atoms: CB   and  CG  
ROOT
ATOM      7  CA  TYR A 136      36.583  36.399   8.994  1.00 26.14     0.191 C 
ENDROOT
BRANCH   7   8
ATOM      8  CB  TYR A 136      37.367  36.835  10.240  1.00 28.16     0.060 C 
BRANCH   8   9
ATOM      9  CG  TYR A 136      36.773  38.054  10.902  1.00 31.88    -0.020 A 
ATOM     10  CD2 TYR A 136      37.004  39.336  10.398  1.00 32.67    -0.002 A 
ATOM     11  CE2 TYR A 136      36.449  40.462  11.021  1.00 33.89     0.027 A 
ATOM     12  CZ  TYR A 136      35.656  40.303  12.160  1.00 34.34     0.131 A 
ATOM     13  OH  TYR A 136      35.090  41.403  12.790  1.00 35.14    -0.190 OA
ATOM     14  CE1 TYR A 136      35.417  39.037  12.676  1.00 35.01     0.027 A 
ATOM     15  CD1 TYR A 136      35.981  37.924  12.050  1.00 33.57    -0.002 A 
ENDBRANCH   8   9
ENDBRANCH   7   8
END_RES TYR A 136
BEGIN_RES ASN A 133
REMARK  2 active torsions:
REMARK  status: ('A' for Active; 'I' for Inactive)
REMARK    7  A    between atoms: CA   and  CB  
REMARK    8  A    between atoms: CB   and  CG  
ROOT
ATOM     16  CA  ASN A 133      31.225  30.257  11.749  1.00 18.15     0.196 C 
ENDROOT
BRANCH  16  17
ATOM     17  CB  ASN A 133      30.092  31.240  11.460  1.00 18.27     0.126 C 
BRANCH  17  18
ATOM     18  CG  ASN A 133      28.749  30.584  11.365  1.00 18.94     0.276 C 
ATOM     19  OD1 ASN A 133      28.566  29.608  10.636  1.00 18.09    -0.269 OA
ATOM     20  ND2 ASN A 133      27.784  31.122  12.110  1.00 18.93    -0.107 N 
ENDBRANCH  17  18
ENDBRANCH  16  17
END_RES ASN A 133
