REMARK VINA RESULT:    -5.429      3.207      8.343
REMARK INTER + INTRA:          -9.128
REMARK INTER:                  -7.557
REMARK INTRA:                  -1.571
REMARK UNBOUND:                -3.381
REMARK SMILES Cc1cn(C2c3ccccc3-c3ccccc32)nn1
REMARK SMILES IDX 5 1 6 2 7 3 8 4 9 5 10 6 11 7 12 8 13 9 14 10 15 11 16 12
REMARK SMILES IDX 17 13 4 14 1 15 2 16 3 17 19 18 18 19
REMARK H PARENT
REMARK Flexibility Score: inf
ROOT
ATOM      1  C   UNL     1      28.148  36.169   7.018  1.00  0.00     0.170 C 
ATOM      2  C   UNL     1      26.827  36.264   7.656  1.00  0.00    -0.011 A 
ATOM      3  C   UNL     1      25.719  37.001   7.267  1.00  0.00     0.007 A 
ATOM      4  C   UNL     1      24.563  36.947   8.016  1.00  0.00     0.000 A 
ATOM      5  C   UNL     1      24.535  36.150   9.152  1.00  0.00     0.001 A 
ATOM      6  C   UNL     1      25.641  35.411   9.542  1.00  0.00     0.009 A 
ATOM      7  C   UNL     1      26.791  35.479   8.776  1.00  0.00    -0.012 A 
ATOM      8  C   UNL     1      28.088  34.845   8.909  1.00  0.00    -0.012 A 
ATOM      9  C   UNL     1      28.538  33.955   9.895  1.00  0.00     0.009 A 
ATOM     10  C   UNL     1      29.819  33.486   9.806  1.00  0.00     0.001 A 
ATOM     11  C   UNL     1      30.686  33.850   8.790  1.00  0.00     0.000 A 
ATOM     12  C   UNL     1      30.196  34.720   7.855  1.00  0.00     0.007 A 
ATOM     13  C   UNL     1      28.902  35.242   7.878  1.00  0.00    -0.011 A 
ENDROOT
BRANCH   1  14
ATOM     14  N   UNL     1      28.764  37.444   6.860  1.00  0.00    -0.240 N 
ATOM     15  C   UNL     1      30.251  40.527   8.079  1.00  0.00     0.070 C 
ATOM     16  C   UNL     1      29.705  39.393   7.303  1.00  0.00     0.080 A 
ATOM     17  C   UNL     1      29.151  38.248   7.858  1.00  0.00     0.135 A 
ATOM     18  N   UNL     1      29.629  39.230   5.981  1.00  0.00    -0.136 NA
ATOM     19  N   UNL     1      29.056  38.044   5.726  1.00  0.00    -0.066 NA
ENDBRANCH   1  14
TORSDOF 1
BEGIN_RES LYS A 135
REMARK  4 active torsions:
REMARK  status: ('A' for Active; 'I' for Inactive)
REMARK    1  A    between atoms: CA   and  CB  
REMARK    2  A    between atoms: CB   and  CG  
REMARK    3  A    between atoms: CG   and  CD  
REMARK    4  A    between atoms: CD   and  CE  
ROOT
ATOM      1  CA  LYS A 135      33.193  34.663   9.290  1.00 25.02     0.186 C 
ENDROOT
BRANCH   1   2
ATOM      2  CB  LYS A 135      32.060  35.360  10.034  1.00 26.63     0.034 C 
BRANCH   2   3
ATOM      3  CG  LYS A 135      32.423  35.769  11.438  1.00 29.45     0.005 C 
BRANCH   3   4
ATOM      4  CD  LYS A 135      31.249  36.456  12.118  1.00 32.00     0.041 C 
BRANCH   4   5
ATOM      5  CE  LYS A 135      30.307  37.047  11.085  1.00 34.25     0.338 C 
ATOM      6  NZ  LYS A 135      28.917  37.129  11.612  1.00 35.99     0.618 N 
ENDBRANCH   4   5
ENDBRANCH   3   4
ENDBRANCH   2   3
ENDBRANCH   1   2
END_RES LYS A 135
BEGIN_RES TYR A 136
REMARK  2 active torsions:
REMARK  status: ('A' for Active; 'I' for Inactive)
REMARK    5  A    between atoms: CA   and  CB  
REMARK    6  A    between atoms: CB   and  CG  
ROOT
ATOM      7  CA  TYR A 136      36.583  36.399   8.994  1.00 26.14     0.191 C 
ENDROOT
BRANCH   7   8
ATOM      8  CB  TYR A 136      37.367  36.835  10.240  1.00 28.16     0.060 C 
BRANCH   8   9
ATOM      9  CG  TYR A 136      36.466  37.208  11.391  1.00 31.88    -0.020 A 
ATOM     10  CD2 TYR A 136      35.697  38.374  11.360  1.00 32.67    -0.002 A 
ATOM     11  CE2 TYR A 136      34.865  38.713  12.435  1.00 33.89     0.027 A 
ATOM     12  CZ  TYR A 136      34.801  37.877  13.553  1.00 34.34     0.131 A 
ATOM     13  OH  TYR A 136      33.978  38.188  14.626  1.00 35.14    -0.190 OA
ATOM     14  CE1 TYR A 136      35.558  36.715  13.602  1.00 35.01     0.027 A 
ATOM     15  CD1 TYR A 136      36.389  36.392  12.527  1.00 33.57    -0.002 A 
ENDBRANCH   8   9
ENDBRANCH   7   8
END_RES TYR A 136
BEGIN_RES ASN A 133
REMARK  2 active torsions:
REMARK  status: ('A' for Active; 'I' for Inactive)
REMARK    7  A    between atoms: CA   and  CB  
REMARK    8  A    between atoms: CB   and  CG  
ROOT
ATOM     16  CA  ASN A 133      31.225  30.257  11.749  1.00 18.15     0.196 C 
ENDROOT
BRANCH  16  17
ATOM     17  CB  ASN A 133      30.092  31.240  11.460  1.00 18.27     0.126 C 
BRANCH  17  18
ATOM     18  CG  ASN A 133      28.748  30.585  11.372  1.00 18.94     0.276 C 
ATOM     19  OD1 ASN A 133      28.562  29.605  10.649  1.00 18.09    -0.269 OA
ATOM     20  ND2 ASN A 133      27.786  31.128  12.117  1.00 18.93    -0.107 N 
ENDBRANCH  17  18
ENDBRANCH  16  17
END_RES ASN A 133
