REMARK VINA RESULT:    -4.887      6.353      8.558
REMARK INTER + INTRA:          -7.317
REMARK INTER:                  -4.208
REMARK INTRA:                  -3.108
REMARK UNBOUND:                -2.144
REMARK SMILES Cc1cn(-c2ccc3[nH]ncc3c2)nn1
REMARK SMILES IDX 5 1 6 2 7 3 8 4 9 5 10 6 11 7 12 8 13 9 4 11 1 12 2 13 3 14
REMARK SMILES IDX 15 15 14 16
REMARK H PARENT 9 10
REMARK Flexibility Score: inf
ROOT
ATOM      1  C   UNL     1      36.298  38.872   3.273  1.00  0.00     0.067 A 
ATOM      2  C   UNL     1      36.690  38.165   4.392  1.00  0.00     0.030 A 
ATOM      3  C   UNL     1      35.897  38.183   5.518  1.00  0.00     0.030 A 
ATOM      4  C   UNL     1      34.703  38.889   5.587  1.00  0.00     0.065 A 
ATOM      5  N   UNL     1      33.763  39.079   6.520  1.00  0.00    -0.278 N 
ATOM      6  N   UNL     1      32.811  39.858   6.056  1.00  0.00    -0.183 NA
ATOM      7  C   UNL     1      33.114  40.198   4.790  1.00  0.00     0.143 A 
ATOM      8  C   UNL     1      34.313  39.602   4.454  1.00  0.00     0.022 A 
ATOM      9  C   UNL     1      35.107  39.583   3.322  1.00  0.00     0.040 A 
ATOM     10  H   UNL     1      33.783  38.670   7.471  1.00  0.00     0.190 HD
ENDROOT
BRANCH   1  11
ATOM     11  N   UNL     1      37.128  38.844   2.116  1.00  0.00    -0.220 N 
ATOM     12  C   UNL     1      39.065  40.030  -0.747  1.00  0.00     0.070 C 
ATOM     13  C   UNL     1      38.357  39.322   0.336  1.00  0.00     0.080 A 
ATOM     14  C   UNL     1      37.581  39.843   1.352  1.00  0.00     0.140 A 
ATOM     15  N   UNL     1      38.342  37.986   0.533  1.00  0.00    -0.135 NA
ATOM     16  N   UNL     1      37.597  37.714   1.610  1.00  0.00    -0.062 NA
ENDBRANCH   1  11
TORSDOF 1
BEGIN_RES LYS A 135
REMARK  4 active torsions:
REMARK  status: ('A' for Active; 'I' for Inactive)
REMARK    1  A    between atoms: CA   and  CB  
REMARK    2  A    between atoms: CB   and  CG  
REMARK    3  A    between atoms: CG   and  CD  
REMARK    4  A    between atoms: CD   and  CE  
ROOT
ATOM      1  CA  LYS A 135      33.193  34.663   9.290  1.00 25.02     0.186 C 
ENDROOT
BRANCH   1   2
ATOM      2  CB  LYS A 135      32.060  35.360  10.034  1.00 26.63     0.034 C 
BRANCH   2   3
ATOM      3  CG  LYS A 135      30.800  35.500   9.219  1.00 29.45     0.005 C 
BRANCH   3   4
ATOM      4  CD  LYS A 135      30.147  34.144   9.003  1.00 32.00     0.041 C 
BRANCH   4   5
ATOM      5  CE  LYS A 135      28.672  34.306   8.692  1.00 34.25     0.338 C 
ATOM      6  NZ  LYS A 135      28.468  35.169   7.495  1.00 35.99     0.618 N 
ENDBRANCH   4   5
ENDBRANCH   3   4
ENDBRANCH   2   3
ENDBRANCH   1   2
END_RES LYS A 135
BEGIN_RES TYR A 136
REMARK  2 active torsions:
REMARK  status: ('A' for Active; 'I' for Inactive)
REMARK    5  A    between atoms: CA   and  CB  
REMARK    6  A    between atoms: CB   and  CG  
ROOT
ATOM      7  CA  TYR A 136      36.583  36.399   8.994  1.00 26.14     0.191 C 
ENDROOT
BRANCH   7   8
ATOM      8  CB  TYR A 136      37.367  36.835  10.240  1.00 28.16     0.060 C 
BRANCH   8   9
ATOM      9  CG  TYR A 136      37.224  38.309  10.529  1.00 31.88    -0.020 A 
ATOM     10  CD2 TYR A 136      37.836  39.268   9.719  1.00 32.67    -0.002 A 
ATOM     11  CE2 TYR A 136      37.698  40.635   9.997  1.00 33.89     0.027 A 
ATOM     12  CZ  TYR A 136      36.941  41.045  11.097  1.00 34.34     0.131 A 
ATOM     13  OH  TYR A 136      36.785  42.394  11.388  1.00 35.14    -0.190 OA
ATOM     14  CE1 TYR A 136      36.327  40.107  11.914  1.00 35.01     0.027 A 
ATOM     15  CD1 TYR A 136      36.477  38.748  11.630  1.00 33.57    -0.002 A 
ENDBRANCH   8   9
ENDBRANCH   7   8
END_RES TYR A 136
BEGIN_RES ASN A 133
REMARK  2 active torsions:
REMARK  status: ('A' for Active; 'I' for Inactive)
REMARK    7  A    between atoms: CA   and  CB  
REMARK    8  A    between atoms: CB   and  CG  
ROOT
ATOM     16  CA  ASN A 133      31.225  30.257  11.749  1.00 18.15     0.196 C 
ENDROOT
BRANCH  16  17
ATOM     17  CB  ASN A 133      30.092  31.240  11.460  1.00 18.27     0.126 C 
BRANCH  17  18
ATOM     18  CG  ASN A 133      28.749  30.584  11.364  1.00 18.94     0.276 C 
ATOM     19  OD1 ASN A 133      28.565  29.611  10.631  1.00 18.09    -0.269 OA
ATOM     20  ND2 ASN A 133      27.785  31.118  12.113  1.00 18.93    -0.107 N 
ENDBRANCH  17  18
ENDBRANCH  16  17
END_RES ASN A 133
