REMARK VINA RESULT:    -5.752      3.324      6.497
REMARK INTER + INTRA:         -10.766
REMARK INTER:                  -7.019
REMARK INTRA:                  -3.747
REMARK UNBOUND:                -3.836
REMARK SMILES Cc1cn(-c2ccc(-c3c4ccc(=O)cc-4oc4cc(O)ccc34)c(C(=O)[O-])c2)nn1
REMARK SMILES IDX 9 1 24 2 23 3 22 4 20 5 19 6 18 7 17 8 16 9 15 10 13 11
REMARK SMILES IDX 14 12 12 13 11 14 10 15 8 16 5 17 29 18 6 19 25 20 7 21 4 22
REMARK SMILES IDX 1 23 2 24 3 25 31 26 30 27 26 28 27 29 28 30 21 31
REMARK H PARENT 21 32
REMARK Flexibility Score: inf
ROOT
ATOM      1  C   UNL     1      36.412  36.391  15.002  1.00  0.00     0.004 A 
ATOM      2  C   UNL     1      36.000  36.264  16.311  1.00  0.00     0.026 A 
ATOM      3  C   UNL     1      34.763  36.740  16.690  1.00  0.00     0.016 A 
ATOM      4  C   UNL     1      34.309  36.634  17.995  1.00  0.00     0.047 A 
ATOM      5  C   UNL     1      35.134  36.032  18.921  1.00  0.00     0.119 A 
ATOM      6  C   UNL     1      36.372  35.555  18.543  1.00  0.00     0.093 A 
ATOM      7  C   UNL     1      36.841  35.655  17.232  1.00  0.00     0.139 A 
ATOM      8  O   UNL     1      38.026  35.190  16.908  1.00  0.00    -0.456 OA
ATOM      9  C   UNL     1      38.500  35.262  15.705  1.00  0.00     0.139 A 
ATOM     10  C   UNL     1      39.733  34.786  15.329  1.00  0.00     0.099 A 
ATOM     11  C   UNL     1      40.125  34.922  14.017  1.00  0.00     0.182 A 
ATOM     12  O   UNL     1      41.254  34.485  13.683  1.00  0.00    -0.290 OA
ATOM     13  C   UNL     1      39.326  35.520  13.060  1.00  0.00     0.053 A 
ATOM     14  C   UNL     1      38.079  36.019  13.366  1.00  0.00     0.016 A 
ATOM     15  C   UNL     1      37.658  35.896  14.681  1.00  0.00     0.026 A 
ENDROOT
BRANCH   1  16
ATOM     16  C   UNL     1      35.528  37.026  14.048  1.00  0.00    -0.008 A 
ATOM     17  C   UNL     1      33.793  38.187  12.191  1.00  0.00     0.067 A 
ATOM     18  C   UNL     1      33.762  36.825  12.404  1.00  0.00     0.039 A 
ATOM     19  C   UNL     1      34.685  38.979  12.898  1.00  0.00     0.029 A 
ATOM     20  C   UNL     1      34.629  36.269  13.327  1.00  0.00     0.007 A 
ATOM     21  C   UNL     1      35.540  38.390  13.815  1.00  0.00     0.012 A 
BRANCH  17  22
ATOM     22  N   UNL     1      32.927  38.814  11.254  1.00  0.00    -0.220 N 
ATOM     23  C   UNL     1      30.273  38.726   8.704  1.00  0.00     0.070 C 
ATOM     24  C   UNL     1      31.346  39.045   9.691  1.00  0.00     0.080 A 
ATOM     25  C   UNL     1      32.021  38.141  10.486  1.00  0.00     0.140 A 
ATOM     26  N   UNL     1      31.866  40.245  10.004  1.00  0.00    -0.135 NA
ATOM     27  N   UNL     1      32.802  40.072  10.936  1.00  0.00    -0.062 NA
ENDBRANCH  17  22
BRANCH  20  28
ATOM     28  C   UNL     1      34.584  34.827  13.543  1.00  0.00     0.072 C 
ATOM     29  O   UNL     1      35.352  34.045  12.938  1.00  0.00    -0.545 OA
ATOM     30  O   UNL     1      33.683  34.267  14.437  1.00  0.00    -0.545 OA
ENDBRANCH  20  28
ENDBRANCH   1  16
BRANCH   5  31
ATOM     31  O   UNL     1      34.682  35.920  20.246  1.00  0.00    -0.508 OA
ATOM     32  H   UNL     1      33.808  35.453  20.442  1.00  0.00     0.293 HD
ENDBRANCH   5  31
TORSDOF 4
BEGIN_RES LYS A 135
REMARK  4 active torsions:
REMARK  status: ('A' for Active; 'I' for Inactive)
REMARK    1  A    between atoms: CA   and  CB  
REMARK    2  A    between atoms: CB   and  CG  
REMARK    3  A    between atoms: CG   and  CD  
REMARK    4  A    between atoms: CD   and  CE  
ROOT
ATOM      1  CA  LYS A 135      33.193  34.663   9.290  1.00 25.02     0.186 C 
ENDROOT
BRANCH   1   2
ATOM      2  CB  LYS A 135      32.060  35.360  10.034  1.00 26.63     0.034 C 
BRANCH   2   3
ATOM      3  CG  LYS A 135      30.699  34.788   9.732  1.00 29.45     0.005 C 
BRANCH   3   4
ATOM      4  CD  LYS A 135      30.463  34.729   8.231  1.00 32.00     0.041 C 
BRANCH   4   5
ATOM      5  CE  LYS A 135      29.005  35.000   7.910  1.00 34.25     0.338 C 
ATOM      6  NZ  LYS A 135      28.850  35.537   6.530  1.00 35.99     0.618 N 
ENDBRANCH   4   5
ENDBRANCH   3   4
ENDBRANCH   2   3
ENDBRANCH   1   2
END_RES LYS A 135
BEGIN_RES TYR A 136
REMARK  2 active torsions:
REMARK  status: ('A' for Active; 'I' for Inactive)
REMARK    5  A    between atoms: CA   and  CB  
REMARK    6  A    between atoms: CB   and  CG  
ROOT
ATOM      7  CA  TYR A 136      36.583  36.399   8.994  1.00 26.14     0.191 C 
ENDROOT
BRANCH   7   8
ATOM      8  CB  TYR A 136      37.367  36.835  10.240  1.00 28.16     0.060 C 
BRANCH   8   9
ATOM      9  CG  TYR A 136      37.320  38.327  10.463  1.00 31.88    -0.020 A 
ATOM     10  CD2 TYR A 136      36.432  39.136   9.750  1.00 32.67    -0.002 A 
ATOM     11  CE2 TYR A 136      36.397  40.521   9.963  1.00 33.89     0.027 A 
ATOM     12  CZ  TYR A 136      37.259  41.101  10.898  1.00 34.34     0.131 A 
ATOM     13  OH  TYR A 136      37.237  42.469  11.131  1.00 35.14    -0.190 OA
ATOM     14  CE1 TYR A 136      38.147  40.312  11.614  1.00 35.01     0.027 A 
ATOM     15  CD1 TYR A 136      38.177  38.935  11.388  1.00 33.57    -0.002 A 
ENDBRANCH   8   9
ENDBRANCH   7   8
END_RES TYR A 136
BEGIN_RES ASN A 133
REMARK  2 active torsions:
REMARK  status: ('A' for Active; 'I' for Inactive)
REMARK    7  A    between atoms: CA   and  CB  
REMARK    8  A    between atoms: CB   and  CG  
ROOT
ATOM     16  CA  ASN A 133      31.225  30.257  11.749  1.00 18.15     0.196 C 
ENDROOT
BRANCH  16  17
ATOM     17  CB  ASN A 133      30.092  31.240  11.460  1.00 18.27     0.126 C 
BRANCH  17  18
ATOM     18  CG  ASN A 133      28.748  30.585  11.375  1.00 18.94     0.276 C 
ATOM     19  OD1 ASN A 133      28.563  29.598  10.661  1.00 18.09    -0.269 OA
ATOM     20  ND2 ASN A 133      27.784  31.137  12.110  1.00 18.93    -0.107 N 
ENDBRANCH  17  18
ENDBRANCH  16  17
END_RES ASN A 133
