REMARK VINA RESULT:    -4.076      1.685      2.497
REMARK INTER + INTRA:          -7.880
REMARK INTER:                  -4.513
REMARK INTRA:                  -3.367
REMARK UNBOUND:                -3.328
REMARK SMILES Cc1cn(CC2=CC[C@H]3C[C@@H]2C3(C)C)nn1
REMARK SMILES IDX 5 1 4 2 1 3 2 4 3 5 16 6 15 7 6 8 7 9 11 10 8 11 10 12 12 13
REMARK SMILES IDX 9 14 13 15 14 16
REMARK H PARENT
REMARK Flexibility Score: inf
ROOT
ATOM      1  C   UNL     1      37.662  33.707  14.267  1.00  0.00     0.177 C 
ENDROOT
BRANCH   1   2
ATOM      2  N   UNL     1      36.568  34.581  13.911  1.00  0.00    -0.248 N 
ATOM      3  C   UNL     1      34.318  37.452  14.290  1.00  0.00     0.070 C 
ATOM      4  C   UNL     1      35.079  36.238  13.910  1.00  0.00     0.080 A 
ATOM      5  C   UNL     1      36.172  35.675  14.583  1.00  0.00     0.134 A 
ATOM      6  N   UNL     1      34.886  35.426  12.853  1.00  0.00    -0.136 NA
ATOM      7  N   UNL     1      35.777  34.443  12.863  1.00  0.00    -0.067 NA
ENDBRANCH   1   2
BRANCH   1   8
ATOM      8  C   UNL     1      38.970  34.357  14.073  1.00  0.00    -0.049 C 
ATOM      9  C   UNL     1      39.760  34.751  15.057  1.00  0.00    -0.025 C 
ATOM     10  C   UNL     1      39.448  34.595  12.690  1.00  0.00     0.023 C 
ATOM     11  C   UNL     1      41.039  35.485  14.731  1.00  0.00     0.031 C 
ATOM     12  C   UNL     1      40.902  34.086  12.694  1.00  0.00     0.013 C 
ATOM     13  C   UNL     1      40.042  35.979  12.533  1.00  0.00    -0.026 C 
ATOM     14  C   UNL     1      41.259  35.472  13.249  1.00  0.00    -0.000 C 
ATOM     15  C   UNL     1      39.291  37.093  13.177  1.00  0.00     0.012 C 
ATOM     16  C   UNL     1      40.246  36.266  11.055  1.00  0.00     0.012 C 
ENDBRANCH   1   8
TORSDOF 2
BEGIN_RES LYS A 135
REMARK  4 active torsions:
REMARK  status: ('A' for Active; 'I' for Inactive)
REMARK    1  A    between atoms: CA   and  CB  
REMARK    2  A    between atoms: CB   and  CG  
REMARK    3  A    between atoms: CG   and  CD  
REMARK    4  A    between atoms: CD   and  CE  
ROOT
ATOM      1  CA  LYS A 135      33.193  34.663   9.290  1.00 25.02     0.186 C 
ENDROOT
BRANCH   1   2
ATOM      2  CB  LYS A 135      32.060  35.360  10.034  1.00 26.63     0.034 C 
BRANCH   2   3
ATOM      3  CG  LYS A 135      30.829  35.576   9.192  1.00 29.45     0.005 C 
BRANCH   3   4
ATOM      4  CD  LYS A 135      30.308  34.252   8.654  1.00 32.00     0.041 C 
BRANCH   4   5
ATOM      5  CE  LYS A 135      28.888  34.006   9.128  1.00 34.25     0.338 C 
ATOM      6  NZ  LYS A 135      27.904  34.707   8.257  1.00 35.99     0.618 N 
ENDBRANCH   4   5
ENDBRANCH   3   4
ENDBRANCH   2   3
ENDBRANCH   1   2
END_RES LYS A 135
BEGIN_RES TYR A 136
REMARK  2 active torsions:
REMARK  status: ('A' for Active; 'I' for Inactive)
REMARK    5  A    between atoms: CA   and  CB  
REMARK    6  A    between atoms: CB   and  CG  
ROOT
ATOM      7  CA  TYR A 136      36.583  36.399   8.994  1.00 26.14     0.191 C 
ENDROOT
BRANCH   7   8
ATOM      8  CB  TYR A 136      37.367  36.835  10.240  1.00 28.16     0.060 C 
BRANCH   8   9
ATOM      9  CG  TYR A 136      37.180  38.298  10.561  1.00 31.88    -0.020 A 
ATOM     10  CD2 TYR A 136      38.140  39.245  10.199  1.00 32.67    -0.002 A 
ATOM     11  CE2 TYR A 136      37.958  40.601  10.503  1.00 33.89     0.027 A 
ATOM     12  CZ  TYR A 136      36.805  41.013  11.175  1.00 34.34     0.131 A 
ATOM     13  OH  TYR A 136      36.600  42.351  11.480  1.00 35.14    -0.190 OA
ATOM     14  CE1 TYR A 136      35.841  40.085  11.543  1.00 35.01     0.027 A 
ATOM     15  CD1 TYR A 136      36.037  38.736  11.240  1.00 33.57    -0.002 A 
ENDBRANCH   8   9
ENDBRANCH   7   8
END_RES TYR A 136
BEGIN_RES ASN A 133
REMARK  2 active torsions:
REMARK  status: ('A' for Active; 'I' for Inactive)
REMARK    7  A    between atoms: CA   and  CB  
REMARK    8  A    between atoms: CB   and  CG  
ROOT
ATOM     16  CA  ASN A 133      31.225  30.257  11.749  1.00 18.15     0.196 C 
ENDROOT
BRANCH  16  17
ATOM     17  CB  ASN A 133      30.092  31.240  11.460  1.00 18.27     0.126 C 
BRANCH  17  18
ATOM     18  CG  ASN A 133      28.752  30.582  11.348  1.00 18.94     0.276 C 
ATOM     19  OD1 ASN A 133      28.582  29.598  10.624  1.00 18.09    -0.269 OA
ATOM     20  ND2 ASN A 133      27.773  31.125  12.070  1.00 18.93    -0.107 N 
ENDBRANCH  17  18
ENDBRANCH  16  17
END_RES ASN A 133
