REMARK VINA RESULT:    -4.231      2.794      4.442
REMARK INTER + INTRA:          -7.700
REMARK INTER:                  -4.557
REMARK INTRA:                  -3.143
REMARK UNBOUND:                -2.974
REMARK SMILES COc1ccc(-n2cc(C)nn2)cc1
REMARK SMILES IDX 6 1 5 2 4 3 3 4 14 5 13 6 7 7 10 8 9 9 8 10 11 11 12 12 2 13
REMARK SMILES IDX 1 14
REMARK H PARENT
REMARK Flexibility Score: inf
ROOT
ATOM      1  C   UNL     1      35.079  34.919  13.868  1.00  0.00     0.067 A 
ATOM      2  C   UNL     1      35.867  35.482  14.853  1.00  0.00     0.032 A 
ATOM      3  C   UNL     1      37.243  35.384  14.827  1.00  0.00     0.048 A 
ATOM      4  C   UNL     1      37.902  34.719  13.815  1.00  0.00     0.119 A 
ATOM      5  C   UNL     1      37.122  34.157  12.830  1.00  0.00     0.048 A 
ATOM      6  C   UNL     1      35.745  34.255  12.857  1.00  0.00     0.032 A 
ENDROOT
BRANCH   1   7
ATOM      7  N   UNL     1      33.659  35.019  13.894  1.00  0.00    -0.220 N 
ATOM      8  C   UNL     1      30.365  36.147  12.760  1.00  0.00     0.070 C 
ATOM      9  C   UNL     1      31.579  35.547  13.424  1.00  0.00     0.080 A 
ATOM     10  C   UNL     1      32.887  35.719  13.046  1.00  0.00     0.140 A 
ATOM     11  N   UNL     1      31.574  34.742  14.499  1.00  0.00    -0.135 NA
ATOM     12  N   UNL     1      32.830  34.445  14.753  1.00  0.00    -0.062 NA
ENDBRANCH   1   7
BRANCH   4  13
ATOM     13  O   UNL     1      39.298  34.620  13.788  1.00  0.00    -0.497 OA
ATOM     14  C   UNL     1      39.975  33.866  12.803  1.00  0.00     0.278 C 
ENDBRANCH   4  13
TORSDOF 2
BEGIN_RES LYS A 135
REMARK  4 active torsions:
REMARK  status: ('A' for Active; 'I' for Inactive)
REMARK    1  A    between atoms: CA   and  CB  
REMARK    2  A    between atoms: CB   and  CG  
REMARK    3  A    between atoms: CG   and  CD  
REMARK    4  A    between atoms: CD   and  CE  
ROOT
ATOM      1  CA  LYS A 135      33.193  34.663   9.290  1.00 25.02     0.186 C 
ENDROOT
BRANCH   1   2
ATOM      2  CB  LYS A 135      32.060  35.360  10.034  1.00 26.63     0.034 C 
BRANCH   2   3
ATOM      3  CG  LYS A 135      30.820  35.553   9.199  1.00 29.45     0.005 C 
BRANCH   3   4
ATOM      4  CD  LYS A 135      30.166  34.215   8.892  1.00 32.00     0.041 C 
BRANCH   4   5
ATOM      5  CE  LYS A 135      28.687  34.397   8.613  1.00 34.25     0.338 C 
ATOM      6  NZ  LYS A 135      27.858  33.679   9.621  1.00 35.99     0.618 N 
ENDBRANCH   4   5
ENDBRANCH   3   4
ENDBRANCH   2   3
ENDBRANCH   1   2
END_RES LYS A 135
BEGIN_RES TYR A 136
REMARK  2 active torsions:
REMARK  status: ('A' for Active; 'I' for Inactive)
REMARK    5  A    between atoms: CA   and  CB  
REMARK    6  A    between atoms: CB   and  CG  
ROOT
ATOM      7  CA  TYR A 136      36.583  36.399   8.994  1.00 26.14     0.191 C 
ENDROOT
BRANCH   7   8
ATOM      8  CB  TYR A 136      37.367  36.835  10.240  1.00 28.16     0.060 C 
BRANCH   8   9
ATOM      9  CG  TYR A 136      36.728  38.005  10.948  1.00 31.88    -0.020 A 
ATOM     10  CD2 TYR A 136      36.165  39.063  10.231  1.00 32.67    -0.002 A 
ATOM     11  CE2 TYR A 136      35.575  40.146  10.898  1.00 33.89     0.027 A 
ATOM     12  CZ  TYR A 136      35.550  40.170  12.295  1.00 34.34     0.131 A 
ATOM     13  OH  TYR A 136      34.965  41.228  12.976  1.00 35.14    -0.190 OA
ATOM     14  CE1 TYR A 136      36.106  39.127  13.022  1.00 35.01     0.027 A 
ATOM     15  CD1 TYR A 136      36.696  38.057  12.347  1.00 33.57    -0.002 A 
ENDBRANCH   8   9
ENDBRANCH   7   8
END_RES TYR A 136
BEGIN_RES ASN A 133
REMARK  2 active torsions:
REMARK  status: ('A' for Active; 'I' for Inactive)
REMARK    7  A    between atoms: CA   and  CB  
REMARK    8  A    between atoms: CB   and  CG  
ROOT
ATOM     16  CA  ASN A 133      31.225  30.257  11.749  1.00 18.15     0.196 C 
ENDROOT
BRANCH  16  17
ATOM     17  CB  ASN A 133      30.092  31.240  11.460  1.00 18.27     0.126 C 
BRANCH  17  18
ATOM     18  CG  ASN A 133      28.750  30.584  11.363  1.00 18.94     0.276 C 
ATOM     19  OD1 ASN A 133      28.562  29.621  10.618  1.00 18.09    -0.269 OA
ATOM     20  ND2 ASN A 133      27.789  31.106  12.126  1.00 18.93    -0.107 N 
ENDBRANCH  17  18
ENDBRANCH  16  17
END_RES ASN A 133
