REMARK VINA RESULT:    -3.462      3.970      5.233
REMARK INTER + INTRA:          -7.526
REMARK INTER:                  -4.212
REMARK INTRA:                  -3.314
REMARK UNBOUND:                -3.052
REMARK SMILES C=CCCCCn1cc(C)nn1
REMARK SMILES IDX 5 1 6 2 7 3 10 4 9 5 8 6 11 7 12 8 4 9 3 10 2 11 1 12
REMARK H PARENT
REMARK Flexibility Score: inf
ROOT
ATOM      1  C   UNL     1      38.352  34.325  17.212  1.00  0.00     0.024 C 
ENDROOT
BRANCH   1   2
ATOM      2  C   UNL     1      39.138  35.081  16.191  1.00  0.00     0.146 C 
BRANCH   2   3
ATOM      3  N   UNL     1      38.980  34.584  14.858  1.00  0.00    -0.252 N 
ATOM      4  C   UNL     1      37.222  33.068  12.052  1.00  0.00     0.070 C 
ATOM      5  C   UNL     1      38.162  33.710  13.046  1.00  0.00     0.080 A 
ATOM      6  C   UNL     1      37.863  34.047  14.349  1.00  0.00     0.134 A 
ATOM      7  N   UNL     1      39.433  34.060  12.848  1.00  0.00    -0.136 NA
ATOM      8  N   UNL     1      39.909  34.582  13.940  1.00  0.00    -0.067 NA
ENDBRANCH   2   3
ENDBRANCH   1   2
BRANCH   1   9
ATOM      9  C   UNL     1      39.098  33.143  17.780  1.00  0.00     0.006 C 
BRANCH   9  10
ATOM     10  C   UNL     1      38.481  32.727  19.119  1.00  0.00     0.027 C 
BRANCH  10  11
ATOM     11  C   UNL     1      37.753  33.917  19.623  1.00  0.00    -0.035 C 
ATOM     12  C   UNL     1      36.922  33.779  20.647  1.00  0.00     0.004 C 
ENDBRANCH  10  11
ENDBRANCH   9  10
ENDBRANCH   1   9
TORSDOF 5
BEGIN_RES LYS A 135
REMARK  4 active torsions:
REMARK  status: ('A' for Active; 'I' for Inactive)
REMARK    1  A    between atoms: CA   and  CB  
REMARK    2  A    between atoms: CB   and  CG  
REMARK    3  A    between atoms: CG   and  CD  
REMARK    4  A    between atoms: CD   and  CE  
ROOT
ATOM      1  CA  LYS A 135      33.193  34.663   9.290  1.00 25.02     0.186 C 
ENDROOT
BRANCH   1   2
ATOM      2  CB  LYS A 135      32.060  35.360  10.034  1.00 26.63     0.034 C 
BRANCH   2   3
ATOM      3  CG  LYS A 135      30.725  34.679   9.874  1.00 29.45     0.005 C 
BRANCH   3   4
ATOM      4  CD  LYS A 135      30.369  34.536   8.403  1.00 32.00     0.041 C 
BRANCH   4   5
ATOM      5  CE  LYS A 135      28.863  34.533   8.218  1.00 34.25     0.338 C 
ATOM      6  NZ  LYS A 135      28.183  33.875   9.367  1.00 35.99     0.618 N 
ENDBRANCH   4   5
ENDBRANCH   3   4
ENDBRANCH   2   3
ENDBRANCH   1   2
END_RES LYS A 135
BEGIN_RES TYR A 136
REMARK  2 active torsions:
REMARK  status: ('A' for Active; 'I' for Inactive)
REMARK    5  A    between atoms: CA   and  CB  
REMARK    6  A    between atoms: CB   and  CG  
ROOT
ATOM      7  CA  TYR A 136      36.583  36.399   8.994  1.00 26.14     0.191 C 
ENDROOT
BRANCH   7   8
ATOM      8  CB  TYR A 136      37.367  36.835  10.240  1.00 28.16     0.060 C 
BRANCH   8   9
ATOM      9  CG  TYR A 136      37.143  38.286  10.588  1.00 31.88    -0.020 A 
ATOM     10  CD2 TYR A 136      37.345  38.758  11.887  1.00 32.67    -0.002 A 
ATOM     11  CE2 TYR A 136      37.133  40.107  12.200  1.00 33.89     0.027 A 
ATOM     12  CZ  TYR A 136      36.714  40.993  11.204  1.00 34.34     0.131 A 
ATOM     13  OH  TYR A 136      36.505  42.335  11.490  1.00 35.14    -0.190 OA
ATOM     14  CE1 TYR A 136      36.508  40.541   9.909  1.00 35.01     0.027 A 
ATOM     15  CD1 TYR A 136      36.716  39.194   9.610  1.00 33.57    -0.002 A 
ENDBRANCH   8   9
ENDBRANCH   7   8
END_RES TYR A 136
BEGIN_RES ASN A 133
REMARK  2 active torsions:
REMARK  status: ('A' for Active; 'I' for Inactive)
REMARK    7  A    between atoms: CA   and  CB  
REMARK    8  A    between atoms: CB   and  CG  
ROOT
ATOM     16  CA  ASN A 133      31.225  30.257  11.749  1.00 18.15     0.196 C 
ENDROOT
BRANCH  16  17
ATOM     17  CB  ASN A 133      30.092  31.240  11.460  1.00 18.27     0.126 C 
BRANCH  17  18
ATOM     18  CG  ASN A 133      28.752  30.581  11.343  1.00 18.94     0.276 C 
ATOM     19  OD1 ASN A 133      28.586  29.597  10.620  1.00 18.09    -0.269 OA
ATOM     20  ND2 ASN A 133      27.771  31.125  12.062  1.00 18.93    -0.107 N 
ENDBRANCH  17  18
ENDBRANCH  16  17
END_RES ASN A 133
