REMARK VINA RESULT:    -4.157      8.092     11.566
REMARK INTER + INTRA:          -7.749
REMARK INTER:                  -4.535
REMARK INTRA:                  -3.214
REMARK UNBOUND:                -3.228
REMARK SMILES Cc1cn(-c2nc(C)nc(N)n2)nn1
REMARK SMILES IDX 5 1 12 2 10 3 9 4 7 5 8 6 6 7 4 8 1 9 2 10 3 11 14 12 13 13
REMARK SMILES IDX 11 14
REMARK H PARENT 11 15 11 16
REMARK Flexibility Score: inf
ROOT
ATOM      1  C   UNL     1      36.504  38.337   3.792  1.00  0.00     0.257 A 
ATOM      2  N   UNL     1      36.384  37.888   2.543  1.00  0.00    -0.175 NA
ATOM      3  C   UNL     1      37.443  37.362   1.918  1.00  0.00     0.225 A 
ATOM      4  N   UNL     1      38.625  37.288   2.554  1.00  0.00    -0.198 NA
ATOM      5  C   UNL     1      38.763  37.738   3.819  1.00  0.00     0.133 A 
ATOM      6  C   UNL     1      40.075  37.657   4.527  1.00  0.00     0.090 C 
ATOM      7  N   UNL     1      37.681  38.257   4.409  1.00  0.00    -0.196 NA
ENDROOT
BRANCH   1   8
ATOM      8  N   UNL     1      35.372  38.894   4.446  1.00  0.00    -0.185 N 
ATOM      9  C   UNL     1      33.216  39.809   7.248  1.00  0.00     0.070 C 
ATOM     10  C   UNL     1      33.899  39.557   5.966  1.00  0.00     0.080 A 
ATOM     11  C   UNL     1      35.098  38.919   5.769  1.00  0.00     0.144 A 
ATOM     12  N   UNL     1      33.464  39.907   4.754  1.00  0.00    -0.135 NA
ATOM     13  N   UNL     1      34.360  39.501   3.870  1.00  0.00    -0.059 NA
ENDBRANCH   1   8
BRANCH   3  14
ATOM     14  N   UNL     1      37.254  36.901   0.588  1.00  0.00    -0.368 N 
ATOM     15  H   UNL     1      38.074  36.730  -0.030  1.00  0.00     0.159 HD
ATOM     16  H   UNL     1      36.303  36.724   0.207  1.00  0.00     0.159 HD
ENDBRANCH   3  14
TORSDOF 2
BEGIN_RES LYS A 135
REMARK  4 active torsions:
REMARK  status: ('A' for Active; 'I' for Inactive)
REMARK    1  A    between atoms: CA   and  CB  
REMARK    2  A    between atoms: CB   and  CG  
REMARK    3  A    between atoms: CG   and  CD  
REMARK    4  A    between atoms: CD   and  CE  
ROOT
ATOM      1  CA  LYS A 135      33.193  34.663   9.290  1.00 25.02     0.186 C 
ENDROOT
BRANCH   1   2
ATOM      2  CB  LYS A 135      32.060  35.360  10.034  1.00 26.63     0.034 C 
BRANCH   2   3
ATOM      3  CG  LYS A 135      30.723  34.687   9.862  1.00 29.45     0.005 C 
BRANCH   3   4
ATOM      4  CD  LYS A 135      30.381  34.541   8.387  1.00 32.00     0.041 C 
BRANCH   4   5
ATOM      5  CE  LYS A 135      28.879  34.588   8.181  1.00 34.25     0.338 C 
ATOM      6  NZ  LYS A 135      28.163  33.919   9.302  1.00 35.99     0.618 N 
ENDBRANCH   4   5
ENDBRANCH   3   4
ENDBRANCH   2   3
ENDBRANCH   1   2
END_RES LYS A 135
BEGIN_RES TYR A 136
REMARK  2 active torsions:
REMARK  status: ('A' for Active; 'I' for Inactive)
REMARK    5  A    between atoms: CA   and  CB  
REMARK    6  A    between atoms: CB   and  CG  
ROOT
ATOM      7  CA  TYR A 136      36.583  36.399   8.994  1.00 26.14     0.191 C 
ENDROOT
BRANCH   7   8
ATOM      8  CB  TYR A 136      37.367  36.835  10.240  1.00 28.16     0.060 C 
BRANCH   8   9
ATOM      9  CG  TYR A 136      37.227  38.310  10.527  1.00 31.88    -0.020 A 
ATOM     10  CD2 TYR A 136      37.847  38.893  11.634  1.00 32.67    -0.002 A 
ATOM     11  CE2 TYR A 136      37.709  40.264  11.893  1.00 33.89     0.027 A 
ATOM     12  CZ  TYR A 136      36.943  41.058  11.036  1.00 34.34     0.131 A 
ATOM     13  OH  TYR A 136      36.798  42.418  11.269  1.00 35.14    -0.190 OA
ATOM     14  CE1 TYR A 136      36.318  40.494   9.933  1.00 35.01     0.027 A 
ATOM     15  CD1 TYR A 136      36.458  39.127   9.689  1.00 33.57    -0.002 A 
ENDBRANCH   8   9
ENDBRANCH   7   8
END_RES TYR A 136
BEGIN_RES ASN A 133
REMARK  2 active torsions:
REMARK  status: ('A' for Active; 'I' for Inactive)
REMARK    7  A    between atoms: CA   and  CB  
REMARK    8  A    between atoms: CB   and  CG  
ROOT
ATOM     16  CA  ASN A 133      31.225  30.257  11.749  1.00 18.15     0.196 C 
ENDROOT
BRANCH  16  17
ATOM     17  CB  ASN A 133      30.092  31.240  11.460  1.00 18.27     0.126 C 
BRANCH  17  18
ATOM     18  CG  ASN A 133      28.748  30.585  11.375  1.00 18.94     0.276 C 
ATOM     19  OD1 ASN A 133      28.565  29.592  10.668  1.00 18.09    -0.269 OA
ATOM     20  ND2 ASN A 133      27.781  31.143  12.103  1.00 18.93    -0.107 N 
ENDBRANCH  17  18
ENDBRANCH  16  17
END_RES ASN A 133
