REMARK VINA RESULT:    -3.614      6.313      7.941
REMARK INTER + INTRA:          -7.488
REMARK INTER:                  -4.044
REMARK INTRA:                  -3.444
REMARK UNBOUND:                -3.346
REMARK SMILES Cc1cn(C(C)(C)C(=O)O)nn1
REMARK SMILES IDX 5 1 6 2 7 3 4 4 1 5 2 6 3 7 12 8 11 9 8 10 9 11 10 12
REMARK H PARENT 10 13
REMARK Flexibility Score: inf
ROOT
ATOM      1  C   UNL     1      37.903  38.541   1.600  1.00  0.00     0.155 C 
ATOM      2  C   UNL     1      38.682  38.675   0.308  1.00  0.00     0.049 C 
ATOM      3  C   UNL     1      37.474  39.937   2.003  1.00  0.00     0.049 C 
ENDROOT
BRANCH   1   4
ATOM      4  N   UNL     1      38.716  38.014   2.675  1.00  0.00    -0.235 N 
ATOM      5  C   UNL     1      41.285  38.111   5.225  1.00  0.00     0.070 C 
ATOM      6  C   UNL     1      40.192  37.806   4.265  1.00  0.00     0.080 A 
ATOM      7  C   UNL     1      39.677  38.674   3.330  1.00  0.00     0.135 A 
ATOM      8  N   UNL     1      39.529  36.643   4.155  1.00  0.00    -0.136 NA
ATOM      9  N   UNL     1      38.651  36.806   3.189  1.00  0.00    -0.066 NA
ENDBRANCH   1   4
BRANCH   1  10
ATOM     10  C   UNL     1      36.748  37.646   1.396  1.00  0.00     0.331 C 
ATOM     11  O   UNL     1      35.636  37.908   1.926  1.00  0.00    -0.250 OA
BRANCH  10  12
ATOM     12  O   UNL     1      36.932  36.516   0.609  1.00  0.00    -0.479 OA
ATOM     13  H   UNL     1      37.178  36.674  -0.374  1.00  0.00     0.296 HD
ENDBRANCH  10  12
ENDBRANCH   1  10
TORSDOF 3
BEGIN_RES LYS A 135
REMARK  4 active torsions:
REMARK  status: ('A' for Active; 'I' for Inactive)
REMARK    1  A    between atoms: CA   and  CB  
REMARK    2  A    between atoms: CB   and  CG  
REMARK    3  A    between atoms: CG   and  CD  
REMARK    4  A    between atoms: CD   and  CE  
ROOT
ATOM      1  CA  LYS A 135      33.193  34.663   9.290  1.00 25.02     0.186 C 
ENDROOT
BRANCH   1   2
ATOM      2  CB  LYS A 135      32.060  35.360  10.034  1.00 26.63     0.034 C 
BRANCH   2   3
ATOM      3  CG  LYS A 135      30.703  34.764   9.761  1.00 29.45     0.005 C 
BRANCH   3   4
ATOM      4  CD  LYS A 135      30.480  34.599   8.266  1.00 32.00     0.041 C 
BRANCH   4   5
ATOM      5  CE  LYS A 135      29.029  34.859   7.912  1.00 34.25     0.338 C 
ATOM      6  NZ  LYS A 135      28.914  35.570   6.608  1.00 35.99     0.618 N 
ENDBRANCH   4   5
ENDBRANCH   3   4
ENDBRANCH   2   3
ENDBRANCH   1   2
END_RES LYS A 135
BEGIN_RES TYR A 136
REMARK  2 active torsions:
REMARK  status: ('A' for Active; 'I' for Inactive)
REMARK    5  A    between atoms: CA   and  CB  
REMARK    6  A    between atoms: CB   and  CG  
ROOT
ATOM      7  CA  TYR A 136      36.583  36.399   8.994  1.00 26.14     0.191 C 
ENDROOT
BRANCH   7   8
ATOM      8  CB  TYR A 136      37.367  36.835  10.240  1.00 28.16     0.060 C 
BRANCH   8   9
ATOM      9  CG  TYR A 136      37.228  38.310  10.527  1.00 31.88    -0.020 A 
ATOM     10  CD2 TYR A 136      36.480  39.142   9.690  1.00 32.67    -0.002 A 
ATOM     11  CE2 TYR A 136      36.358  40.511   9.964  1.00 33.89     0.027 A 
ATOM     12  CZ  TYR A 136      36.990  41.053  11.086  1.00 34.34     0.131 A 
ATOM     13  OH  TYR A 136      36.878  42.404  11.381  1.00 35.14    -0.190 OA
ATOM     14  CE1 TYR A 136      37.737  40.241  11.927  1.00 35.01     0.027 A 
ATOM     15  CD1 TYR A 136      37.857  38.880  11.640  1.00 33.57    -0.002 A 
ENDBRANCH   8   9
ENDBRANCH   7   8
END_RES TYR A 136
BEGIN_RES ASN A 133
REMARK  2 active torsions:
REMARK  status: ('A' for Active; 'I' for Inactive)
REMARK    7  A    between atoms: CA   and  CB  
REMARK    8  A    between atoms: CB   and  CG  
ROOT
ATOM     16  CA  ASN A 133      31.225  30.257  11.749  1.00 18.15     0.196 C 
ENDROOT
BRANCH  16  17
ATOM     17  CB  ASN A 133      30.092  31.240  11.460  1.00 18.27     0.126 C 
BRANCH  17  18
ATOM     18  CG  ASN A 133      28.749  30.585  11.370  1.00 18.94     0.276 C 
ATOM     19  OD1 ASN A 133      28.563  29.608  10.641  1.00 18.09    -0.269 OA
ATOM     20  ND2 ASN A 133      27.786  31.123  12.117  1.00 18.93    -0.107 N 
ENDBRANCH  17  18
ENDBRANCH  16  17
END_RES ASN A 133
