REMARK VINA RESULT:    -4.496      8.955     15.557
REMARK INTER + INTRA:          -8.919
REMARK INTER:                  -5.575
REMARK INTRA:                  -3.344
REMARK UNBOUND:                -3.372
REMARK SMILES COc1ccc(Cn2cc(C)nn2)cc1OC
REMARK SMILES IDX 6 1 14 2 15 3 3 4 4 5 5 6 7 7 8 8 11 9 10 10 9 11 12 12
REMARK SMILES IDX 13 13 16 14 17 15 2 16 1 17
REMARK H PARENT
REMARK Flexibility Score: inf
ROOT
ATOM      1  C   UNL     1      21.942  33.595  -0.849  1.00  0.00    -0.023 A 
ATOM      2  C   UNL     1      21.766  32.502  -1.668  1.00  0.00     0.056 A 
ATOM      3  C   UNL     1      22.084  31.215  -1.263  1.00  0.00     0.161 A 
ATOM      4  C   UNL     1      22.594  30.998  -0.005  1.00  0.00     0.160 A 
ATOM      5  C   UNL     1      22.762  32.105   0.799  1.00  0.00     0.051 A 
ATOM      6  C   UNL     1      22.449  33.388   0.408  1.00  0.00     0.010 A 
ENDROOT
BRANCH   1   7
ATOM      7  C   UNL     1      21.571  34.922  -1.380  1.00  0.00     0.181 C 
BRANCH   7   8
ATOM      8  N   UNL     1      22.729  35.779  -1.608  1.00  0.00    -0.248 N 
ATOM      9  C   UNL     1      24.755  38.834  -1.386  1.00  0.00     0.070 C 
ATOM     10  C   UNL     1      24.126  37.498  -1.608  1.00  0.00     0.080 A 
ATOM     11  C   UNL     1      22.897  37.044  -1.187  1.00  0.00     0.134 A 
ATOM     12  N   UNL     1      24.668  36.474  -2.282  1.00  0.00    -0.136 NA
ATOM     13  N   UNL     1      23.826  35.470  -2.268  1.00  0.00    -0.067 NA
ENDBRANCH   7   8
ENDBRANCH   1   7
BRANCH   3  14
ATOM     14  O   UNL     1      21.905  30.124  -2.091  1.00  0.00    -0.493 OA
ATOM     15  C   UNL     1      20.589  29.641  -2.282  1.00  0.00     0.278 C 
ENDBRANCH   3  14
BRANCH   4  16
ATOM     16  O   UNL     1      22.924  29.738   0.440  1.00  0.00    -0.493 OA
ATOM     17  C   UNL     1      23.504  29.462   1.682  1.00  0.00     0.278 C 
ENDBRANCH   4  16
TORSDOF 4
BEGIN_RES LYS A 135
REMARK  4 active torsions:
REMARK  status: ('A' for Active; 'I' for Inactive)
REMARK    1  A    between atoms: CA   and  CB  
REMARK    2  A    between atoms: CB   and  CG  
REMARK    3  A    between atoms: CG   and  CD  
REMARK    4  A    between atoms: CD   and  CE  
ROOT
ATOM      1  CA  LYS A 135      33.193  34.663   9.290  1.00 25.02     0.186 C 
ENDROOT
BRANCH   1   2
ATOM      2  CB  LYS A 135      32.060  35.360  10.034  1.00 26.63     0.034 C 
BRANCH   2   3
ATOM      3  CG  LYS A 135      30.701  34.777   9.745  1.00 29.45     0.005 C 
BRANCH   3   4
ATOM      4  CD  LYS A 135      30.522  34.547   8.252  1.00 32.00     0.041 C 
BRANCH   4   5
ATOM      5  CE  LYS A 135      29.080  34.783   7.846  1.00 34.25     0.338 C 
ATOM      6  NZ  LYS A 135      28.965  35.954   6.933  1.00 35.99     0.618 N 
ENDBRANCH   4   5
ENDBRANCH   3   4
ENDBRANCH   2   3
ENDBRANCH   1   2
END_RES LYS A 135
BEGIN_RES TYR A 136
REMARK  2 active torsions:
REMARK  status: ('A' for Active; 'I' for Inactive)
REMARK    5  A    between atoms: CA   and  CB  
REMARK    6  A    between atoms: CB   and  CG  
ROOT
ATOM      7  CA  TYR A 136      36.583  36.399   8.994  1.00 26.14     0.191 C 
ENDROOT
BRANCH   7   8
ATOM      8  CB  TYR A 136      37.367  36.835  10.240  1.00 28.16     0.060 C 
BRANCH   8   9
ATOM      9  CG  TYR A 136      37.225  38.309  10.528  1.00 31.88    -0.020 A 
ATOM     10  CD2 TYR A 136      36.469  39.139   9.697  1.00 32.67    -0.002 A 
ATOM     11  CE2 TYR A 136      36.345  40.508   9.973  1.00 33.89     0.027 A 
ATOM     12  CZ  TYR A 136      36.984  41.051  11.091  1.00 34.34     0.131 A 
ATOM     13  OH  TYR A 136      36.869  42.402  11.387  1.00 35.14    -0.190 OA
ATOM     14  CE1 TYR A 136      37.739  40.241  11.926  1.00 35.01     0.027 A 
ATOM     15  CD1 TYR A 136      37.861  38.881  11.638  1.00 33.57    -0.002 A 
ENDBRANCH   8   9
ENDBRANCH   7   8
END_RES TYR A 136
BEGIN_RES ASN A 133
REMARK  2 active torsions:
REMARK  status: ('A' for Active; 'I' for Inactive)
REMARK    7  A    between atoms: CA   and  CB  
REMARK    8  A    between atoms: CB   and  CG  
ROOT
ATOM     16  CA  ASN A 133      31.225  30.257  11.749  1.00 18.15     0.196 C 
ENDROOT
BRANCH  16  17
ATOM     17  CB  ASN A 133      30.092  31.240  11.460  1.00 18.27     0.126 C 
BRANCH  17  18
ATOM     18  CG  ASN A 133      28.755  30.579  11.326  1.00 18.94     0.276 C 
ATOM     19  OD1 ASN A 133      28.588  29.625  10.564  1.00 18.09    -0.269 OA
ATOM     20  ND2 ASN A 133      27.776  31.088  12.073  1.00 18.93    -0.107 N 
ENDBRANCH  17  18
ENDBRANCH  16  17
END_RES ASN A 133
