REMARK VINA RESULT:    -3.388      7.846     12.889
REMARK INTER + INTRA:          -7.142
REMARK INTER:                  -3.925
REMARK INTRA:                  -3.217
REMARK UNBOUND:                -3.259
REMARK SMILES Cc1cn(-c2ccc(CO)cn2)nn1
REMARK SMILES IDX 5 1 6 2 7 3 8 4 11 5 12 6 4 7 1 8 2 9 3 10 14 11 13 12 9 13
REMARK SMILES IDX 10 14
REMARK H PARENT 10 15
REMARK Flexibility Score: inf
ROOT
ATOM      1  C   UNL     1      26.164  29.687  16.841  1.00  0.00     0.155 A 
ATOM      2  C   UNL     1      25.564  28.664  17.554  1.00  0.00     0.049 A 
ATOM      3  C   UNL     1      26.151  28.105  18.682  1.00  0.00     0.011 A 
ATOM      4  C   UNL     1      27.370  28.612  19.071  1.00  0.00    -0.004 A 
ATOM      5  C   UNL     1      27.956  29.636  18.346  1.00  0.00     0.119 A 
ATOM      6  N   UNL     1      27.354  30.151  17.258  1.00  0.00    -0.237 NA
ENDROOT
BRANCH   1   7
ATOM      7  N   UNL     1      25.540  30.247  15.683  1.00  0.00    -0.202 N 
ATOM      8  C   UNL     1      23.187  30.462  12.863  1.00  0.00     0.070 C 
ATOM      9  C   UNL     1      24.233  30.621  13.910  1.00  0.00     0.080 A 
ATOM     10  C   UNL     1      24.525  29.748  14.949  1.00  0.00     0.142 A 
ATOM     11  N   UNL     1      25.105  31.637  14.062  1.00  0.00    -0.135 NA
ATOM     12  N   UNL     1      25.881  31.400  15.128  1.00  0.00    -0.061 NA
ENDBRANCH   1   7
BRANCH   4  13
ATOM     13  C   UNL     1      28.050  28.055  20.272  1.00  0.00     0.193 C 
BRANCH  13  14
ATOM     14  O   UNL     1      29.266  27.516  19.918  1.00  0.00    -0.392 OA
ATOM     15  H   UNL     1      29.390  26.647  20.385  1.00  0.00     0.211 HD
ENDBRANCH  13  14
ENDBRANCH   4  13
TORSDOF 3
BEGIN_RES LYS A 135
REMARK  4 active torsions:
REMARK  status: ('A' for Active; 'I' for Inactive)
REMARK    1  A    between atoms: CA   and  CB  
REMARK    2  A    between atoms: CB   and  CG  
REMARK    3  A    between atoms: CG   and  CD  
REMARK    4  A    between atoms: CD   and  CE  
ROOT
ATOM      1  CA  LYS A 135      33.193  34.663   9.290  1.00 25.02     0.186 C 
ENDROOT
BRANCH   1   2
ATOM      2  CB  LYS A 135      32.060  35.360  10.034  1.00 26.63     0.034 C 
BRANCH   2   3
ATOM      3  CG  LYS A 135      30.705  34.753   9.775  1.00 29.45     0.005 C 
BRANCH   3   4
ATOM      4  CD  LYS A 135      30.469  34.586   8.282  1.00 32.00     0.041 C 
BRANCH   4   5
ATOM      5  CE  LYS A 135      29.021  34.877   7.936  1.00 34.25     0.338 C 
ATOM      6  NZ  LYS A 135      28.913  35.575   6.625  1.00 35.99     0.618 N 
ENDBRANCH   4   5
ENDBRANCH   3   4
ENDBRANCH   2   3
ENDBRANCH   1   2
END_RES LYS A 135
BEGIN_RES TYR A 136
REMARK  2 active torsions:
REMARK  status: ('A' for Active; 'I' for Inactive)
REMARK    5  A    between atoms: CA   and  CB  
REMARK    6  A    between atoms: CB   and  CG  
ROOT
ATOM      7  CA  TYR A 136      36.583  36.399   8.994  1.00 26.14     0.191 C 
ENDROOT
BRANCH   7   8
ATOM      8  CB  TYR A 136      37.367  36.835  10.240  1.00 28.16     0.060 C 
BRANCH   8   9
ATOM      9  CG  TYR A 136      37.253  38.315  10.509  1.00 31.88    -0.020 A 
ATOM     10  CD2 TYR A 136      36.420  39.128   9.737  1.00 32.67    -0.002 A 
ATOM     11  CE2 TYR A 136      36.322  40.503   9.994  1.00 33.89     0.027 A 
ATOM     12  CZ  TYR A 136      37.065  41.069  11.033  1.00 34.34     0.131 A 
ATOM     13  OH  TYR A 136      36.978  42.426  11.310  1.00 35.14    -0.190 OA
ATOM     14  CE1 TYR A 136      37.898  40.276  11.809  1.00 35.01     0.027 A 
ATOM     15  CD1 TYR A 136      37.992  38.910  11.540  1.00 33.57    -0.002 A 
ENDBRANCH   8   9
ENDBRANCH   7   8
END_RES TYR A 136
BEGIN_RES ASN A 133
REMARK  2 active torsions:
REMARK  status: ('A' for Active; 'I' for Inactive)
REMARK    7  A    between atoms: CA   and  CB  
REMARK    8  A    between atoms: CB   and  CG  
ROOT
ATOM     16  CA  ASN A 133      31.225  30.257  11.749  1.00 18.15     0.196 C 
ENDROOT
BRANCH  16  17
ATOM     17  CB  ASN A 133      30.092  31.240  11.460  1.00 18.27     0.126 C 
BRANCH  17  18
ATOM     18  CG  ASN A 133      28.758  30.577  11.309  1.00 18.94     0.276 C 
ATOM     19  OD1 ASN A 133      28.609  29.603  10.568  1.00 18.09    -0.269 OA
ATOM     20  ND2 ASN A 133      27.761  31.107  12.016  1.00 18.93    -0.107 N 
ENDBRANCH  17  18
ENDBRANCH  16  17
END_RES ASN A 133
