REMARK VINA RESULT:    -3.051      8.291     13.870
REMARK INTER + INTRA:          -7.355
REMARK INTER:                  -4.071
REMARK INTRA:                  -3.284
REMARK UNBOUND:                -3.413
REMARK SMILES CCN(CC)CCn1cc(C)nn1
REMARK SMILES IDX 6 1 7 2 8 3 11 4 10 5 9 6 12 7 13 8 3 9 2 10 1 11 4 12 5 13
REMARK H PARENT
REMARK Flexibility Score: inf
ROOT
ATOM      1  C   UNL     1      35.220  35.957  13.913  1.00  0.00     0.108 C 
ENDROOT
BRANCH   1   2
ATOM      2  C   UNL     1      35.253  34.628  13.259  1.00  0.00     0.161 C 
BRANCH   2   3
ATOM      3  N   UNL     1      36.643  34.165  13.055  1.00  0.00    -0.251 N 
ATOM      4  C   UNL     1      40.297  34.244  13.225  1.00  0.00     0.070 C 
ATOM      5  C   UNL     1      38.855  34.008  13.047  1.00  0.00     0.080 A 
ATOM      6  C   UNL     1      37.778  34.779  13.428  1.00  0.00     0.134 A 
ATOM      7  N   UNL     1      38.323  32.934  12.445  1.00  0.00    -0.136 NA
ATOM      8  N   UNL     1      37.013  33.035  12.454  1.00  0.00    -0.067 NA
ENDBRANCH   2   3
ENDBRANCH   1   2
BRANCH   1   9
ATOM      9  N   UNL     1      34.198  36.863  13.584  1.00  0.00    -0.302 NA
BRANCH   9  10
ATOM     10  C   UNL     1      33.436  36.685  12.413  1.00  0.00     0.081 C 
ATOM     11  C   UNL     1      33.268  37.971  11.677  1.00  0.00     0.021 C 
ENDBRANCH   9  10
BRANCH   9  12
ATOM     12  C   UNL     1      33.468  37.346  14.742  1.00  0.00     0.081 C 
ATOM     13  C   UNL     1      34.093  38.565  15.354  1.00  0.00     0.021 C 
ENDBRANCH   9  12
ENDBRANCH   1   9
TORSDOF 5
BEGIN_RES LYS A 135
REMARK  4 active torsions:
REMARK  status: ('A' for Active; 'I' for Inactive)
REMARK    1  A    between atoms: CA   and  CB  
REMARK    2  A    between atoms: CB   and  CG  
REMARK    3  A    between atoms: CG   and  CD  
REMARK    4  A    between atoms: CD   and  CE  
ROOT
ATOM      1  CA  LYS A 135      33.193  34.663   9.290  1.00 25.02     0.186 C 
ENDROOT
BRANCH   1   2
ATOM      2  CB  LYS A 135      32.060  35.360  10.034  1.00 26.63     0.034 C 
BRANCH   2   3
ATOM      3  CG  LYS A 135      30.826  35.567   9.195  1.00 29.45     0.005 C 
BRANCH   3   4
ATOM      4  CD  LYS A 135      30.130  34.241   8.928  1.00 32.00     0.041 C 
BRANCH   4   5
ATOM      5  CE  LYS A 135      28.649  34.457   8.682  1.00 34.25     0.338 C 
ATOM      6  NZ  LYS A 135      27.826  33.717   9.679  1.00 35.99     0.618 N 
ENDBRANCH   4   5
ENDBRANCH   3   4
ENDBRANCH   2   3
ENDBRANCH   1   2
END_RES LYS A 135
BEGIN_RES TYR A 136
REMARK  2 active torsions:
REMARK  status: ('A' for Active; 'I' for Inactive)
REMARK    5  A    between atoms: CA   and  CB  
REMARK    6  A    between atoms: CB   and  CG  
ROOT
ATOM      7  CA  TYR A 136      36.583  36.399   8.994  1.00 26.14     0.191 C 
ENDROOT
BRANCH   7   8
ATOM      8  CB  TYR A 136      37.367  36.835  10.240  1.00 28.16     0.060 C 
BRANCH   8   9
ATOM      9  CG  TYR A 136      36.914  38.172  10.772  1.00 31.88    -0.020 A 
ATOM     10  CD2 TYR A 136      36.351  39.133   9.929  1.00 32.67    -0.002 A 
ATOM     11  CE2 TYR A 136      35.935  40.373  10.432  1.00 33.89     0.027 A 
ATOM     12  CZ  TYR A 136      36.085  40.655  11.793  1.00 34.34     0.131 A 
ATOM     13  OH  TYR A 136      35.673  41.873  12.315  1.00 35.14    -0.190 OA
ATOM     14  CE1 TYR A 136      36.643  39.713  12.644  1.00 35.01     0.027 A 
ATOM     15  CD1 TYR A 136      37.060  38.484  12.130  1.00 33.57    -0.002 A 
ENDBRANCH   8   9
ENDBRANCH   7   8
END_RES TYR A 136
BEGIN_RES ASN A 133
REMARK  2 active torsions:
REMARK  status: ('A' for Active; 'I' for Inactive)
REMARK    7  A    between atoms: CA   and  CB  
REMARK    8  A    between atoms: CB   and  CG  
ROOT
ATOM     16  CA  ASN A 133      31.225  30.257  11.749  1.00 18.15     0.196 C 
ENDROOT
BRANCH  16  17
ATOM     17  CB  ASN A 133      30.092  31.240  11.460  1.00 18.27     0.126 C 
BRANCH  17  18
ATOM     18  CG  ASN A 133      28.757  30.578  11.315  1.00 18.94     0.276 C 
ATOM     19  OD1 ASN A 133      28.597  29.625  10.551  1.00 18.09    -0.269 OA
ATOM     20  ND2 ASN A 133      27.772  31.084  12.056  1.00 18.93    -0.107 N 
ENDBRANCH  17  18
ENDBRANCH  16  17
END_RES ASN A 133
