ligand_84_pose_0_2HRL.pdbqt
 OpenBabel07062320523D

 60 62  0  0  1  0  0  0  0  0999 V2000
   22.3660   34.8700   10.7090 O   0  0  0  0  0  0  0  0  0  0  0  0
   23.1020   36.0210   10.4720 C   0  0  0  0  0  0  0  0  0  0  0  0
   24.4040   36.2580   10.9950 N   0  0  0  0  0  0  0  0  0  0  0  0
   24.8040   35.5130   11.5960 H   0  0  0  0  0  0  0  0  0  0  0  0
   22.5500   36.8880    9.7410 O   0  0  0  0  0  0  0  0  0  0  0  0
   25.0300   37.4910   10.6430 C   0  0  0  0  0  0  0  0  0  0  0  0
   25.9360   37.4670    9.4780 C   0  0  2  0  0  0  0  0  0  0  0  0
   25.7250   38.5740    8.4600 C   0  0  1  0  0  0  0  0  0  0  0  0
   26.6550   38.1990    7.3050 C   0  0  2  0  0  0  0  0  0  0  0  0
   28.8070   37.3440    7.0120 C   0  0  2  0  0  0  0  0  0  0  0  0
   29.0210   38.2810    5.8580 C   0  0  0  0  0  0  0  0  0  0  0  0
   27.8080   37.7250    7.8670 O   0  0  0  0  0  0  0  0  0  0  0  0
   27.7780   38.8590    5.2830 C   0  0  1  0  0  0  0  0  0  0  0  0
   26.9370   39.3970    6.4600 C   0  0  1  0  0  0  0  0  0  0  0  0
   30.0130   37.4060    7.7560 O   0  0  0  0  0  0  0  0  0  0  0  0
   30.7850   37.5160    7.1700 H   0  0  0  0  0  0  0  0  0  0  0  0
   28.6660   35.9200    6.5860 C   0  0  0  0  0  0  0  0  0  0  0  0
   27.5530   35.3420    6.6690 O   0  0  0  0  0  0  0  0  0  0  0  0
   29.7240   35.1750    6.0860 O   0  0  0  0  0  0  0  0  0  0  0  0
   29.6210   34.3660    5.4850 H   0  0  0  0  0  0  0  0  0  0  0  0
   28.1210   39.9380    4.4680 O   0  0  0  0  0  0  0  0  0  0  0  0
   27.3300   40.2600    3.9610 H   0  0  0  0  0  0  0  0  0  0  0  0
   25.7470   40.0340    5.9620 N   0  0  0  0  0  0  0  0  0  0  0  0
   25.4930   41.4040    6.1980 C   0  0  0  0  0  0  0  0  0  0  0  0
   25.0650   39.4760    5.4220 H   0  0  0  0  0  0  0  0  0  0  0  0
   24.2270   41.9630    5.6370 C   0  0  0  0  0  0  0  0  0  0  0  0
   26.2680   42.1450    6.8390 O   0  0  0  0  0  0  0  0  0  0  0  0
   24.3840   38.5530    8.0460 O   0  0  0  0  0  0  0  0  0  0  0  0
   24.3900   38.7990    7.0860 H   0  0  0  0  0  0  0  0  0  0  0  0
   25.6280   36.2830    8.7510 O   0  0  0  0  0  0  0  0  0  0  0  0
   25.6870   36.5670    7.7940 H   0  0  0  0  0  0  0  0  0  0  0  0
   22.0320   34.4810   12.0310 C   0  0  0  0  0  0  0  0  0  0  0  0
   23.0120   33.4980   12.5450 C   0  0  0  0  0  0  0  0  0  0  0  0
   22.6920   32.1780   12.8740 C   0  0  0  0  0  0  0  0  0  0  0  0
   24.3260   33.5880   12.7930 N   0  0  0  0  0  0  0  0  0  0  0  0
   23.7840   31.5260   13.2970 N   0  0  0  0  0  0  0  0  0  0  0  0
   24.7850   32.4320   13.2380 N   0  0  0  0  0  0  0  0  0  0  0  0
   23.9330   30.1450   13.7190 C   0  0  0  0  0  0  0  0  0  0  0  0
   23.7190   30.0540   15.2350 C   0  0  1  0  0  0  0  0  0  0  0  0
   22.3790   29.5210   15.5770 C   0  0  0  0  0  0  0  0  0  0  0  0
   24.9060   29.5250   15.9250 C   0  0  0  0  0  0  0  0  0  0  0  0
   26.0810   30.3180   15.7430 N   0  0  0  0  0  0  0  0  0  0  0  0
   25.9440   31.6000   16.4870 C   0  0  0  0  0  0  0  0  0  0  0  0
   27.2180   29.6740   16.3930 C   0  0  0  0  0  0  0  0  0  0  0  0
   27.2070   32.3860   16.4580 C   0  0  0  0  0  0  0  0  0  0  0  0
   28.4460   30.3140   15.7260 C   0  0  0  0  0  0  0  0  0  0  0  0
   28.3480   31.7350   15.8940 N   0  0  0  0  0  0  0  0  0  0  0  0
   29.4570   32.5240   15.4780 C   0  0  0  0  0  0  0  0  0  0  0  0
   30.7250   32.1770   15.8890 C   0  0  0  0  0  0  0  0  0  0  0  0
   29.2770   33.6400   14.6740 C   0  0  0  0  0  0  0  0  0  0  0  0
   31.7920   32.9480   15.4910 C   0  0  0  0  0  0  0  0  0  0  0  0
   30.3480   34.4020   14.2850 C   0  0  0  0  0  0  0  0  0  0  0  0
   31.6210   34.0450   14.7010 C   0  0  0  0  0  0  0  0  0  0  0  0
   32.9710   35.0290   14.2030 Cl  0  0  0  0  0  0  0  0  0  0  0  0
   29.8670   25.5550   16.9770 C   0  0  0  0  0  0  0  0  0  0  0  0
   28.3450   25.7220   17.0260 C   0  0  0  0  0  0  0  0  0  0  0  0
   27.6020   24.3990   16.9230 C   0  0  0  0  0  0  0  0  0  0  0  0
   26.5900   24.2300   18.0220 C   0  0  0  0  0  0  0  0  0  0  0  0
   26.3950   25.5600   18.7430 C   0  0  0  0  0  0  0  0  0  0  0  0
   25.5380   25.3810   19.9390 N   0  0  0  0  0  0  0  0  0  0  0  0
  1 32  1  0  0  0  0
  2  1  1  0  0  0  0
  2  3  1  0  0  0  0
  3  4  1  0  0  0  0
  5  2  2  0  0  0  0
  6  3  1  0  0  0  0
  7  6  1  1  0  0  0
  8 28  1  6  0  0  0
  8  7  1  0  0  0  0
  9 12  1  0  0  0  0
  9  8  1  1  0  0  0
 10 17  1  6  0  0  0
 10 15  1  0  0  0  0
 10 12  1  0  0  0  0
 11 10  1  0  0  0  0
 13 21  1  6  0  0  0
 13 11  1  0  0  0  0
 13 14  1  0  0  0  0
 14 23  1  6  0  0  0
 14  9  1  0  0  0  0
 16 15  1  0  0  0  0
 17 18  2  0  0  0  0
 19 17  1  0  0  0  0
 20 19  1  0  0  0  0
 22 21  1  0  0  0  0
 23 24  1  0  0  0  0
 24 27  2  0  0  0  0
 25 23  1  0  0  0  0
 26 24  1  0  0  0  0
 29 28  1  0  0  0  0
 30  7  1  0  0  0  0
 31 30  1  0  0  0  0
 32 33  1  0  0  0  0
 33 35  1  0  0  0  0
 33 34  2  0  0  0  0
 34 36  1  0  0  0  0
 35 37  2  0  0  0  0
 36 38  1  0  0  0  0
 37 36  1  0  0  0  0
 38 39  1  0  0  0  0
 39 40  1  6  0  0  0
 39 41  1  0  0  0  0
 42 41  1  0  0  0  0
 42 44  1  0  0  0  0
 42 43  1  0  0  0  0
 45 43  1  0  0  0  0
 46 47  1  0  0  0  0
 46 44  1  0  0  0  0
 47 45  1  0  0  0  0
 48 49  2  0  0  0  0
 48 47  1  0  0  0  0
 50 48  1  0  0  0  0
 51 49  1  0  0  0  0
 52 50  2  0  0  0  0
 52 53  1  0  0  0  0
 53 51  2  0  0  0  0
 54 53  1  0  0  0  0
 55 56  1  0  0  0  0
 57 56  1  0  0  0  0
 57 58  1  0  0  0  0
 58 59  1  0  0  0  0
 59 60  1  0  0  0  0
M  END
>  <REMARK>
 VINA RESULT:    -5.392      0.000      0.000
 INTER + INTRA:         -16.715
 INTER:                 -11.691
 INTRA:                  -5.023
 UNBOUND:                -6.121
 SMILES CC(=O)N[C@@H]1[C@@H](O)C[C@](O)(C(=O)O)O[C@H]1C(O)[C@H](O)CNC(=O)OCc1cn(C[C@@H](C)CN2CCN(c3ccc(Cl)cc3)CC2)nn1
 SMILES IDX 24 1 22 2 21 3 23 5 20 6 18 7 16 8 15 9 9 10 8 11 14 12 6 13
 SMILES IDX 5 14 10 15 11 17 12 18 13 19 7 21 4 23 2 24 1 26 3 27 17 28
 SMILES IDX 19 30 25 32 26 33 27 34 47 35 28 36 46 37 29 38 30 39 31 40
 SMILES IDX 32 41 33 42 34 43 45 44 35 45 44 46 36 47 37 48 38 49 43 50
 SMILES IDX 39 51 42 52 40 53 41 54
 H PARENT 21 4 10 16 13 20 7 22 4 25 17 29 19 31
 Flexibility Score: inf
  4 active torsions:
  status: ('A' for Active; 'I' for Inactive)
    1  A    between atoms: CA   and  CB  
    2  A    between atoms: CB   and  CG  
    3  A    between atoms: CG   and  CD  
    4  A    between atoms: CD   and  CE  

>  <TORSDO>
F 19

>  <BEGIN_>
RES LYS A 131

$$$$
ligand_84_pose_0_2HRL.pdbqt
 OpenBabel07062320523D

  6  5  0  0  0  0  0  0  0  0999 V2000
   33.1930   34.6630    9.2900 C   0  0  0  0  0  0  0  0  0  0  0  0
   32.0600   35.3600   10.0340 C   0  0  0  0  0  0  0  0  0  0  0  0
   30.7220   34.6900    9.8580 C   0  0  0  0  0  0  0  0  0  0  0  0
   29.6590   35.3860   10.6950 C   0  0  0  0  0  0  0  0  0  0  0  0
   28.3130   34.7100   10.5150 C   0  0  0  0  0  0  0  0  0  0  0  0
   28.3680   33.6810    9.4400 N   0  0  0  0  0  0  0  0  0  0  0  0
  1  2  1  0  0  0  0
  3  2  1  0  0  0  0
  3  4  1  0  0  0  0
  5  4  1  0  0  0  0
  6  5  1  0  0  0  0
M  END
>  <EGIN_R>
ES LYS A 135

>  <REMARK>
  4 active torsions:
  status: ('A' for Active; 'I' for Inactive)
    5  A    between atoms: CA   and  CB  
    6  A    between atoms: CB   and  CG  
    7  A    between atoms: CG   and  CD  
    8  A    between atoms: CD   and  CE  

$$$$
