ligand_86_pose_0_2HRL.pdbqt
 OpenBabel07062320523D

 52 54  0  0  1  0  0  0  0  0999 V2000
   28.2690   33.5140   20.5330 C   0  0  0  0  0  0  0  0  0  0  0  0
   29.5110   32.6920   20.4880 C   0  0  2  0  0  0  0  0  0  0  0  0
   29.3320   31.3540   19.8420 C   0  0  2  0  0  0  0  0  0  0  0  0
   29.9270   30.2280   20.6550 C   0  0  2  0  0  0  0  0  0  0  0  0
   31.8500   28.9610   20.8620 C   0  0  2  0  0  0  0  0  0  0  0  0
   30.9590   28.2560   21.8490 C   0  0  0  0  0  0  0  0  0  0  0  0
   31.2680   30.0960   20.3210 O   0  0  0  0  0  0  0  0  0  0  0  0
   29.6080   27.9120   21.2990 C   0  0  1  0  0  0  0  0  0  0  0  0
   29.2410   28.9360   20.2600 C   0  0  1  0  0  0  0  0  0  0  0  0
   32.3100   28.1120   19.8570 O   0  0  0  0  0  0  0  0  0  0  0  0
   31.8830   27.2270   19.9300 H   0  0  0  0  0  0  0  0  0  0  0  0
   33.0590   29.4190   21.6180 C   0  0  0  0  0  0  0  0  0  0  0  0
   33.3560   30.6600   21.6790 O   0  0  0  0  0  0  0  0  0  0  0  0
   33.9030   28.5560   22.2770 O   0  0  0  0  0  0  0  0  0  0  0  0
   34.6950   28.9620   22.7910 H   0  0  0  0  0  0  0  0  0  0  0  0
   29.4980   26.6120   20.8660 O   0  0  0  0  0  0  0  0  0  0  0  0
   28.7840   26.5800   20.1760 H   0  0  0  0  0  0  0  0  0  0  0  0
   27.8190   29.0970   20.0950 N   0  0  0  0  0  0  0  0  0  0  0  0
   27.0560   28.2920   19.1960 C   0  0  0  0  0  0  0  0  0  0  0  0
   27.2950   29.8190   20.6380 H   0  0  0  0  0  0  0  0  0  0  0  0
   25.6000   28.5070   19.0730 C   0  0  0  0  0  0  0  0  0  0  0  0
   27.6660   27.4190   18.5360 O   0  0  0  0  0  0  0  0  0  0  0  0
   29.9620   31.3620   18.5980 O   0  0  0  0  0  0  0  0  0  0  0  0
   29.8560   32.2130   18.1360 H   0  0  0  0  0  0  0  0  0  0  0  0
   30.0260   32.4820   21.7880 O   0  0  0  0  0  0  0  0  0  0  0  0
   29.9300   33.3620   22.2490 H   0  0  0  0  0  0  0  0  0  0  0  0
   27.5530   33.4990   19.2800 N   0  0  0  0  0  0  0  0  0  0  0  0
   26.4380   32.6360   19.1160 C   0  0  0  0  0  0  0  0  0  0  0  0
   27.8160   34.1040   18.4660 H   0  0  0  0  0  0  0  0  0  0  0  0
   26.0260   31.8610   20.0230 O   0  0  0  0  0  0  0  0  0  0  0  0
   25.7090   32.5810   17.9280 O   0  0  0  0  0  0  0  0  0  0  0  0
   25.7660   31.4760   17.0490 C   0  0  0  0  0  0  0  0  0  0  0  0
   27.1290   31.3620   16.4630 C   0  0  0  0  0  0  0  0  0  0  0  0
   27.8110   32.3840   15.8370 C   0  0  0  0  0  0  0  0  0  0  0  0
   27.9550   30.3020   16.4150 N   0  0  0  0  0  0  0  0  0  0  0  0
   29.0260   31.9240   15.4270 N   0  0  0  0  0  0  0  0  0  0  0  0
   29.0600   30.6570   15.8020 N   0  0  0  0  0  0  0  0  0  0  0  0
   30.0610   32.6760   14.7240 C   0  0  2  0  0  0  0  0  0  0  0  0
   31.3140   32.5850   15.5140 C   0  0  0  0  0  0  0  0  0  0  0  0
   29.5470   34.0530   14.4970 C   0  0  0  0  0  0  0  0  0  0  0  0
   32.2020   33.7750   15.4520 C   0  0  1  0  0  0  0  0  0  0  0  0
   30.5380   35.1430   14.8100 C   0  0  2  0  0  0  0  0  0  0  0  0
   31.8430   34.6730   14.3770 N   0  0  0  0  0  0  0  0  0  0  0  0
   31.9320   34.6280   16.6810 C   0  0  0  0  0  0  0  0  0  0  0  0
   30.6190   35.2870   16.3080 C   0  0  0  0  0  0  0  0  0  0  0  0
   32.8030   35.7440   14.2820 C   0  0  0  0  0  0  0  0  0  0  0  0
   29.8670   25.5550   16.9770 C   0  0  0  0  0  0  0  0  0  0  0  0
   28.3450   25.7220   17.0260 C   0  0  0  0  0  0  0  0  0  0  0  0
   27.5990   24.4470   16.6640 C   0  0  0  0  0  0  0  0  0  0  0  0
   27.0520   23.7470   17.8770 C   0  0  0  0  0  0  0  0  0  0  0  0
   25.8920   24.5530   18.4510 C   0  0  0  0  0  0  0  0  0  0  0  0
   25.4090   23.9430   19.7120 N   0  0  0  0  0  0  0  0  0  0  0  0
  2  1  1  1  0  0  0
  2 25  1  0  0  0  0
  3 23  1  6  0  0  0
  3  2  1  0  0  0  0
  4  3  1  6  0  0  0
  5 10  1  6  0  0  0
  5 12  1  0  0  0  0
  5  6  1  0  0  0  0
  7  4  1  0  0  0  0
  7  5  1  0  0  0  0
  8 16  1  6  0  0  0
  8  6  1  0  0  0  0
  9 18  1  1  0  0  0
  9  4  1  0  0  0  0
  9  8  1  0  0  0  0
 10 11  1  0  0  0  0
 12 13  2  0  0  0  0
 12 14  1  0  0  0  0
 14 15  1  0  0  0  0
 17 16  1  0  0  0  0
 18 20  1  0  0  0  0
 19 18  1  0  0  0  0
 21 19  1  0  0  0  0
 22 19  2  0  0  0  0
 24 23  1  0  0  0  0
 25 26  1  0  0  0  0
 27  1  1  0  0  0  0
 28 27  1  0  0  0  0
 28 30  2  0  0  0  0
 29 27  1  0  0  0  0
 31 28  1  0  0  0  0
 32 31  1  0  0  0  0
 33 32  1  0  0  0  0
 34 33  2  0  0  0  0
 35 33  1  0  0  0  0
 36 37  1  0  0  0  0
 36 34  1  0  0  0  0
 37 35  2  0  0  0  0
 38 40  1  1  0  0  0
 38 36  1  0  0  0  0
 38 39  1  0  0  0  0
 41 39  1  1  0  0  0
 41 44  1  0  0  0  0
 42 40  1  1  0  0  0
 42 45  1  0  0  0  0
 43 42  1  0  0  0  0
 43 41  1  0  0  0  0
 45 44  1  0  0  0  0
 46 43  1  0  0  0  0
 47 48  1  0  0  0  0
 49 48  1  0  0  0  0
 49 50  1  0  0  0  0
 50 51  1  0  0  0  0
 51 52  1  0  0  0  0
M  END
>  <REMARK>
 VINA RESULT:    -5.136      0.000      0.000
 INTER + INTRA:         -15.444
 INTER:                  -8.781
 INTRA:                  -6.662
 UNBOUND:                -6.555
 SMILES CC(=O)N[C@@H]1[C@@H](O)C[C@](O)(C(=O)O)O[C@H]1C(O)[C@H](O)CNC(=O)OCc1cn([C@H]2C[C@H]3CC[C@@H](C2)N3C)nn1
 SMILES IDX 20 1 18 2 16 3 15 4 9 5 8 6 14 7 6 8 5 9 10 10 11 12 12 13
 SMILES IDX 13 14 7 16 4 18 2 19 1 21 3 22 17 23 19 25 21 27 22 28 23 30
 SMILES IDX 24 31 25 32 26 33 27 34 39 35 28 36 38 37 29 38 35 39 30 40
 SMILES IDX 34 41 31 42 36 43 33 44 32 45 37 46
 H PARENT 10 11 13 15 7 17 4 20 17 24 19 26 21 29
 Flexibility Score: inf
  4 active torsions:
  status: ('A' for Active; 'I' for Inactive)
    1  A    between atoms: CA   and  CB  
    2  A    between atoms: CB   and  CG  
    3  A    between atoms: CG   and  CD  
    4  A    between atoms: CD   and  CE  

>  <TORSDO>
F 15

>  <BEGIN_>
RES LYS A 131

$$$$
ligand_86_pose_0_2HRL.pdbqt
 OpenBabel07062320523D

  6  5  0  0  0  0  0  0  0  0999 V2000
   33.1930   34.6630    9.2900 C   0  0  0  0  0  0  0  0  0  0  0  0
   32.0600   35.3600   10.0340 C   0  0  0  0  0  0  0  0  0  0  0  0
   30.8020   35.5040    9.2170 C   0  0  0  0  0  0  0  0  0  0  0  0
   30.1560   34.1470    8.9830 C   0  0  0  0  0  0  0  0  0  0  0  0
   28.6900   34.3100    8.6270 C   0  0  0  0  0  0  0  0  0  0  0  0
   27.8160   33.6710    9.6500 N   0  0  0  0  0  0  0  0  0  0  0  0
  1  2  1  0  0  0  0
  3  2  1  0  0  0  0
  4  3  1  0  0  0  0
  5  4  1  0  0  0  0
  5  6  1  0  0  0  0
M  END
>  <EGIN_R>
ES LYS A 135

>  <REMARK>
  4 active torsions:
  status: ('A' for Active; 'I' for Inactive)
    5  A    between atoms: CA   and  CB  
    6  A    between atoms: CB   and  CG  
    7  A    between atoms: CG   and  CD  
    8  A    between atoms: CD   and  CE  

$$$$
