ligand_77_pose_0_2HRL.pdbqt
 OpenBabel07062320523D

 61 63  0  0  1  0  0  0  0  0999 V2000
   29.6180   26.9890   20.3460 N   0  0  0  0  0  0  0  0  0  0  0  0
   28.3180   27.5340   20.4660 C   0  0  0  0  0  0  0  0  0  0  0  0
   27.9740   28.0920   21.5140 O   0  0  0  0  0  0  0  0  0  0  0  0
   29.8280   26.5300   19.4060 H   0  0  0  0  0  0  0  0  0  0  0  0
   30.6320   27.0160   21.3750 C   0  0  0  0  0  0  0  0  0  0  0  0
   31.8220   27.7610   20.8760 C   0  0  2  0  0  0  0  0  0  0  0  0
   31.6330   29.2630   20.9030 C   0  0  1  0  0  0  0  0  0  0  0  0
   32.8620   30.0380   21.2370 C   0  0  2  0  0  0  0  0  0  0  0  0
   34.5000   30.0540   22.8760 C   0  0  2  0  0  0  0  0  0  0  0  0
   34.9560   31.3900   22.3780 C   0  0  0  0  0  0  0  0  0  0  0  0
   33.8090   29.3190   21.9290 O   0  0  0  0  0  0  0  0  0  0  0  0
   33.9170   32.1720   21.6570 C   0  0  1  0  0  0  0  0  0  0  0  0
   32.5860   31.4130   21.7910 C   0  0  1  0  0  0  0  0  0  0  0  0
   33.7630   30.1750   24.0770 O   0  0  0  0  0  0  0  0  0  0  0  0
   33.0030   30.7600   23.9130 H   0  0  0  0  0  0  0  0  0  0  0  0
   35.7180   29.2690   23.2340 C   0  0  0  0  0  0  0  0  0  0  0  0
   35.6080   28.0120   23.3800 O   0  0  0  0  0  0  0  0  0  0  0  0
   36.9610   29.8190   23.4150 O   0  0  0  0  0  0  0  0  0  0  0  0
   37.1640   30.3740   24.2450 H   0  0  0  0  0  0  0  0  0  0  0  0
   33.7850   33.4760   22.1070 O   0  0  0  0  0  0  0  0  0  0  0  0
   33.9100   33.4940   23.1090 H   0  0  0  0  0  0  0  0  0  0  0  0
   31.6090   32.0530   20.9190 N   0  0  0  0  0  0  0  0  0  0  0  0
   30.4860   32.7150   21.4740 C   0  0  0  0  0  0  0  0  0  0  0  0
   31.6990   32.0440   19.8810 H   0  0  0  0  0  0  0  0  0  0  0  0
   29.4570   33.3820   20.6010 C   0  0  0  0  0  0  0  0  0  0  0  0
   30.2830   32.7840   22.7050 O   0  0  0  0  0  0  0  0  0  0  0  0
   31.1210   29.6020   19.6450 O   0  0  0  0  0  0  0  0  0  0  0  0
   30.7800   30.5200   19.6960 H   0  0  0  0  0  0  0  0  0  0  0  0
   32.2280   27.2860   19.6370 O   0  0  0  0  0  0  0  0  0  0  0  0
   32.4400   26.3220   19.7230 H   0  0  0  0  0  0  0  0  0  0  0  0
   27.3790   27.4760   19.4410 O   0  0  0  0  0  0  0  0  0  0  0  0
   26.6950   28.6320   18.9810 C   0  0  0  0  0  0  0  0  0  0  0  0
   27.4060   29.2790   17.8420 C   0  0  0  0  0  0  0  0  0  0  0  0
   28.1440   30.4260   17.9490 C   0  0  0  0  0  0  0  0  0  0  0  0
   27.4610   28.8900   16.5610 N   0  0  0  0  0  0  0  0  0  0  0  0
   28.6370   30.7140   16.7230 N   0  0  0  0  0  0  0  0  0  0  0  0
   28.2060   29.7740   15.9290 N   0  0  0  0  0  0  0  0  0  0  0  0
   29.4550   31.8420   16.4570 C   0  0  0  0  0  0  0  0  0  0  0  0
   30.7450   31.6730   16.0040 C   0  0  0  0  0  0  0  0  0  0  0  0
   29.0100   33.1340   16.6340 C   0  0  0  0  0  0  0  0  0  0  0  0
   31.5760   32.7460   15.7310 C   0  0  0  0  0  0  0  0  0  0  0  0
   29.8410   34.2260   16.3620 C   0  0  0  0  0  0  0  0  0  0  0  0
   31.1240   34.0310   15.9110 C   0  0  0  0  0  0  0  0  0  0  0  0
   32.1630   35.3700   15.5710 S   0  0  0  0  0  0  0  0  0  0  0  0
   31.3480   36.5850   15.2850 O   0  0  0  0  0  0  0  0  0  0  0  0
   33.0540   35.1230   14.3890 O   0  0  0  0  0  0  0  0  0  0  0  0
   33.2020   35.6100   16.9720 C   0  0  0  0  0  0  0  0  0  0  0  0
   32.6990   35.3500   18.2190 C   0  0  0  0  0  0  0  0  0  0  0  0
   34.5140   36.0530   16.8360 C   0  0  0  0  0  0  0  0  0  0  0  0
   33.4830   35.5250   19.3520 C   0  0  0  0  0  0  0  0  0  0  0  0
   35.3230   36.2380   17.9460 C   0  0  0  0  0  0  0  0  0  0  0  0
   34.7810   35.9680   19.1800 C   0  0  0  0  0  0  0  0  0  0  0  0
   35.5890   36.1500   20.3240 N   0  0  0  0  0  0  0  0  0  0  0  0
   36.1400   37.0160   20.4440 H   0  0  0  0  0  0  0  0  0  0  0  0
   35.6260   35.4070   21.0430 H   0  0  0  0  0  0  0  0  0  0  0  0
   29.8670   25.5550   16.9770 C   0  0  0  0  0  0  0  0  0  0  0  0
   28.3450   25.7220   17.0260 C   0  0  0  0  0  0  0  0  0  0  0  0
   27.6010   24.4030   16.8870 C   0  0  0  0  0  0  0  0  0  0  0  0
   26.6260   24.1820   18.0100 C   0  0  0  0  0  0  0  0  0  0  0  0
   25.5970   23.1360   17.5920 C   0  0  0  0  0  0  0  0  0  0  0  0
   24.2700   23.4550   18.1690 N   0  0  0  0  0  0  0  0  0  0  0  0
  1  2  1  0  0  0  0
  1  5  1  0  0  0  0
  2  3  2  0  0  0  0
  4  1  1  0  0  0  0
  6  7  1  0  0  0  0
  6  5  1  6  0  0  0
  7 27  1  6  0  0  0
  8  7  1  1  0  0  0
  8 13  1  0  0  0  0
  8 11  1  0  0  0  0
  9 16  1  1  0  0  0
  9 14  1  0  0  0  0
 10  9  1  0  0  0  0
 11  9  1  0  0  0  0
 12 13  1  0  0  0  0
 12 20  1  1  0  0  0
 12 10  1  0  0  0  0
 13 22  1  6  0  0  0
 15 14  1  0  0  0  0
 16 17  2  0  0  0  0
 16 18  1  0  0  0  0
 18 19  1  0  0  0  0
 20 21  1  0  0  0  0
 22 23  1  0  0  0  0
 23 26  2  0  0  0  0
 24 22  1  0  0  0  0
 25 23  1  0  0  0  0
 27 28  1  0  0  0  0
 29 30  1  0  0  0  0
 29  6  1  0  0  0  0
 31  2  1  0  0  0  0
 32 31  1  0  0  0  0
 33 34  2  0  0  0  0
 33 32  1  0  0  0  0
 35 33  1  0  0  0  0
 36 34  1  0  0  0  0
 37 35  2  0  0  0  0
 37 36  1  0  0  0  0
 38 40  1  0  0  0  0
 38 36  1  0  0  0  0
 39 38  2  0  0  0  0
 41 43  2  0  0  0  0
 41 39  1  0  0  0  0
 42 40  2  0  0  0  0
 43 42  1  0  0  0  0
 44 43  1  0  0  0  0
 44 47  1  0  0  0  0
 45 44  2  0  0  0  0
 46 44  2  0  0  0  0
 47 48  1  0  0  0  0
 48 50  2  0  0  0  0
 49 47  2  0  0  0  0
 49 51  1  0  0  0  0
 51 52  2  0  0  0  0
 52 50  1  0  0  0  0
 52 53  1  0  0  0  0
 53 54  1  0  0  0  0
 53 55  1  0  0  0  0
 56 57  1  0  0  0  0
 58 57  1  0  0  0  0
 58 59  1  0  0  0  0
 60 59  1  0  0  0  0
 60 61  1  0  0  0  0
M  END
>  <REMARK>
 VINA RESULT:    -5.684      0.000      0.000
 INTER + INTRA:         -17.196
 INTER:                 -10.788
 INTRA:                  -6.408
 UNBOUND:                -6.527
 SMILES CC(=O)N[C@@H]1[C@@H](O)C[C@](O)(C(=O)O)O[C@H]1C(O)[C@H](O)CNC(=O)OCc1cn(-c2ccc(S(=O)(=O)c3ccc(N)cc3)cc2)nn1
 SMILES IDX 21 1 22 2 23 3 20 5 18 6 16 7 15 8 9 9 8 10 14 11 6 12 5 13
 SMILES IDX 10 14 11 16 12 17 13 18 7 20 4 22 2 23 1 25 3 26 17 27 19 29
 SMILES IDX 24 31 25 32 26 33 27 34 46 35 28 36 45 37 29 38 30 39 44 40
 SMILES IDX 31 41 43 42 32 43 33 44 34 45 35 46 36 47 37 48 42 49 38 50
 SMILES IDX 41 51 39 52 40 53
 H PARENT 21 4 10 15 13 19 7 21 4 24 17 28 19 30 40 54 40 55
 Flexibility Score: inf
  4 active torsions:
  status: ('A' for Active; 'I' for Inactive)
    1  A    between atoms: CA   and  CB  
    2  A    between atoms: CB   and  CG  
    3  A    between atoms: CG   and  CD  
    4  A    between atoms: CD   and  CE  

>  <TORSDO>
F 18

>  <BEGIN_>
RES LYS A 131

$$$$
ligand_77_pose_0_2HRL.pdbqt
 OpenBabel07062320523D

  6  5  0  0  0  0  0  0  0  0999 V2000
   33.1930   34.6630    9.2900 C   0  0  0  0  0  0  0  0  0  0  0  0
   32.0600   35.3600   10.0340 C   0  0  0  0  0  0  0  0  0  0  0  0
   30.8900   35.7150    9.1540 C   0  0  0  0  0  0  0  0  0  0  0  0
   30.3870   34.4880    8.4090 C   0  0  0  0  0  0  0  0  0  0  0  0
   28.8710   34.4780    8.3620 C   0  0  0  0  0  0  0  0  0  0  0  0
   28.3650   35.2450    7.1900 N   0  0  0  0  0  0  0  0  0  0  0  0
  1  2  1  0  0  0  0
  3  2  1  0  0  0  0
  4  3  1  0  0  0  0
  5  4  1  0  0  0  0
  6  5  1  0  0  0  0
M  END
>  <EGIN_R>
ES LYS A 135

>  <REMARK>
  4 active torsions:
  status: ('A' for Active; 'I' for Inactive)
    5  A    between atoms: CA   and  CB  
    6  A    between atoms: CB   and  CG  
    7  A    between atoms: CG   and  CD  
    8  A    between atoms: CD   and  CE  

$$$$
ligand_78_pose_0_2HRL.pdbqt
 OpenBabel07062320523D

 53 54  0  0  1  0  0  0  0  0999 V2000
   27.2280   29.7270   21.9450 N   0  0  0  0  0  0  0  0  0  0  0  0
   27.6500   30.6180   22.9970 C   0  0  0  0  0  0  0  0  0  0  0  0
   27.6640   30.2030   24.1640 O   0  0  0  0  0  0  0  0  0  0  0  0
   27.2510   30.1490   20.9970 H   0  0  0  0  0  0  0  0  0  0  0  0
   26.8250   28.3660   22.2510 C   0  0  0  0  0  0  0  0  0  0  0  0
   27.3110   27.3810   21.2420 C   0  0  2  0  0  0  0  0  0  0  0  0
   27.7250   27.9820   19.9420 C   0  0  2  0  0  0  0  0  0  0  0  0
   26.8220   27.7680   18.7820 C   0  0  2  0  0  0  0  0  0  0  0  0
   27.6070   29.6090   17.5720 C   0  0  2  0  0  0  0  0  0  0  0  0
   26.6040   30.4680   18.2700 C   0  0  0  0  0  0  0  0  0  0  0  0
   27.4000   28.2540   17.6110 O   0  0  0  0  0  0  0  0  0  0  0  0
   25.3780   29.8030   18.7610 C   0  0  1  0  0  0  0  0  0  0  0  0
   25.4460   28.3030   18.8170 C   0  0  1  0  0  0  0  0  0  0  0  0
   28.8960   29.8330   18.0600 O   0  0  0  0  0  0  0  0  0  0  0  0
   29.2420   29.1170   18.6170 H   0  0  0  0  0  0  0  0  0  0  0  0
   27.6290   29.9790   16.1330 C   0  0  0  0  0  0  0  0  0  0  0  0
   26.5760   30.3700   15.5860 O   0  0  0  0  0  0  0  0  0  0  0  0
   28.7750   29.9120   15.3500 O   0  0  0  0  0  0  0  0  0  0  0  0
   28.9190   30.5670   14.5680 H   0  0  0  0  0  0  0  0  0  0  0  0
   25.0320   30.3370   20.0000 O   0  0  0  0  0  0  0  0  0  0  0  0
   25.7930   30.4300   20.6020 H   0  0  0  0  0  0  0  0  0  0  0  0
   24.6920   27.6940   17.7160 N   0  0  0  0  0  0  0  0  0  0  0  0
   23.8150   26.6070   17.9240 C   0  0  0  0  0  0  0  0  0  0  0  0
   24.7970   28.0630   16.7510 H   0  0  0  0  0  0  0  0  0  0  0  0
   23.0390   25.9760   16.8140 C   0  0  0  0  0  0  0  0  0  0  0  0
   23.7020   26.1760   19.0980 O   0  0  0  0  0  0  0  0  0  0  0  0
   28.8790   27.1580   19.5780 O   0  0  0  0  0  0  0  0  0  0  0  0
   29.6580   27.6480   19.8940 H   0  0  0  0  0  0  0  0  0  0  0  0
   26.5500   26.2380   21.1020 O   0  0  0  0  0  0  0  0  0  0  0  0
   26.8870   25.4880   21.6510 H   0  0  0  0  0  0  0  0  0  0  0  0
   28.0370   31.9160   22.7240 O   0  0  0  0  0  0  0  0  0  0  0  0
   27.7300   32.5650   21.5030 C   0  0  0  0  0  0  0  0  0  0  0  0
   28.8430   32.4850   20.5470 C   0  0  0  0  0  0  0  0  0  0  0  0
   29.2570   33.3660   19.5880 C   0  0  0  0  0  0  0  0  0  0  0  0
   29.6950   31.4410   20.4650 N   0  0  0  0  0  0  0  0  0  0  0  0
   30.3350   32.8370   18.9580 N   0  0  0  0  0  0  0  0  0  0  0  0
   30.5780   31.6620   19.5150 N   0  0  0  0  0  0  0  0  0  0  0  0
   31.0520   33.4750   17.8850 C   0  0  0  0  0  0  0  0  0  0  0  0
   30.4750   32.8720   16.3050 S   0  0  0  0  0  0  0  0  0  0  0  0
   28.9730   33.0050   16.2810 O   0  0  0  0  0  0  0  0  0  0  0  0
   30.8600   31.4440   16.1980 O   0  0  0  0  0  0  0  0  0  0  0  0
   31.2020   33.8430   15.0380 C   0  0  0  0  0  0  0  0  0  0  0  0
   32.5140   34.2690   15.2160 C   0  0  0  0  0  0  0  0  0  0  0  0
   30.4850   34.1640   13.9110 C   0  0  0  0  0  0  0  0  0  0  0  0
   33.0820   35.0290   14.2220 C   0  0  0  0  0  0  0  0  0  0  0  0
   31.1010   34.9290   12.9440 C   0  0  0  0  0  0  0  0  0  0  0  0
   32.3940   35.3780   13.0640 C   0  0  0  0  0  0  0  0  0  0  0  0
   29.8670   25.5550   16.9770 C   0  0  0  0  0  0  0  0  0  0  0  0
   28.3450   25.7220   17.0260 C   0  0  0  0  0  0  0  0  0  0  0  0
   27.6000   24.4070   16.8530 C   0  0  0  0  0  0  0  0  0  0  0  0
   26.5690   24.1950   17.9260 C   0  0  0  0  0  0  0  0  0  0  0  0
   25.6850   23.0090   17.5560 C   0  0  0  0  0  0  0  0  0  0  0  0
   24.5860   22.8540   18.5370 N   0  0  0  0  0  0  0  0  0  0  0  0
  1  5  1  0  0  0  0
  1  2  1  0  0  0  0
  2  3  2  0  0  0  0
  4  1  1  0  0  0  0
  6  5  1  6  0  0  0
  7 27  1  6  0  0  0
  7  6  1  0  0  0  0
  8 13  1  0  0  0  0
  8  7  1  1  0  0  0
  9 16  1  6  0  0  0
  9 11  1  0  0  0  0
  9 14  1  0  0  0  0
  9 10  1  0  0  0  0
 10 12  1  0  0  0  0
 11  8  1  0  0  0  0
 12 13  1  0  0  0  0
 12 20  1  1  0  0  0
 13 22  1  6  0  0  0
 14 15  1  0  0  0  0
 17 16  2  0  0  0  0
 18 16  1  0  0  0  0
 19 18  1  0  0  0  0
 20 21  1  0  0  0  0
 22 23  1  0  0  0  0
 23 26  2  0  0  0  0
 24 22  1  0  0  0  0
 25 23  1  0  0  0  0
 27 28  1  0  0  0  0
 29  6  1  0  0  0  0
 29 30  1  0  0  0  0
 31  2  1  0  0  0  0
 32 31  1  0  0  0  0
 33 32  1  0  0  0  0
 34 33  2  0  0  0  0
 35 33  1  0  0  0  0
 36 37  1  0  0  0  0
 36 34  1  0  0  0  0
 37 35  2  0  0  0  0
 38 36  1  0  0  0  0
 39 38  1  0  0  0  0
 40 39  2  0  0  0  0
 41 39  2  0  0  0  0
 42 43  1  0  0  0  0
 42 39  1  0  0  0  0
 44 42  2  0  0  0  0
 45 43  2  0  0  0  0
 46 47  2  0  0  0  0
 46 44  1  0  0  0  0
 47 45  1  0  0  0  0
 48 49  1  0  0  0  0
 50 49  1  0  0  0  0
 50 51  1  0  0  0  0
 52 51  1  0  0  0  0
 52 53  1  0  0  0  0
M  END
>  <REMARK>
 VINA RESULT:    -5.862      0.000      0.000
 INTER + INTRA:         -15.842
 INTER:                  -8.852
 INTRA:                  -6.990
 UNBOUND:                -5.011
 SMILES CC(=O)N[C@@H]1[C@@H](O)C[C@](O)(C(=O)O)O[C@H]1C(O)[C@H](O)CNC(=O)OCc1cn(CS(=O)(=O)c2ccccc2)nn1
 SMILES IDX 21 1 22 2 23 3 20 5 18 6 16 7 15 8 9 9 8 10 14 11 6 12 5 13
 SMILES IDX 10 14 11 16 12 17 13 18 7 20 4 22 2 23 1 25 3 26 17 27 19 29
 SMILES IDX 24 31 25 32 26 33 27 34 40 35 28 36 39 37 29 38 30 39 31 40
 SMILES IDX 32 41 33 42 34 43 38 44 35 45 37 46 36 47
 H PARENT 21 4 10 15 13 19 7 21 4 24 17 28 19 30
 Flexibility Score: inf
  4 active torsions:
  status: ('A' for Active; 'I' for Inactive)
    1  A    between atoms: CA   and  CB  
    2  A    between atoms: CB   and  CG  
    3  A    between atoms: CG   and  CD  
    4  A    between atoms: CD   and  CE  

>  <TORSDO>
F 17

>  <BEGIN_>
RES LYS A 131

$$$$
ligand_78_pose_0_2HRL.pdbqt
 OpenBabel07062320523D

  6  5  0  0  0  0  0  0  0  0999 V2000
   33.1930   34.6630    9.2900 C   0  0  0  0  0  0  0  0  0  0  0  0
   32.0600   35.3600   10.0340 C   0  0  0  0  0  0  0  0  0  0  0  0
   30.8010   35.5030    9.2180 C   0  0  0  0  0  0  0  0  0  0  0  0
   30.1310   34.1520    9.0240 C   0  0  0  0  0  0  0  0  0  0  0  0
   28.6760   34.3300    8.6360 C   0  0  0  0  0  0  0  0  0  0  0  0
   27.7720   33.7280    9.6560 N   0  0  0  0  0  0  0  0  0  0  0  0
  1  2  1  0  0  0  0
  3  2  1  0  0  0  0
  4  3  1  0  0  0  0
  5  4  1  0  0  0  0
  5  6  1  0  0  0  0
M  END
>  <EGIN_R>
ES LYS A 135

>  <REMARK>
  4 active torsions:
  status: ('A' for Active; 'I' for Inactive)
    5  A    between atoms: CA   and  CB  
    6  A    between atoms: CB   and  CG  
    7  A    between atoms: CG   and  CD  
    8  A    between atoms: CD   and  CE  

$$$$
ligand_79_pose_0_2HRL.pdbqt
 OpenBabel07062320523D

 58 60  0  0  1  0  0  0  0  0999 V2000
   25.4570   36.9930   11.2330 N   0  0  0  0  0  0  0  0  0  0  0  0
   25.1440   36.4000   12.4790 C   0  0  0  0  0  0  0  0  0  0  0  0
   24.0550   36.5960   13.0230 O   0  0  0  0  0  0  0  0  0  0  0  0
   26.4310   36.7490   10.8470 H   0  0  0  0  0  0  0  0  0  0  0  0
   24.6050   37.8650   10.4730 C   0  0  0  0  0  0  0  0  0  0  0  0
   24.3210   37.4430    9.0800 C   0  0  2  0  0  0  0  0  0  0  0  0
   25.3930   37.8630    8.0860 C   0  0  1  0  0  0  0  0  0  0  0  0
   26.0790   36.6700    7.4700 C   0  0  2  0  0  0  0  0  0  0  0  0
   27.4770   35.4760    8.8800 C   0  0  2  0  0  0  0  0  0  0  0  0
   28.5420   35.2500    7.8290 C   0  0  0  0  0  0  0  0  0  0  0  0
   26.2140   35.6090    8.3190 O   0  0  0  0  0  0  0  0  0  0  0  0
   28.1020   35.7620    6.4730 C   0  0  1  0  0  0  0  0  0  0  0  0
   27.3510   37.0650    6.7510 C   0  0  1  0  0  0  0  0  0  0  0  0
   27.7680   36.5550    9.7130 O   0  0  0  0  0  0  0  0  0  0  0  0
   27.9030   37.3900    9.1790 H   0  0  0  0  0  0  0  0  0  0  0  0
   27.4490   34.2620    9.7390 C   0  0  0  0  0  0  0  0  0  0  0  0
   28.2680   33.3160    9.5090 O   0  0  0  0  0  0  0  0  0  0  0  0
   26.5750   34.0940   10.7870 O   0  0  0  0  0  0  0  0  0  0  0  0
   26.7000   34.5330   11.6910 H   0  0  0  0  0  0  0  0  0  0  0  0
   29.1570   35.9600    5.6150 O   0  0  0  0  0  0  0  0  0  0  0  0
   28.7790   36.2190    4.7150 H   0  0  0  0  0  0  0  0  0  0  0  0
   27.0270   37.7580    5.5340 N   0  0  0  0  0  0  0  0  0  0  0  0
   27.6020   39.0370    5.2080 C   0  0  0  0  0  0  0  0  0  0  0  0
   26.3600   37.3830    4.8150 H   0  0  0  0  0  0  0  0  0  0  0  0
   27.2990   39.7750    3.9820 C   0  0  0  0  0  0  0  0  0  0  0  0
   28.4150   39.5160    6.0630 O   0  0  0  0  0  0  0  0  0  0  0  0
   24.7190   38.5790    7.0920 O   0  0  0  0  0  0  0  0  0  0  0  0
   23.7600   38.6540    7.2610 H   0  0  0  0  0  0  0  0  0  0  0  0
   23.1340   37.9900    8.6300 O   0  0  0  0  0  0  0  0  0  0  0  0
   22.7220   37.3400    8.0040 H   0  0  0  0  0  0  0  0  0  0  0  0
   26.0450   35.5700   13.1500 O   0  0  0  0  0  0  0  0  0  0  0  0
   26.9600   36.0950   14.0660 C   0  0  0  0  0  0  0  0  0  0  0  0
   28.3390   35.6550   13.7320 C   0  0  0  0  0  0  0  0  0  0  0  0
   29.5110   36.3140   14.0710 C   0  0  0  0  0  0  0  0  0  0  0  0
   28.7470   34.5620   13.0550 N   0  0  0  0  0  0  0  0  0  0  0  0
   30.5650   35.6180   13.6000 N   0  0  0  0  0  0  0  0  0  0  0  0
   30.0660   34.5590   12.9880 N   0  0  0  0  0  0  0  0  0  0  0  0
   31.9860   35.9860   13.7520 C   0  0  0  0  0  0  0  0  0  0  0  0
   32.5930   36.1580   12.4020 C   0  0  0  0  0  0  0  0  0  0  0  0
   31.9310   37.3310   14.5010 C   0  0  0  0  0  0  0  0  0  0  0  0
   32.6030   34.9920   14.6280 C   0  0  0  0  0  0  0  0  0  0  0  0
   33.6480   34.3500   14.2610 O   0  0  0  0  0  0  0  0  0  0  0  0
   32.1210   34.6300   15.9560 C   0  0  0  0  0  0  0  0  0  0  0  0
   32.2580   35.4190   17.0970 C   0  0  0  0  0  0  0  0  0  0  0  0
   31.4900   33.4570   16.2800 C   0  0  0  0  0  0  0  0  0  0  0  0
   31.7170   34.7270   18.0960 N   0  0  0  0  0  0  0  0  0  0  0  0
   31.2430   33.5430   17.6540 C   0  0  0  0  0  0  0  0  0  0  0  0
   31.0880   32.3280   15.5720 C   0  0  0  0  0  0  0  0  0  0  0  0
   31.6590   35.0370   19.0770 H   0  0  0  0  0  0  0  0  0  0  0  0
   30.6000   32.4850   18.2670 C   0  0  0  0  0  0  0  0  0  0  0  0
   30.4560   31.3020   16.2100 C   0  0  0  0  0  0  0  0  0  0  0  0
   30.2120   31.3790   17.5500 C   0  0  0  0  0  0  0  0  0  0  0  0
   29.8670   25.5550   16.9770 C   0  0  0  0  0  0  0  0  0  0  0  0
   28.3450   25.7220   17.0260 C   0  0  0  0  0  0  0  0  0  0  0  0
   27.5990   24.4350   16.7110 C   0  0  0  0  0  0  0  0  0  0  0  0
   27.0280   23.7950   17.9460 C   0  0  0  0  0  0  0  0  0  0  0  0
   25.6230   24.3350   18.1960 C   0  0  0  0  0  0  0  0  0  0  0  0
   24.9020   24.5190   16.9150 N   0  0  0  0  0  0  0  0  0  0  0  0
  1  2  1  0  0  0  0
  2  3  2  0  0  0  0
  2 31  1  0  0  0  0
  4  1  1  0  0  0  0
  5  1  1  0  0  0  0
  6  5  1  1  0  0  0
  7 27  1  6  0  0  0
  7  6  1  0  0  0  0
  8  7  1  1  0  0  0
  8 11  1  0  0  0  0
  9 14  1  1  0  0  0
  9 16  1  0  0  0  0
 10  9  1  0  0  0  0
 11  9  1  0  0  0  0
 12 20  1  6  0  0  0
 12 13  1  0  0  0  0
 12 10  1  0  0  0  0
 13 22  1  6  0  0  0
 13  8  1  0  0  0  0
 15 14  1  0  0  0  0
 16 18  1  0  0  0  0
 17 16  2  0  0  0  0
 18 19  1  0  0  0  0
 21 20  1  0  0  0  0
 23 22  1  0  0  0  0
 23 26  2  0  0  0  0
 24 22  1  0  0  0  0
 25 23  1  0  0  0  0
 27 28  1  0  0  0  0
 29  6  1  0  0  0  0
 30 29  1  0  0  0  0
 31 32  1  0  0  0  0
 33 32  1  0  0  0  0
 33 34  2  0  0  0  0
 35 33  1  0  0  0  0
 36 38  1  0  0  0  0
 36 34  1  0  0  0  0
 37 35  2  0  0  0  0
 37 36  1  0  0  0  0
 38 40  1  0  0  0  0
 38 41  1  0  0  0  0
 39 38  1  0  0  0  0
 41 43  1  0  0  0  0
 42 41  2  0  0  0  0
 43 45  1  0  0  0  0
 43 44  2  0  0  0  0
 44 46  1  0  0  0  0
 45 47  2  0  0  0  0
 46 49  1  0  0  0  0
 47 46  1  0  0  0  0
 47 50  1  0  0  0  0
 48 51  2  0  0  0  0
 48 45  1  0  0  0  0
 51 52  1  0  0  0  0
 52 50  2  0  0  0  0
 53 54  1  0  0  0  0
 55 54  1  0  0  0  0
 55 56  1  0  0  0  0
 56 57  1  0  0  0  0
 58 57  1  0  0  0  0
M  END
>  <REMARK>
 VINA RESULT:    -6.706      0.000      0.000
 INTER + INTRA:         -17.167
 INTER:                 -12.138
 INTRA:                  -5.029
 UNBOUND:                -4.777
 SMILES CC(=O)N[C@@H]1[C@@H](O)C[C@](O)(C(=O)O)O[C@H]1C(O)[C@H](O)CNC(=O)OCc1cn(C(C)(C)C(=O)c2c[nH]c3ccccc23)nn1
 SMILES IDX 21 1 22 2 23 3 20 5 18 6 16 7 15 8 9 9 8 10 14 11 6 12 5 13
 SMILES IDX 10 14 11 16 12 17 13 18 7 20 4 22 2 23 1 25 3 26 17 27 19 29
 SMILES IDX 24 31 25 32 26 33 27 34 44 35 28 36 43 37 29 38 30 39 31 40
 SMILES IDX 32 41 33 42 34 43 35 44 42 45 36 46 37 47 41 48 38 50 40 51
 SMILES IDX 39 52
 H PARENT 21 4 10 15 13 19 7 21 4 24 17 28 19 30 36 49
 Flexibility Score: inf
  4 active torsions:
  status: ('A' for Active; 'I' for Inactive)
    1  A    between atoms: CA   and  CB  
    2  A    between atoms: CB   and  CG  
    3  A    between atoms: CG   and  CD  
    4  A    between atoms: CD   and  CE  

>  <TORSDO>
F 17

>  <BEGIN_>
RES LYS A 131

$$$$
ligand_79_pose_0_2HRL.pdbqt
 OpenBabel07062320523D

  6  5  0  0  0  0  0  0  0  0999 V2000
   33.1930   34.6630    9.2900 C   0  0  0  0  0  0  0  0  0  0  0  0
   32.0600   35.3600   10.0340 C   0  0  0  0  0  0  0  0  0  0  0  0
   31.1130   36.1050    9.1290 C   0  0  0  0  0  0  0  0  0  0  0  0
   31.0540   37.5770    9.5090 C   0  0  0  0  0  0  0  0  0  0  0  0
   30.7260   38.4270    8.2970 C   0  0  0  0  0  0  0  0  0  0  0  0
   31.7190   39.5240    8.1270 N   0  0  0  0  0  0  0  0  0  0  0  0
  1  2  1  0  0  0  0
  3  4  1  0  0  0  0
  3  2  1  0  0  0  0
  5  4  1  0  0  0  0
  6  5  1  0  0  0  0
M  END
>  <EGIN_R>
ES LYS A 135

>  <REMARK>
  4 active torsions:
  status: ('A' for Active; 'I' for Inactive)
    5  A    between atoms: CA   and  CB  
    6  A    between atoms: CB   and  CG  
    7  A    between atoms: CG   and  CD  
    8  A    between atoms: CD   and  CE  

$$$$
ligand_81_pose_0_2HRL.pdbqt
 OpenBabel07062320523D

 63 65  0  0  1  0  0  0  0  0999 V2000
   26.7090   36.9740   10.5180 O   0  0  0  0  0  0  0  0  0  0  0  0
   25.8810   36.8150    9.4290 C   0  0  0  0  0  0  0  0  0  0  0  0
   24.8930   37.8070    9.0770 N   0  0  0  0  0  0  0  0  0  0  0  0
   24.8640   38.6300    9.7110 H   0  0  0  0  0  0  0  0  0  0  0  0
   26.0050   35.7730    8.7370 O   0  0  0  0  0  0  0  0  0  0  0  0
   24.0510   37.5880    7.9240 C   0  0  0  0  0  0  0  0  0  0  0  0
   22.6490   38.0660    8.2780 C   0  0  2  0  0  0  0  0  0  0  0  0
   21.6910   37.0620    7.6830 C   0  0  2  0  0  0  0  0  0  0  0  0
   21.5890   35.7660    8.4280 C   0  0  2  0  0  0  0  0  0  0  0  0
   19.2820   35.5050    8.1130 C   0  0  2  0  0  0  0  0  0  0  0  0
   19.1070   36.0860    9.5060 C   0  0  0  0  0  0  0  0  0  0  0  0
   20.5490   35.0490    7.8860 O   0  0  0  0  0  0  0  0  0  0  0  0
   20.1550   35.4700   10.4100 C   0  0  1  0  0  0  0  0  0  0  0  0
   21.5620   35.8520    9.9100 C   0  0  1  0  0  0  0  0  0  0  0  0
   18.8970   36.5200    7.2280 O   0  0  0  0  0  0  0  0  0  0  0  0
   18.1250   37.0290    7.5600 H   0  0  0  0  0  0  0  0  0  0  0  0
   18.3580   34.3700    7.9060 C   0  0  0  0  0  0  0  0  0  0  0  0
   17.6910   33.9420    8.8670 O   0  0  0  0  0  0  0  0  0  0  0  0
   18.2350   33.7930    6.6700 O   0  0  0  0  0  0  0  0  0  0  0  0
   18.5230   32.8500    6.4410 H   0  0  0  0  0  0  0  0  0  0  0  0
   19.9690   35.8530   11.7190 O   0  0  0  0  0  0  0  0  0  0  0  0
   19.5500   35.1410   12.2470 H   0  0  0  0  0  0  0  0  0  0  0  0
   22.4530   34.8720   10.5460 N   0  0  0  0  0  0  0  0  0  0  0  0
   23.4120   35.3110   11.4900 C   0  0  0  0  0  0  0  0  0  0  0  0
   22.3920   33.8580   10.3160 H   0  0  0  0  0  0  0  0  0  0  0  0
   24.3500   34.3700   12.1750 C   0  0  0  0  0  0  0  0  0  0  0  0
   23.4560   36.5470   11.7440 O   0  0  0  0  0  0  0  0  0  0  0  0
   22.3310   36.7090    6.4490 O   0  0  0  0  0  0  0  0  0  0  0  0
   22.2600   35.7450    6.3040 H   0  0  0  0  0  0  0  0  0  0  0  0
   22.5310   39.3440    7.7550 O   0  0  0  0  0  0  0  0  0  0  0  0
   22.6670   40.0360    8.4370 H   0  0  0  0  0  0  0  0  0  0  0  0
   27.2480   38.1970   10.9680 C   0  0  0  0  0  0  0  0  0  0  0  0
   28.3320   37.9310   11.9670 C   0  0  0  0  0  0  0  0  0  0  0  0
   29.0570   36.7800   12.1440 C   0  0  0  0  0  0  0  0  0  0  0  0
   28.7980   38.7930   12.8970 N   0  0  0  0  0  0  0  0  0  0  0  0
   29.9490   36.9470   13.1670 N   0  0  0  0  0  0  0  0  0  0  0  0
   29.7480   38.1900   13.5870 N   0  0  0  0  0  0  0  0  0  0  0  0
   30.8600   35.9830   13.6630 C   0  0  0  0  0  0  0  0  0  0  0  0
   32.0440   35.7740   13.0710 N   0  0  0  0  0  0  0  0  0  0  0  0
   30.5340   35.1970   14.7750 C   0  0  0  0  0  0  0  0  0  0  0  0
   32.9090   34.8330   13.5270 C   0  0  0  0  0  0  0  0  0  0  0  0
   31.4010   34.2470   15.2340 C   0  0  0  0  0  0  0  0  0  0  0  0
   32.6100   34.0740   14.5860 N   0  0  0  0  0  0  0  0  0  0  0  0
   29.2170   35.3990   15.4140 C   0  0  0  0  0  0  0  0  0  0  0  0
   28.1090   34.5430   14.8690 C   0  0  0  0  0  0  0  0  0  0  0  0
   27.1210   34.3090   15.7840 O   0  0  0  0  0  0  0  0  0  0  0  0
   27.1710   33.0620   16.3640 C   0  0  0  0  0  0  0  0  0  0  0  0
   27.0550   33.1370   17.8720 C   0  0  0  0  0  0  0  0  0  0  0  0
   34.1480   34.6480   12.8710 N   0  0  0  0  0  0  0  0  0  0  0  0
   34.7030   33.7900   13.0380 H   0  0  0  0  0  0  0  0  0  0  0  0
   34.5330   35.3540   12.2160 H   0  0  0  0  0  0  0  0  0  0  0  0
   31.0740   33.3280   16.3070 C   0  0  0  0  0  0  0  0  0  0  0  0
   31.0650   33.5520   17.6340 C   0  0  0  0  0  0  0  0  0  0  0  0
   30.6940   32.0330   15.8880 C   0  0  0  0  0  0  0  0  0  0  0  0
   30.6940   32.5400   18.5400 C   0  0  0  0  0  0  0  0  0  0  0  0
   30.3320   31.0420   16.7570 C   0  0  0  0  0  0  0  0  0  0  0  0
   30.3270   31.2850   18.1200 C   0  0  0  0  0  0  0  0  0  0  0  0
   29.8670   25.5550   16.9770 C   0  0  0  0  0  0  0  0  0  0  0  0
   28.3450   25.7220   17.0260 C   0  0  0  0  0  0  0  0  0  0  0  0
   27.6000   24.4100   16.8320 C   0  0  0  0  0  0  0  0  0  0  0  0
   26.8110   24.0210   18.0510 C   0  0  0  0  0  0  0  0  0  0  0  0
   26.2960   25.2770   18.7460 C   0  0  0  0  0  0  0  0  0  0  0  0
   24.9170   25.0650   19.2450 N   0  0  0  0  0  0  0  0  0  0  0  0
  1 32  1  0  0  0  0
  2  1  1  0  0  0  0
  3  2  1  0  0  0  0
  3  4  1  0  0  0  0
  5  2  2  0  0  0  0
  6  3  1  0  0  0  0
  7  6  1  6  0  0  0
  8 28  1  6  0  0  0
  8  7  1  0  0  0  0
  9  8  1  6  0  0  0
  9 14  1  0  0  0  0
 10 15  1  6  0  0  0
 10 11  1  0  0  0  0
 11 13  1  0  0  0  0
 12 10  1  0  0  0  0
 12  9  1  0  0  0  0
 13 21  1  1  0  0  0
 14 13  1  0  0  0  0
 14 23  1  1  0  0  0
 15 16  1  0  0  0  0
 17 10  1  0  0  0  0
 17 18  2  0  0  0  0
 19 17  1  0  0  0  0
 20 19  1  0  0  0  0
 21 22  1  0  0  0  0
 23 24  1  0  0  0  0
 24 27  2  0  0  0  0
 24 26  1  0  0  0  0
 25 23  1  0  0  0  0
 29 28  1  0  0  0  0
 30  7  1  0  0  0  0
 30 31  1  0  0  0  0
 32 33  1  0  0  0  0
 33 34  2  0  0  0  0
 33 35  1  0  0  0  0
 34 36  1  0  0  0  0
 35 37  2  0  0  0  0
 36 37  1  0  0  0  0
 36 38  1  0  0  0  0
 38 40  2  0  0  0  0
 39 41  2  0  0  0  0
 39 38  1  0  0  0  0
 40 42  1  0  0  0  0
 40 44  1  0  0  0  0
 41 43  1  0  0  0  0
 42 52  1  0  0  0  0
 43 42  2  0  0  0  0
 45 44  1  0  0  0  0
 45 46  1  0  0  0  0
 46 47  1  0  0  0  0
 47 48  1  0  0  0  0
 49 50  1  0  0  0  0
 49 41  1  0  0  0  0
 51 49  1  0  0  0  0
 52 53  1  0  0  0  0
 53 55  2  0  0  0  0
 54 52  2  0  0  0  0
 54 56  1  0  0  0  0
 56 57  2  0  0  0  0
 57 55  1  0  0  0  0
 58 59  1  0  0  0  0
 60 59  1  0  0  0  0
 60 61  1  0  0  0  0
 61 62  1  0  0  0  0
 62 63  1  0  0  0  0
M  END
>  <REMARK>
 VINA RESULT:    -5.039      0.000      0.000
 INTER + INTRA:         -17.512
 INTER:                 -11.641
 INTRA:                  -5.871
 UNBOUND:                -7.171
 SMILES CCOCCc1c(-c2ccccc2)nc(N)nc1-n1cc(COC(=O)NC[C@@H](O)C(O)[C@@H]2O[C@@](O)(C(=O)O)C[C@H](O)[C@H]2NC(C)=O)nn1
 SMILES IDX 23 1 24 2 26 3 25 5 27 6 28 7 30 8 32 9 34 10 39 11 33 12
 SMILES IDX 40 13 42 14 35 15 36 17 37 18 38 19 41 21 43 23 44 24 45 26
 SMILES IDX 46 27 31 28 29 30 22 32 21 33 20 34 47 35 19 36 48 37 18 38
 SMILES IDX 17 39 6 40 15 41 7 42 14 43 5 44 4 45 3 46 2 47 1 48 16 49
 SMILES IDX 8 52 9 53 13 54 10 55 12 56 11 57
 H PARENT 26 4 35 16 38 20 41 22 43 25 31 29 29 31 16 50 16 51
 Flexibility Score: inf
  4 active torsions:
  status: ('A' for Active; 'I' for Inactive)
    1  A    between atoms: CA   and  CB  
    2  A    between atoms: CB   and  CG  
    3  A    between atoms: CG   and  CD  
    4  A    between atoms: CD   and  CE  

>  <TORSDO>
F 21

>  <BEGIN_>
RES LYS A 131

$$$$
ligand_81_pose_0_2HRL.pdbqt
 OpenBabel07062320523D

  6  5  0  0  0  0  0  0  0  0999 V2000
   33.1930   34.6630    9.2900 C   0  0  0  0  0  0  0  0  0  0  0  0
   32.0600   35.3600   10.0340 C   0  0  0  0  0  0  0  0  0  0  0  0
   30.7010   34.7740    9.7480 C   0  0  0  0  0  0  0  0  0  0  0  0
   30.5370   34.5010    8.2610 C   0  0  0  0  0  0  0  0  0  0  0  0
   29.3020   35.2000    7.7250 C   0  0  0  0  0  0  0  0  0  0  0  0
   29.3250   36.6530    8.0470 N   0  0  0  0  0  0  0  0  0  0  0  0
  1  2  1  0  0  0  0
  3  2  1  0  0  0  0
  4  3  1  0  0  0  0
  5  6  1  0  0  0  0
  5  4  1  0  0  0  0
M  END
>  <EGIN_R>
ES LYS A 135

>  <REMARK>
  4 active torsions:
  status: ('A' for Active; 'I' for Inactive)
    5  A    between atoms: CA   and  CB  
    6  A    between atoms: CB   and  CG  
    7  A    between atoms: CG   and  CD  
    8  A    between atoms: CD   and  CE  

$$$$
ligand_82_pose_0_2HRL.pdbqt
 OpenBabel07062320523D

 53 55  0  0  1  0  0  0  0  0999 V2000
   26.0490   29.0570   19.3380 N   0  0  0  0  0  0  0  0  0  0  0  0
   25.1720   29.1960   18.2070 C   0  0  0  0  0  0  0  0  0  0  0  0
   24.0950   28.5460   18.2000 O   0  0  0  0  0  0  0  0  0  0  0  0
   26.9420   29.5940   19.3490 H   0  0  0  0  0  0  0  0  0  0  0  0
   25.6800   28.1830   20.4300 C   0  0  0  0  0  0  0  0  0  0  0  0
   26.9390   27.7320   21.1150 C   0  0  2  0  0  0  0  0  0  0  0  0
   28.1820   28.1330   20.3530 C   0  0  1  0  0  0  0  0  0  0  0  0
   29.2710   28.3820   21.3700 C   0  0  2  0  0  0  0  0  0  0  0  0
   30.7290   29.8850   20.3780 C   0  0  2  0  0  0  0  0  0  0  0  0
   31.9060   28.9380   20.4340 C   0  0  0  0  0  0  0  0  0  0  0  0
   29.7840   29.6450   21.3470 O   0  0  0  0  0  0  0  0  0  0  0  0
   31.6580   27.9530   21.5490 C   0  0  1  0  0  0  0  0  0  0  0  0
   30.3200   27.2980   21.2760 C   0  0  1  0  0  0  0  0  0  0  0  0
   30.1920   29.8840   19.0880 O   0  0  0  0  0  0  0  0  0  0  0  0
   30.5630   30.6930   18.6410 H   0  0  0  0  0  0  0  0  0  0  0  0
   31.2700   31.2560   20.6130 C   0  0  0  0  0  0  0  0  0  0  0  0
   31.9500   31.4820   21.6710 O   0  0  0  0  0  0  0  0  0  0  0  0
   31.0720   32.3000   19.7350 O   0  0  0  0  0  0  0  0  0  0  0  0
   30.3460   32.2720   19.0240 H   0  0  0  0  0  0  0  0  0  0  0  0
   32.6230   26.9660   21.6070 O   0  0  0  0  0  0  0  0  0  0  0  0
   33.1280   26.9930   20.7550 H   0  0  0  0  0  0  0  0  0  0  0  0
   30.0720   26.1960   22.1690 N   0  0  0  0  0  0  0  0  0  0  0  0
   29.7540   26.3990   23.5360 C   0  0  0  0  0  0  0  0  0  0  0  0
   30.1330   25.2290   21.7830 H   0  0  0  0  0  0  0  0  0  0  0  0
   29.5150   25.2030   24.3890 C   0  0  0  0  0  0  0  0  0  0  0  0
   29.6800   27.5610   24.0080 O   0  0  0  0  0  0  0  0  0  0  0  0
   28.6080   27.1000   19.5210 O   0  0  0  0  0  0  0  0  0  0  0  0
   29.1850   26.4570   19.9660 H   0  0  0  0  0  0  0  0  0  0  0  0
   26.8870   26.3220   21.1620 O   0  0  0  0  0  0  0  0  0  0  0  0
   27.6440   25.9680   21.7070 H   0  0  0  0  0  0  0  0  0  0  0  0
   25.4550   30.0040   17.1400 O   0  0  0  0  0  0  0  0  0  0  0  0
   26.4360   29.7110   16.1610 C   0  0  0  0  0  0  0  0  0  0  0  0
   27.6630   30.4920   16.4210 C   0  0  0  0  0  0  0  0  0  0  0  0
   28.8030   30.5830   15.6570 C   0  0  0  0  0  0  0  0  0  0  0  0
   27.8730   31.2740   17.4890 N   0  0  0  0  0  0  0  0  0  0  0  0
   29.6870   31.4200   16.2760 N   0  0  0  0  0  0  0  0  0  0  0  0
   29.0870   31.8210   17.3880 N   0  0  0  0  0  0  0  0  0  0  0  0
   30.9960   31.7610   15.7740 C   0  0  0  0  0  0  0  0  0  0  0  0
   31.1380   33.2490   15.6030 C   0  0  0  0  0  0  0  0  0  0  0  0
   30.5770   33.8830   14.5770 C   0  0  0  0  0  0  0  0  0  0  0  0
   31.9070   34.0600   16.5680 C   0  0  2  0  0  0  0  0  0  0  0  0
   30.5430   35.3710   14.5930 C   0  0  0  0  0  0  0  0  0  0  0  0
   30.9690   35.1910   17.0140 C   0  0  0  0  0  0  0  0  0  0  0  0
   32.6890   35.1200   15.8190 C   0  0  0  0  0  0  0  0  0  0  0  0
   31.3660   35.8970   15.7280 C   0  0  1  0  0  0  0  0  0  0  0  0
   33.6660   35.8760   16.6750 C   0  0  0  0  0  0  0  0  0  0  0  0
   33.2620   34.7050   14.5070 C   0  0  0  0  0  0  0  0  0  0  0  0
   29.8670   25.5550   16.9770 C   0  0  0  0  0  0  0  0  0  0  0  0
   28.3450   25.7220   17.0260 C   0  0  0  0  0  0  0  0  0  0  0  0
   27.6020   24.3980   16.9280 C   0  0  0  0  0  0  0  0  0  0  0  0
   26.6250   24.2130   18.0560 C   0  0  0  0  0  0  0  0  0  0  0  0
   25.5730   25.3160   18.0050 C   0  0  0  0  0  0  0  0  0  0  0  0
   24.5040   25.0590   18.9990 N   0  0  0  0  0  0  0  0  0  0  0  0
  1  4  1  0  0  0  0
  1  5  1  0  0  0  0
  2  1  1  0  0  0  0
  3  2  2  0  0  0  0
  6  5  1  6  0  0  0
  6 29  1  0  0  0  0
  7 27  1  6  0  0  0
  7  6  1  0  0  0  0
  8  7  1  6  0  0  0
  9 14  1  6  0  0  0
  9 10  1  0  0  0  0
  9 16  1  0  0  0  0
  9 11  1  0  0  0  0
 10 12  1  0  0  0  0
 11  8  1  0  0  0  0
 12 20  1  6  0  0  0
 13  8  1  0  0  0  0
 13 12  1  0  0  0  0
 13 22  1  1  0  0  0
 15 14  1  0  0  0  0
 16 17  2  0  0  0  0
 18 16  1  0  0  0  0
 19 18  1  0  0  0  0
 21 20  1  0  0  0  0
 22 23  1  0  0  0  0
 23 26  2  0  0  0  0
 23 25  1  0  0  0  0
 24 22  1  0  0  0  0
 27 28  1  0  0  0  0
 29 30  1  0  0  0  0
 31  2  1  0  0  0  0
 32 33  1  0  0  0  0
 32 31  1  0  0  0  0
 33 35  1  0  0  0  0
 34 36  1  0  0  0  0
 34 33  2  0  0  0  0
 36 37  1  0  0  0  0
 37 35  2  0  0  0  0
 38 36  1  0  0  0  0
 39 38  1  0  0  0  0
 39 41  1  0  0  0  0
 40 42  1  0  0  0  0
 40 39  2  0  0  0  0
 41 43  1  1  0  0  0
 44 41  1  0  0  0  0
 44 46  1  0  0  0  0
 45 42  1  6  0  0  0
 45 44  1  0  0  0  0
 45 43  1  0  0  0  0
 47 44  1  0  0  0  0
 48 49  1  0  0  0  0
 50 49  1  0  0  0  0
 50 51  1  0  0  0  0
 52 51  1  0  0  0  0
 52 53  1  0  0  0  0
M  END
>  <REMARK>
 VINA RESULT:    -6.224      0.000      0.000
 INTER + INTRA:         -16.474
 INTER:                 -10.525
 INTRA:                  -5.948
 UNBOUND:                -5.337
 SMILES CC(=O)N[C@@H]1[C@@H](O)C[C@](O)(C(=O)O)O[C@H]1C(O)[C@H](O)CNC(=O)OCc1cn(CC2=CC[C@H]3C[C@@H]2C3(C)C)nn1
 SMILES IDX 21 1 22 2 23 3 20 5 18 6 16 7 15 8 9 9 8 10 14 11 6 12 5 13
 SMILES IDX 10 14 11 16 12 17 13 18 7 20 4 22 2 23 1 25 3 26 17 27 19 29
 SMILES IDX 24 31 25 32 26 33 27 34 40 35 28 36 39 37 29 38 30 39 31 40
 SMILES IDX 35 41 32 42 34 43 36 44 33 45 37 46 38 47
 H PARENT 21 4 10 15 13 19 7 21 4 24 17 28 19 30
 Flexibility Score: inf
  4 active torsions:
  status: ('A' for Active; 'I' for Inactive)
    1  A    between atoms: CA   and  CB  
    2  A    between atoms: CB   and  CG  
    3  A    between atoms: CG   and  CD  
    4  A    between atoms: CD   and  CE  

>  <TORSDO>
F 16

>  <BEGIN_>
RES LYS A 131

$$$$
ligand_82_pose_0_2HRL.pdbqt
 OpenBabel07062320523D

  6  5  0  0  0  0  0  0  0  0999 V2000
   33.1930   34.6630    9.2900 C   0  0  0  0  0  0  0  0  0  0  0  0
   32.0600   35.3600   10.0340 C   0  0  0  0  0  0  0  0  0  0  0  0
   30.7930   35.4810    9.2260 C   0  0  0  0  0  0  0  0  0  0  0  0
   30.0150   34.1740    9.2500 C   0  0  0  0  0  0  0  0  0  0  0  0
   28.5980   34.3890    8.7560 C   0  0  0  0  0  0  0  0  0  0  0  0
   27.6180   33.6430    9.5930 N   0  0  0  0  0  0  0  0  0  0  0  0
  1  2  1  0  0  0  0
  3  4  1  0  0  0  0
  3  2  1  0  0  0  0
  5  4  1  0  0  0  0
  5  6  1  0  0  0  0
M  END
>  <EGIN_R>
ES LYS A 135

>  <REMARK>
  4 active torsions:
  status: ('A' for Active; 'I' for Inactive)
    5  A    between atoms: CA   and  CB  
    6  A    between atoms: CB   and  CG  
    7  A    between atoms: CG   and  CD  
    8  A    between atoms: CD   and  CE  

$$$$
ligand_83_pose_0_2HRL.pdbqt
 OpenBabel07062320523D

 56 57  0  0  1  0  0  0  0  0999 V2000
   32.2390   32.4210   22.2630 O   0  0  0  0  0  0  0  0  0  0  0  0
   32.7500   31.1360   22.0120 C   0  0  0  0  0  0  0  0  0  0  0  0
   31.9470   29.9920   21.9780 N   0  0  0  0  0  0  0  0  0  0  0  0
   30.9060   30.1210   22.1550 H   0  0  0  0  0  0  0  0  0  0  0  0
   33.9710   31.0630   21.8180 O   0  0  0  0  0  0  0  0  0  0  0  0
   32.4310   28.6560   21.7220 C   0  0  0  0  0  0  0  0  0  0  0  0
   31.5200   28.0080   20.7140 C   0  0  2  0  0  0  0  0  0  0  0  0
   30.6890   26.9700   21.4310 C   0  0  2  0  0  0  0  0  0  0  0  0
   29.2050   27.3010   21.3410 C   0  0  2  0  0  0  0  0  0  0  0  0
   27.7910   28.6690   20.0950 C   0  0  2  0  0  0  0  0  0  0  0  0
   27.0150   28.8190   21.3890 C   0  0  0  0  0  0  0  0  0  0  0  0
   29.0720   28.2540   20.3690 O   0  0  0  0  0  0  0  0  0  0  0  0
   27.9790   29.0580   22.5290 C   0  0  1  0  0  0  0  0  0  0  0  0
   28.7490   27.7560   22.7160 C   0  0  1  0  0  0  0  0  0  0  0  0
   27.8980   29.9140   19.4440 O   0  0  0  0  0  0  0  0  0  0  0  0
   27.1900   30.4890   19.8160 H   0  0  0  0  0  0  0  0  0  0  0  0
   27.1600   27.7190   19.1710 C   0  0  0  0  0  0  0  0  0  0  0  0
   26.1960   27.0260   19.5360 O   0  0  0  0  0  0  0  0  0  0  0  0
   27.6330   27.5840   17.8780 O   0  0  0  0  0  0  0  0  0  0  0  0
   27.3800   26.7920   17.3170 H   0  0  0  0  0  0  0  0  0  0  0  0
   28.9220   30.0350   22.2520 O   0  0  0  0  0  0  0  0  0  0  0  0
   29.3550   29.8590   21.3940 H   0  0  0  0  0  0  0  0  0  0  0  0
   27.8900   26.7940   23.3450 N   0  0  0  0  0  0  0  0  0  0  0  0
   28.2750   26.1590   24.5440 C   0  0  0  0  0  0  0  0  0  0  0  0
   26.9510   26.5140   22.9560 H   0  0  0  0  0  0  0  0  0  0  0  0
   27.3760   25.1570   25.1940 C   0  0  0  0  0  0  0  0  0  0  0  0
   29.3780   26.4220   25.0890 O   0  0  0  0  0  0  0  0  0  0  0  0
   31.0210   26.9980   22.7710 O   0  0  0  0  0  0  0  0  0  0  0  0
   30.6630   27.7860   23.2410 H   0  0  0  0  0  0  0  0  0  0  0  0
   32.2200   27.4660   19.6410 O   0  0  0  0  0  0  0  0  0  0  0  0
   31.5500   27.0270   19.0580 H   0  0  0  0  0  0  0  0  0  0  0  0
   30.9420   32.7750   21.7570 C   0  0  0  0  0  0  0  0  0  0  0  0
   30.8160   32.4640   20.3370 C   0  0  0  0  0  0  0  0  0  0  0  0
   31.1660   33.2860   19.2950 C   0  0  0  0  0  0  0  0  0  0  0  0
   30.3360   31.3200   19.8250 N   0  0  0  0  0  0  0  0  0  0  0  0
   30.8850   32.6120   18.1710 N   0  0  0  0  0  0  0  0  0  0  0  0
   30.3920   31.4450   18.5090 N   0  0  0  0  0  0  0  0  0  0  0  0
   31.1120   33.1390   16.8140 C   0  0  0  0  0  0  0  0  0  0  0  0
   30.2680   32.3760   15.8180 C   0  0  2  0  0  0  0  0  0  0  0  0
   31.1080   32.1650   14.7020 O   0  0  0  0  0  0  0  0  0  0  0  0
   31.3160   31.2220   14.5650 H   0  0  0  0  0  0  0  0  0  0  0  0
   29.0750   33.1970   15.4480 C   0  0  0  0  0  0  0  0  0  0  0  0
   28.1240   33.1480   16.5630 N   0  0  0  0  0  0  0  0  0  0  0  0
   27.8990   34.1300   17.4660 C   0  0  0  0  0  0  0  0  0  0  0  0
   27.3380   32.1190   16.8270 C   0  0  0  0  0  0  0  0  0  0  0  0
   26.9390   33.6870   18.3170 C   0  0  0  0  0  0  0  0  0  0  0  0
   26.6020   32.4610   17.9210 N   0  0  0  0  0  0  0  0  0  0  0  0
   27.2430   30.8660   16.1300 N   0  0  0  0  0  0  0  0  0  0  0  0
   26.3980   30.6410   15.2490 O   0  0  0  0  0  0  0  0  0  0  0  0
   28.1300   29.8570   16.4480 O   0  0  0  0  0  0  0  0  0  0  0  0
   29.8670   25.5550   16.9770 C   0  0  0  0  0  0  0  0  0  0  0  0
   28.3450   25.7220   17.0260 C   0  0  0  0  0  0  0  0  0  0  0  0
   27.5990   24.4200   16.7740 C   0  0  0  0  0  0  0  0  0  0  0  0
   26.8170   23.9740   17.9780 C   0  0  0  0  0  0  0  0  0  0  0  0
   25.5060   23.3400   17.5260 C   0  0  0  0  0  0  0  0  0  0  0  0
   24.6070   24.3650   16.9450 N   0  0  0  0  0  0  0  0  0  0  0  0
  2  1  1  0  0  0  0
  3  2  1  0  0  0  0
  3  4  1  0  0  0  0
  5  2  2  0  0  0  0
  6  3  1  0  0  0  0
  7  8  1  0  0  0  0
  7  6  1  1  0  0  0
  8 28  1  1  0  0  0
  9  8  1  1  0  0  0
  9 14  1  0  0  0  0
 10 17  1  6  0  0  0
 10 12  1  0  0  0  0
 10 11  1  0  0  0  0
 11 13  1  0  0  0  0
 12  9  1  0  0  0  0
 13 21  1  6  0  0  0
 13 14  1  0  0  0  0
 14 23  1  6  0  0  0
 15 16  1  0  0  0  0
 15 10  1  0  0  0  0
 17 18  2  0  0  0  0
 19 17  1  0  0  0  0
 20 19  1  0  0  0  0
 22 21  1  0  0  0  0
 23 24  1  0  0  0  0
 24 27  2  0  0  0  0
 24 26  1  0  0  0  0
 25 23  1  0  0  0  0
 28 29  1  0  0  0  0
 30  7  1  0  0  0  0
 31 30  1  0  0  0  0
 32  1  1  0  0  0  0
 33 32  1  0  0  0  0
 34 33  2  0  0  0  0
 35 33  1  0  0  0  0
 36 37  1  0  0  0  0
 36 34  1  0  0  0  0
 37 35  2  0  0  0  0
 38 36  1  0  0  0  0
 39 42  1  6  0  0  0
 39 38  1  0  0  0  0
 40 39  1  0  0  0  0
 41 40  1  0  0  0  0
 42 43  1  0  0  0  0
 43 45  1  0  0  0  0
 43 44  1  0  0  0  0
 44 46  2  0  0  0  0
 45 47  2  0  0  0  0
 47 46  1  0  0  0  0
 48 50  2  0  0  0  0
 48 45  1  0  0  0  0
 49 48  2  0  0  0  0
 51 52  1  0  0  0  0
 53 52  1  0  0  0  0
 53 54  1  0  0  0  0
 55 54  1  0  0  0  0
 56 55  1  0  0  0  0
M  END
>  <REMARK>
 VINA RESULT:    -4.086      0.000      0.000
 INTER + INTRA:         -16.592
 INTER:                  -8.244
 INTRA:                  -8.348
 UNBOUND:                -8.446
 SMILES CC(=O)N[C@@H]1[C@@H](O)C[C@](O)(C(=O)O)O[C@H]1C(O)[C@H](O)CNC(=O)OCc1cn(CC(O)Cn2ccnc2[N+](=O)[O-])nn1
 SMILES IDX 24 1 22 2 21 3 23 5 20 6 18 7 16 8 15 9 9 10 8 11 14 12 6 13
 SMILES IDX 5 14 10 15 11 17 12 18 13 19 7 21 4 23 2 24 1 26 3 27 17 28
 SMILES IDX 19 30 25 32 26 33 27 34 42 35 28 36 41 37 29 38 30 39 31 40
 SMILES IDX 32 42 33 43 34 44 37 45 35 46 36 47 38 48 39 49 40 50
 H PARENT 21 4 10 16 13 20 7 22 4 25 17 29 19 31 31 41
 Flexibility Score: inf
  4 active torsions:
  status: ('A' for Active; 'I' for Inactive)
    1  A    between atoms: CA   and  CB  
    2  A    between atoms: CB   and  CG  
    3  A    between atoms: CG   and  CD  
    4  A    between atoms: CD   and  CE  

>  <TORSDO>
F 20

>  <BEGIN_>
RES LYS A 131

$$$$
ligand_83_pose_0_2HRL.pdbqt
 OpenBabel07062320523D

  6  5  0  0  0  0  0  0  0  0999 V2000
   33.1930   34.6630    9.2900 C   0  0  0  0  0  0  0  0  0  0  0  0
   32.0600   35.3600   10.0340 C   0  0  0  0  0  0  0  0  0  0  0  0
   30.8360   35.5940    9.1860 C   0  0  0  0  0  0  0  0  0  0  0  0
   30.1670   34.2740    8.8350 C   0  0  0  0  0  0  0  0  0  0  0  0
   28.7170   34.4980    8.4510 C   0  0  0  0  0  0  0  0  0  0  0  0
   28.6110   35.2860    7.1920 N   0  0  0  0  0  0  0  0  0  0  0  0
  1  2  1  0  0  0  0
  3  2  1  0  0  0  0
  4  3  1  0  0  0  0
  5  4  1  0  0  0  0
  6  5  1  0  0  0  0
M  END
>  <EGIN_R>
ES LYS A 135

>  <REMARK>
  4 active torsions:
  status: ('A' for Active; 'I' for Inactive)
    5  A    between atoms: CA   and  CB  
    6  A    between atoms: CB   and  CG  
    7  A    between atoms: CG   and  CD  
    8  A    between atoms: CD   and  CE  

$$$$
ligand_84_pose_0_2HRL.pdbqt
 OpenBabel07062320523D

 60 62  0  0  1  0  0  0  0  0999 V2000
   22.3660   34.8700   10.7090 O   0  0  0  0  0  0  0  0  0  0  0  0
   23.1020   36.0210   10.4720 C   0  0  0  0  0  0  0  0  0  0  0  0
   24.4040   36.2580   10.9950 N   0  0  0  0  0  0  0  0  0  0  0  0
   24.8040   35.5130   11.5960 H   0  0  0  0  0  0  0  0  0  0  0  0
   22.5500   36.8880    9.7410 O   0  0  0  0  0  0  0  0  0  0  0  0
   25.0300   37.4910   10.6430 C   0  0  0  0  0  0  0  0  0  0  0  0
   25.9360   37.4670    9.4780 C   0  0  2  0  0  0  0  0  0  0  0  0
   25.7250   38.5740    8.4600 C   0  0  1  0  0  0  0  0  0  0  0  0
   26.6550   38.1990    7.3050 C   0  0  2  0  0  0  0  0  0  0  0  0
   28.8070   37.3440    7.0120 C   0  0  2  0  0  0  0  0  0  0  0  0
   29.0210   38.2810    5.8580 C   0  0  0  0  0  0  0  0  0  0  0  0
   27.8080   37.7250    7.8670 O   0  0  0  0  0  0  0  0  0  0  0  0
   27.7780   38.8590    5.2830 C   0  0  1  0  0  0  0  0  0  0  0  0
   26.9370   39.3970    6.4600 C   0  0  1  0  0  0  0  0  0  0  0  0
   30.0130   37.4060    7.7560 O   0  0  0  0  0  0  0  0  0  0  0  0
   30.7850   37.5160    7.1700 H   0  0  0  0  0  0  0  0  0  0  0  0
   28.6660   35.9200    6.5860 C   0  0  0  0  0  0  0  0  0  0  0  0
   27.5530   35.3420    6.6690 O   0  0  0  0  0  0  0  0  0  0  0  0
   29.7240   35.1750    6.0860 O   0  0  0  0  0  0  0  0  0  0  0  0
   29.6210   34.3660    5.4850 H   0  0  0  0  0  0  0  0  0  0  0  0
   28.1210   39.9380    4.4680 O   0  0  0  0  0  0  0  0  0  0  0  0
   27.3300   40.2600    3.9610 H   0  0  0  0  0  0  0  0  0  0  0  0
   25.7470   40.0340    5.9620 N   0  0  0  0  0  0  0  0  0  0  0  0
   25.4930   41.4040    6.1980 C   0  0  0  0  0  0  0  0  0  0  0  0
   25.0650   39.4760    5.4220 H   0  0  0  0  0  0  0  0  0  0  0  0
   24.2270   41.9630    5.6370 C   0  0  0  0  0  0  0  0  0  0  0  0
   26.2680   42.1450    6.8390 O   0  0  0  0  0  0  0  0  0  0  0  0
   24.3840   38.5530    8.0460 O   0  0  0  0  0  0  0  0  0  0  0  0
   24.3900   38.7990    7.0860 H   0  0  0  0  0  0  0  0  0  0  0  0
   25.6280   36.2830    8.7510 O   0  0  0  0  0  0  0  0  0  0  0  0
   25.6870   36.5670    7.7940 H   0  0  0  0  0  0  0  0  0  0  0  0
   22.0320   34.4810   12.0310 C   0  0  0  0  0  0  0  0  0  0  0  0
   23.0120   33.4980   12.5450 C   0  0  0  0  0  0  0  0  0  0  0  0
   22.6920   32.1780   12.8740 C   0  0  0  0  0  0  0  0  0  0  0  0
   24.3260   33.5880   12.7930 N   0  0  0  0  0  0  0  0  0  0  0  0
   23.7840   31.5260   13.2970 N   0  0  0  0  0  0  0  0  0  0  0  0
   24.7850   32.4320   13.2380 N   0  0  0  0  0  0  0  0  0  0  0  0
   23.9330   30.1450   13.7190 C   0  0  0  0  0  0  0  0  0  0  0  0
   23.7190   30.0540   15.2350 C   0  0  1  0  0  0  0  0  0  0  0  0
   22.3790   29.5210   15.5770 C   0  0  0  0  0  0  0  0  0  0  0  0
   24.9060   29.5250   15.9250 C   0  0  0  0  0  0  0  0  0  0  0  0
   26.0810   30.3180   15.7430 N   0  0  0  0  0  0  0  0  0  0  0  0
   25.9440   31.6000   16.4870 C   0  0  0  0  0  0  0  0  0  0  0  0
   27.2180   29.6740   16.3930 C   0  0  0  0  0  0  0  0  0  0  0  0
   27.2070   32.3860   16.4580 C   0  0  0  0  0  0  0  0  0  0  0  0
   28.4460   30.3140   15.7260 C   0  0  0  0  0  0  0  0  0  0  0  0
   28.3480   31.7350   15.8940 N   0  0  0  0  0  0  0  0  0  0  0  0
   29.4570   32.5240   15.4780 C   0  0  0  0  0  0  0  0  0  0  0  0
   30.7250   32.1770   15.8890 C   0  0  0  0  0  0  0  0  0  0  0  0
   29.2770   33.6400   14.6740 C   0  0  0  0  0  0  0  0  0  0  0  0
   31.7920   32.9480   15.4910 C   0  0  0  0  0  0  0  0  0  0  0  0
   30.3480   34.4020   14.2850 C   0  0  0  0  0  0  0  0  0  0  0  0
   31.6210   34.0450   14.7010 C   0  0  0  0  0  0  0  0  0  0  0  0
   32.9710   35.0290   14.2030 Cl  0  0  0  0  0  0  0  0  0  0  0  0
   29.8670   25.5550   16.9770 C   0  0  0  0  0  0  0  0  0  0  0  0
   28.3450   25.7220   17.0260 C   0  0  0  0  0  0  0  0  0  0  0  0
   27.6020   24.3990   16.9230 C   0  0  0  0  0  0  0  0  0  0  0  0
   26.5900   24.2300   18.0220 C   0  0  0  0  0  0  0  0  0  0  0  0
   26.3950   25.5600   18.7430 C   0  0  0  0  0  0  0  0  0  0  0  0
   25.5380   25.3810   19.9390 N   0  0  0  0  0  0  0  0  0  0  0  0
  1 32  1  0  0  0  0
  2  1  1  0  0  0  0
  2  3  1  0  0  0  0
  3  4  1  0  0  0  0
  5  2  2  0  0  0  0
  6  3  1  0  0  0  0
  7  6  1  1  0  0  0
  8 28  1  6  0  0  0
  8  7  1  0  0  0  0
  9 12  1  0  0  0  0
  9  8  1  1  0  0  0
 10 17  1  6  0  0  0
 10 15  1  0  0  0  0
 10 12  1  0  0  0  0
 11 10  1  0  0  0  0
 13 21  1  6  0  0  0
 13 11  1  0  0  0  0
 13 14  1  0  0  0  0
 14 23  1  6  0  0  0
 14  9  1  0  0  0  0
 16 15  1  0  0  0  0
 17 18  2  0  0  0  0
 19 17  1  0  0  0  0
 20 19  1  0  0  0  0
 22 21  1  0  0  0  0
 23 24  1  0  0  0  0
 24 27  2  0  0  0  0
 25 23  1  0  0  0  0
 26 24  1  0  0  0  0
 29 28  1  0  0  0  0
 30  7  1  0  0  0  0
 31 30  1  0  0  0  0
 32 33  1  0  0  0  0
 33 35  1  0  0  0  0
 33 34  2  0  0  0  0
 34 36  1  0  0  0  0
 35 37  2  0  0  0  0
 36 38  1  0  0  0  0
 37 36  1  0  0  0  0
 38 39  1  0  0  0  0
 39 40  1  6  0  0  0
 39 41  1  0  0  0  0
 42 41  1  0  0  0  0
 42 44  1  0  0  0  0
 42 43  1  0  0  0  0
 45 43  1  0  0  0  0
 46 47  1  0  0  0  0
 46 44  1  0  0  0  0
 47 45  1  0  0  0  0
 48 49  2  0  0  0  0
 48 47  1  0  0  0  0
 50 48  1  0  0  0  0
 51 49  1  0  0  0  0
 52 50  2  0  0  0  0
 52 53  1  0  0  0  0
 53 51  2  0  0  0  0
 54 53  1  0  0  0  0
 55 56  1  0  0  0  0
 57 56  1  0  0  0  0
 57 58  1  0  0  0  0
 58 59  1  0  0  0  0
 59 60  1  0  0  0  0
M  END
>  <REMARK>
 VINA RESULT:    -5.392      0.000      0.000
 INTER + INTRA:         -16.715
 INTER:                 -11.691
 INTRA:                  -5.023
 UNBOUND:                -6.121
 SMILES CC(=O)N[C@@H]1[C@@H](O)C[C@](O)(C(=O)O)O[C@H]1C(O)[C@H](O)CNC(=O)OCc1cn(C[C@@H](C)CN2CCN(c3ccc(Cl)cc3)CC2)nn1
 SMILES IDX 24 1 22 2 21 3 23 5 20 6 18 7 16 8 15 9 9 10 8 11 14 12 6 13
 SMILES IDX 5 14 10 15 11 17 12 18 13 19 7 21 4 23 2 24 1 26 3 27 17 28
 SMILES IDX 19 30 25 32 26 33 27 34 47 35 28 36 46 37 29 38 30 39 31 40
 SMILES IDX 32 41 33 42 34 43 45 44 35 45 44 46 36 47 37 48 38 49 43 50
 SMILES IDX 39 51 42 52 40 53 41 54
 H PARENT 21 4 10 16 13 20 7 22 4 25 17 29 19 31
 Flexibility Score: inf
  4 active torsions:
  status: ('A' for Active; 'I' for Inactive)
    1  A    between atoms: CA   and  CB  
    2  A    between atoms: CB   and  CG  
    3  A    between atoms: CG   and  CD  
    4  A    between atoms: CD   and  CE  

>  <TORSDO>
F 19

>  <BEGIN_>
RES LYS A 131

$$$$
ligand_84_pose_0_2HRL.pdbqt
 OpenBabel07062320523D

  6  5  0  0  0  0  0  0  0  0999 V2000
   33.1930   34.6630    9.2900 C   0  0  0  0  0  0  0  0  0  0  0  0
   32.0600   35.3600   10.0340 C   0  0  0  0  0  0  0  0  0  0  0  0
   30.7220   34.6900    9.8580 C   0  0  0  0  0  0  0  0  0  0  0  0
   29.6590   35.3860   10.6950 C   0  0  0  0  0  0  0  0  0  0  0  0
   28.3130   34.7100   10.5150 C   0  0  0  0  0  0  0  0  0  0  0  0
   28.3680   33.6810    9.4400 N   0  0  0  0  0  0  0  0  0  0  0  0
  1  2  1  0  0  0  0
  3  2  1  0  0  0  0
  3  4  1  0  0  0  0
  5  4  1  0  0  0  0
  6  5  1  0  0  0  0
M  END
>  <EGIN_R>
ES LYS A 135

>  <REMARK>
  4 active torsions:
  status: ('A' for Active; 'I' for Inactive)
    5  A    between atoms: CA   and  CB  
    6  A    between atoms: CB   and  CG  
    7  A    between atoms: CG   and  CD  
    8  A    between atoms: CD   and  CE  

$$$$
ligand_85_pose_0_2HRL.pdbqt
 OpenBabel07062320523D

 55 56  0  0  1  0  0  0  0  0999 V2000
   23.0350   35.2320    9.9330 N   0  0  0  0  0  0  0  0  0  0  0  0
   23.5280   35.7680   11.1320 C   0  0  0  0  0  0  0  0  0  0  0  0
   22.9600   36.7420   11.6670 O   0  0  0  0  0  0  0  0  0  0  0  0
   23.5160   34.4140    9.4950 H   0  0  0  0  0  0  0  0  0  0  0  0
   21.8760   35.7640    9.2650 C   0  0  0  0  0  0  0  0  0  0  0  0
   22.2720   36.3280    7.9250 C   0  0  2  0  0  0  0  0  0  0  0  0
   22.8010   37.7370    8.0210 C   0  0  2  0  0  0  0  0  0  0  0  0
   24.2650   37.7690    7.7960 C   0  0  2  0  0  0  0  0  0  0  0  0
   26.3370   36.9630    8.3570 C   0  0  2  0  0  0  0  0  0  0  0  0
   26.6910   37.6660    7.0710 C   0  0  0  0  0  0  0  0  0  0  0  0
   25.0360   37.1400    8.7580 O   0  0  0  0  0  0  0  0  0  0  0  0
   26.1610   39.0590    6.9930 C   0  0  1  0  0  0  0  0  0  0  0  0
   24.8030   39.1950    7.6770 C   0  0  1  0  0  0  0  0  0  0  0  0
   27.1430   37.5080    9.3720 O   0  0  0  0  0  0  0  0  0  0  0  0
   26.5040   37.7910   10.0950 H   0  0  0  0  0  0  0  0  0  0  0  0
   26.6020   35.5230    8.2740 C   0  0  0  0  0  0  0  0  0  0  0  0
   27.3880   35.0850    7.4000 O   0  0  0  0  0  0  0  0  0  0  0  0
   26.0310   34.5790    9.1140 O   0  0  0  0  0  0  0  0  0  0  0  0
   26.4390   33.6310    9.0870 H   0  0  0  0  0  0  0  0  0  0  0  0
   27.1010   39.9240    7.5890 O   0  0  0  0  0  0  0  0  0  0  0  0
   27.9250   39.3800    7.7050 H   0  0  0  0  0  0  0  0  0  0  0  0
   23.9170   40.0500    6.9640 N   0  0  0  0  0  0  0  0  0  0  0  0
   23.9630   41.4540    7.1590 C   0  0  0  0  0  0  0  0  0  0  0  0
   23.2250   39.6720    6.2900 H   0  0  0  0  0  0  0  0  0  0  0  0
   23.0080   42.3140    6.3820 C   0  0  0  0  0  0  0  0  0  0  0  0
   24.7480   42.0220    7.9380 O   0  0  0  0  0  0  0  0  0  0  0  0
   22.3580   38.3220    9.1800 O   0  0  0  0  0  0  0  0  0  0  0  0
   22.1790   39.2940    8.9730 H   0  0  0  0  0  0  0  0  0  0  0  0
   21.1160   36.4040    7.0870 O   0  0  0  0  0  0  0  0  0  0  0  0
   21.1860   35.7800    6.3370 H   0  0  0  0  0  0  0  0  0  0  0  0
   24.6490   35.2710   11.7890 O   0  0  0  0  0  0  0  0  0  0  0  0
   25.6000   36.1710   12.3210 C   0  0  0  0  0  0  0  0  0  0  0  0
   26.9090   35.5230   12.4870 C   0  0  0  0  0  0  0  0  0  0  0  0
   27.5810   35.1690   13.6380 C   0  0  0  0  0  0  0  0  0  0  0  0
   27.7150   35.1470   11.4790 N   0  0  0  0  0  0  0  0  0  0  0  0
   28.7660   34.5920   13.3060 N   0  0  0  0  0  0  0  0  0  0  0  0
   28.8040   34.6000   11.9960 N   0  0  0  0  0  0  0  0  0  0  0  0
   29.7650   34.0820   14.1780 C   0  0  0  0  0  0  0  0  0  0  0  0
   29.5670   32.8940   14.8660 C   0  0  0  0  0  0  0  0  0  0  0  0
   30.9400   34.7800   14.3370 C   0  0  0  0  0  0  0  0  0  0  0  0
   30.5180   32.3840   15.7130 C   0  0  0  0  0  0  0  0  0  0  0  0
   31.9220   34.2950   15.1840 C   0  0  0  0  0  0  0  0  0  0  0  0
   30.2770   30.8770   16.5920 Cl  0  0  0  0  0  0  0  0  0  0  0  0
   31.6900   33.0980   15.8600 C   0  0  0  0  0  0  0  0  0  0  0  0
   31.1330   36.0150   13.6140 C   0  0  0  0  0  0  0  0  0  0  0  0
   31.6850   36.0710   12.4780 O   0  0  0  0  0  0  0  0  0  0  0  0
   30.6950   37.2360   14.1770 N   0  0  0  0  0  0  0  0  0  0  0  0
   30.0580   37.2210   15.4710 C   0  0  0  0  0  0  0  0  0  0  0  0
   30.8630   38.5090   13.4920 C   0  0  0  0  0  0  0  0  0  0  0  0
   29.8670   25.5550   16.9770 C   0  0  0  0  0  0  0  0  0  0  0  0
   28.3450   25.7220   17.0260 C   0  0  0  0  0  0  0  0  0  0  0  0
   27.5990   24.4440   16.6750 C   0  0  0  0  0  0  0  0  0  0  0  0
   27.0290   23.7680   17.8910 C   0  0  0  0  0  0  0  0  0  0  0  0
   25.5940   23.3360   17.6080 C   0  0  0  0  0  0  0  0  0  0  0  0
   24.8470   24.4250   16.9370 N   0  0  0  0  0  0  0  0  0  0  0  0
  1  2  1  0  0  0  0
  2  3  2  0  0  0  0
  2 31  1  0  0  0  0
  4  1  1  0  0  0  0
  5  1  1  0  0  0  0
  6  7  1  0  0  0  0
  6  5  1  1  0  0  0
  7 27  1  1  0  0  0
  8  7  1  1  0  0  0
  8 11  1  0  0  0  0
  9 16  1  6  0  0  0
  9 11  1  0  0  0  0
  9 14  1  0  0  0  0
 10  9  1  0  0  0  0
 12 10  1  0  0  0  0
 12 20  1  1  0  0  0
 12 13  1  0  0  0  0
 13 22  1  6  0  0  0
 13  8  1  0  0  0  0
 14 15  1  0  0  0  0
 16 18  1  0  0  0  0
 17 16  2  0  0  0  0
 19 18  1  0  0  0  0
 20 21  1  0  0  0  0
 22 23  1  0  0  0  0
 23 26  2  0  0  0  0
 24 22  1  0  0  0  0
 25 23  1  0  0  0  0
 28 27  1  0  0  0  0
 29  6  1  0  0  0  0
 30 29  1  0  0  0  0
 31 32  1  0  0  0  0
 32 33  1  0  0  0  0
 33 34  2  0  0  0  0
 35 37  2  0  0  0  0
 35 33  1  0  0  0  0
 36 34  1  0  0  0  0
 36 38  1  0  0  0  0
 37 36  1  0  0  0  0
 38 40  2  0  0  0  0
 38 39  1  0  0  0  0
 39 41  2  0  0  0  0
 40 42  1  0  0  0  0
 41 44  1  0  0  0  0
 41 43  1  0  0  0  0
 42 44  2  0  0  0  0
 45 47  1  0  0  0  0
 45 40  1  0  0  0  0
 46 45  2  0  0  0  0
 47 48  1  0  0  0  0
 49 47  1  0  0  0  0
 50 51  1  0  0  0  0
 52 51  1  0  0  0  0
 52 53  1  0  0  0  0
 54 53  1  0  0  0  0
 55 54  1  0  0  0  0
M  END
>  <REMARK>
 VINA RESULT:    -5.223      0.000      0.000
 INTER + INTRA:         -15.532
 INTER:                  -9.562
 INTRA:                  -5.970
 UNBOUND:                -6.187
 SMILES CC(=O)N[C@@H]1[C@@H](O)C[C@](O)(C(=O)O)O[C@H]1C(O)[C@H](O)CNC(=O)OCc1cn(-c2cc(Cl)ccc2C(=O)N(C)C)nn1
 SMILES IDX 21 1 22 2 23 3 20 5 18 6 16 7 15 8 9 9 8 10 14 11 6 12 5 13
 SMILES IDX 10 14 11 16 12 17 13 18 7 20 4 22 2 23 1 25 3 26 17 27 19 29
 SMILES IDX 24 31 25 32 26 33 27 34 42 35 28 36 41 37 29 38 30 39 35 40
 SMILES IDX 31 41 34 42 32 43 33 44 36 45 37 46 38 47 39 48 40 49
 H PARENT 21 4 10 15 13 19 7 21 4 24 17 28 19 30
 Flexibility Score: inf
  4 active torsions:
  status: ('A' for Active; 'I' for Inactive)
    1  A    between atoms: CA   and  CB  
    2  A    between atoms: CB   and  CG  
    3  A    between atoms: CG   and  CD  
    4  A    between atoms: CD   and  CE  

>  <TORSDO>
F 16

>  <BEGIN_>
RES LYS A 131

$$$$
ligand_85_pose_0_2HRL.pdbqt
 OpenBabel07062320523D

  6  5  0  0  0  0  0  0  0  0999 V2000
   33.1930   34.6630    9.2900 C   0  0  0  0  0  0  0  0  0  0  0  0
   32.0600   35.3600   10.0340 C   0  0  0  0  0  0  0  0  0  0  0  0
   30.7370   35.2940    9.3160 C   0  0  0  0  0  0  0  0  0  0  0  0
   30.3920   36.6410    8.7010 C   0  0  0  0  0  0  0  0  0  0  0  0
   30.9890   37.7690    9.5200 C   0  0  0  0  0  0  0  0  0  0  0  0
   31.4690   38.8740    8.6440 N   0  0  0  0  0  0  0  0  0  0  0  0
  1  2  1  0  0  0  0
  3  2  1  0  0  0  0
  4  3  1  0  0  0  0
  4  5  1  0  0  0  0
  6  5  1  0  0  0  0
M  END
>  <EGIN_R>
ES LYS A 135

>  <REMARK>
  4 active torsions:
  status: ('A' for Active; 'I' for Inactive)
    5  A    between atoms: CA   and  CB  
    6  A    between atoms: CB   and  CG  
    7  A    between atoms: CG   and  CD  
    8  A    between atoms: CD   and  CE  

$$$$
ligand_86_pose_0_2HRL.pdbqt
 OpenBabel07062320523D

 52 54  0  0  1  0  0  0  0  0999 V2000
   28.2690   33.5140   20.5330 C   0  0  0  0  0  0  0  0  0  0  0  0
   29.5110   32.6920   20.4880 C   0  0  2  0  0  0  0  0  0  0  0  0
   29.3320   31.3540   19.8420 C   0  0  2  0  0  0  0  0  0  0  0  0
   29.9270   30.2280   20.6550 C   0  0  2  0  0  0  0  0  0  0  0  0
   31.8500   28.9610   20.8620 C   0  0  2  0  0  0  0  0  0  0  0  0
   30.9590   28.2560   21.8490 C   0  0  0  0  0  0  0  0  0  0  0  0
   31.2680   30.0960   20.3210 O   0  0  0  0  0  0  0  0  0  0  0  0
   29.6080   27.9120   21.2990 C   0  0  1  0  0  0  0  0  0  0  0  0
   29.2410   28.9360   20.2600 C   0  0  1  0  0  0  0  0  0  0  0  0
   32.3100   28.1120   19.8570 O   0  0  0  0  0  0  0  0  0  0  0  0
   31.8830   27.2270   19.9300 H   0  0  0  0  0  0  0  0  0  0  0  0
   33.0590   29.4190   21.6180 C   0  0  0  0  0  0  0  0  0  0  0  0
   33.3560   30.6600   21.6790 O   0  0  0  0  0  0  0  0  0  0  0  0
   33.9030   28.5560   22.2770 O   0  0  0  0  0  0  0  0  0  0  0  0
   34.6950   28.9620   22.7910 H   0  0  0  0  0  0  0  0  0  0  0  0
   29.4980   26.6120   20.8660 O   0  0  0  0  0  0  0  0  0  0  0  0
   28.7840   26.5800   20.1760 H   0  0  0  0  0  0  0  0  0  0  0  0
   27.8190   29.0970   20.0950 N   0  0  0  0  0  0  0  0  0  0  0  0
   27.0560   28.2920   19.1960 C   0  0  0  0  0  0  0  0  0  0  0  0
   27.2950   29.8190   20.6380 H   0  0  0  0  0  0  0  0  0  0  0  0
   25.6000   28.5070   19.0730 C   0  0  0  0  0  0  0  0  0  0  0  0
   27.6660   27.4190   18.5360 O   0  0  0  0  0  0  0  0  0  0  0  0
   29.9620   31.3620   18.5980 O   0  0  0  0  0  0  0  0  0  0  0  0
   29.8560   32.2130   18.1360 H   0  0  0  0  0  0  0  0  0  0  0  0
   30.0260   32.4820   21.7880 O   0  0  0  0  0  0  0  0  0  0  0  0
   29.9300   33.3620   22.2490 H   0  0  0  0  0  0  0  0  0  0  0  0
   27.5530   33.4990   19.2800 N   0  0  0  0  0  0  0  0  0  0  0  0
   26.4380   32.6360   19.1160 C   0  0  0  0  0  0  0  0  0  0  0  0
   27.8160   34.1040   18.4660 H   0  0  0  0  0  0  0  0  0  0  0  0
   26.0260   31.8610   20.0230 O   0  0  0  0  0  0  0  0  0  0  0  0
   25.7090   32.5810   17.9280 O   0  0  0  0  0  0  0  0  0  0  0  0
   25.7660   31.4760   17.0490 C   0  0  0  0  0  0  0  0  0  0  0  0
   27.1290   31.3620   16.4630 C   0  0  0  0  0  0  0  0  0  0  0  0
   27.8110   32.3840   15.8370 C   0  0  0  0  0  0  0  0  0  0  0  0
   27.9550   30.3020   16.4150 N   0  0  0  0  0  0  0  0  0  0  0  0
   29.0260   31.9240   15.4270 N   0  0  0  0  0  0  0  0  0  0  0  0
   29.0600   30.6570   15.8020 N   0  0  0  0  0  0  0  0  0  0  0  0
   30.0610   32.6760   14.7240 C   0  0  2  0  0  0  0  0  0  0  0  0
   31.3140   32.5850   15.5140 C   0  0  0  0  0  0  0  0  0  0  0  0
   29.5470   34.0530   14.4970 C   0  0  0  0  0  0  0  0  0  0  0  0
   32.2020   33.7750   15.4520 C   0  0  1  0  0  0  0  0  0  0  0  0
   30.5380   35.1430   14.8100 C   0  0  2  0  0  0  0  0  0  0  0  0
   31.8430   34.6730   14.3770 N   0  0  0  0  0  0  0  0  0  0  0  0
   31.9320   34.6280   16.6810 C   0  0  0  0  0  0  0  0  0  0  0  0
   30.6190   35.2870   16.3080 C   0  0  0  0  0  0  0  0  0  0  0  0
   32.8030   35.7440   14.2820 C   0  0  0  0  0  0  0  0  0  0  0  0
   29.8670   25.5550   16.9770 C   0  0  0  0  0  0  0  0  0  0  0  0
   28.3450   25.7220   17.0260 C   0  0  0  0  0  0  0  0  0  0  0  0
   27.5990   24.4470   16.6640 C   0  0  0  0  0  0  0  0  0  0  0  0
   27.0520   23.7470   17.8770 C   0  0  0  0  0  0  0  0  0  0  0  0
   25.8920   24.5530   18.4510 C   0  0  0  0  0  0  0  0  0  0  0  0
   25.4090   23.9430   19.7120 N   0  0  0  0  0  0  0  0  0  0  0  0
  2  1  1  1  0  0  0
  2 25  1  0  0  0  0
  3 23  1  6  0  0  0
  3  2  1  0  0  0  0
  4  3  1  6  0  0  0
  5 10  1  6  0  0  0
  5 12  1  0  0  0  0
  5  6  1  0  0  0  0
  7  4  1  0  0  0  0
  7  5  1  0  0  0  0
  8 16  1  6  0  0  0
  8  6  1  0  0  0  0
  9 18  1  1  0  0  0
  9  4  1  0  0  0  0
  9  8  1  0  0  0  0
 10 11  1  0  0  0  0
 12 13  2  0  0  0  0
 12 14  1  0  0  0  0
 14 15  1  0  0  0  0
 17 16  1  0  0  0  0
 18 20  1  0  0  0  0
 19 18  1  0  0  0  0
 21 19  1  0  0  0  0
 22 19  2  0  0  0  0
 24 23  1  0  0  0  0
 25 26  1  0  0  0  0
 27  1  1  0  0  0  0
 28 27  1  0  0  0  0
 28 30  2  0  0  0  0
 29 27  1  0  0  0  0
 31 28  1  0  0  0  0
 32 31  1  0  0  0  0
 33 32  1  0  0  0  0
 34 33  2  0  0  0  0
 35 33  1  0  0  0  0
 36 37  1  0  0  0  0
 36 34  1  0  0  0  0
 37 35  2  0  0  0  0
 38 40  1  1  0  0  0
 38 36  1  0  0  0  0
 38 39  1  0  0  0  0
 41 39  1  1  0  0  0
 41 44  1  0  0  0  0
 42 40  1  1  0  0  0
 42 45  1  0  0  0  0
 43 42  1  0  0  0  0
 43 41  1  0  0  0  0
 45 44  1  0  0  0  0
 46 43  1  0  0  0  0
 47 48  1  0  0  0  0
 49 48  1  0  0  0  0
 49 50  1  0  0  0  0
 50 51  1  0  0  0  0
 51 52  1  0  0  0  0
M  END
>  <REMARK>
 VINA RESULT:    -5.136      0.000      0.000
 INTER + INTRA:         -15.444
 INTER:                  -8.781
 INTRA:                  -6.662
 UNBOUND:                -6.555
 SMILES CC(=O)N[C@@H]1[C@@H](O)C[C@](O)(C(=O)O)O[C@H]1C(O)[C@H](O)CNC(=O)OCc1cn([C@H]2C[C@H]3CC[C@@H](C2)N3C)nn1
 SMILES IDX 20 1 18 2 16 3 15 4 9 5 8 6 14 7 6 8 5 9 10 10 11 12 12 13
 SMILES IDX 13 14 7 16 4 18 2 19 1 21 3 22 17 23 19 25 21 27 22 28 23 30
 SMILES IDX 24 31 25 32 26 33 27 34 39 35 28 36 38 37 29 38 35 39 30 40
 SMILES IDX 34 41 31 42 36 43 33 44 32 45 37 46
 H PARENT 10 11 13 15 7 17 4 20 17 24 19 26 21 29
 Flexibility Score: inf
  4 active torsions:
  status: ('A' for Active; 'I' for Inactive)
    1  A    between atoms: CA   and  CB  
    2  A    between atoms: CB   and  CG  
    3  A    between atoms: CG   and  CD  
    4  A    between atoms: CD   and  CE  

>  <TORSDO>
F 15

>  <BEGIN_>
RES LYS A 131

$$$$
ligand_86_pose_0_2HRL.pdbqt
 OpenBabel07062320523D

  6  5  0  0  0  0  0  0  0  0999 V2000
   33.1930   34.6630    9.2900 C   0  0  0  0  0  0  0  0  0  0  0  0
   32.0600   35.3600   10.0340 C   0  0  0  0  0  0  0  0  0  0  0  0
   30.8020   35.5040    9.2170 C   0  0  0  0  0  0  0  0  0  0  0  0
   30.1560   34.1470    8.9830 C   0  0  0  0  0  0  0  0  0  0  0  0
   28.6900   34.3100    8.6270 C   0  0  0  0  0  0  0  0  0  0  0  0
   27.8160   33.6710    9.6500 N   0  0  0  0  0  0  0  0  0  0  0  0
  1  2  1  0  0  0  0
  3  2  1  0  0  0  0
  4  3  1  0  0  0  0
  5  4  1  0  0  0  0
  5  6  1  0  0  0  0
M  END
>  <EGIN_R>
ES LYS A 135

>  <REMARK>
  4 active torsions:
  status: ('A' for Active; 'I' for Inactive)
    5  A    between atoms: CA   and  CB  
    6  A    between atoms: CB   and  CG  
    7  A    between atoms: CG   and  CD  
    8  A    between atoms: CD   and  CE  

$$$$
ligand_87_pose_0_2HRL.pdbqt
 OpenBabel07062320523D

 52 54  0  0  1  0  0  0  0  0999 V2000
   27.4530   27.4120   19.1410 C   0  0  0  0  0  0  0  0  0  0  0  0
   27.4270   27.5730   20.6320 C   0  0  2  0  0  0  0  0  0  0  0  0
   28.8340   27.4810   21.2100 C   0  0  2  0  0  0  0  0  0  0  0  0
   29.2680   28.8930   21.5990 C   0  0  2  0  0  0  0  0  0  0  0  0
   28.4550   31.0620   21.2720 C   0  0  2  0  0  0  0  0  0  0  0  0
   29.6820   31.5320   20.5560 C   0  0  0  0  0  0  0  0  0  0  0  0
   28.2610   29.7210   21.3010 O   0  0  0  0  0  0  0  0  0  0  0  0
   30.6570   30.4600   20.2050 C   0  0  1  0  0  0  0  0  0  0  0  0
   30.6300   29.2420   21.0670 C   0  0  1  0  0  0  0  0  0  0  0  0
   27.3440   31.6060   20.6200 O   0  0  0  0  0  0  0  0  0  0  0  0
   27.4610   31.6460   19.6400 H   0  0  0  0  0  0  0  0  0  0  0  0
   28.3920   31.5590   22.6630 C   0  0  0  0  0  0  0  0  0  0  0  0
   29.3970   32.0950   23.1760 O   0  0  0  0  0  0  0  0  0  0  0  0
   27.2610   31.4690   23.4680 O   0  0  0  0  0  0  0  0  0  0  0  0
   27.2420   31.9380   24.3870 H   0  0  0  0  0  0  0  0  0  0  0  0
   30.4370   30.1260   18.8610 O   0  0  0  0  0  0  0  0  0  0  0  0
   29.5050   30.3270   18.6090 H   0  0  0  0  0  0  0  0  0  0  0  0
   31.6310   29.2100   22.0990 N   0  0  0  0  0  0  0  0  0  0  0  0
   32.4420   28.0860   22.3810 C   0  0  0  0  0  0  0  0  0  0  0  0
   31.7900   30.0630   22.6990 H   0  0  0  0  0  0  0  0  0  0  0  0
   33.4750   28.0300   23.4380 C   0  0  0  0  0  0  0  0  0  0  0  0
   32.2390   27.0820   21.6560 O   0  0  0  0  0  0  0  0  0  0  0  0
   29.7300   26.9140   20.3190 O   0  0  0  0  0  0  0  0  0  0  0  0
   29.2590   26.1890   19.8340 H   0  0  0  0  0  0  0  0  0  0  0  0
   26.6520   26.6410   21.2610 O   0  0  0  0  0  0  0  0  0  0  0  0
   25.6810   26.8600   21.1420 H   0  0  0  0  0  0  0  0  0  0  0  0
   27.9050   28.5790   18.4630 N   0  0  0  0  0  0  0  0  0  0  0  0
   27.1120   29.6970   18.1540 C   0  0  0  0  0  0  0  0  0  0  0  0
   28.9270   28.6270   18.1550 H   0  0  0  0  0  0  0  0  0  0  0  0
   25.9040   29.7690   18.4460 O   0  0  0  0  0  0  0  0  0  0  0  0
   27.6980   30.7900   17.4850 O   0  0  0  0  0  0  0  0  0  0  0  0
   28.0660   30.6310   16.1300 C   0  0  0  0  0  0  0  0  0  0  0  0
   29.2640   31.4140   15.8250 C   0  0  0  0  0  0  0  0  0  0  0  0
   29.2960   32.5780   15.0660 C   0  0  0  0  0  0  0  0  0  0  0  0
   30.5160   31.1650   16.2040 N   0  0  0  0  0  0  0  0  0  0  0  0
   30.5680   32.9900   15.0150 N   0  0  0  0  0  0  0  0  0  0  0  0
   31.2760   32.1240   15.7060 N   0  0  0  0  0  0  0  0  0  0  0  0
   31.0960   34.1520   14.3460 C   0  0  1  0  0  0  0  0  0  0  0  0
   30.4290   35.3980   14.9270 C   0  0  0  0  0  0  0  0  0  0  0  0
   32.5710   34.2220   14.6780 C   0  0  0  0  0  0  0  0  0  0  0  0
   31.1530   36.6130   14.4130 C   0  0  1  0  0  0  0  0  0  0  0  0
   33.1330   35.5570   14.3120 C   0  0  2  0  0  0  0  0  0  0  0  0
   32.4950   36.6580   14.9630 N   0  0  0  0  0  0  0  0  0  0  0  0
   31.4320   36.4640   12.9290 C   0  0  0  0  0  0  0  0  0  0  0  0
   32.7750   35.8050   12.8410 C   0  0  0  0  0  0  0  0  0  0  0  0
   32.5170   36.5840   16.3950 C   0  0  0  0  0  0  0  0  0  0  0  0
   29.8670   25.5550   16.9770 C   0  0  0  0  0  0  0  0  0  0  0  0
   28.3450   25.7220   17.0260 C   0  0  0  0  0  0  0  0  0  0  0  0
   27.6020   24.3990   16.9250 C   0  0  0  0  0  0  0  0  0  0  0  0
   26.6440   24.1980   18.0660 C   0  0  0  0  0  0  0  0  0  0  0  0
   25.2760   23.8030   17.5190 C   0  0  0  0  0  0  0  0  0  0  0  0
   25.1440   22.3280   17.4670 N   0  0  0  0  0  0  0  0  0  0  0  0
  2  1  1  6  0  0  0
  2  3  1  0  0  0  0
  2 25  1  0  0  0  0
  3 23  1  6  0  0  0
  4  3  1  6  0  0  0
  5 10  1  6  0  0  0
  5  7  1  0  0  0  0
  5 12  1  0  0  0  0
  6  5  1  0  0  0  0
  7  4  1  0  0  0  0
  8 16  1  6  0  0  0
  8  6  1  0  0  0  0
  8  9  1  0  0  0  0
  9  4  1  0  0  0  0
  9 18  1  1  0  0  0
 11 10  1  0  0  0  0
 12 13  2  0  0  0  0
 12 14  1  0  0  0  0
 14 15  1  0  0  0  0
 17 16  1  0  0  0  0
 18 19  1  0  0  0  0
 18 20  1  0  0  0  0
 19 21  1  0  0  0  0
 22 19  2  0  0  0  0
 24 23  1  0  0  0  0
 26 25  1  0  0  0  0
 27  1  1  0  0  0  0
 28 30  2  0  0  0  0
 28 27  1  0  0  0  0
 29 27  1  0  0  0  0
 31 28  1  0  0  0  0
 32 31  1  0  0  0  0
 33 32  1  0  0  0  0
 33 35  1  0  0  0  0
 34 33  2  0  0  0  0
 36 34  1  0  0  0  0
 36 37  1  0  0  0  0
 37 35  2  0  0  0  0
 38 40  1  1  0  0  0
 38 39  1  0  0  0  0
 38 36  1  0  0  0  0
 41 44  1  6  0  0  0
 41 39  1  0  0  0  0
 41 43  1  0  0  0  0
 42 45  1  6  0  0  0
 42 40  1  0  0  0  0
 42 43  1  0  0  0  0
 43 46  1  0  0  0  0
 45 44  1  0  0  0  0
 47 48  1  0  0  0  0
 49 48  1  0  0  0  0
 49 50  1  0  0  0  0
 51 50  1  0  0  0  0
 52 51  1  0  0  0  0
M  END
>  <REMARK>
 VINA RESULT:    -5.591      0.000      0.000
 INTER + INTRA:         -15.179
 INTER:                  -8.558
 INTRA:                  -6.622
 UNBOUND:                -5.502
 SMILES CC(=O)N[C@@H]1[C@@H](O)C[C@](O)(C(=O)O)O[C@H]1C(O)[C@H](O)CNC(=O)OCc1cn([C@@H]2C[C@H]3CC[C@@H](C2)N3C)nn1
 SMILES IDX 20 1 18 2 16 3 15 4 9 5 8 6 14 7 6 8 5 9 10 10 11 12 12 13
 SMILES IDX 13 14 7 16 4 18 2 19 1 21 3 22 17 23 19 25 21 27 22 28 23 30
 SMILES IDX 24 31 25 32 26 33 27 34 39 35 28 36 38 37 29 38 35 39 30 40
 SMILES IDX 34 41 31 42 36 43 33 44 32 45 37 46
 H PARENT 10 11 13 15 7 17 4 20 17 24 19 26 21 29
 Flexibility Score: inf
  4 active torsions:
  status: ('A' for Active; 'I' for Inactive)
    1  A    between atoms: CA   and  CB  
    2  A    between atoms: CB   and  CG  
    3  A    between atoms: CG   and  CD  
    4  A    between atoms: CD   and  CE  

>  <TORSDO>
F 15

>  <BEGIN_>
RES LYS A 131

$$$$
ligand_87_pose_0_2HRL.pdbqt
 OpenBabel07062320523D

  6  5  0  0  0  0  0  0  0  0999 V2000
   33.1930   34.6630    9.2900 C   0  0  0  0  0  0  0  0  0  0  0  0
   32.0600   35.3600   10.0340 C   0  0  0  0  0  0  0  0  0  0  0  0
   30.7120   34.7250    9.8100 C   0  0  0  0  0  0  0  0  0  0  0  0
   30.4460   34.5400    8.3240 C   0  0  0  0  0  0  0  0  0  0  0  0
   29.0010   34.8630    7.9970 C   0  0  0  0  0  0  0  0  0  0  0  0
   28.8890   35.5430    6.6770 N   0  0  0  0  0  0  0  0  0  0  0  0
  1  2  1  0  0  0  0
  3  2  1  0  0  0  0
  4  3  1  0  0  0  0
  5  4  1  0  0  0  0
  6  5  1  0  0  0  0
M  END
>  <EGIN_R>
ES LYS A 135

>  <REMARK>
  4 active torsions:
  status: ('A' for Active; 'I' for Inactive)
    5  A    between atoms: CA   and  CB  
    6  A    between atoms: CB   and  CG  
    7  A    between atoms: CG   and  CD  
    8  A    between atoms: CD   and  CE  

$$$$
ligand_88_pose_0_2HRL.pdbqt
 OpenBabel07062320523D

 54 54  0  0  1  0  0  0  0  0999 V2000
   26.6690   28.8240   17.1980 N   0  0  0  0  0  0  0  0  0  0  0  0
   25.6970   29.6080   16.5150 C   0  0  0  0  0  0  0  0  0  0  0  0
   24.5040   29.5580   16.8910 O   0  0  0  0  0  0  0  0  0  0  0  0
   27.6480   28.8830   16.8670 H   0  0  0  0  0  0  0  0  0  0  0  0
   26.3240   27.9750   18.3060 C   0  0  0  0  0  0  0  0  0  0  0  0
   27.4130   27.9660   19.3400 C   0  0  2  0  0  0  0  0  0  0  0  0
   28.0680   29.3210   19.4920 C   0  0  1  0  0  0  0  0  0  0  0  0
   28.8100   29.3800   20.8400 C   0  0  2  0  0  0  0  0  0  0  0  0
   30.5700   27.9490   21.4680 C   0  0  1  0  0  0  0  0  0  0  0  0
   30.0460   28.1240   22.9020 C   0  0  0  0  0  0  0  0  0  0  0  0
   30.0340   28.8770   20.6400 O   0  0  0  0  0  0  0  0  0  0  0  0
   28.5690   27.7850   22.7790 C   0  0  1  0  0  0  0  0  0  0  0  0
   27.9580   28.8480   21.9120 C   0  0  1  0  0  0  0  0  0  0  0  0
   30.3000   26.6380   21.1310 O   0  0  0  0  0  0  0  0  0  0  0  0
   29.3930   26.3390   21.3840 H   0  0  0  0  0  0  0  0  0  0  0  0
   32.0430   28.1380   21.4700 C   0  0  0  0  0  0  0  0  0  0  0  0
   32.5380   29.0340   20.7420 O   0  0  0  0  0  0  0  0  0  0  0  0
   32.8920   27.3580   22.2490 O   0  0  0  0  0  0  0  0  0  0  0  0
   33.4780   26.6900   21.7270 H   0  0  0  0  0  0  0  0  0  0  0  0
   28.3970   26.5070   22.2500 O   0  0  0  0  0  0  0  0  0  0  0  0
   29.2160   26.2740   21.7670 H   0  0  0  0  0  0  0  0  0  0  0  0
   27.4500   29.8840   22.8110 N   0  0  0  0  0  0  0  0  0  0  0  0
   26.1590   30.4540   22.6870 C   0  0  0  0  0  0  0  0  0  0  0  0
   28.0430   30.2530   23.6050 H   0  0  0  0  0  0  0  0  0  0  0  0
   25.6800   31.5120   23.6280 C   0  0  0  0  0  0  0  0  0  0  0  0
   25.3950   30.0660   21.7660 O   0  0  0  0  0  0  0  0  0  0  0  0
   28.8700   29.6780   18.4360 O   0  0  0  0  0  0  0  0  0  0  0  0
   29.7860   29.3410   18.5260 H   0  0  0  0  0  0  0  0  0  0  0  0
   28.2960   26.9380   19.0960 O   0  0  0  0  0  0  0  0  0  0  0  0
   28.2100   26.1780   19.7020 H   0  0  0  0  0  0  0  0  0  0  0  0
   26.0560   30.4090   15.4590 O   0  0  0  0  0  0  0  0  0  0  0  0
   26.2160   31.8090   15.5990 C   0  0  0  0  0  0  0  0  0  0  0  0
   27.5630   32.0800   16.1660 C   0  0  0  0  0  0  0  0  0  0  0  0
   28.7780   32.0130   15.4960 C   0  0  0  0  0  0  0  0  0  0  0  0
   27.9020   32.4400   17.4180 N   0  0  0  0  0  0  0  0  0  0  0  0
   29.7700   32.3260   16.3430 N   0  0  0  0  0  0  0  0  0  0  0  0
   29.2030   32.5880   17.5320 N   0  0  0  0  0  0  0  0  0  0  0  0
   31.1790   32.3840   16.0710 C   0  0  0  0  0  0  0  0  0  0  0  0
   31.6750   33.7680   15.8630 C   0  0  0  0  0  0  0  0  0  0  0  0
   32.2070   34.4390   16.9460 C   0  0  0  0  0  0  0  0  0  0  0  0
   31.6300   34.4120   14.6490 C   0  0  0  0  0  0  0  0  0  0  0  0
   32.6940   35.7260   16.8680 C   0  0  0  0  0  0  0  0  0  0  0  0
   32.1180   35.7190   14.5420 C   0  0  0  0  0  0  0  0  0  0  0  0
   33.4210   36.6250   18.3760 Br  0  0  0  0  0  0  0  0  0  0  0  0
   32.6410   36.3640   15.6360 C   0  0  0  0  0  0  0  0  0  0  0  0
   32.0160   36.5430   12.8110 Br  0  0  0  0  0  0  0  0  0  0  0  0
   31.1040   33.7680   13.5450 O   0  0  0  0  0  0  0  0  0  0  0  0
   31.6640   33.0770   13.0640 H   0  0  0  0  0  0  0  0  0  0  0  0
   29.8670   25.5550   16.9770 C   0  0  0  0  0  0  0  0  0  0  0  0
   28.3450   25.7220   17.0260 C   0  0  0  0  0  0  0  0  0  0  0  0
   27.6000   24.4120   16.8190 C   0  0  0  0  0  0  0  0  0  0  0  0
   26.5640   24.1750   17.8830 C   0  0  0  0  0  0  0  0  0  0  0  0
   25.1720   24.3520   17.2860 C   0  0  0  0  0  0  0  0  0  0  0  0
   24.4570   23.0540   17.2430 N   0  0  0  0  0  0  0  0  0  0  0  0
  1  5  1  0  0  0  0
  2  3  2  0  0  0  0
  2  1  1  0  0  0  0
  4  1  1  0  0  0  0
  6  5  1  6  0  0  0
  6  7  1  0  0  0  0
  7 27  1  6  0  0  0
  8  7  1  6  0  0  0
  8 13  1  0  0  0  0
  9 16  1  1  0  0  0
  9 10  1  0  0  0  0
 11  8  1  0  0  0  0
 11  9  1  0  0  0  0
 12 20  1  6  0  0  0
 12 10  1  0  0  0  0
 13 12  1  0  0  0  0
 13 22  1  1  0  0  0
 14 15  1  0  0  0  0
 16 18  1  0  0  0  0
 17 16  2  0  0  0  0
 19 18  1  0  0  0  0
 21 20  1  0  0  0  0
 22 24  1  0  0  0  0
 23 22  1  0  0  0  0
 23 25  1  0  0  0  0
 26 23  2  0  0  0  0
 27 28  1  0  0  0  0
 29  6  1  0  0  0  0
 29 30  1  0  0  0  0
 31 32  1  0  0  0  0
 31  2  1  0  0  0  0
 32 33  1  0  0  0  0
 33 35  1  0  0  0  0
 34 33  2  0  0  0  0
 34 36  1  0  0  0  0
 35 37  2  0  0  0  0
 36 37  1  0  0  0  0
 38 36  1  0  0  0  0
 39 38  1  0  0  0  0
 39 40  2  0  0  0  0
 41 39  1  0  0  0  0
 42 40  1  0  0  0  0
 42 44  1  0  0  0  0
 43 41  2  0  0  0  0
 43 45  1  0  0  0  0
 45 42  2  0  0  0  0
 46 43  1  0  0  0  0
 47 41  1  0  0  0  0
 48 47  1  0  0  0  0
 49 50  1  0  0  0  0
 51 50  1  0  0  0  0
 51 52  1  0  0  0  0
 53 52  1  0  0  0  0
 54 53  1  0  0  0  0
M  END
>  <REMARK>
 VINA RESULT:    -5.485      0.000      0.000
 INTER + INTRA:         -15.769
 INTER:                  -9.396
 INTRA:                  -6.373
 UNBOUND:                -5.794
 SMILES CC(=O)N[C@@H]1[C@@H](O)C[C@](O)(C(=O)O)O[C@H]1C(O)[C@H](O)CNC(=O)OCc1cn(Cc2cc(Br)cc(Br)c2O)nn1
 SMILES IDX 21 1 22 2 23 3 20 5 18 6 16 7 15 8 9 9 8 10 14 11 6 12 5 13
 SMILES IDX 10 14 11 16 12 17 13 18 7 20 4 22 2 23 1 25 3 26 17 27 19 29
 SMILES IDX 24 31 25 32 26 33 27 34 40 35 28 36 39 37 29 38 30 39 31 40
 SMILES IDX 37 41 32 42 35 43 33 44 34 45 36 46 38 47
 H PARENT 21 4 10 15 13 19 7 21 4 24 17 28 19 30 38 48
 Flexibility Score: inf
  4 active torsions:
  status: ('A' for Active; 'I' for Inactive)
    1  A    between atoms: CA   and  CB  
    2  A    between atoms: CB   and  CG  
    3  A    between atoms: CG   and  CD  
    4  A    between atoms: CD   and  CE  

>  <TORSDO>
F 17

>  <BEGIN_>
RES LYS A 131

$$$$
ligand_88_pose_0_2HRL.pdbqt
 OpenBabel07062320523D

  6  5  0  0  0  0  0  0  0  0999 V2000
   33.1930   34.6630    9.2900 C   0  0  0  0  0  0  0  0  0  0  0  0
   32.0600   35.3600   10.0340 C   0  0  0  0  0  0  0  0  0  0  0  0
   30.8040   35.5090    9.2150 C   0  0  0  0  0  0  0  0  0  0  0  0
   30.1540   34.1550    8.9770 C   0  0  0  0  0  0  0  0  0  0  0  0
   28.6950   34.3230    8.6000 C   0  0  0  0  0  0  0  0  0  0  0  0
   27.8030   33.6880    9.6100 N   0  0  0  0  0  0  0  0  0  0  0  0
  1  2  1  0  0  0  0
  3  2  1  0  0  0  0
  4  3  1  0  0  0  0
  5  4  1  0  0  0  0
  5  6  1  0  0  0  0
M  END
>  <EGIN_R>
ES LYS A 135

>  <REMARK>
  4 active torsions:
  status: ('A' for Active; 'I' for Inactive)
    5  A    between atoms: CA   and  CB  
    6  A    between atoms: CB   and  CG  
    7  A    between atoms: CG   and  CD  
    8  A    between atoms: CD   and  CE  

$$$$
ligand_89_pose_0_2HRL.pdbqt
 OpenBabel07062320523D

 60 63  0  0  1  0  0  0  0  0999 V2000
   26.3550   29.0930   19.6180 N   0  0  0  0  0  0  0  0  0  0  0  0
   26.0930   28.3550   18.4630 C   0  0  0  0  0  0  0  0  0  0  0  0
   25.7510   27.1710   18.4650 O   0  0  0  0  0  0  0  0  0  0  0  0
   26.6180   30.1440   19.4560 H   0  0  0  0  0  0  0  0  0  0  0  0
   26.3140   28.6250   20.9490 C   0  0  0  0  0  0  0  0  0  0  0  0
   27.4300   27.7890   21.3940 C   0  0  2  0  0  0  0  0  0  0  0  0
   28.7580   27.8130   20.7580 C   0  0  1  0  0  0  0  0  0  0  0  0
   29.7180   28.4480   21.8080 C   0  0  2  0  0  0  0  0  0  0  0  0
   30.8830   30.0980   20.6110 C   0  0  2  0  0  0  0  0  0  0  0  0
   32.1770   29.4310   20.9400 C   0  0  0  0  0  0  0  0  0  0  0  0
   29.9050   29.7370   21.4790 O   0  0  0  0  0  0  0  0  0  0  0  0
   32.0750   27.9410   21.1410 C   0  0  1  0  0  0  0  0  0  0  0  0
   30.9030   27.5840   22.0290 C   0  0  1  0  0  0  0  0  0  0  0  0
   30.4720   29.7370   19.3030 O   0  0  0  0  0  0  0  0  0  0  0  0
   29.5620   30.1250   19.2050 H   0  0  0  0  0  0  0  0  0  0  0  0
   31.1520   31.5760   20.6390 C   0  0  0  0  0  0  0  0  0  0  0  0
   32.1990   31.9980   21.1470 O   0  0  0  0  0  0  0  0  0  0  0  0
   30.2380   32.4500   20.1020 O   0  0  0  0  0  0  0  0  0  0  0  0
   29.3630   32.6580   20.5920 H   0  0  0  0  0  0  0  0  0  0  0  0
   32.0020   27.2410   19.9360 O   0  0  0  0  0  0  0  0  0  0  0  0
   32.1870   27.8590   19.1870 H   0  0  0  0  0  0  0  0  0  0  0  0
   31.3830   27.6590   23.4150 N   0  0  0  0  0  0  0  0  0  0  0  0
   30.9760   26.7470   24.4100 C   0  0  0  0  0  0  0  0  0  0  0  0
   32.0620   28.4160   23.7090 H   0  0  0  0  0  0  0  0  0  0  0  0
   31.4650   26.8270   25.8110 C   0  0  0  0  0  0  0  0  0  0  0  0
   30.1640   25.8170   24.1220 O   0  0  0  0  0  0  0  0  0  0  0  0
   29.2710   26.5640   20.4020 O   0  0  0  0  0  0  0  0  0  0  0  0
   28.6510   25.8320   20.7120 H   0  0  0  0  0  0  0  0  0  0  0  0
   26.9290   26.4320   21.3680 O   0  0  0  0  0  0  0  0  0  0  0  0
   27.1650   25.9970   20.5310 H   0  0  0  0  0  0  0  0  0  0  0  0
   26.2150   28.9450   17.1850 O   0  0  0  0  0  0  0  0  0  0  0  0
   27.4160   28.9090   16.4700 C   0  0  0  0  0  0  0  0  0  0  0  0
   28.1780   30.1610   16.7070 C   0  0  0  0  0  0  0  0  0  0  0  0
   28.9370   30.8670   15.7790 C   0  0  0  0  0  0  0  0  0  0  0  0
   28.2940   30.8710   17.8440 N   0  0  0  0  0  0  0  0  0  0  0  0
   29.4840   31.9690   16.3670 N   0  0  0  0  0  0  0  0  0  0  0  0
   29.0620   31.9160   17.6050 N   0  0  0  0  0  0  0  0  0  0  0  0
   30.3120   32.9000   15.6780 C   0  0  0  0  0  0  0  0  0  0  0  0
   31.6760   32.9480   15.7380 N   0  0  0  0  0  0  0  0  0  0  0  0
   29.9500   33.9150   14.8320 C   0  0  0  0  0  0  0  0  0  0  0  0
   32.1050   33.9500   14.9600 C   0  0  0  0  0  0  0  0  0  0  0  0
   31.0620   34.5740   14.3820 N   0  0  0  0  0  0  0  0  0  0  0  0
   28.7420   34.3540   14.3890 C   0  0  0  0  0  0  0  0  0  0  0  0
   30.9840   35.6160   13.5340 C   0  0  0  0  0  0  0  0  0  0  0  0
   28.6180   35.3800   13.5510 N   0  0  0  0  0  0  0  0  0  0  0  0
   27.6760   33.8000   14.7600 O   0  0  0  0  0  0  0  0  0  0  0  0
   32.1280   36.2550   13.1020 C   0  0  0  0  0  0  0  0  0  0  0  0
   29.7290   36.0130   13.1210 C   0  0  0  0  0  0  0  0  0  0  0  0
   32.0780   37.3300   12.2300 C   0  0  0  0  0  0  0  0  0  0  0  0
   29.7060   37.0920   12.2490 C   0  0  0  0  0  0  0  0  0  0  0  0
   30.8430   37.7400   11.8080 C   0  0  0  0  0  0  0  0  0  0  0  0
   27.3660   35.8930   13.0410 C   0  0  0  0  0  0  0  0  0  0  0  0
   26.5610   36.3680   14.2310 C   0  0  0  0  0  0  0  0  0  0  0  0
   26.5370   34.8940   12.3000 C   0  0  0  0  0  0  0  0  0  0  0  0
   29.8670   25.5550   16.9770 C   0  0  0  0  0  0  0  0  0  0  0  0
   28.3450   25.7220   17.0260 C   0  0  0  0  0  0  0  0  0  0  0  0
   27.5990   24.4320   16.7200 C   0  0  0  0  0  0  0  0  0  0  0  0
   26.9740   23.8340   17.9500 C   0  0  0  0  0  0  0  0  0  0  0  0
   25.6140   23.2420   17.5930 C   0  0  0  0  0  0  0  0  0  0  0  0
   24.7690   24.2540   16.9170 N   0  0  0  0  0  0  0  0  0  0  0  0
  1  5  1  0  0  0  0
  2  3  2  0  0  0  0
  2  1  1  0  0  0  0
  4  1  1  0  0  0  0
  6  5  1  6  0  0  0
  7 27  1  1  0  0  0
  7  6  1  0  0  0  0
  8  7  1  6  0  0  0
  8 13  1  0  0  0  0
  9 14  1  6  0  0  0
  9 16  1  0  0  0  0
  9 10  1  0  0  0  0
  9 11  1  0  0  0  0
 10 12  1  0  0  0  0
 11  8  1  0  0  0  0
 12 20  1  6  0  0  0
 12 13  1  0  0  0  0
 13 22  1  1  0  0  0
 15 14  1  0  0  0  0
 16 17  2  0  0  0  0
 18 19  1  0  0  0  0
 18 16  1  0  0  0  0
 21 20  1  0  0  0  0
 22 24  1  0  0  0  0
 22 23  1  0  0  0  0
 23 25  1  0  0  0  0
 26 23  2  0  0  0  0
 27 28  1  0  0  0  0
 29  6  1  0  0  0  0
 30 29  1  0  0  0  0
 31  2  1  0  0  0  0
 32 33  1  0  0  0  0
 32 31  1  0  0  0  0
 33 35  1  0  0  0  0
 34 36  1  0  0  0  0
 34 33  2  0  0  0  0
 36 37  1  0  0  0  0
 37 35  2  0  0  0  0
 38 39  1  0  0  0  0
 38 36  1  0  0  0  0
 40 38  2  0  0  0  0
 41 39  2  0  0  0  0
 42 40  1  0  0  0  0
 42 41  1  0  0  0  0
 43 46  2  0  0  0  0
 43 40  1  0  0  0  0
 44 42  1  0  0  0  0
 45 43  1  0  0  0  0
 47 44  2  0  0  0  0
 48 44  1  0  0  0  0
 48 45  1  0  0  0  0
 49 47  1  0  0  0  0
 50 48  2  0  0  0  0
 51 49  2  0  0  0  0
 51 50  1  0  0  0  0
 52 45  1  0  0  0  0
 52 53  1  0  0  0  0
 54 52  1  0  0  0  0
 55 56  1  0  0  0  0
 57 56  1  0  0  0  0
 57 58  1  0  0  0  0
 59 58  1  0  0  0  0
 60 59  1  0  0  0  0
M  END
>  <REMARK>
 VINA RESULT:    -5.287      0.000      0.000
 INTER + INTRA:         -16.568
 INTER:                 -10.669
 INTRA:                  -5.898
 UNBOUND:                -7.109
 SMILES CC(=O)N[C@@H]1[C@@H](O)C[C@](O)(C(=O)O)O[C@H]1C(O)[C@H](O)CNC(=O)OCc1cn(-c2ncn3c2c(=O)n(C(C)C)c2ccccc23)nn1
 SMILES IDX 21 1 22 2 23 3 20 5 18 6 16 7 15 8 9 9 8 10 14 11 6 12 5 13
 SMILES IDX 10 14 11 16 12 17 13 18 7 20 4 22 2 23 1 25 3 26 17 27 19 29
 SMILES IDX 24 31 25 32 26 33 27 34 47 35 28 36 46 37 29 38 30 39 33 40
 SMILES IDX 31 41 32 42 34 43 45 44 36 45 35 46 44 47 40 48 43 49 41 50
 SMILES IDX 42 51 37 52 38 53 39 54
 H PARENT 21 4 10 15 13 19 7 21 4 24 17 28 19 30
 Flexibility Score: inf
  4 active torsions:
  status: ('A' for Active; 'I' for Inactive)
    1  A    between atoms: CA   and  CB  
    2  A    between atoms: CB   and  CG  
    3  A    between atoms: CG   and  CD  
    4  A    between atoms: CD   and  CE  

>  <TORSDO>
F 16

>  <BEGIN_>
RES LYS A 131

$$$$
ligand_89_pose_0_2HRL.pdbqt
 OpenBabel07062320523D

  6  5  0  0  0  0  0  0  0  0999 V2000
   33.1930   34.6630    9.2900 C   0  0  0  0  0  0  0  0  0  0  0  0
   32.0600   35.3600   10.0340 C   0  0  0  0  0  0  0  0  0  0  0  0
   30.7720   35.4150    9.2540 C   0  0  0  0  0  0  0  0  0  0  0  0
   30.1830   34.0220    9.0910 C   0  0  0  0  0  0  0  0  0  0  0  0
   28.6690   34.0710    9.1700 C   0  0  0  0  0  0  0  0  0  0  0  0
   28.0970   34.8320    8.0250 N   0  0  0  0  0  0  0  0  0  0  0  0
  1  2  1  0  0  0  0
  3  2  1  0  0  0  0
  4  5  1  0  0  0  0
  4  3  1  0  0  0  0
  6  5  1  0  0  0  0
M  END
>  <EGIN_R>
ES LYS A 135

>  <REMARK>
  4 active torsions:
  status: ('A' for Active; 'I' for Inactive)
    5  A    between atoms: CA   and  CB  
    6  A    between atoms: CB   and  CG  
    7  A    between atoms: CG   and  CD  
    8  A    between atoms: CD   and  CE  

$$$$
ligand_90_pose_0_2HRL.pdbqt
 OpenBabel07062320523D

 61 62  0  0  1  0  0  0  0  0999 V2000
   27.6360   39.0310    4.3100 C   0  0  0  0  0  0  0  0  0  0  0  0
   28.3800   38.0290    4.9760 O   0  0  0  0  0  0  0  0  0  0  0  0
   27.9920   37.5340    6.2080 C   0  0  0  0  0  0  0  0  0  0  0  0
   26.6370   37.1240    6.4540 N   0  0  0  0  0  0  0  0  0  0  0  0
   25.9760   37.2290    5.6590 H   0  0  0  0  0  0  0  0  0  0  0  0
   28.8450   37.4520    7.1090 O   0  0  0  0  0  0  0  0  0  0  0  0
   26.1910   36.6000    7.7000 C   0  0  0  0  0  0  0  0  0  0  0  0
   25.2990   37.5080    8.4710 C   0  0  2  0  0  0  0  0  0  0  0  0
   23.8890   37.4060    7.9120 C   0  0  1  0  0  0  0  0  0  0  0  0
   22.8360   37.6620    8.9420 C   0  0  2  0  0  0  0  0  0  0  0  0
   20.8670   36.5560    8.3720 C   0  0  2  0  0  0  0  0  0  0  0  0
   19.9340   37.6860    8.7800 C   0  0  0  0  0  0  0  0  0  0  0  0
   22.0280   36.5650    9.0940 O   0  0  0  0  0  0  0  0  0  0  0  0
   20.7330   38.7830    9.4710 C   0  0  1  0  0  0  0  0  0  0  0  0
   22.0440   38.9020    8.6850 C   0  0  1  0  0  0  0  0  0  0  0  0
   21.1480   36.7570    7.0330 O   0  0  0  0  0  0  0  0  0  0  0  0
   21.7200   37.5560    6.9090 H   0  0  0  0  0  0  0  0  0  0  0  0
   20.2060   35.2320    8.5080 C   0  0  0  0  0  0  0  0  0  0  0  0
   19.6130   34.8910    9.5710 O   0  0  0  0  0  0  0  0  0  0  0  0
   20.2140   34.3180    7.4690 O   0  0  0  0  0  0  0  0  0  0  0  0
   20.7320   33.4580    7.4500 H   0  0  0  0  0  0  0  0  0  0  0  0
   19.9960   39.9510    9.3930 O   0  0  0  0  0  0  0  0  0  0  0  0
   20.2450   40.5200    8.6300 H   0  0  0  0  0  0  0  0  0  0  0  0
   22.7590   40.0970    9.1140 N   0  0  0  0  0  0  0  0  0  0  0  0
   22.6820   41.2680    8.3340 C   0  0  0  0  0  0  0  0  0  0  0  0
   23.3120   40.0740    9.9730 H   0  0  0  0  0  0  0  0  0  0  0  0
   23.4050   42.5280    8.7410 C   0  0  0  0  0  0  0  0  0  0  0  0
   22.0240   41.3470    7.2690 O   0  0  0  0  0  0  0  0  0  0  0  0
   23.7090   38.2700    6.8430 O   0  0  0  0  0  0  0  0  0  0  0  0
   22.8710   38.1290    6.3660 H   0  0  0  0  0  0  0  0  0  0  0  0
   25.6880   38.8380    8.4760 O   0  0  0  0  0  0  0  0  0  0  0  0
   24.9160   39.4620    8.5440 H   0  0  0  0  0  0  0  0  0  0  0  0
   27.1950   39.9720    5.3680 C   0  0  0  0  0  0  0  0  0  0  0  0
   28.0400   40.8160    6.0540 C   0  0  0  0  0  0  0  0  0  0  0  0
   25.9820   40.2190    5.8850 N   0  0  0  0  0  0  0  0  0  0  0  0
   27.3300   41.5510    6.9650 N   0  0  0  0  0  0  0  0  0  0  0  0
   26.0840   41.1650    6.8370 N   0  0  0  0  0  0  0  0  0  0  0  0
   27.9670   42.5160    7.8330 C   0  0  0  0  0  0  0  0  0  0  0  0
   28.4490   41.7410    9.0450 C   0  0  0  0  0  0  0  0  0  0  0  0
   29.6430   41.8250    9.4060 O   0  0  0  0  0  0  0  0  0  0  0  0
   27.5990   40.9190    9.7890 N   0  0  0  0  0  0  0  0  0  0  0  0
   26.5760   40.9240    9.4150 H   0  0  0  0  0  0  0  0  0  0  0  0
   27.8680   40.1060   10.9180 C   0  0  0  0  0  0  0  0  0  0  0  0
   28.4040   38.7570   10.7510 C   0  0  1  0  0  0  0  0  0  0  0  0
   29.2100   38.6190    9.5890 O   0  0  0  0  0  0  0  0  0  0  0  0
   30.0760   39.0710    9.7390 H   0  0  0  0  0  0  0  0  0  0  0  0
   28.8530   37.9490   11.8960 C   0  0  0  0  0  0  0  0  0  0  0  0
   28.0100   36.8000   12.1640 N   0  0  0  0  0  0  0  0  0  0  0  0
   26.6950   36.6920   11.8450 C   0  0  0  0  0  0  0  0  0  0  0  0
   28.3900   35.6690   12.7860 C   0  0  0  0  0  0  0  0  0  0  0  0
   26.2800   35.4530   12.2950 C   0  0  0  0  0  0  0  0  0  0  0  0
   27.3120   34.8310   12.8680 N   0  0  0  0  0  0  0  0  0  0  0  0
   29.6620   35.3140   13.2990 N   0  0  0  0  0  0  0  0  0  0  0  0
   30.3450   34.4730   12.6440 O   0  0  0  0  0  0  0  0  0  0  0  0
   30.2290   35.7860   14.4340 O   0  0  0  0  0  0  0  0  0  0  0  0
   29.8670   25.5550   16.9770 C   0  0  0  0  0  0  0  0  0  0  0  0
   28.3450   25.7220   17.0260 C   0  0  0  0  0  0  0  0  0  0  0  0
   27.6050   24.3930   17.0490 C   0  0  0  0  0  0  0  0  0  0  0  0
   26.5370   24.3580   18.1070 C   0  0  0  0  0  0  0  0  0  0  0  0
   25.3170   25.1360   17.6240 C   0  0  0  0  0  0  0  0  0  0  0  0
   24.4410   24.2690   16.8010 N   0  0  0  0  0  0  0  0  0  0  0  0
  1  2  1  0  0  0  0
  1 33  1  0  0  0  0
  2  3  1  0  0  0  0
  3  4  1  0  0  0  0
  3  6  2  0  0  0  0
  4  7  1  0  0  0  0
  5  4  1  0  0  0  0
  8  7  1  6  0  0  0
  8 31  1  0  0  0  0
  9 29  1  6  0  0  0
  9  8  1  0  0  0  0
 10  9  1  6  0  0  0
 10 13  1  0  0  0  0
 11 16  1  6  0  0  0
 11 18  1  0  0  0  0
 11 12  1  0  0  0  0
 11 13  1  0  0  0  0
 12 14  1  0  0  0  0
 14 22  1  6  0  0  0
 15 10  1  0  0  0  0
 15 24  1  1  0  0  0
 15 14  1  0  0  0  0
 17 16  1  0  0  0  0
 18 19  2  0  0  0  0
 20 18  1  0  0  0  0
 21 20  1  0  0  0  0
 23 22  1  0  0  0  0
 24 26  1  0  0  0  0
 25 27  1  0  0  0  0
 25 24  1  0  0  0  0
 28 25  2  0  0  0  0
 30 29  1  0  0  0  0
 31 32  1  0  0  0  0
 33 35  1  0  0  0  0
 33 34  2  0  0  0  0
 34 36  1  0  0  0  0
 35 37  2  0  0  0  0
 36 38  1  0  0  0  0
 37 36  1  0  0  0  0
 38 39  1  0  0  0  0
 39 40  2  0  0  0  0
 39 41  1  0  0  0  0
 41 43  1  0  0  0  0
 42 41  1  0  0  0  0
 44 43  1  1  0  0  0
 44 47  1  0  0  0  0
 45 46  1  0  0  0  0
 45 44  1  0  0  0  0
 47 48  1  0  0  0  0
 48 50  1  0  0  0  0
 49 48  1  0  0  0  0
 49 51  2  0  0  0  0
 50 52  2  0  0  0  0
 50 53  1  0  0  0  0
 51 52  1  0  0  0  0
 53 55  2  0  0  0  0
 54 53  2  0  0  0  0
 56 57  1  0  0  0  0
 57 58  1  0  0  0  0
 58 59  1  0  0  0  0
 60 59  1  0  0  0  0
 61 60  1  0  0  0  0
M  END
>  <REMARK>
 VINA RESULT:    -5.470      0.000      0.000
 INTER + INTRA:         -17.304
 INTER:                  -9.080
 INTRA:                  -8.225
 UNBOUND:                -5.759
 SMILES CC(=O)N[C@@H]1[C@@H](O)C[C@](O)(C(=O)O)O[C@H]1C(O)[C@H](O)CNC(=O)OCc1cn(CC(=O)NCC(O)Cn2ccnc2[N+](=O)[O-])nn1
 SMILES IDX 25 1 24 2 22 3 21 4 23 6 20 7 18 8 16 9 15 10 9 11 8 12
 SMILES IDX 14 13 6 14 5 15 10 16 11 18 12 19 13 20 7 22 4 24 2 25 1 27
 SMILES IDX 3 28 17 29 19 31 26 33 27 34 46 35 28 36 45 37 29 38 30 39
 SMILES IDX 31 40 32 41 33 43 34 44 35 45 36 47 37 48 38 49 41 50 39 51
 SMILES IDX 40 52 42 53 43 54 44 55
 H PARENT 21 5 10 17 13 21 7 23 4 26 17 30 19 32 32 42 35 46
 Flexibility Score: inf
  4 active torsions:
  status: ('A' for Active; 'I' for Inactive)
    1  A    between atoms: CA   and  CB  
    2  A    between atoms: CB   and  CG  
    3  A    between atoms: CG   and  CD  
    4  A    between atoms: CD   and  CE  

>  <TORSDO>
F 22

>  <BEGIN_>
RES LYS A 131

$$$$
ligand_90_pose_0_2HRL.pdbqt
 OpenBabel07062320523D

  6  5  0  0  0  0  0  0  0  0999 V2000
   33.1930   34.6630    9.2900 C   0  0  0  0  0  0  0  0  0  0  0  0
   32.0600   35.3600   10.0340 C   0  0  0  0  0  0  0  0  0  0  0  0
   30.7910   35.4750    9.2290 C   0  0  0  0  0  0  0  0  0  0  0  0
   30.1210   34.1170    9.0880 C   0  0  0  0  0  0  0  0  0  0  0  0
   28.6830   34.2780    8.6320 C   0  0  0  0  0  0  0  0  0  0  0  0
   27.7410   33.6370    9.5920 N   0  0  0  0  0  0  0  0  0  0  0  0
  1  2  1  0  0  0  0
  3  2  1  0  0  0  0
  4  3  1  0  0  0  0
  5  4  1  0  0  0  0
  5  6  1  0  0  0  0
M  END
>  <EGIN_R>
ES LYS A 135

>  <REMARK>
  4 active torsions:
  status: ('A' for Active; 'I' for Inactive)
    5  A    between atoms: CA   and  CB  
    6  A    between atoms: CB   and  CG  
    7  A    between atoms: CG   and  CD  
    8  A    between atoms: CD   and  CE  

$$$$
ligand_91_pose_0_2HRL.pdbqt
 OpenBabel07062320523D

 57 60  0  0  1  0  0  0  0  0999 V2000
   24.6410   37.1930    9.1640 C   0  0  0  0  0  0  0  0  0  0  0  0
   25.7380   37.3340    8.1440 C   0  0  2  0  0  0  0  0  0  0  0  0
   26.9330   37.8820    8.8590 C   0  0  2  0  0  0  0  0  0  0  0  0
   28.1410   38.1050    7.9610 C   0  0  2  0  0  0  0  0  0  0  0  0
   28.8740   39.5790    6.4040 C   0  0  2  0  0  0  0  0  0  0  0  0
   29.1890   38.5590    5.3430 C   0  0  0  0  0  0  0  0  0  0  0  0
   27.8460   39.2070    7.2080 O   0  0  0  0  0  0  0  0  0  0  0  0
   28.6150   37.2050    5.6460 C   0  0  1  0  0  0  0  0  0  0  0  0
   28.4320   36.9310    7.1010 C   0  0  1  0  0  0  0  0  0  0  0  0
   28.4140   40.7680    5.7450 O   0  0  0  0  0  0  0  0  0  0  0  0
   27.4740   40.6430    5.4660 H   0  0  0  0  0  0  0  0  0  0  0  0
   30.1150   40.0100    7.0920 C   0  0  0  0  0  0  0  0  0  0  0  0
   30.1770   41.0830    7.7490 O   0  0  0  0  0  0  0  0  0  0  0  0
   31.2980   39.2540    7.0550 O   0  0  0  0  0  0  0  0  0  0  0  0
   31.8130   39.1860    6.1900 H   0  0  0  0  0  0  0  0  0  0  0  0
   27.4090   37.0670    4.9520 O   0  0  0  0  0  0  0  0  0  0  0  0
   26.6760   36.7880    5.5550 H   0  0  0  0  0  0  0  0  0  0  0  0
   29.5600   36.1180    7.5700 N   0  0  0  0  0  0  0  0  0  0  0  0
   29.3830   34.8820    8.2510 C   0  0  0  0  0  0  0  0  0  0  0  0
   30.5490   36.4170    7.4210 H   0  0  0  0  0  0  0  0  0  0  0  0
   30.5460   34.0660    8.7190 C   0  0  0  0  0  0  0  0  0  0  0  0
   28.2230   34.4480    8.4750 O   0  0  0  0  0  0  0  0  0  0  0  0
   27.3040   37.0040    9.8650 O   0  0  0  0  0  0  0  0  0  0  0  0
   26.9580   37.3610   10.7190 H   0  0  0  0  0  0  0  0  0  0  0  0
   25.3190   38.1190    7.0960 O   0  0  0  0  0  0  0  0  0  0  0  0
   25.2420   39.0620    7.4330 H   0  0  0  0  0  0  0  0  0  0  0  0
   24.5840   35.9580    9.8660 N   0  0  0  0  0  0  0  0  0  0  0  0
   23.8440   35.7350   11.0460 C   0  0  0  0  0  0  0  0  0  0  0  0
   25.1270   35.0890    9.5180 H   0  0  0  0  0  0  0  0  0  0  0  0
   23.1730   36.6400   11.5810 O   0  0  0  0  0  0  0  0  0  0  0  0
   23.8210   34.4830   11.6820 O   0  0  0  0  0  0  0  0  0  0  0  0
   24.4760   34.2990   12.9370 C   0  0  0  0  0  0  0  0  0  0  0  0
   25.9090   34.6220   12.7470 C   0  0  0  0  0  0  0  0  0  0  0  0
   26.7720   35.1270   13.6980 C   0  0  0  0  0  0  0  0  0  0  0  0
   26.6730   34.5000   11.6340 N   0  0  0  0  0  0  0  0  0  0  0  0
   27.9930   35.2930   13.1640 N   0  0  0  0  0  0  0  0  0  0  0  0
   27.9130   34.9080   11.9090 N   0  0  0  0  0  0  0  0  0  0  0  0
   29.1530   35.7830   13.8030 C   0  0  0  0  0  0  0  0  0  0  0  0
   29.4010   37.1570   13.8590 C   0  0  0  0  0  0  0  0  0  0  0  0
   30.0770   34.9380   14.3950 C   0  0  0  0  0  0  0  0  0  0  0  0
   28.5190   38.0510   13.2890 C   0  0  0  0  0  0  0  0  0  0  0  0
   30.5060   37.6590   14.4720 C   0  0  0  0  0  0  0  0  0  0  0  0
   31.1910   35.4670   15.0110 C   0  0  0  0  0  0  0  0  0  0  0  0
   29.8350   33.5890   14.3360 C   0  0  0  0  0  0  0  0  0  0  0  0
   28.7180   39.4140   13.3170 C   0  0  0  0  0  0  0  0  0  0  0  0
   30.7200   39.0320   14.5090 C   0  0  0  0  0  0  0  0  0  0  0  0
   31.3810   36.8030   15.0360 N   0  0  0  0  0  0  0  0  0  0  0  0
   32.0810   34.5900   15.5830 C   0  0  0  0  0  0  0  0  0  0  0  0
   30.7580   32.7240   14.9270 C   0  0  0  0  0  0  0  0  0  0  0  0
   29.8520   39.9400   13.9450 C   0  0  0  0  0  0  0  0  0  0  0  0
   31.8850   33.2100   15.5530 C   0  0  0  0  0  0  0  0  0  0  0  0
   29.8670   25.5550   16.9770 C   0  0  0  0  0  0  0  0  0  0  0  0
   28.3450   25.7220   17.0260 C   0  0  0  0  0  0  0  0  0  0  0  0
   27.6010   24.4030   16.8810 C   0  0  0  0  0  0  0  0  0  0  0  0
   26.1650   24.5130   17.3120 C   0  0  0  0  0  0  0  0  0  0  0  0
   26.0990   25.0940   18.7200 C   0  0  0  0  0  0  0  0  0  0  0  0
   25.4170   24.1530   19.6390 N   0  0  0  0  0  0  0  0  0  0  0  0
  1 27  1  0  0  0  0
  2  3  1  0  0  0  0
  2  1  1  1  0  0  0
  3 23  1  1  0  0  0
  4  3  1  1  0  0  0
  5 10  1  6  0  0  0
  5 12  1  0  0  0  0
  5  7  1  0  0  0  0
  6  8  1  0  0  0  0
  6  5  1  0  0  0  0
  7  4  1  0  0  0  0
  8 16  1  6  0  0  0
  8  9  1  0  0  0  0
  9 18  1  1  0  0  0
  9  4  1  0  0  0  0
 11 10  1  0  0  0  0
 12 13  2  0  0  0  0
 14 12  1  0  0  0  0
 15 14  1  0  0  0  0
 16 17  1  0  0  0  0
 18 19  1  0  0  0  0
 19 22  2  0  0  0  0
 19 21  1  0  0  0  0
 20 18  1  0  0  0  0
 23 24  1  0  0  0  0
 25 26  1  0  0  0  0
 25  2  1  0  0  0  0
 27 28  1  0  0  0  0
 28 30  2  0  0  0  0
 28 31  1  0  0  0  0
 29 27  1  0  0  0  0
 31 32  1  0  0  0  0
 33 32  1  0  0  0  0
 33 34  2  0  0  0  0
 35 37  2  0  0  0  0
 35 33  1  0  0  0  0
 36 34  1  0  0  0  0
 36 38  1  0  0  0  0
 37 36  1  0  0  0  0
 38 39  2  0  0  0  0
 38 40  1  0  0  0  0
 39 42  1  0  0  0  0
 40 43  1  0  0  0  0
 41 45  2  0  0  0  0
 41 39  1  0  0  0  0
 42 46  1  0  0  0  0
 42 47  2  0  0  0  0
 43 47  1  0  0  0  0
 43 48  2  0  0  0  0
 44 40  2  0  0  0  0
 44 49  1  0  0  0  0
 45 50  1  0  0  0  0
 49 51  2  0  0  0  0
 50 46  2  0  0  0  0
 51 48  1  0  0  0  0
 52 53  1  0  0  0  0
 54 53  1  0  0  0  0
 54 55  1  0  0  0  0
 55 56  1  0  0  0  0
 56 57  1  0  0  0  0
M  END
>  <REMARK>
 VINA RESULT:    -6.124      0.000      0.000
 INTER + INTRA:         -16.683
 INTER:                 -11.511
 INTRA:                  -5.172
 UNBOUND:                -6.084
 SMILES CC(=O)N[C@@H]1[C@@H](O)C[C@](O)(C(=O)O)O[C@H]1C(O)[C@H](O)CNC(=O)OCc1cn(-c2c3ccccc3nc3ccccc23)nn1
 SMILES IDX 20 1 18 2 16 3 15 4 9 5 8 6 14 7 6 8 5 9 10 10 11 12 12 13
 SMILES IDX 13 14 7 16 4 18 2 19 1 21 3 22 17 23 19 25 21 27 22 28 23 30
 SMILES IDX 24 31 25 32 26 33 27 34 44 35 28 36 43 37 29 38 30 39 42 40
 SMILES IDX 31 41 35 42 37 43 41 44 32 45 34 46 36 47 38 48 40 49 33 50
 SMILES IDX 39 51
 H PARENT 10 11 13 15 7 17 4 20 17 24 19 26 21 29
 Flexibility Score: inf
  4 active torsions:
  status: ('A' for Active; 'I' for Inactive)
    1  A    between atoms: CA   and  CB  
    2  A    between atoms: CB   and  CG  
    3  A    between atoms: CG   and  CD  
    4  A    between atoms: CD   and  CE  

>  <TORSDO>
F 15

>  <BEGIN_>
RES LYS A 131

$$$$
ligand_91_pose_0_2HRL.pdbqt
 OpenBabel07062320523D

  6  5  0  0  0  0  0  0  0  0999 V2000
   33.1930   34.6630    9.2900 C   0  0  0  0  0  0  0  0  0  0  0  0
   32.0600   35.3600   10.0340 C   0  0  0  0  0  0  0  0  0  0  0  0
   32.4570   35.8710   11.3950 C   0  0  0  0  0  0  0  0  0  0  0  0
   32.2580   37.3760   11.4830 C   0  0  0  0  0  0  0  0  0  0  0  0
   31.0810   37.8080   10.6290 C   0  0  0  0  0  0  0  0  0  0  0  0
   31.0090   39.2920   10.5270 N   0  0  0  0  0  0  0  0  0  0  0  0
  1  2  1  0  0  0  0
  2  3  1  0  0  0  0
  3  4  1  0  0  0  0
  5  4  1  0  0  0  0
  6  5  1  0  0  0  0
M  END
>  <EGIN_R>
ES LYS A 135

>  <REMARK>
  4 active torsions:
  status: ('A' for Active; 'I' for Inactive)
    5  A    between atoms: CA   and  CB  
    6  A    between atoms: CB   and  CG  
    7  A    between atoms: CG   and  CD  
    8  A    between atoms: CD   and  CE  

$$$$
ligand_92_pose_0_2HRL.pdbqt
 OpenBabel07062320523D

 59 60  0  0  1  0  0  0  0  0999 V2000
   29.7370   27.0510   20.3620 N   0  0  0  0  0  0  0  0  0  0  0  0
   28.4280   27.5490   20.5430 C   0  0  0  0  0  0  0  0  0  0  0  0
   28.0090   27.7450   21.7350 O   0  0  0  0  0  0  0  0  0  0  0  0
   30.0830   26.8910   19.4010 H   0  0  0  0  0  0  0  0  0  0  0  0
   30.5990   26.7630   21.4760 C   0  0  0  0  0  0  0  0  0  0  0  0
   31.9000   27.5250   21.4200 C   0  0  2  0  0  0  0  0  0  0  0  0
   31.9000   28.7150   22.3340 C   0  0  1  0  0  0  0  0  0  0  0  0
   33.0360   29.6860   21.9650 C   0  0  2  0  0  0  0  0  0  0  0  0
   34.6890   29.2280   23.5850 C   0  0  1  0  0  0  0  0  0  0  0  0
   34.6610   30.6860   24.0000 C   0  0  0  0  0  0  0  0  0  0  0  0
   34.2030   29.0890   22.3330 O   0  0  0  0  0  0  0  0  0  0  0  0
   33.2070   31.0930   23.9700 C   0  0  1  0  0  0  0  0  0  0  0  0
   32.7350   31.0140   22.5390 C   0  0  1  0  0  0  0  0  0  0  0  0
   33.8470   28.5630   24.4870 O   0  0  0  0  0  0  0  0  0  0  0  0
   34.1600   28.6110   25.4100 H   0  0  0  0  0  0  0  0  0  0  0  0
   36.0490   28.6540   23.7510 C   0  0  0  0  0  0  0  0  0  0  0  0
   36.9710   29.0420   23.0200 O   0  0  0  0  0  0  0  0  0  0  0  0
   36.2990   27.6910   24.7100 O   0  0  0  0  0  0  0  0  0  0  0  0
   36.8230   27.9350   25.5630 H   0  0  0  0  0  0  0  0  0  0  0  0
   32.4710   30.2900   24.8330 O   0  0  0  0  0  0  0  0  0  0  0  0
   32.8800   29.3760   24.8080 H   0  0  0  0  0  0  0  0  0  0  0  0
   33.2820   32.1340   21.8420 N   0  0  0  0  0  0  0  0  0  0  0  0
   32.4430   33.1790   21.3980 C   0  0  0  0  0  0  0  0  0  0  0  0
   34.2970   32.1890   21.6540 H   0  0  0  0  0  0  0  0  0  0  0  0
   32.9250   34.3780   20.6660 C   0  0  0  0  0  0  0  0  0  0  0  0
   31.2310   33.0880   21.6330 O   0  0  0  0  0  0  0  0  0  0  0  0
   30.6690   29.4110   22.3080 O   0  0  0  0  0  0  0  0  0  0  0  0
   30.6450   29.9300   21.4840 H   0  0  0  0  0  0  0  0  0  0  0  0
   32.0460   27.9140   20.0710 O   0  0  0  0  0  0  0  0  0  0  0  0
   31.6430   27.1900   19.5310 H   0  0  0  0  0  0  0  0  0  0  0  0
   27.5650   27.8380   19.5060 O   0  0  0  0  0  0  0  0  0  0  0  0
   27.1910   29.1860   19.1860 C   0  0  0  0  0  0  0  0  0  0  0  0
   28.4670   29.9400   19.0070 C   0  0  0  0  0  0  0  0  0  0  0  0
   28.7800   30.8210   17.9700 C   0  0  0  0  0  0  0  0  0  0  0  0
   29.5680   29.9380   19.7860 N   0  0  0  0  0  0  0  0  0  0  0  0
   30.0200   31.3030   18.1540 N   0  0  0  0  0  0  0  0  0  0  0  0
   30.4600   30.7430   19.2630 N   0  0  0  0  0  0  0  0  0  0  0  0
   30.6760   32.2270   17.2960 C   0  0  0  0  0  0  0  0  0  0  0  0
   31.0710   33.4760   17.7140 C   0  0  0  0  0  0  0  0  0  0  0  0
   30.9340   31.8780   15.9880 C   0  0  0  0  0  0  0  0  0  0  0  0
   31.7120   34.3690   16.8560 C   0  0  0  0  0  0  0  0  0  0  0  0
   31.5670   32.7570   15.1380 C   0  0  0  0  0  0  0  0  0  0  0  0
   31.9760   34.0300   15.5490 C   0  0  0  0  0  0  0  0  0  0  0  0
   32.7830   35.1040   14.4450 S   0  0  0  0  0  0  0  0  0  0  0  0
   34.0680   34.4080   14.0150 O   0  0  0  0  0  0  0  0  0  0  0  0
   33.1960   36.3160   15.2070 O   0  0  0  0  0  0  0  0  0  0  0  0
   31.8790   35.5090   13.0650 N   0  0  0  0  0  0  0  0  0  0  0  0
   32.4090   35.8510   12.2180 H   0  0  0  0  0  0  0  0  0  0  0  0
   30.4850   35.4420   12.9140 C   0  0  0  0  0  0  0  0  0  0  0  0
   29.5450   34.6650   12.9730 N   0  0  0  0  0  0  0  0  0  0  0  0
   29.5350   37.0130   12.4640 S   0  0  0  0  0  0  0  0  0  0  0  0
   28.2870   34.8970   12.7780 C   0  0  0  0  0  0  0  0  0  0  0  0
   27.8880   36.1490   12.4610 C   0  0  0  0  0  0  0  0  0  0  0  0
   29.8670   25.5550   16.9770 C   0  0  0  0  0  0  0  0  0  0  0  0
   28.3450   25.7220   17.0260 C   0  0  0  0  0  0  0  0  0  0  0  0
   27.6010   24.4020   16.8950 C   0  0  0  0  0  0  0  0  0  0  0  0
   26.6610   24.1650   18.0440 C   0  0  0  0  0  0  0  0  0  0  0  0
   25.5450   23.2240   17.6030 C   0  0  0  0  0  0  0  0  0  0  0  0
   24.4840   23.9760   16.8910 N   0  0  0  0  0  0  0  0  0  0  0  0
  1  2  1  0  0  0  0
  1  5  1  0  0  0  0
  2  3  2  0  0  0  0
  4  1  1  0  0  0  0
  6  5  1  6  0  0  0
  6  7  1  0  0  0  0
  7 27  1  6  0  0  0
  8 11  1  0  0  0  0
  8  7  1  1  0  0  0
  8 13  1  0  0  0  0
  9 16  1  6  0  0  0
  9 10  1  0  0  0  0
 11  9  1  0  0  0  0
 12 10  1  0  0  0  0
 12 20  1  1  0  0  0
 13 22  1  6  0  0  0
 13 12  1  0  0  0  0
 14 15  1  0  0  0  0
 16 18  1  0  0  0  0
 17 16  2  0  0  0  0
 18 19  1  0  0  0  0
 21 20  1  0  0  0  0
 23 26  2  0  0  0  0
 23 22  1  0  0  0  0
 24 22  1  0  0  0  0
 25 23  1  0  0  0  0
 28 27  1  0  0  0  0
 29  6  1  0  0  0  0
 30 29  1  0  0  0  0
 31  2  1  0  0  0  0
 32 31  1  0  0  0  0
 33 32  1  0  0  0  0
 33 35  1  0  0  0  0
 34 36  1  0  0  0  0
 34 33  2  0  0  0  0
 36 37  1  0  0  0  0
 37 35  2  0  0  0  0
 38 39  1  0  0  0  0
 38 36  1  0  0  0  0
 40 38  2  0  0  0  0
 41 39  2  0  0  0  0
 42 43  2  0  0  0  0
 42 40  1  0  0  0  0
 43 41  1  0  0  0  0
 44 46  2  0  0  0  0
 44 43  1  0  0  0  0
 45 44  2  0  0  0  0
 47 44  1  0  0  0  0
 48 47  1  0  0  0  0
 49 50  2  0  0  0  0
 49 47  1  0  0  0  0
 51 49  1  0  0  0  0
 52 50  1  0  0  0  0
 53 51  1  0  0  0  0
 53 52  2  0  0  0  0
 54 55  1  0  0  0  0
 56 55  1  0  0  0  0
 56 57  1  0  0  0  0
 58 57  1  0  0  0  0
 59 58  1  0  0  0  0
M  END
>  <REMARK>
 VINA RESULT:    -5.556      0.000      0.000
 INTER + INTRA:         -16.999
 INTER:                 -10.794
 INTRA:                  -6.205
 UNBOUND:                -6.408
 SMILES CC(=O)N[C@@H]1[C@@H](O)C[C@](O)(C(=O)O)O[C@H]1C(O)[C@H](O)CNC(=O)OCc1cn(-c2ccc(S(=O)(=O)Nc3nccs3)cc2)nn1
 SMILES IDX 21 1 22 2 23 3 20 5 18 6 16 7 15 8 9 9 8 10 14 11 6 12 5 13
 SMILES IDX 10 14 11 16 12 17 13 18 7 20 4 22 2 23 1 25 3 26 17 27 19 29
 SMILES IDX 24 31 25 32 26 33 27 34 45 35 28 36 44 37 29 38 30 39 43 40
 SMILES IDX 31 41 42 42 32 43 33 44 34 45 35 46 36 47 37 49 38 50 41 51
 SMILES IDX 39 52 40 53
 H PARENT 21 4 10 15 13 19 7 21 4 24 17 28 19 30 36 48
 Flexibility Score: inf
  4 active torsions:
  status: ('A' for Active; 'I' for Inactive)
    1  A    between atoms: CA   and  CB  
    2  A    between atoms: CB   and  CG  
    3  A    between atoms: CG   and  CD  
    4  A    between atoms: CD   and  CE  

>  <TORSDO>
F 18

>  <BEGIN_>
RES LYS A 131

$$$$
ligand_92_pose_0_2HRL.pdbqt
 OpenBabel07062320523D

  6  5  0  0  0  0  0  0  0  0999 V2000
   33.1930   34.6630    9.2900 C   0  0  0  0  0  0  0  0  0  0  0  0
   32.0600   35.3600   10.0340 C   0  0  0  0  0  0  0  0  0  0  0  0
   30.8160   35.5410    9.2040 C   0  0  0  0  0  0  0  0  0  0  0  0
   29.9510   34.2910    9.2530 C   0  0  0  0  0  0  0  0  0  0  0  0
   28.4980   34.6380    8.9880 C   0  0  0  0  0  0  0  0  0  0  0  0
   27.5880   33.5940    9.5370 N   0  0  0  0  0  0  0  0  0  0  0  0
  1  2  1  0  0  0  0
  3  4  1  0  0  0  0
  3  2  1  0  0  0  0
  5  4  1  0  0  0  0
  5  6  1  0  0  0  0
M  END
>  <EGIN_R>
ES LYS A 135

>  <REMARK>
  4 active torsions:
  status: ('A' for Active; 'I' for Inactive)
    5  A    between atoms: CA   and  CB  
    6  A    between atoms: CB   and  CG  
    7  A    between atoms: CG   and  CD  
    8  A    between atoms: CD   and  CE  

$$$$
ligand_93_pose_0_2HRL.pdbqt
 OpenBabel07062320523D

 50 51  0  0  1  0  0  0  0  0999 V2000
   30.5800   32.9260   14.6570 C   0  0  0  0  0  0  0  0  0  0  0  0
   31.4950   32.8990   15.8590 C   0  0  2  0  0  0  0  0  0  0  0  0
   30.7100   32.8070   17.1200 C   0  0  1  0  0  0  0  0  0  0  0  0
   30.4100   31.4140   17.6090 C   0  0  2  0  0  0  0  0  0  0  0  0
   28.1790   30.7970   17.1640 C   0  0  2  0  0  0  0  0  0  0  0  0
   27.9570   30.4480   18.6210 C   0  0  0  0  0  0  0  0  0  0  0  0
   29.4710   30.8880   16.7860 O   0  0  0  0  0  0  0  0  0  0  0  0
   28.7680   31.4220   19.4350 C   0  0  1  0  0  0  0  0  0  0  0  0
   30.2180   31.2460   19.0630 C   0  0  1  0  0  0  0  0  0  0  0  0
   27.5730   32.0400   16.9770 O   0  0  0  0  0  0  0  0  0  0  0  0
   26.6000   31.9160   17.1940 H   0  0  0  0  0  0  0  0  0  0  0  0
   27.4040   29.8020   16.3580 C   0  0  0  0  0  0  0  0  0  0  0  0
   27.4600   28.5690   16.5570 O   0  0  0  0  0  0  0  0  0  0  0  0
   26.5930   30.2710   15.3470 O   0  0  0  0  0  0  0  0  0  0  0  0
   26.1500   31.1920   15.3710 H   0  0  0  0  0  0  0  0  0  0  0  0
   28.2820   32.6970   19.1360 O   0  0  0  0  0  0  0  0  0  0  0  0
   27.3000   32.7550   19.2350 H   0  0  0  0  0  0  0  0  0  0  0  0
   30.5870   29.8770   19.4660 N   0  0  0  0  0  0  0  0  0  0  0  0
   31.4740   29.6260   20.5410 C   0  0  0  0  0  0  0  0  0  0  0  0
   30.1940   29.0620   18.9540 H   0  0  0  0  0  0  0  0  0  0  0  0
   31.7940   28.2220   20.8840 C   0  0  0  0  0  0  0  0  0  0  0  0
   31.9880   30.5770   21.2030 O   0  0  0  0  0  0  0  0  0  0  0  0
   31.1720   33.6650   18.1080 O   0  0  0  0  0  0  0  0  0  0  0  0
   30.6050   34.4840   18.1800 H   0  0  0  0  0  0  0  0  0  0  0  0
   32.2310   34.1110   15.7970 O   0  0  0  0  0  0  0  0  0  0  0  0
   33.2040   33.9010   15.8230 H   0  0  0  0  0  0  0  0  0  0  0  0
   29.3130   33.5780   14.9020 N   0  0  0  0  0  0  0  0  0  0  0  0
   28.9190   34.6600   14.0540 C   0  0  0  0  0  0  0  0  0  0  0  0
   28.7220   33.2400   15.6800 H   0  0  0  0  0  0  0  0  0  0  0  0
   29.6840   35.0010   13.1360 O   0  0  0  0  0  0  0  0  0  0  0  0
   27.7010   35.2670   14.3100 O   0  0  0  0  0  0  0  0  0  0  0  0
   26.6600   35.1160   13.3800 C   0  0  0  0  0  0  0  0  0  0  0  0
   25.8340   33.9570   13.7980 C   0  0  0  0  0  0  0  0  0  0  0  0
   25.0480   33.1980   12.9230 C   0  0  0  0  0  0  0  0  0  0  0  0
   25.6610   33.4140   15.0080 N   0  0  0  0  0  0  0  0  0  0  0  0
   24.4700   32.2630   13.6840 N   0  0  0  0  0  0  0  0  0  0  0  0
   24.8340   32.3840   14.9460 N   0  0  0  0  0  0  0  0  0  0  0  0
   23.5830   31.2670   13.2080 C   0  0  0  0  0  0  0  0  0  0  0  0
   24.0640   29.9740   13.0110 C   0  0  0  0  0  0  0  0  0  0  0  0
   22.2790   31.5940   12.9530 C   0  0  0  0  0  0  0  0  0  0  0  0
   23.2070   28.9980   12.5480 C   0  0  0  0  0  0  0  0  0  0  0  0
   21.4360   30.6020   12.4880 C   0  0  0  0  0  0  0  0  0  0  0  0
   21.5070   33.5330   13.2330 I   0  0  0  0  0  0  0  0  0  0  0  0
   21.8920   29.3110   12.2860 C   0  0  0  0  0  0  0  0  0  0  0  0
   29.8670   25.5550   16.9770 C   0  0  0  0  0  0  0  0  0  0  0  0
   28.3450   25.7220   17.0260 C   0  0  0  0  0  0  0  0  0  0  0  0
   27.6010   24.4000   16.9080 C   0  0  0  0  0  0  0  0  0  0  0  0
   26.5310   24.2580   17.9540 C   0  0  0  0  0  0  0  0  0  0  0  0
   25.2100   24.7870   17.4060 C   0  0  0  0  0  0  0  0  0  0  0  0
   24.8280   26.0430   18.0940 N   0  0  0  0  0  0  0  0  0  0  0  0
  1 27  1  0  0  0  0
  2  1  1  6  0  0  0
  2  3  1  0  0  0  0
  3 23  1  1  0  0  0
  4  3  1  1  0  0  0
  4  9  1  0  0  0  0
  5 12  1  6  0  0  0
  5  6  1  0  0  0  0
  6  8  1  0  0  0  0
  7  5  1  0  0  0  0
  7  4  1  0  0  0  0
  8 16  1  6  0  0  0
  9  8  1  0  0  0  0
  9 18  1  6  0  0  0
 10  5  1  0  0  0  0
 10 11  1  0  0  0  0
 12 13  2  0  0  0  0
 14 15  1  0  0  0  0
 14 12  1  0  0  0  0
 16 17  1  0  0  0  0
 18 19  1  0  0  0  0
 19 21  1  0  0  0  0
 19 22  2  0  0  0  0
 20 18  1  0  0  0  0
 23 24  1  0  0  0  0
 25 26  1  0  0  0  0
 25  2  1  0  0  0  0
 27 29  1  0  0  0  0
 28 31  1  0  0  0  0
 28 27  1  0  0  0  0
 30 28  2  0  0  0  0
 32 33  1  0  0  0  0
 32 31  1  0  0  0  0
 33 35  1  0  0  0  0
 34 36  1  0  0  0  0
 34 33  2  0  0  0  0
 36 37  1  0  0  0  0
 37 35  2  0  0  0  0
 38 36  1  0  0  0  0
 39 38  1  0  0  0  0
 40 38  2  0  0  0  0
 40 43  1  0  0  0  0
 41 39  2  0  0  0  0
 42 40  1  0  0  0  0
 44 42  2  0  0  0  0
 44 41  1  0  0  0  0
 45 46  1  0  0  0  0
 47 46  1  0  0  0  0
 47 48  1  0  0  0  0
 49 48  1  0  0  0  0
 49 50  1  0  0  0  0
M  END
>  <REMARK>
 VINA RESULT:    -5.003      0.000      0.000
 INTER + INTRA:         -14.944
 INTER:                  -9.395
 INTRA:                  -5.548
 UNBOUND:                -6.285
 SMILES CC(=O)N[C@@H]1[C@@H](O)C[C@](O)(C(=O)O)O[C@H]1C(O)[C@H](O)CNC(=O)OCc1cn(-c2ccccc2I)nn1
 SMILES IDX 20 1 18 2 16 3 15 4 9 5 8 6 14 7 6 8 5 9 10 10 11 12 12 13
 SMILES IDX 13 14 7 16 4 18 2 19 1 21 3 22 17 23 19 25 21 27 22 28 23 30
 SMILES IDX 24 31 25 32 26 33 27 34 37 35 28 36 36 37 29 38 30 39 34 40
 SMILES IDX 31 41 33 42 35 43 32 44
 H PARENT 10 11 13 15 7 17 4 20 17 24 19 26 21 29
 Flexibility Score: inf
  4 active torsions:
  status: ('A' for Active; 'I' for Inactive)
    1  A    between atoms: CA   and  CB  
    2  A    between atoms: CB   and  CG  
    3  A    between atoms: CG   and  CD  
    4  A    between atoms: CD   and  CE  

>  <TORSDO>
F 15

>  <BEGIN_>
RES LYS A 131

$$$$
ligand_93_pose_0_2HRL.pdbqt
 OpenBabel07062320523D

  6  5  0  0  0  0  0  0  0  0999 V2000
   33.1930   34.6630    9.2900 C   0  0  0  0  0  0  0  0  0  0  0  0
   32.0600   35.3600   10.0340 C   0  0  0  0  0  0  0  0  0  0  0  0
   30.7750   35.4270    9.2490 C   0  0  0  0  0  0  0  0  0  0  0  0
   30.1990   34.0350    9.0440 C   0  0  0  0  0  0  0  0  0  0  0  0
   28.7110   34.0250    9.3380 C   0  0  0  0  0  0  0  0  0  0  0  0
   28.2710   35.3250    9.9180 N   0  0  0  0  0  0  0  0  0  0  0  0
  1  2  1  0  0  0  0
  3  2  1  0  0  0  0
  4  3  1  0  0  0  0
  4  5  1  0  0  0  0
  5  6  1  0  0  0  0
M  END
>  <EGIN_R>
ES LYS A 135

>  <REMARK>
  4 active torsions:
  status: ('A' for Active; 'I' for Inactive)
    5  A    between atoms: CA   and  CB  
    6  A    between atoms: CB   and  CG  
    7  A    between atoms: CG   and  CD  
    8  A    between atoms: CD   and  CE  

$$$$
