REMARK VINA RESULT:    -5.050      6.636     13.297
REMARK INTER + INTRA:         -19.580
REMARK INTER:                 -12.725
REMARK INTRA:                  -6.855
REMARK UNBOUND:                -6.855
REMARK SMILES CC(=O)N[C@@H]1[C@@H](O)C[C@](OC[C@H]2O[C@@H](O[C@H]3[C@H](O)[C@@H](O)[C@H](OCCN=[N+]=[N-])O[C@@H]3CO)[C@H](O)[C@@H](O)[C@H]2O)(C(=O)O)O[C@H]1C(O)[C@H](O)CNC(=O)OCc1cn(Cc2ccsc2)nn1
REMARK SMILES IDX 9 1 8 2 6 3 5 4 42 5 41 6 10 7 11 8 12 9 14 10 13 11 32 12
REMARK SMILES IDX 34 13 36 14 15 15 16 16 29 17 28 18 21 19 17 20 19 21 30 22
REMARK SMILES IDX 31 23 22 25 23 26 24 27 25 28 26 29 27 30 18 31 20 33 33 35
REMARK SMILES IDX 35 37 37 39 38 41 39 42 40 43 7 45 43 47 44 48 45 50 46 51
REMARK SMILES IDX 47 53 48 54 49 55 50 57 51 58 52 59 53 60 54 61 63 62 55 63
REMARK SMILES IDX 62 64 56 65 57 66 58 67 61 68 59 69 60 70 4 71 2 72 1 74
REMARK SMILES IDX 3 75
REMARK H PARENT 31 24 18 32 20 34 33 36 35 38 37 40 40 44 7 46 44 49 46 52
REMARK H PARENT 48 56 4 73
REMARK Flexibility Score: inf
ROOT
ATOM      1  C   UNL     1      15.682  29.379  18.233  1.00  0.00     0.272 C 
ATOM      2  C   UNL     1      16.746  28.377  18.568  1.00  0.00     0.113 C 
ATOM      3  C   UNL     1      18.119  28.714  18.051  1.00  0.00     0.145 C 
ATOM      4  C   UNL     1      18.473  30.140  18.223  1.00  0.00     0.142 C 
ATOM      5  C   UNL     1      17.292  31.090  18.240  1.00  0.00     0.178 C 
ATOM      6  O   UNL     1      16.159  30.623  18.806  1.00  0.00    -0.332 OA
ENDROOT
BRANCH   1   7
ATOM      7  O   UNL     1      14.581  29.145  18.979  1.00  0.00    -0.338 OA
BRANCH   7   8
ATOM      8  C   UNL     1      13.820  30.065  19.540  1.00  0.00     0.199 C 
BRANCH   8   9
ATOM      9  C   UNL     1      13.905  30.494  20.946  1.00  0.00     0.179 C 
ATOM     10  C   UNL     1      12.471  31.232  22.550  1.00  0.00     0.282 C 
ATOM     11  O   UNL     1      12.580  30.301  21.491  1.00  0.00    -0.341 OA
ATOM     12  C   UNL     1      13.630  31.184  23.485  1.00  0.00     0.202 C 
ATOM     13  C   UNL     1      14.621  30.100  23.260  1.00  0.00     0.179 C 
ATOM     14  C   UNL     1      14.734  29.598  21.849  1.00  0.00     0.177 C 
BRANCH  10  15
ATOM     15  O   UNL     1      11.259  31.030  23.161  1.00  0.00    -0.341 OA
BRANCH  15  16
ATOM     16  C   UNL     1      10.451  32.179  23.210  1.00  0.00     0.184 C 
ATOM     17  C   UNL     1       9.959  32.457  24.586  1.00  0.00     0.178 C 
ATOM     18  O   UNL     1       8.719  32.003  24.915  1.00  0.00    -0.341 OA
ATOM     19  C   UNL     1       8.087  31.234  23.922  1.00  0.00     0.281 C 
ATOM     20  C   UNL     1       9.410  32.179  22.136  1.00  0.00     0.180 C 
ATOM     21  C   UNL     1       7.991  32.130  22.718  1.00  0.00     0.202 C 
BRANCH  17  22
ATOM     22  C   UNL     1      10.039  33.932  24.948  1.00  0.00     0.191 C 
BRANCH  22  23
ATOM     23  O   UNL     1      10.717  34.564  23.907  1.00  0.00    -0.394 OA
ATOM     24  H   UNL     1      10.089  35.070  23.311  1.00  0.00     0.210 HD
ENDBRANCH  22  23
ENDBRANCH  17  22
BRANCH  19  25
ATOM     25  O   UNL     1       6.892  30.808  24.437  1.00  0.00    -0.350 OA
BRANCH  25  26
ATOM     26  C   UNL     1       6.965  29.609  25.119  1.00  0.00     0.169 C 
BRANCH  26  27
ATOM     27  C   UNL     1       6.857  28.377  24.282  1.00  0.00     0.119 C 
BRANCH  27  28
ATOM     28  N   UNL     1       8.108  27.670  24.231  1.00  0.00    -0.092 NA
ATOM     29  N   UNL     1       8.543  27.175  25.282  1.00  0.00     0.001 N 
ATOM     30  N   UNL     1       9.153  26.511  26.120  1.00  0.00    -0.003 NA
ENDBRANCH  27  28
ENDBRANCH  26  27
ENDBRANCH  25  26
ENDBRANCH  19  25
BRANCH  20  31
ATOM     31  O   UNL     1       9.532  33.207  21.225  1.00  0.00    -0.387 OA
ATOM     32  H   UNL     1      10.156  32.975  20.505  1.00  0.00     0.211 HD
ENDBRANCH  20  31
BRANCH  21  33
ATOM     33  O   UNL     1       7.063  31.697  21.806  1.00  0.00    -0.385 OA
ATOM     34  H   UNL     1       7.029  32.270  20.992  1.00  0.00     0.211 HD
ENDBRANCH  21  33
ENDBRANCH  15  16
ENDBRANCH  10  15
BRANCH  12  35
ATOM     35  O   UNL     1      14.259  32.452  23.595  1.00  0.00    -0.385 OA
ATOM     36  H   UNL     1      14.355  32.693  24.554  1.00  0.00     0.211 HD
ENDBRANCH  12  35
BRANCH  13  37
ATOM     37  O   UNL     1      14.270  28.993  24.059  1.00  0.00    -0.387 OA
ATOM     38  H   UNL     1      13.397  29.180  24.476  1.00  0.00     0.211 HD
ENDBRANCH  13  37
BRANCH  14  39
ATOM     39  O   UNL     1      14.137  28.319  21.731  1.00  0.00    -0.387 OA
ATOM     40  H   UNL     1      14.415  27.998  20.818  1.00  0.00     0.211 HD
ENDBRANCH  14  39
ENDBRANCH   8   9
ENDBRANCH   7   8
ENDBRANCH   1   7
BRANCH   1  41
ATOM     41  C   UNL     1      15.538  29.679  16.808  1.00  0.00     0.364 C 
ATOM     42  O   UNL     1      15.239  30.808  16.375  1.00  0.00    -0.246 OA
BRANCH  41  43
ATOM     43  O   UNL     1      15.728  28.699  15.816  1.00  0.00    -0.477 OA
ATOM     44  H   UNL     1      16.583  28.662  15.279  1.00  0.00     0.296 HD
ENDBRANCH  41  43
ENDBRANCH   1  41
BRANCH   3  45
ATOM     45  O   UNL     1      18.996  27.944  18.862  1.00  0.00    -0.391 OA
ATOM     46  H   UNL     1      19.881  28.400  18.931  1.00  0.00     0.211 HD
ENDBRANCH   3  45
BRANCH   5  47
ATOM     47  C   UNL     1      17.689  32.320  19.094  1.00  0.00     0.176 C 
BRANCH  47  48
ATOM     48  O   UNL     1      18.662  31.935  20.013  1.00  0.00    -0.388 OA
ATOM     49  H   UNL     1      18.264  31.849  20.909  1.00  0.00     0.211 HD
ENDBRANCH  47  48
BRANCH  47  50
ATOM     50  C   UNL     1      16.485  32.762  19.844  1.00  0.00     0.165 C 
BRANCH  50  51
ATOM     51  O   UNL     1      15.616  33.413  18.969  1.00  0.00    -0.388 OA
ATOM     52  H   UNL     1      14.706  33.033  19.024  1.00  0.00     0.211 HD
ENDBRANCH  50  51
BRANCH  50  53
ATOM     53  C   UNL     1      16.767  33.697  20.991  1.00  0.00     0.154 C 
BRANCH  53  54
ATOM     54  N   UNL     1      16.958  33.021  22.240  1.00  0.00    -0.319 N 
ATOM     55  C   UNL     1      18.122  33.067  23.017  1.00  0.00     0.407 C 
ATOM     56  H   UNL     1      16.148  32.436  22.605  1.00  0.00     0.167 HD
ATOM     57  O   UNL     1      19.094  33.743  22.620  1.00  0.00    -0.225 OA
BRANCH  55  58
ATOM     58  O   UNL     1      18.173  32.365  24.203  1.00  0.00    -0.443 OA
BRANCH  58  59
ATOM     59  C   UNL     1      17.936  30.992  24.317  1.00  0.00     0.294 C 
BRANCH  59  60
ATOM     60  C   UNL     1      18.781  30.271  23.344  1.00  0.00     0.120 A 
ATOM     61  C   UNL     1      20.067  29.868  23.520  1.00  0.00     0.138 A 
ATOM     62  N   UNL     1      18.395  29.896  22.115  1.00  0.00    -0.132 NA
ATOM     63  N   UNL     1      20.444  29.251  22.387  1.00  0.00    -0.248 N 
ATOM     64  N   UNL     1      19.430  29.273  21.546  1.00  0.00    -0.067 NA
BRANCH  63  65
ATOM     65  C   UNL     1      21.741  28.670  22.150  1.00  0.00     0.182 C 
BRANCH  65  66
ATOM     66  C   UNL     1      21.707  27.205  22.606  1.00  0.00    -0.016 A 
ATOM     67  C   UNL     1      21.335  26.206  21.832  1.00  0.00     0.017 A 
ATOM     68  C   UNL     1      22.094  26.938  23.918  1.00  0.00     0.070 A 
ATOM     69  C   UNL     1      21.324  24.903  22.294  1.00  0.00     0.065 A 
ATOM     70  S   UNL     1      21.903  25.147  24.014  1.00  0.00    -0.152 S 
ENDBRANCH  65  66
ENDBRANCH  63  65
ENDBRANCH  59  60
ENDBRANCH  58  59
ENDBRANCH  55  58
ENDBRANCH  53  54
ENDBRANCH  50  53
ENDBRANCH  47  50
ENDBRANCH   5  47
BRANCH   4  71
ATOM     71  N   UNL     1      19.417  30.645  17.272  1.00  0.00    -0.348 N 
ATOM     72  C   UNL     1      20.804  30.760  17.552  1.00  0.00     0.217 C 
ATOM     73  H   UNL     1      19.095  30.945  16.326  1.00  0.00     0.163 HD
ATOM     74  C   UNL     1      21.798  31.284  16.566  1.00  0.00     0.114 C 
ATOM     75  O   UNL     1      21.159  30.386  18.708  1.00  0.00    -0.275 OA
ENDBRANCH   4  71
TORSDOF 31
