REMARK VINA RESULT:    -6.541      2.901      5.322
REMARK INTER + INTRA:         -21.117
REMARK INTER:                 -13.028
REMARK INTRA:                  -8.089
REMARK UNBOUND:                -5.017
REMARK SMILES CC(=O)N[C@@H]1[C@@H](O)C[C@](OC[C@H]2O[C@@H](O[C@H]3[C@H](O)[C@@H](O)[C@H](OCCN=[N+]=[N-])O[C@@H]3CO)[C@H](O)[C@@H](O)[C@H]2O)(C(=O)O)O[C@H]1C(O)[C@H](O)CNC(=O)OCc1cn(C2CCCCC2)nn1
REMARK SMILES IDX 9 1 8 2 6 3 5 4 42 5 41 6 10 7 11 8 12 9 14 10 13 11 32 12
REMARK SMILES IDX 34 13 36 14 15 15 16 16 29 17 28 18 21 19 17 20 19 21 30 22
REMARK SMILES IDX 31 23 22 25 23 26 24 27 25 28 26 29 27 30 18 31 20 33 33 35
REMARK SMILES IDX 35 37 37 39 38 41 39 42 40 43 7 45 43 47 44 48 45 50 46 51
REMARK SMILES IDX 47 53 48 54 49 55 50 57 51 58 52 59 53 60 54 61 63 62 55 63
REMARK SMILES IDX 62 64 56 65 57 66 61 67 58 68 60 69 59 70 4 71 2 72 1 74
REMARK SMILES IDX 3 75
REMARK H PARENT 31 24 18 32 20 34 33 36 35 38 37 40 40 44 7 46 44 49 46 52
REMARK H PARENT 48 56 4 73
REMARK Flexibility Score: inf
ROOT
ATOM      1  C   UNL     1      13.030  31.044  24.033  1.00  0.00     0.272 C 
ATOM      2  C   UNL     1      12.708  31.904  25.311  1.00  0.00     0.113 C 
ATOM      3  C   UNL     1      13.975  32.505  25.836  1.00  0.00     0.145 C 
ATOM      4  C   UNL     1      15.004  31.441  26.112  1.00  0.00     0.142 C 
ATOM      5  C   UNL     1      15.008  30.340  25.109  1.00  0.00     0.178 C 
ATOM      6  O   UNL     1      13.994  30.145  24.291  1.00  0.00    -0.332 OA
ENDROOT
BRANCH   1   7
ATOM      7  O   UNL     1      13.374  31.958  23.137  1.00  0.00    -0.338 OA
BRANCH   7   8
ATOM      8  C   UNL     1      12.923  32.327  21.986  1.00  0.00     0.199 C 
BRANCH   8   9
ATOM      9  C   UNL     1      13.765  33.100  20.983  1.00  0.00     0.179 C 
ATOM     10  C   UNL     1      15.723  32.237  20.024  1.00  0.00     0.282 C 
ATOM     11  O   UNL     1      15.093  32.846  21.104  1.00  0.00    -0.341 OA
ATOM     12  C   UNL     1      15.464  33.018  18.791  1.00  0.00     0.202 C 
ATOM     13  C   UNL     1      14.007  33.336  18.563  1.00  0.00     0.179 C 
ATOM     14  C   UNL     1      13.184  32.715  19.626  1.00  0.00     0.177 C 
BRANCH  10  15
ATOM     15  O   UNL     1      15.416  30.927  20.058  1.00  0.00    -0.341 OA
BRANCH  15  16
ATOM     16  C   UNL     1      16.161  30.028  19.368  1.00  0.00     0.184 C 
ATOM     17  C   UNL     1      15.739  28.640  19.804  1.00  0.00     0.178 C 
ATOM     18  O   UNL     1      16.225  27.654  18.967  1.00  0.00    -0.341 OA
ATOM     19  C   UNL     1      17.378  27.983  18.306  1.00  0.00     0.281 C 
ATOM     20  C   UNL     1      17.644  30.097  19.667  1.00  0.00     0.180 C 
ATOM     21  C   UNL     1      18.276  28.837  19.124  1.00  0.00     0.202 C 
BRANCH  17  22
ATOM     22  C   UNL     1      14.267  28.514  20.069  1.00  0.00     0.191 C 
BRANCH  22  23
ATOM     23  O   UNL     1      14.079  28.602  21.449  1.00  0.00    -0.394 OA
ATOM     24  H   UNL     1      14.415  29.453  21.817  1.00  0.00     0.210 HD
ENDBRANCH  22  23
ENDBRANCH  17  22
BRANCH  19  25
ATOM     25  O   UNL     1      17.073  28.441  17.052  1.00  0.00    -0.350 OA
BRANCH  25  26
ATOM     26  C   UNL     1      18.175  28.737  16.265  1.00  0.00     0.169 C 
BRANCH  26  27
ATOM     27  C   UNL     1      17.962  29.896  15.329  1.00  0.00     0.119 C 
BRANCH  27  28
ATOM     28  N   UNL     1      17.486  31.023  16.104  1.00  0.00    -0.092 NA
ATOM     29  N   UNL     1      16.419  31.529  15.733  1.00  0.00     0.001 N 
ATOM     30  N   UNL     1      15.722  32.411  15.198  1.00  0.00    -0.003 NA
ENDBRANCH  27  28
ENDBRANCH  26  27
ENDBRANCH  25  26
ENDBRANCH  19  25
BRANCH  20  31
ATOM     31  O   UNL     1      18.273  31.178  19.098  1.00  0.00    -0.387 OA
ATOM     32  H   UNL     1      17.649  31.891  18.817  1.00  0.00     0.211 HD
ENDBRANCH  20  31
BRANCH  21  33
ATOM     33  O   UNL     1      18.647  28.071  20.257  1.00  0.00    -0.385 OA
ATOM     34  H   UNL     1      18.175  28.395  21.063  1.00  0.00     0.211 HD
ENDBRANCH  21  33
ENDBRANCH  15  16
ENDBRANCH  10  15
BRANCH  12  35
ATOM     35  O   UNL     1      16.107  34.270  18.980  1.00  0.00    -0.385 OA
ATOM     36  H   UNL     1      15.494  34.937  19.358  1.00  0.00     0.211 HD
ENDBRANCH  12  35
BRANCH  13  37
ATOM     37  O   UNL     1      13.582  32.879  17.299  1.00  0.00    -0.387 OA
ATOM     38  H   UNL     1      13.924  33.483  16.621  1.00  0.00     0.211 HD
ENDBRANCH  13  37
BRANCH  14  39
ATOM     39  O   UNL     1      12.911  31.381  19.502  1.00  0.00    -0.387 OA
ATOM     40  H   UNL     1      13.334  31.055  18.673  1.00  0.00     0.211 HD
ENDBRANCH  14  39
ENDBRANCH   8   9
ENDBRANCH   7   8
ENDBRANCH   1   7
BRANCH   1  41
ATOM     41  C   UNL     1      11.750  30.281  23.824  1.00  0.00     0.364 C 
ATOM     42  O   UNL     1      10.627  30.751  23.965  1.00  0.00    -0.246 OA
BRANCH  41  43
ATOM     43  O   UNL     1      11.807  28.927  23.438  1.00  0.00    -0.477 OA
ATOM     44  H   UNL     1      10.973  28.449  23.137  1.00  0.00     0.296 HD
ENDBRANCH  41  43
ENDBRANCH   1  41
BRANCH   3  45
ATOM     45  O   UNL     1      14.459  33.498  24.994  1.00  0.00    -0.391 OA
ATOM     46  H   UNL     1      13.670  33.936  24.562  1.00  0.00     0.211 HD
ENDBRANCH   3  45
BRANCH   5  47
ATOM     47  C   UNL     1      16.290  30.436  24.226  1.00  0.00     0.176 C 
BRANCH  47  48
ATOM     48  O   UNL     1      15.907  30.347  22.874  1.00  0.00    -0.388 OA
ATOM     49  H   UNL     1      16.392  30.989  22.318  1.00  0.00     0.211 HD
ENDBRANCH  47  48
BRANCH  47  50
ATOM     50  C   UNL     1      17.065  31.676  24.510  1.00  0.00     0.165 C 
BRANCH  50  51
ATOM     51  O   UNL     1      16.878  32.529  23.397  1.00  0.00    -0.388 OA
ATOM     52  H   UNL     1      17.675  32.568  22.834  1.00  0.00     0.211 HD
ENDBRANCH  50  51
BRANCH  50  53
ATOM     53  C   UNL     1      18.530  31.530  24.689  1.00  0.00     0.154 C 
BRANCH  53  54
ATOM     54  N   UNL     1      19.113  30.333  24.142  1.00  0.00    -0.319 N 
ATOM     55  C   UNL     1      19.611  30.245  22.814  1.00  0.00     0.407 C 
ATOM     56  H   UNL     1      19.181  29.490  24.738  1.00  0.00     0.167 HD
ATOM     57  O   UNL     1      19.555  31.244  22.055  1.00  0.00    -0.225 OA
BRANCH  55  58
ATOM     58  O   UNL     1      20.158  29.094  22.319  1.00  0.00    -0.443 OA
BRANCH  58  59
ATOM     59  C   UNL     1      21.527  28.776  22.243  1.00  0.00     0.294 C 
BRANCH  59  60
ATOM     60  C   UNL     1      21.667  27.339  21.921  1.00  0.00     0.120 A 
ATOM     61  C   UNL     1      22.877  26.737  21.726  1.00  0.00     0.138 A 
ATOM     62  N   UNL     1      20.727  26.401  21.760  1.00  0.00    -0.132 NA
ATOM     63  N   UNL     1      22.660  25.431  21.447  1.00  0.00    -0.249 N 
ATOM     64  N   UNL     1      21.341  25.256  21.475  1.00  0.00    -0.067 NA
BRANCH  63  65
ATOM     65  C   UNL     1      23.678  24.436  21.170  1.00  0.00     0.109 C 
ATOM     66  C   UNL     1      24.694  24.560  22.301  1.00  0.00     0.027 C 
ATOM     67  C   UNL     1      24.378  24.746  19.866  1.00  0.00     0.027 C 
ATOM     68  C   UNL     1      25.759  23.476  22.131  1.00  0.00     0.002 C 
ATOM     69  C   UNL     1      25.885  24.790  20.011  1.00  0.00     0.002 C 
ATOM     70  C   UNL     1      26.375  23.597  20.774  1.00  0.00     0.000 C 
ENDBRANCH  63  65
ENDBRANCH  59  60
ENDBRANCH  58  59
ENDBRANCH  55  58
ENDBRANCH  53  54
ENDBRANCH  50  53
ENDBRANCH  47  50
ENDBRANCH   5  47
BRANCH   4  71
ATOM     71  N   UNL     1      14.958  30.990  27.478  1.00  0.00    -0.348 N 
ATOM     72  C   UNL     1      16.085  30.796  28.294  1.00  0.00     0.217 C 
ATOM     73  H   UNL     1      14.025  30.774  27.957  1.00  0.00     0.163 HD
ATOM     74  C   UNL     1      15.962  30.337  29.720  1.00  0.00     0.114 C 
ATOM     75  O   UNL     1      17.226  30.994  27.876  1.00  0.00    -0.275 OA
ENDBRANCH   4  71
TORSDOF 30
