REMARK VINA RESULT:    -5.508     13.151     18.829
REMARK INTER + INTRA:         -21.509
REMARK INTER:                 -14.593
REMARK INTRA:                  -6.916
REMARK UNBOUND:                -7.468
REMARK SMILES CC(=O)N[C@@H]1[C@@H](O)C[C@](OC[C@H]2O[C@@H](O[C@H]3[C@H](O)[C@@H](O)[C@H](OCCN=[N+]=[N-])O[C@@H]3CO)[C@H](O)[C@@H](O)[C@H]2O)(C(=O)O)O[C@H]1C(O)[C@H](O)CNC(=O)OCc1cn(CC(=O)O)nn1
REMARK SMILES IDX 9 1 8 2 6 3 5 4 42 5 41 6 10 7 11 8 12 9 14 10 13 11 32 12
REMARK SMILES IDX 34 13 36 14 15 15 16 16 29 17 28 18 21 19 17 20 19 21 30 22
REMARK SMILES IDX 31 23 22 25 23 26 24 27 25 28 26 29 27 30 18 31 20 33 33 35
REMARK SMILES IDX 35 37 37 39 38 41 39 42 40 43 7 45 43 47 44 48 45 50 46 51
REMARK SMILES IDX 47 53 48 54 49 55 50 57 51 58 52 59 53 60 54 61 61 62 55 63
REMARK SMILES IDX 60 64 56 65 57 66 58 67 59 68 4 70 2 71 1 73 3 74
REMARK H PARENT 31 24 18 32 20 34 33 36 35 38 37 40 40 44 7 46 44 49 46 52
REMARK H PARENT 48 56 59 69 4 72
REMARK Flexibility Score: inf
ROOT
ATOM      1  C   UNL     1      18.303  28.907  19.748  1.00  0.00     0.272 C 
ATOM      2  C   UNL     1      19.058  30.061  19.153  1.00  0.00     0.113 C 
ATOM      3  C   UNL     1      18.848  31.380  19.770  1.00  0.00     0.145 C 
ATOM      4  C   UNL     1      17.618  31.516  20.659  1.00  0.00     0.142 C 
ATOM      5  C   UNL     1      16.661  30.452  20.219  1.00  0.00     0.178 C 
ATOM      6  O   UNL     1      17.319  29.258  20.619  1.00  0.00    -0.332 OA
ENDROOT
BRANCH   1   7
ATOM      7  O   UNL     1      19.168  27.998  20.395  1.00  0.00    -0.338 OA
BRANCH   7   8
ATOM      8  C   UNL     1      20.455  28.019  19.952  1.00  0.00     0.199 C 
BRANCH   8   9
ATOM      9  C   UNL     1      21.409  27.841  21.144  1.00  0.00     0.179 C 
ATOM     10  C   UNL     1      21.797  26.036  22.527  1.00  0.00     0.282 C 
ATOM     11  O   UNL     1      20.875  27.058  22.136  1.00  0.00    -0.341 OA
ATOM     12  C   UNL     1      21.916  25.162  21.333  1.00  0.00     0.202 C 
ATOM     13  C   UNL     1      22.827  25.915  20.349  1.00  0.00     0.179 C 
ATOM     14  C   UNL     1      22.769  27.387  20.653  1.00  0.00     0.177 C 
BRANCH  10  15
ATOM     15  O   UNL     1      21.326  25.475  23.677  1.00  0.00    -0.341 OA
BRANCH  15  16
ATOM     16  C   UNL     1      21.873  26.022  24.839  1.00  0.00     0.184 C 
ATOM     17  C   UNL     1      22.397  24.900  25.686  1.00  0.00     0.178 C 
ATOM     18  O   UNL     1      22.340  25.213  27.017  1.00  0.00    -0.341 OA
ATOM     19  C   UNL     1      22.601  26.514  27.363  1.00  0.00     0.281 C 
ATOM     20  C   UNL     1      20.829  26.774  25.637  1.00  0.00     0.180 C 
ATOM     21  C   UNL     1      21.572  27.468  26.781  1.00  0.00     0.202 C 
BRANCH  17  22
ATOM     22  C   UNL     1      23.833  24.606  25.294  1.00  0.00     0.191 C 
BRANCH  22  23
ATOM     23  O   UNL     1      24.442  24.071  26.432  1.00  0.00    -0.394 OA
ATOM     24  H   UNL     1      25.014  23.307  26.197  1.00  0.00     0.210 HD
ENDBRANCH  22  23
ENDBRANCH  17  22
BRANCH  19  25
ATOM     25  O   UNL     1      23.884  26.862  27.039  1.00  0.00    -0.350 OA
BRANCH  25  26
ATOM     26  C   UNL     1      24.425  27.846  27.828  1.00  0.00     0.169 C 
BRANCH  26  27
ATOM     27  C   UNL     1      25.256  27.344  28.979  1.00  0.00     0.119 C 
BRANCH  27  28
ATOM     28  N   UNL     1      25.916  26.081  28.642  1.00  0.00    -0.092 NA
ATOM     29  N   UNL     1      26.773  25.688  29.460  1.00  0.00     0.001 N 
ATOM     30  N   UNL     1      27.867  25.218  29.824  1.00  0.00    -0.003 NA
ENDBRANCH  27  28
ENDBRANCH  26  27
ENDBRANCH  25  26
ENDBRANCH  19  25
BRANCH  20  31
ATOM     31  O   UNL     1      20.187  27.752  24.919  1.00  0.00    -0.387 OA
ATOM     32  H   UNL     1      20.743  28.488  24.619  1.00  0.00     0.211 HD
ENDBRANCH  20  31
BRANCH  21  33
ATOM     33  O   UNL     1      20.699  27.869  27.774  1.00  0.00    -0.385 OA
ATOM     34  H   UNL     1      20.179  28.669  27.506  1.00  0.00     0.211 HD
ENDBRANCH  21  33
ENDBRANCH  15  16
ENDBRANCH  10  15
BRANCH  12  35
ATOM     35  O   UNL     1      22.314  23.873  21.536  1.00  0.00    -0.385 OA
ATOM     36  H   UNL     1      22.945  23.598  20.852  1.00  0.00     0.211 HD
ENDBRANCH  12  35
BRANCH  13  37
ATOM     37  O   UNL     1      22.348  25.652  19.075  1.00  0.00    -0.387 OA
ATOM     38  H   UNL     1      22.644  26.327  18.403  1.00  0.00     0.211 HD
ENDBRANCH  13  37
BRANCH  14  39
ATOM     39  O   UNL     1      23.031  28.047  19.452  1.00  0.00    -0.387 OA
ATOM     40  H   UNL     1      22.247  28.071  18.856  1.00  0.00     0.211 HD
ENDBRANCH  14  39
ENDBRANCH   8   9
ENDBRANCH   7   8
ENDBRANCH   1   7
BRANCH   1  41
ATOM     41  C   UNL     1      17.699  28.134  18.640  1.00  0.00     0.364 C 
ATOM     42  O   UNL     1      18.067  28.285  17.459  1.00  0.00    -0.246 OA
BRANCH  41  43
ATOM     43  O   UNL     1      16.696  27.205  18.862  1.00  0.00    -0.477 OA
ATOM     44  H   UNL     1      16.145  26.787  18.102  1.00  0.00     0.296 HD
ENDBRANCH  41  43
ENDBRANCH   1  41
BRANCH   3  45
ATOM     45  O   UNL     1      19.987  31.920  20.378  1.00  0.00    -0.391 OA
ATOM     46  H   UNL     1      19.910  32.866  20.589  1.00  0.00     0.211 HD
ENDBRANCH   3  45
BRANCH   5  47
ATOM     47  C   UNL     1      15.295  30.467  20.813  1.00  0.00     0.176 C 
BRANCH  47  48
ATOM     48  O   UNL     1      15.500  30.907  22.163  1.00  0.00    -0.388 OA
ATOM     49  H   UNL     1      16.196  31.624  22.171  1.00  0.00     0.211 HD
ENDBRANCH  47  48
BRANCH  47  50
ATOM     50  C   UNL     1      14.623  29.112  20.868  1.00  0.00     0.165 C 
BRANCH  50  51
ATOM     51  O   UNL     1      14.439  28.642  19.542  1.00  0.00    -0.388 OA
ATOM     52  H   UNL     1      13.630  29.076  19.193  1.00  0.00     0.211 HD
ENDBRANCH  50  51
BRANCH  50  53
ATOM     53  C   UNL     1      13.321  29.125  21.567  1.00  0.00     0.154 C 
BRANCH  53  54
ATOM     54  N   UNL     1      13.457  29.180  22.994  1.00  0.00    -0.319 N 
ATOM     55  C   UNL     1      12.662  29.913  23.902  1.00  0.00     0.407 C 
ATOM     56  H   UNL     1      14.239  28.614  23.487  1.00  0.00     0.167 HD
ATOM     57  O   UNL     1      11.730  30.623  23.519  1.00  0.00    -0.225 OA
BRANCH  55  58
ATOM     58  O   UNL     1      12.887  29.879  25.283  1.00  0.00    -0.443 OA
BRANCH  58  59
ATOM     59  C   UNL     1      13.462  30.987  25.956  1.00  0.00     0.294 C 
BRANCH  59  60
ATOM     60  C   UNL     1      14.936  31.046  25.706  1.00  0.00     0.120 A 
ATOM     61  C   UNL     1      15.833  31.950  26.257  1.00  0.00     0.139 A 
ATOM     62  N   UNL     1      15.669  30.251  24.913  1.00  0.00    -0.132 NA
ATOM     63  N   UNL     1      17.058  31.667  25.780  1.00  0.00    -0.241 N 
ATOM     64  N   UNL     1      16.934  30.632  24.965  1.00  0.00    -0.066 NA
BRANCH  63  65
ATOM     65  C   UNL     1      18.318  32.352  26.084  1.00  0.00     0.268 C 
BRANCH  65  66
ATOM     66  C   UNL     1      19.167  31.426  26.854  1.00  0.00     0.325 C 
ATOM     67  O   UNL     1      19.425  31.656  28.045  1.00  0.00    -0.250 OA
BRANCH  66  68
ATOM     68  O   UNL     1      19.677  30.298  26.244  1.00  0.00    -0.480 OA
ATOM     69  H   UNL     1      19.811  29.431  26.722  1.00  0.00     0.296 HD
ENDBRANCH  66  68
ENDBRANCH  65  66
ENDBRANCH  63  65
ENDBRANCH  59  60
ENDBRANCH  58  59
ENDBRANCH  55  58
ENDBRANCH  53  54
ENDBRANCH  50  53
ENDBRANCH  47  50
ENDBRANCH   5  47
BRANCH   4  70
ATOM     70  N   UNL     1      17.149  32.858  20.692  1.00  0.00    -0.348 N 
ATOM     71  C   UNL     1      17.521  33.780  21.731  1.00  0.00     0.217 C 
ATOM     72  H   UNL     1      16.526  33.227  19.946  1.00  0.00     0.163 HD
ATOM     73  C   UNL     1      16.986  35.160  21.684  1.00  0.00     0.114 C 
ATOM     74  O   UNL     1      18.283  33.429  22.662  1.00  0.00    -0.275 OA
ENDBRANCH   4  70
TORSDOF 32
