REMARK VINA RESULT:    -4.784     14.599     20.307
REMARK INTER + INTRA:         -22.098
REMARK INTER:                 -12.475
REMARK INTRA:                  -9.623
REMARK UNBOUND:                -9.623
REMARK SMILES CC(=O)N[C@@H]1[C@@H](O)C[C@](OC[C@H]2O[C@@H](O[C@H]3[C@H](O)[C@@H](O)[C@H](OCCN=[N+]=[N-])O[C@@H]3CO)[C@H](O)[C@@H](O)[C@H]2O)(C(=O)O)O[C@H]1C(O)[C@H](O)CNC(=O)OCc1cn(Cc2ccc(C(=O)O)cc2)nn1
REMARK SMILES IDX 43 1 42 2 9 3 8 4 41 5 6 6 5 7 10 8 11 9 12 10 14 11 13 12
REMARK SMILES IDX 32 13 34 14 36 15 15 16 16 17 29 18 28 19 21 20 17 21 19 22
REMARK SMILES IDX 30 23 31 24 22 26 23 27 24 28 25 29 26 30 27 31 18 32 20 34
REMARK SMILES IDX 33 36 35 38 37 40 38 42 39 43 40 44 7 46 4 48 2 49 1 51 3 52
REMARK SMILES IDX 44 53 45 55 46 56 47 58 48 59 49 60 50 62 51 63 52 64 53 65
REMARK SMILES IDX 54 66 67 67 55 68 66 69 56 70 57 71 58 72 65 73 59 74 64 75
REMARK SMILES IDX 60 76 61 77 62 78 63 79
REMARK H PARENT 31 25 18 33 20 35 33 37 35 39 37 41 40 45 7 47 4 50 44 54
REMARK H PARENT 46 57 48 61 63 80
REMARK Flexibility Score: inf
ROOT
ATOM      1  C   UNL     1       5.743  23.539  38.623  1.00  0.00     0.176 C 
ENDROOT
BRANCH   1   2
ATOM      2  C   UNL     1       4.468  22.680  38.768  1.00  0.00     0.178 C 
ATOM      3  C   UNL     1       3.164  21.544  37.153  1.00  0.00     0.272 C 
ATOM      4  C   UNL     1       1.996  22.329  37.601  1.00  0.00     0.113 C 
ATOM      5  O   UNL     1       4.373  21.984  37.625  1.00  0.00    -0.332 OA
ATOM      6  C   UNL     1       2.353  23.730  38.053  1.00  0.00     0.145 C 
ATOM      7  C   UNL     1       3.368  23.584  39.148  1.00  0.00     0.142 C 
BRANCH   3   8
ATOM      8  O   UNL     1       3.281  21.548  35.788  1.00  0.00    -0.338 OA
BRANCH   8   9
ATOM      9  C   UNL     1       2.303  21.022  35.022  1.00  0.00     0.199 C 
BRANCH   9  10
ATOM     10  C   UNL     1       2.495  21.451  33.547  1.00  0.00     0.179 C 
ATOM     11  C   UNL     1       3.193  23.272  32.273  1.00  0.00     0.282 C 
ATOM     12  O   UNL     1       2.797  22.781  33.515  1.00  0.00    -0.341 OA
ATOM     13  C   UNL     1       3.001  22.318  31.149  1.00  0.00     0.202 C 
ATOM     14  C   UNL     1       3.738  21.038  31.482  1.00  0.00     0.179 C 
ATOM     15  C   UNL     1       3.550  20.593  32.899  1.00  0.00     0.177 C 
BRANCH  11  16
ATOM     16  O   UNL     1       4.527  23.665  32.374  1.00  0.00    -0.341 OA
BRANCH  16  17
ATOM     17  C   UNL     1       4.693  24.696  33.251  1.00  0.00     0.184 C 
ATOM     18  C   UNL     1       5.110  25.957  32.588  1.00  0.00     0.178 C 
ATOM     19  O   UNL     1       5.008  27.046  33.467  1.00  0.00    -0.341 OA
ATOM     20  C   UNL     1       5.480  26.708  34.738  1.00  0.00     0.281 C 
ATOM     21  C   UNL     1       5.789  24.255  34.239  1.00  0.00     0.180 C 
ATOM     22  C   UNL     1       6.415  25.536  34.750  1.00  0.00     0.202 C 
BRANCH  18  23
ATOM     23  C   UNL     1       4.242  26.247  31.397  1.00  0.00     0.191 C 
BRANCH  23  24
ATOM     24  O   UNL     1       4.988  25.832  30.270  1.00  0.00    -0.394 OA
ATOM     25  H   UNL     1       4.524  25.111  29.802  1.00  0.00     0.210 HD
ENDBRANCH  23  24
ENDBRANCH  18  23
BRANCH  20  26
ATOM     26  O   UNL     1       4.409  26.533  35.582  1.00  0.00    -0.350 OA
BRANCH  26  27
ATOM     27  C   UNL     1       4.273  27.489  36.563  1.00  0.00     0.169 C 
BRANCH  27  28
ATOM     28  C   UNL     1       5.374  28.492  36.642  1.00  0.00     0.119 C 
BRANCH  28  29
ATOM     29  N   UNL     1       6.059  28.262  37.924  1.00  0.00    -0.092 NA
ATOM     30  N   UNL     1       6.985  27.467  38.044  1.00  0.00     0.001 N 
ATOM     31  N   UNL     1       7.784  26.543  37.941  1.00  0.00    -0.003 NA
ENDBRANCH  28  29
ENDBRANCH  27  28
ENDBRANCH  26  27
ENDBRANCH  20  26
BRANCH  21  32
ATOM     32  O   UNL     1       5.242  23.509  35.261  1.00  0.00    -0.387 OA
ATOM     33  H   UNL     1       4.322  23.167  35.018  1.00  0.00     0.211 HD
ENDBRANCH  21  32
BRANCH  22  34
ATOM     34  O   UNL     1       7.577  25.791  34.060  1.00  0.00    -0.385 OA
ATOM     35  H   UNL     1       8.359  25.377  34.468  1.00  0.00     0.211 HD
ENDBRANCH  22  34
ENDBRANCH  16  17
ENDBRANCH  11  16
BRANCH  13  36
ATOM     36  O   UNL     1       1.644  22.046  30.919  1.00  0.00    -0.385 OA
ATOM     37  H   UNL     1       1.201  22.091  31.810  1.00  0.00     0.211 HD
ENDBRANCH  13  36
BRANCH  14  38
ATOM     38  O   UNL     1       5.102  21.153  31.211  1.00  0.00    -0.387 OA
ATOM     39  H   UNL     1       5.595  20.593  31.875  1.00  0.00     0.211 HD
ENDBRANCH  14  38
BRANCH  15  40
ATOM     40  O   UNL     1       4.749  20.613  33.625  1.00  0.00    -0.387 OA
ATOM     41  H   UNL     1       4.525  20.364  34.559  1.00  0.00     0.211 HD
ENDBRANCH  15  40
ENDBRANCH   9  10
ENDBRANCH   8   9
ENDBRANCH   3   8
BRANCH   3  42
ATOM     42  C   UNL     1       3.014  20.135  37.674  1.00  0.00     0.364 C 
ATOM     43  O   UNL     1       3.978  19.330  37.632  1.00  0.00    -0.246 OA
BRANCH  42  44
ATOM     44  O   UNL     1       1.822  19.682  38.214  1.00  0.00    -0.477 OA
ATOM     45  H   UNL     1       1.114  20.395  38.450  1.00  0.00     0.296 HD
ENDBRANCH  42  44
ENDBRANCH   3  42
BRANCH   6  46
ATOM     46  O   UNL     1       2.804  24.422  36.950  1.00  0.00    -0.391 OA
ATOM     47  H   UNL     1       3.202  25.286  37.234  1.00  0.00     0.211 HD
ENDBRANCH   6  46
BRANCH   7  48
ATOM     48  N   UNL     1       2.693  23.060  40.329  1.00  0.00    -0.348 N 
ATOM     49  C   UNL     1       2.785  23.729  41.599  1.00  0.00     0.217 C 
ATOM     50  H   UNL     1       2.117  22.192  40.338  1.00  0.00     0.163 HD
ATOM     51  C   UNL     1       2.078  23.158  42.789  1.00  0.00     0.114 C 
ATOM     52  O   UNL     1       3.456  24.771  41.676  1.00  0.00    -0.275 OA
ENDBRANCH   7  48
ENDBRANCH   1   2
BRANCH   1  53
ATOM     53  O   UNL     1       5.574  24.652  37.865  1.00  0.00    -0.388 OA
ATOM     54  H   UNL     1       5.033  24.555  37.050  1.00  0.00     0.211 HD
ENDBRANCH   1  53
BRANCH   1  55
ATOM     55  C   UNL     1       6.376  23.810  39.966  1.00  0.00     0.165 C 
BRANCH  55  56
ATOM     56  O   UNL     1       6.194  25.115  40.298  1.00  0.00    -0.388 OA
ATOM     57  H   UNL     1       6.406  25.773  39.608  1.00  0.00     0.211 HD
ENDBRANCH  55  56
BRANCH  55  58
ATOM     58  C   UNL     1       7.746  23.253  40.006  1.00  0.00     0.154 C 
BRANCH  58  59
ATOM     59  N   UNL     1       8.343  23.171  38.702  1.00  0.00    -0.319 N 
ATOM     60  C   UNL     1       9.643  22.678  38.451  1.00  0.00     0.407 C 
ATOM     61  H   UNL     1       7.797  23.496  37.857  1.00  0.00     0.167 HD
ATOM     62  O   UNL     1      10.380  22.267  39.360  1.00  0.00    -0.225 OA
BRANCH  60  63
ATOM     63  O   UNL     1      10.194  22.611  37.156  1.00  0.00    -0.443 OA
BRANCH  63  64
ATOM     64  C   UNL     1       9.424  23.024  36.041  1.00  0.00     0.294 C 
BRANCH  64  65
ATOM     65  C   UNL     1      10.094  24.061  35.238  1.00  0.00     0.120 A 
ATOM     66  C   UNL     1      11.006  25.007  35.615  1.00  0.00     0.138 A 
ATOM     67  N   UNL     1       9.872  24.250  33.923  1.00  0.00    -0.132 NA
ATOM     68  N   UNL     1      11.311  25.743  34.523  1.00  0.00    -0.248 N 
ATOM     69  N   UNL     1      10.610  25.264  33.512  1.00  0.00    -0.067 NA
BRANCH  68  70
ATOM     70  C   UNL     1      12.235  26.848  34.506  1.00  0.00     0.181 C 
BRANCH  70  71
ATOM     71  C   UNL     1      11.514  28.128  34.357  1.00  0.00    -0.026 A 
ATOM     72  C   UNL     1      11.553  28.803  33.156  1.00  0.00     0.006 A 
ATOM     73  C   UNL     1      10.811  28.668  35.430  1.00  0.00     0.006 A 
ATOM     74  C   UNL     1      10.872  30.006  33.090  1.00  0.00     0.016 A 
ATOM     75  C   UNL     1      10.138  29.867  35.359  1.00  0.00     0.016 A 
ATOM     76  C   UNL     1      10.177  30.538  34.159  1.00  0.00     0.059 A 
BRANCH  76  77
ATOM     77  C   UNL     1       9.487  31.811  34.025  1.00  0.00     0.335 C 
ATOM     78  O   UNL     1       8.495  31.909  33.289  1.00  0.00    -0.246 OA
BRANCH  77  79
ATOM     79  O   UNL     1       9.940  32.910  34.720  1.00  0.00    -0.478 OA
ATOM     80  H   UNL     1       9.590  33.849  34.540  1.00  0.00     0.297 HD
ENDBRANCH  77  79
ENDBRANCH  76  77
ENDBRANCH  70  71
ENDBRANCH  68  70
ENDBRANCH  64  65
ENDBRANCH  63  64
ENDBRANCH  60  63
ENDBRANCH  58  59
ENDBRANCH  55  58
ENDBRANCH   1  55
TORSDOF 33
