REMARK VINA RESULT:    -8.948      3.582      9.946
REMARK INTER + INTRA:         -21.386
REMARK INTER:                 -14.238
REMARK INTRA:                  -7.149
REMARK UNBOUND:                 2.731
REMARK SMILES CC(=O)N[C@@H]1[C@@H](O)C[C@](OC[C@H]2O[C@@H](O[C@H]3[C@H](O)[C@@H](O)[C@H](OCCN=[N+]=[N-])O[C@@H]3CO)[C@H](O)[C@@H](O)[C@H]2O)(C(=O)O)O[C@H]1C(O)[C@H](O)CNC(=O)OCc1cn(C2CCc3ccccc3NC2=O)nn1
REMARK SMILES IDX 43 1 42 2 9 3 8 4 41 5 6 6 5 7 10 8 11 9 12 10 14 11 13 12
REMARK SMILES IDX 32 13 34 14 36 15 15 16 16 17 29 18 28 19 21 20 17 21 19 22
REMARK SMILES IDX 30 23 31 24 22 26 23 27 24 28 25 29 26 30 27 31 18 32 20 34
REMARK SMILES IDX 33 36 35 38 37 40 38 42 39 43 40 44 7 46 4 48 2 49 1 51 3 52
REMARK SMILES IDX 44 53 45 55 46 56 47 58 48 59 49 60 50 62 51 63 52 64 53 65
REMARK SMILES IDX 54 66 69 67 55 68 68 69 56 70 57 71 66 73 65 74 67 75 64 77
REMARK SMILES IDX 59 78 63 79 60 80 62 81 61 82 58 83
REMARK H PARENT 31 25 18 33 20 35 33 37 35 39 37 41 40 45 7 47 4 50 44 54
REMARK H PARENT 46 57 48 61 65 76
REMARK Flexibility Score: 90.00
ROOT
ATOM      1  C   UNL     1      21.470  27.891  23.750  1.00  0.00     0.176 C 
ENDROOT
BRANCH   1   2
ATOM      2  C   UNL     1      22.430  26.694  23.908  1.00  0.00     0.178 C 
ATOM      3  C   UNL     1      23.281  25.470  22.047  1.00  0.00     0.272 C 
ATOM      4  C   UNL     1      22.508  24.280  22.452  1.00  0.00     0.113 C 
ATOM      5  O   UNL     1      23.294  26.560  22.919  1.00  0.00    -0.332 OA
ATOM      6  C   UNL     1      21.253  24.625  23.179  1.00  0.00     0.145 C 
ATOM      7  C   UNL     1      21.639  25.499  24.364  1.00  0.00     0.142 C 
BRANCH   3   8
ATOM      8  O   UNL     1      22.978  25.991  20.839  1.00  0.00    -0.338 OA
BRANCH   8   9
ATOM      9  C   UNL     1      22.870  27.280  20.564  1.00  0.00     0.199 C 
BRANCH   9  10
ATOM     10  C   UNL     1      21.805  27.910  19.777  1.00  0.00     0.179 C 
ATOM     11  C   UNL     1      19.498  28.087  19.781  1.00  0.00     0.282 C 
ATOM     12  O   UNL     1      20.610  27.772  20.561  1.00  0.00    -0.341 OA
ATOM     13  C   UNL     1      19.762  28.860  18.551  1.00  0.00     0.202 C 
ATOM     14  C   UNL     1      20.922  29.795  18.562  1.00  0.00     0.179 C 
ATOM     15  C   UNL     1      21.902  29.430  19.649  1.00  0.00     0.177 C 
BRANCH  11  16
ATOM     16  O   UNL     1      18.517  28.652  20.622  1.00  0.00    -0.341 OA
BRANCH  16  17
ATOM     17  C   UNL     1      17.413  29.074  19.930  1.00  0.00     0.184 C 
ATOM     18  C   UNL     1      16.773  30.339  20.438  1.00  0.00     0.178 C 
ATOM     19  O   UNL     1      15.775  30.660  19.514  1.00  0.00    -0.341 OA
ATOM     20  C   UNL     1      14.652  29.862  19.676  1.00  0.00     0.281 C 
ATOM     21  C   UNL     1      16.325  28.010  19.926  1.00  0.00     0.180 C 
ATOM     22  C   UNL     1      14.971  28.518  20.261  1.00  0.00     0.202 C 
BRANCH  18  23
ATOM     23  C   UNL     1      17.744  31.503  20.446  1.00  0.00     0.191 C 
BRANCH  23  24
ATOM     24  O   UNL     1      18.817  31.276  21.306  1.00  0.00    -0.394 OA
ATOM     25  H   UNL     1      19.642  31.030  20.837  1.00  0.00     0.210 HD
ENDBRANCH  23  24
ENDBRANCH  18  23
BRANCH  20  26
ATOM     26  O   UNL     1      14.002  29.769  18.460  1.00  0.00    -0.350 OA
BRANCH  26  27
ATOM     27  C   UNL     1      14.646  30.495  17.473  1.00  0.00     0.169 C 
BRANCH  27  28
ATOM     28  C   UNL     1      15.083  29.698  16.286  1.00  0.00     0.119 C 
BRANCH  28  29
ATOM     29  N   UNL     1      14.171  29.952  15.183  1.00  0.00    -0.092 NA
ATOM     30  N   UNL     1      13.005  29.515  15.181  1.00  0.00     0.001 N 
ATOM     31  N   UNL     1      11.817  29.456  15.529  1.00  0.00    -0.003 NA
ENDBRANCH  28  29
ENDBRANCH  27  28
ENDBRANCH  26  27
ENDBRANCH  20  26
BRANCH  21  32
ATOM     32  O   UNL     1      16.344  27.266  18.736  1.00  0.00    -0.387 OA
ATOM     33  H   UNL     1      16.368  26.302  18.970  1.00  0.00     0.211 HD
ENDBRANCH  21  32
BRANCH  22  34
ATOM     34  O   UNL     1      14.734  28.553  21.656  1.00  0.00    -0.385 OA
ATOM     35  H   UNL     1      15.557  28.460  22.172  1.00  0.00     0.211 HD
ENDBRANCH  22  34
ENDBRANCH  16  17
ENDBRANCH  11  16
BRANCH  13  36
ATOM     36  O   UNL     1      19.765  28.006  17.443  1.00  0.00    -0.385 OA
ATOM     37  H   UNL     1      20.061  28.506  16.638  1.00  0.00     0.211 HD
ENDBRANCH  13  36
BRANCH  14  38
ATOM     38  O   UNL     1      20.546  31.136  18.611  1.00  0.00    -0.387 OA
ATOM     39  H   UNL     1      19.626  31.177  18.239  1.00  0.00     0.211 HD
ENDBRANCH  14  38
BRANCH  15  40
ATOM     40  O   UNL     1      21.498  30.018  20.873  1.00  0.00    -0.387 OA
ATOM     41  H   UNL     1      20.525  29.894  20.918  1.00  0.00     0.211 HD
ENDBRANCH  15  40
ENDBRANCH   9  10
ENDBRANCH   8   9
ENDBRANCH   3   8
BRANCH   3  42
ATOM     42  C   UNL     1      24.736  25.061  22.113  1.00  0.00     0.364 C 
ATOM     43  O   UNL     1      25.536  25.399  21.272  1.00  0.00    -0.246 OA
BRANCH  42  44
ATOM     44  O   UNL     1      25.182  24.267  23.175  1.00  0.00    -0.477 OA
ATOM     45  H   UNL     1      25.492  23.318  23.045  1.00  0.00     0.296 HD
ENDBRANCH  42  44
ENDBRANCH   3  42
BRANCH   6  46
ATOM     46  O   UNL     1      20.442  25.353  22.293  1.00  0.00    -0.391 OA
ATOM     47  H   UNL     1      20.897  25.593  21.468  1.00  0.00     0.211 HD
ENDBRANCH   6  46
BRANCH   7  48
ATOM     48  N   UNL     1      22.284  24.676  25.331  1.00  0.00    -0.348 N 
ATOM     49  C   UNL     1      22.403  25.103  26.684  1.00  0.00     0.217 C 
ATOM     50  H   UNL     1      22.687  23.745  25.074  1.00  0.00     0.163 HD
ATOM     51  C   UNL     1      23.069  24.281  27.730  1.00  0.00     0.114 C 
ATOM     52  O   UNL     1      21.927  26.204  26.984  1.00  0.00    -0.275 OA
ENDBRANCH   7  48
ENDBRANCH   1   2
BRANCH   1  53
ATOM     53  O   UNL     1      20.489  27.831  24.745  1.00  0.00    -0.388 OA
ATOM     54  H   UNL     1      20.855  27.695  25.647  1.00  0.00     0.211 HD
ENDBRANCH   1  53
BRANCH   1  55
ATOM     55  C   UNL     1      22.153  29.206  23.851  1.00  0.00     0.165 C 
BRANCH  55  56
ATOM     56  O   UNL     1      23.415  29.261  23.274  1.00  0.00    -0.388 OA
ATOM     57  H   UNL     1      23.600  28.371  22.871  1.00  0.00     0.211 HD
ENDBRANCH  55  56
BRANCH  55  58
ATOM     58  C   UNL     1      22.258  29.794  25.221  1.00  0.00     0.154 C 
BRANCH  58  59
ATOM     59  N   UNL     1      21.226  30.720  25.576  1.00  0.00    -0.319 N 
ATOM     60  C   UNL     1      20.273  30.498  26.597  1.00  0.00     0.407 C 
ATOM     61  H   UNL     1      21.171  31.616  25.051  1.00  0.00     0.167 HD
ATOM     62  O   UNL     1      20.281  29.439  27.271  1.00  0.00    -0.225 OA
BRANCH  60  63
ATOM     63  O   UNL     1      19.327  31.463  26.850  1.00  0.00    -0.443 OA
BRANCH  63  64
ATOM     64  C   UNL     1      19.035  32.505  25.986  1.00  0.00     0.294 C 
BRANCH  64  65
ATOM     65  C   UNL     1      17.755  32.280  25.313  1.00  0.00     0.120 A 
ATOM     66  C   UNL     1      16.541  32.059  25.916  1.00  0.00     0.139 A 
ATOM     67  N   UNL     1      17.500  32.238  23.983  1.00  0.00    -0.132 NA
ATOM     68  N   UNL     1      15.590  31.891  24.964  1.00  0.00    -0.240 N 
ATOM     69  N   UNL     1      16.209  32.006  23.807  1.00  0.00    -0.066 NA
BRANCH  68  70
ATOM     70  C   UNL     1      14.156  31.635  25.182  1.00  0.00     0.198 C 
BRANCH  70  71
ATOM     71  C   UNL     1      13.475  32.947  25.071  1.00  0.00     0.042 CG0
ATOM     72  G   UNL     1      12.007  32.928  24.827  1.00  0.00     0.000 G0
ENDBRANCH  70  71
BRANCH  70  73
ATOM     73  C   UNL     1      13.779  30.617  24.198  1.00  0.00     0.249 C 
ATOM     74  N   UNL     1      13.167  30.756  22.925  1.00  0.00    -0.324 N 
ATOM     75  O   UNL     1      14.042  29.432  24.538  1.00  0.00    -0.272 OA
ATOM     76  H   UNL     1      13.304  30.002  22.217  1.00  0.00     0.170 HD
BRANCH  74  77
ATOM     77  C   UNL     1      12.357  31.888  22.541  1.00  0.00     0.044 A 
ATOM     78  C   UNL     1      11.811  32.885  23.341  1.00  0.00    -0.024 A 
ATOM     79  C   UNL     1      12.137  31.918  21.181  1.00  0.00     0.026 A 
ATOM     80  C   UNL     1      11.055  33.904  22.808  1.00  0.00     0.006 A 
ATOM     81  C   UNL     1      11.382  32.930  20.620  1.00  0.00     0.002 A 
ATOM     82  C   UNL     1      10.846  33.919  21.451  1.00  0.00     0.000 A 
BRANCH  78  83
ATOM     83  C   UNL     1      11.991  32.942  24.819  1.00  0.00     0.040 CG0
ATOM     84  G   UNL     1      13.458  32.951  25.076  1.00  0.00     0.000 G0
ENDBRANCH  78  83
ENDBRANCH  74  77
ENDBRANCH  70  73
ENDBRANCH  68  70
ENDBRANCH  64  65
ENDBRANCH  63  64
ENDBRANCH  60  63
ENDBRANCH  58  59
ENDBRANCH  55  58
ENDBRANCH   1  55
TORSDOF 30
