REMARK VINA RESULT:    -4.837      3.102      4.930
REMARK INTER + INTRA:         -22.923
REMARK INTER:                 -13.921
REMARK INTRA:                  -9.002
REMARK UNBOUND:                -9.744
REMARK SMILES CC(=O)N[C@@H]1[C@@H](O)C[C@](OC[C@H]2O[C@@H](O[C@H]3[C@H](O)[C@@H](O)[C@H](OCCN=[N+]=[N-])O[C@@H]3CO)[C@H](O)[C@@H](O)[C@H]2O)(C(=O)O)O[C@H]1C(O)[C@H](O)CNC(=O)OCc1cn(CC(O)Cn2ccnc2[N+](=O)[O-])nn1
REMARK SMILES IDX 43 1 42 2 9 3 8 4 41 5 6 6 5 7 10 8 11 9 12 10 14 11 13 12
REMARK SMILES IDX 32 13 34 14 36 15 15 16 16 17 29 18 28 19 21 20 17 21 19 22
REMARK SMILES IDX 30 23 31 24 22 26 23 27 24 28 25 29 26 30 27 31 18 32 20 34
REMARK SMILES IDX 33 36 35 38 37 40 38 42 39 43 40 44 7 46 4 48 2 49 1 51 3 52
REMARK SMILES IDX 44 53 45 55 46 56 47 58 48 59 49 60 50 62 51 63 52 64 53 65
REMARK SMILES IDX 54 66 69 67 55 68 68 69 56 70 57 71 58 72 59 74 60 75 61 76
REMARK SMILES IDX 64 77 62 78 63 79 65 80 66 81 67 82
REMARK H PARENT 31 25 18 33 20 35 33 37 35 39 37 41 40 45 7 47 4 50 44 54
REMARK H PARENT 46 57 48 61 58 73
REMARK Flexibility Score: inf
ROOT
ATOM      1  C   UNL     1      19.852  28.756  19.964  1.00  0.00     0.176 C 
ENDROOT
BRANCH   1   2
ATOM      2  C   UNL     1      18.450  29.332  19.602  1.00  0.00     0.178 C 
ATOM      3  C   UNL     1      16.481  29.676  20.765  1.00  0.00     0.272 C 
ATOM      4  C   UNL     1      15.688  29.178  19.593  1.00  0.00     0.113 C 
ATOM      5  O   UNL     1      17.743  29.091  20.782  1.00  0.00    -0.332 OA
ATOM      6  C   UNL     1      16.432  28.081  18.844  1.00  0.00     0.145 C 
ATOM      7  C   UNL     1      17.851  28.531  18.521  1.00  0.00     0.142 C 
BRANCH   3   8
ATOM      8  O   UNL     1      15.936  29.306  21.989  1.00  0.00    -0.338 OA
BRANCH   8   9
ATOM      9  C   UNL     1      14.662  28.883  22.042  1.00  0.00     0.199 C 
BRANCH   9  10
ATOM     10  C   UNL     1      13.743  29.814  22.809  1.00  0.00     0.179 C 
ATOM     11  C   UNL     1      13.693  31.404  24.377  1.00  0.00     0.282 C 
ATOM     12  O   UNL     1      14.434  30.976  23.247  1.00  0.00    -0.341 OA
ATOM     13  C   UNL     1      12.271  31.722  23.989  1.00  0.00     0.202 C 
ATOM     14  C   UNL     1      12.227  31.770  22.463  1.00  0.00     0.179 C 
ATOM     15  C   UNL     1      12.610  30.369  21.977  1.00  0.00     0.177 C 
BRANCH  11  16
ATOM     16  O   UNL     1      14.269  32.500  24.984  1.00  0.00    -0.341 OA
BRANCH  16  17
ATOM     17  C   UNL     1      15.623  32.443  24.747  1.00  0.00     0.184 C 
ATOM     18  C   UNL     1      16.464  32.307  26.008  1.00  0.00     0.178 C 
ATOM     19  O   UNL     1      17.710  31.869  25.549  1.00  0.00    -0.341 OA
ATOM     20  C   UNL     1      18.397  32.793  24.810  1.00  0.00     0.281 C 
ATOM     21  C   UNL     1      16.143  33.705  24.074  1.00  0.00     0.180 C 
ATOM     22  C   UNL     1      17.613  33.658  23.893  1.00  0.00     0.202 C 
BRANCH  18  23
ATOM     23  C   UNL     1      15.902  31.372  27.017  1.00  0.00     0.191 C 
BRANCH  23  24
ATOM     24  O   UNL     1      16.949  30.868  27.778  1.00  0.00    -0.394 OA
ATOM     25  H   UNL     1      16.645  30.428  28.612  1.00  0.00     0.210 HD
ENDBRANCH  23  24
ENDBRANCH  18  23
BRANCH  20  26
ATOM     26  O   UNL     1      19.299  32.051  24.001  1.00  0.00    -0.350 OA
BRANCH  26  27
ATOM     27  C   UNL     1      19.042  30.704  24.017  1.00  0.00     0.169 C 
BRANCH  27  28
ATOM     28  C   UNL     1      20.388  30.019  24.289  1.00  0.00     0.119 C 
BRANCH  28  29
ATOM     29  N   UNL     1      20.410  29.351  25.554  1.00  0.00    -0.092 NA
ATOM     30  N   UNL     1      20.333  29.985  26.632  1.00  0.00     0.001 N 
ATOM     31  N   UNL     1      19.889  30.343  27.710  1.00  0.00    -0.003 NA
ENDBRANCH  28  29
ENDBRANCH  27  28
ENDBRANCH  26  27
ENDBRANCH  20  26
BRANCH  21  32
ATOM     32  O   UNL     1      15.532  33.834  22.809  1.00  0.00    -0.387 OA
ATOM     33  H   UNL     1      16.254  33.805  22.156  1.00  0.00     0.211 HD
ENDBRANCH  21  32
BRANCH  22  34
ATOM     34  O   UNL     1      18.076  34.983  24.093  1.00  0.00    -0.385 OA
ATOM     35  H   UNL     1      17.457  35.639  23.678  1.00  0.00     0.211 HD
ENDBRANCH  22  34
ENDBRANCH  16  17
ENDBRANCH  11  16
BRANCH  13  36
ATOM     36  O   UNL     1      11.441  30.713  24.477  1.00  0.00    -0.385 OA
ATOM     37  H   UNL     1      11.751  29.812  24.182  1.00  0.00     0.211 HD
ENDBRANCH  13  36
BRANCH  14  38
ATOM     38  O   UNL     1      13.244  32.610  22.048  1.00  0.00    -0.387 OA
ATOM     39  H   UNL     1      14.004  32.090  21.734  1.00  0.00     0.211 HD
ENDBRANCH  14  38
BRANCH  15  40
ATOM     40  O   UNL     1      12.944  30.517  20.649  1.00  0.00    -0.387 OA
ATOM     41  H   UNL     1      12.894  31.459  20.349  1.00  0.00     0.211 HD
ENDBRANCH  15  40
ENDBRANCH   9  10
ENDBRANCH   8   9
ENDBRANCH   3   8
BRANCH   3  42
ATOM     42  C   UNL     1      16.633  31.136  20.721  1.00  0.00     0.364 C 
ATOM     43  O   UNL     1      15.696  31.904  20.309  1.00  0.00    -0.246 OA
BRANCH  42  44
ATOM     44  O   UNL     1      17.779  31.803  21.110  1.00  0.00    -0.477 OA
ATOM     45  H   UNL     1      18.577  31.962  20.488  1.00  0.00     0.296 HD
ENDBRANCH  42  44
ENDBRANCH   3  42
BRANCH   6  46
ATOM     46  O   UNL     1      16.416  26.883  19.530  1.00  0.00    -0.391 OA
ATOM     47  H   UNL     1      16.506  27.018  20.507  1.00  0.00     0.211 HD
ENDBRANCH   6  46
BRANCH   7  48
ATOM     48  N   UNL     1      17.932  29.027  17.184  1.00  0.00    -0.348 N 
ATOM     49  C   UNL     1      18.885  28.750  16.211  1.00  0.00     0.217 C 
ATOM     50  H   UNL     1      17.135  29.718  16.851  1.00  0.00     0.163 HD
ATOM     51  C   UNL     1      18.786  29.352  14.818  1.00  0.00     0.114 C 
ATOM     52  O   UNL     1      19.859  28.015  16.388  1.00  0.00    -0.275 OA
ENDBRANCH   7  48
ENDBRANCH   1   2
BRANCH   1  53
ATOM     53  O   UNL     1      19.625  27.655  20.828  1.00  0.00    -0.388 OA
ATOM     54  H   UNL     1      19.396  26.847  20.345  1.00  0.00     0.211 HD
ENDBRANCH   1  53
BRANCH   1  55
ATOM     55  C   UNL     1      20.780  29.701  20.570  1.00  0.00     0.165 C 
BRANCH  55  56
ATOM     56  O   UNL     1      20.414  31.022  20.604  1.00  0.00    -0.388 OA
ATOM     57  H   UNL     1      20.600  31.514  19.773  1.00  0.00     0.211 HD
ENDBRANCH  55  56
BRANCH  55  58
ATOM     58  C   UNL     1      22.212  29.597  19.993  1.00  0.00     0.154 C 
BRANCH  58  59
ATOM     59  N   UNL     1      22.419  28.181  19.710  1.00  0.00    -0.319 N 
ATOM     60  C   UNL     1      23.280  27.371  20.520  1.00  0.00     0.407 C 
ATOM     61  H   UNL     1      21.936  27.728  18.902  1.00  0.00     0.167 HD
ATOM     62  O   UNL     1      23.870  27.881  21.496  1.00  0.00    -0.225 OA
BRANCH  60  63
ATOM     63  O   UNL     1      23.476  26.034  20.242  1.00  0.00    -0.443 OA
BRANCH  63  64
ATOM     64  C   UNL     1      22.557  24.996  20.401  1.00  0.00     0.294 C 
BRANCH  64  65
ATOM     65  C   UNL     1      22.029  24.993  21.788  1.00  0.00     0.120 A 
ATOM     66  C   UNL     1      22.730  24.681  22.938  1.00  0.00     0.138 A 
ATOM     67  N   UNL     1      20.793  25.289  22.214  1.00  0.00    -0.132 NA
ATOM     68  N   UNL     1      21.896  24.802  24.002  1.00  0.00    -0.249 N 
ATOM     69  N   UNL     1      20.732  25.170  23.533  1.00  0.00    -0.067 NA
BRANCH  68  70
ATOM     70  C   UNL     1      22.327  24.585  25.379  1.00  0.00     0.181 C 
BRANCH  70  71
ATOM     71  C   UNL     1      22.778  25.955  25.879  1.00  0.00     0.170 C 
BRANCH  71  72
ATOM     72  O   UNL     1      21.847  26.890  25.494  1.00  0.00    -0.388 OA
ATOM     73  H   UNL     1      22.234  27.502  24.823  1.00  0.00     0.211 HD
ENDBRANCH  71  72
BRANCH  71  74
ATOM     74  C   UNL     1      23.013  25.921  27.358  1.00  0.00     0.239 C 
BRANCH  74  75
ATOM     75  N   UNL     1      24.320  26.481  27.659  1.00  0.00    -0.227 N 
ATOM     76  C   UNL     1      25.403  25.687  27.941  1.00  0.00     0.204 A 
ATOM     77  C   UNL     1      24.690  27.762  27.694  1.00  0.00     0.434 A 
ATOM     78  C   UNL     1      26.474  26.526  28.154  1.00  0.00     0.245 A 
ATOM     79  N   UNL     1      26.018  27.784  27.999  1.00  0.00    -0.074 NA
BRANCH  77  80
ATOM     80  N   UNL     1      23.865  28.892  27.472  1.00  0.00    -0.047 N 
ATOM     81  O   UNL     1      23.676  29.340  26.298  1.00  0.00    -0.390 OA
ATOM     82  O   UNL     1      23.232  29.575  28.474  1.00  0.00    -0.390 OA
ENDBRANCH  77  80
ENDBRANCH  74  75
ENDBRANCH  71  74
ENDBRANCH  70  71
ENDBRANCH  68  70
ENDBRANCH  64  65
ENDBRANCH  63  64
ENDBRANCH  60  63
ENDBRANCH  58  59
ENDBRANCH  55  58
ENDBRANCH   1  55
TORSDOF 35
