REMARK VINA RESULT:    -5.499     15.013     19.510
REMARK INTER + INTRA:         -21.261
REMARK INTER:                 -12.066
REMARK INTRA:                  -9.195
REMARK UNBOUND:                -6.761
REMARK SMILES CC(=O)N[C@@H]1[C@@H](O)C[C@](OC[C@H]2O[C@@H](O[C@H]3[C@H](O)[C@@H](O)[C@H](OCCN=[N+]=[N-])O[C@@H]3CO)[C@H](O)[C@@H](O)[C@H]2O)(C(=O)O)O[C@H]1C(O)[C@H](O)CNC(=O)OCc1cn(CCNS(C)(=O)=O)nn1
REMARK SMILES IDX 43 1 42 2 9 3 8 4 41 5 6 6 5 7 10 8 11 9 12 10 14 11 13 12
REMARK SMILES IDX 32 13 34 14 36 15 15 16 16 17 29 18 28 19 21 20 17 21 19 22
REMARK SMILES IDX 30 23 31 24 22 26 23 27 24 28 25 29 26 30 27 31 18 32 20 34
REMARK SMILES IDX 33 36 35 38 37 40 38 42 39 43 40 44 7 46 4 48 2 49 1 51 3 52
REMARK SMILES IDX 44 53 45 55 46 56 47 58 48 59 49 60 50 62 51 63 52 64 53 65
REMARK SMILES IDX 54 66 64 67 55 68 63 69 56 70 57 71 58 72 59 74 61 75 62 76
REMARK SMILES IDX 60 77
REMARK H PARENT 31 25 18 33 20 35 33 37 35 39 37 41 40 45 7 47 4 50 44 54
REMARK H PARENT 46 57 48 61 58 73
REMARK Flexibility Score: inf
ROOT
ATOM      1  C   UNL     1      16.883  22.770  41.854  1.00  0.00     0.176 C 
ENDROOT
BRANCH   1   2
ATOM      2  C   UNL     1      15.655  23.686  41.699  1.00  0.00     0.178 C 
ATOM      3  C   UNL     1      14.876  25.260  40.150  1.00  0.00     0.272 C 
ATOM      4  C   UNL     1      14.915  26.397  41.091  1.00  0.00     0.113 C 
ATOM      5  O   UNL     1      15.791  24.270  40.485  1.00  0.00    -0.332 OA
ATOM      6  C   UNL     1      15.456  26.089  42.459  1.00  0.00     0.145 C 
ATOM      7  C   UNL     1      15.594  24.649  42.818  1.00  0.00     0.142 C 
BRANCH   3   8
ATOM      8  O   UNL     1      15.170  25.555  38.816  1.00  0.00    -0.338 OA
BRANCH   8   9
ATOM      9  C   UNL     1      15.218  26.916  38.567  1.00  0.00     0.199 C 
BRANCH   9  10
ATOM     10  C   UNL     1      16.194  27.211  37.483  1.00  0.00     0.179 C 
ATOM     11  C   UNL     1      18.380  27.010  36.773  1.00  0.00     0.282 C 
ATOM     12  O   UNL     1      17.398  26.552  37.668  1.00  0.00    -0.341 OA
ATOM     13  C   UNL     1      18.011  26.727  35.358  1.00  0.00     0.202 C 
ATOM     14  C   UNL     1      16.737  27.491  35.067  1.00  0.00     0.179 C 
ATOM     15  C   UNL     1      15.694  27.156  36.079  1.00  0.00     0.177 C 
BRANCH  11  16
ATOM     16  O   UNL     1      19.550  26.411  37.131  1.00  0.00    -0.341 OA
BRANCH  16  17
ATOM     17  C   UNL     1      19.485  25.503  38.131  1.00  0.00     0.184 C 
ATOM     18  C   UNL     1      20.363  25.621  39.313  1.00  0.00     0.178 C 
ATOM     19  O   UNL     1      20.529  24.351  39.867  1.00  0.00    -0.341 OA
ATOM     20  C   UNL     1      21.381  23.573  39.139  1.00  0.00     0.281 C 
ATOM     21  C   UNL     1      19.605  24.054  37.582  1.00  0.00     0.180 C 
ATOM     22  C   UNL     1      21.088  23.760  37.664  1.00  0.00     0.202 C 
BRANCH  18  23
ATOM     23  C   UNL     1      19.675  26.425  40.412  1.00  0.00     0.191 C 
BRANCH  23  24
ATOM     24  O   UNL     1      18.307  26.071  40.473  1.00  0.00    -0.394 OA
ATOM     25  H   UNL     1      17.740  26.732  40.019  1.00  0.00     0.210 HD
ENDBRANCH  23  24
ENDBRANCH  18  23
BRANCH  20  26
ATOM     26  O   UNL     1      21.289  22.222  39.506  1.00  0.00    -0.350 OA
BRANCH  26  27
ATOM     27  C   UNL     1      21.607  21.967  40.815  1.00  0.00     0.169 C 
BRANCH  27  28
ATOM     28  C   UNL     1      20.424  21.332  41.475  1.00  0.00     0.119 C 
BRANCH  28  29
ATOM     29  N   UNL     1      20.208  21.842  42.823  1.00  0.00    -0.092 NA
ATOM     30  N   UNL     1      20.412  23.061  42.960  1.00  0.00     0.001 N 
ATOM     31  N   UNL     1      20.592  24.187  43.410  1.00  0.00    -0.003 NA
ENDBRANCH  28  29
ENDBRANCH  27  28
ENDBRANCH  26  27
ENDBRANCH  20  26
BRANCH  21  32
ATOM     32  O   UNL     1      18.949  23.170  38.443  1.00  0.00    -0.387 OA
ATOM     33  H   UNL     1      18.874  23.590  39.340  1.00  0.00     0.211 HD
ENDBRANCH  21  32
BRANCH  22  34
ATOM     34  O   UNL     1      21.884  24.718  37.080  1.00  0.00    -0.385 OA
ATOM     35  H   UNL     1      21.410  25.559  36.856  1.00  0.00     0.211 HD
ENDBRANCH  22  34
ENDBRANCH  16  17
ENDBRANCH  11  16
BRANCH  13  36
ATOM     36  O   UNL     1      18.963  27.255  34.474  1.00  0.00    -0.385 OA
ATOM     37  H   UNL     1      19.749  26.658  34.375  1.00  0.00     0.211 HD
ENDBRANCH  13  36
BRANCH  14  38
ATOM     38  O   UNL     1      16.336  27.360  33.760  1.00  0.00    -0.387 OA
ATOM     39  H   UNL     1      15.335  27.426  33.659  1.00  0.00     0.211 HD
ENDBRANCH  14  38
BRANCH  15  40
ATOM     40  O   UNL     1      15.227  25.869  35.827  1.00  0.00    -0.387 OA
ATOM     41  H   UNL     1      15.392  25.571  34.896  1.00  0.00     0.211 HD
ENDBRANCH  15  40
ENDBRANCH   9  10
ENDBRANCH   8   9
ENDBRANCH   3   8
BRANCH   3  42
ATOM     42  C   UNL     1      13.523  24.655  40.098  1.00  0.00     0.364 C 
ATOM     43  O   UNL     1      13.328  23.478  39.648  1.00  0.00    -0.246 OA
BRANCH  42  44
ATOM     44  O   UNL     1      12.372  25.291  40.519  1.00  0.00    -0.477 OA
ATOM     45  H   UNL     1      11.709  24.876  41.169  1.00  0.00     0.296 HD
ENDBRANCH  42  44
ENDBRANCH   3  42
BRANCH   6  46
ATOM     46  O   UNL     1      16.659  26.743  42.682  1.00  0.00    -0.391 OA
ATOM     47  H   UNL     1      17.363  26.207  43.098  1.00  0.00     0.211 HD
ENDBRANCH   6  46
BRANCH   7  48
ATOM     48  N   UNL     1      14.475  24.301  43.710  1.00  0.00    -0.348 N 
ATOM     49  C   UNL     1      14.570  23.983  45.068  1.00  0.00     0.217 C 
ATOM     50  H   UNL     1      13.474  24.318  43.303  1.00  0.00     0.163 HD
ATOM     51  C   UNL     1      13.350  23.628  45.875  1.00  0.00     0.114 C 
ATOM     52  O   UNL     1      15.675  23.976  45.675  1.00  0.00    -0.275 OA
ENDBRANCH   7  48
ENDBRANCH   1   2
BRANCH   1  53
ATOM     53  O   UNL     1      17.123  22.577  43.226  1.00  0.00    -0.388 OA
ATOM     54  H   UNL     1      18.081  22.688  43.367  1.00  0.00     0.211 HD
ENDBRANCH   1  53
BRANCH   1  55
ATOM     55  C   UNL     1      16.619  21.448  41.234  1.00  0.00     0.165 C 
BRANCH  55  56
ATOM     56  O   UNL     1      15.829  21.454  40.111  1.00  0.00    -0.388 OA
ATOM     57  H   UNL     1      15.127  20.751  40.116  1.00  0.00     0.211 HD
ENDBRANCH  55  56
BRANCH  55  58
ATOM     58  C   UNL     1      16.219  20.357  42.178  1.00  0.00     0.154 C 
BRANCH  58  59
ATOM     59  N   UNL     1      14.937  19.794  41.848  1.00  0.00    -0.319 N 
ATOM     60  C   UNL     1      13.789  20.261  42.594  1.00  0.00     0.407 C 
ATOM     61  H   UNL     1      14.783  19.080  41.118  1.00  0.00     0.167 HD
ATOM     62  O   UNL     1      14.003  21.146  43.461  1.00  0.00    -0.225 OA
BRANCH  60  63
ATOM     63  O   UNL     1      12.539  19.751  42.355  1.00  0.00    -0.443 OA
BRANCH  63  64
ATOM     64  C   UNL     1      11.392  20.473  42.736  1.00  0.00     0.294 C 
BRANCH  64  65
ATOM     65  C   UNL     1      10.702  21.032  41.559  1.00  0.00     0.120 A 
ATOM     66  C   UNL     1      10.334  22.350  41.347  1.00  0.00     0.138 A 
ATOM     67  N   UNL     1      10.335  20.384  40.462  1.00  0.00    -0.132 NA
ATOM     68  N   UNL     1       9.764  22.467  40.147  1.00  0.00    -0.251 N 
ATOM     69  N   UNL     1       9.768  21.246  39.609  1.00  0.00    -0.067 NA
BRANCH  68  70
ATOM     70  C   UNL     1       9.234  23.682  39.552  1.00  0.00     0.162 C 
BRANCH  70  71
ATOM     71  C   UNL     1       9.658  23.766  38.087  1.00  0.00     0.122 C 
BRANCH  71  72
ATOM     72  N   UNL     1      11.088  23.726  37.968  1.00  0.00    -0.214 NA
ATOM     73  H   UNL     1      11.456  22.918  38.539  1.00  0.00     0.141 HD
BRANCH  72  74
ATOM     74  S   UNL     1      11.619  23.476  36.351  1.00  0.00     0.208 S 
ATOM     75  O   UNL     1      12.825  24.354  36.059  1.00  0.00    -0.213 OA
ATOM     76  O   UNL     1      12.054  22.025  36.267  1.00  0.00    -0.213 OA
ATOM     77  C   UNL     1      10.319  23.790  35.198  1.00  0.00     0.176 C 
ENDBRANCH  72  74
ENDBRANCH  71  72
ENDBRANCH  70  71
ENDBRANCH  68  70
ENDBRANCH  64  65
ENDBRANCH  63  64
ENDBRANCH  60  63
ENDBRANCH  58  59
ENDBRANCH  55  58
ENDBRANCH   1  55
TORSDOF 33
