REMARK VINA RESULT:    -5.849      4.534      7.790
REMARK INTER + INTRA:         -21.866
REMARK INTER:                 -14.863
REMARK INTRA:                  -7.003
REMARK UNBOUND:                -6.784
REMARK SMILES COc1ccc(Cn2cc(COC(=O)NC[C@@H](O)C(O)[C@@H]3O[C@@](OC[C@H]4O[C@@H](O[C@H]5[C@H](O)[C@@H](O)[C@H](OCCN=[N+]=[N-])O[C@@H]5CO)[C@H](O)[C@@H](O)[C@H]4O)(C(=O)O)C[C@H](O)[C@H]3NC(C)=O)nn2)cc1
REMARK SMILES IDX 23 1 55 2 56 3 58 4 21 5 22 6 24 7 25 8 26 9 28 10 27 11
REMARK SMILES IDX 46 12 48 13 50 14 29 15 30 16 43 17 42 18 35 19 31 20 33 21
REMARK SMILES IDX 44 22 45 23 36 25 37 26 38 27 39 28 40 29 41 30 32 31 34 33
REMARK SMILES IDX 47 35 49 37 51 39 52 41 53 42 54 43 57 45 19 47 20 48 17 50
REMARK SMILES IDX 18 51 16 53 15 54 13 55 14 57 12 58 11 59 10 60 9 61 63 62
REMARK SMILES IDX 8 63 64 64 7 65 6 66 5 67 65 68 4 69 66 70 3 71 2 72 1 73
REMARK SMILES IDX 59 74 60 75 61 77 62 78
REMARK H PARENT 45 24 32 32 34 34 47 36 49 38 51 40 54 44 57 46 20 49 18 52
REMARK H PARENT 15 56 59 76
REMARK Flexibility Score: inf
ROOT
ATOM      1  C   UNL     1      26.448  19.467  13.656  1.00  0.00     0.272 C 
ATOM      2  C   UNL     1      26.828  20.293  12.445  1.00  0.00     0.113 C 
ATOM      3  C   UNL     1      25.585  20.900  11.826  1.00  0.00     0.145 C 
ATOM      4  C   UNL     1      24.659  21.526  12.827  1.00  0.00     0.142 C 
ATOM      5  C   UNL     1      25.109  21.337  14.266  1.00  0.00     0.178 C 
ATOM      6  O   UNL     1      25.596  20.065  14.493  1.00  0.00    -0.332 OA
ENDROOT
BRANCH   1   7
ATOM      7  O   UNL     1      27.509  18.810  14.179  1.00  0.00    -0.338 OA
BRANCH   7   8
ATOM      8  C   UNL     1      28.713  19.366  14.360  1.00  0.00     0.199 C 
BRANCH   8   9
ATOM      9  C   UNL     1      29.290  19.106  15.734  1.00  0.00     0.179 C 
ATOM     10  C   UNL     1      31.188  19.577  16.901  1.00  0.00     0.282 C 
ATOM     11  O   UNL     1      30.198  20.149  16.071  1.00  0.00    -0.341 OA
ATOM     12  C   UNL     1      30.605  18.641  17.893  1.00  0.00     0.202 C 
ATOM     13  C   UNL     1      29.129  18.705  18.098  1.00  0.00     0.179 C 
ATOM     14  C   UNL     1      28.324  19.027  16.855  1.00  0.00     0.177 C 
BRANCH  10  15
ATOM     15  O   UNL     1      32.078  20.509  17.354  1.00  0.00    -0.341 OA
BRANCH  15  16
ATOM     16  C   UNL     1      31.717  21.220  18.479  1.00  0.00     0.184 C 
ATOM     17  C   UNL     1      31.657  22.717  18.296  1.00  0.00     0.178 C 
ATOM     18  O   UNL     1      31.934  23.375  19.494  1.00  0.00    -0.341 OA
ATOM     19  C   UNL     1      31.505  22.657  20.623  1.00  0.00     0.281 C 
ATOM     20  C   UNL     1      32.892  21.038  19.460  1.00  0.00     0.180 C 
ATOM     21  C   UNL     1      32.361  21.392  20.822  1.00  0.00     0.202 C 
BRANCH  17  22
ATOM     22  C   UNL     1      30.346  23.241  17.801  1.00  0.00     0.191 C 
BRANCH  22  23
ATOM     23  O   UNL     1      29.399  22.220  17.832  1.00  0.00    -0.394 OA
ATOM     24  H   UNL     1      28.499  22.655  17.844  1.00  0.00     0.210 HD
ENDBRANCH  22  23
ENDBRANCH  17  22
BRANCH  19  25
ATOM     25  O   UNL     1      30.181  22.354  20.631  1.00  0.00    -0.350 OA
BRANCH  25  26
ATOM     26  C   UNL     1      29.394  22.817  21.639  1.00  0.00     0.169 C 
BRANCH  26  27
ATOM     27  C   UNL     1      27.937  22.930  21.389  1.00  0.00     0.119 C 
BRANCH  27  28
ATOM     28  N   UNL     1      27.519  22.500  20.100  1.00  0.00    -0.092 NA
ATOM     29  N   UNL     1      26.835  23.180  19.320  1.00  0.00     0.001 N 
ATOM     30  N   UNL     1      26.547  23.881  18.325  1.00  0.00    -0.003 NA
ENDBRANCH  27  28
ENDBRANCH  26  27
ENDBRANCH  25  26
ENDBRANCH  19  25
BRANCH  20  31
ATOM     31  O   UNL     1      33.460  19.798  19.369  1.00  0.00    -0.387 OA
ATOM     32  H   UNL     1      33.331  19.258  20.212  1.00  0.00     0.211 HD
ENDBRANCH  20  31
BRANCH  21  33
ATOM     33  O   UNL     1      33.394  21.613  21.732  1.00  0.00    -0.385 OA
ATOM     34  H   UNL     1      33.720  22.546  21.629  1.00  0.00     0.211 HD
ENDBRANCH  21  33
ENDBRANCH  15  16
ENDBRANCH  10  15
BRANCH  12  35
ATOM     35  O   UNL     1      31.004  17.300  17.656  1.00  0.00    -0.385 OA
ATOM     36  H   UNL     1      31.449  16.940  18.483  1.00  0.00     0.211 HD
ENDBRANCH  12  35
BRANCH  13  37
ATOM     37  O   UNL     1      28.786  19.573  19.162  1.00  0.00    -0.387 OA
ATOM     38  H   UNL     1      29.625  19.839  19.618  1.00  0.00     0.211 HD
ENDBRANCH  13  37
BRANCH  14  39
ATOM     39  O   UNL     1      27.571  20.186  17.017  1.00  0.00    -0.387 OA
ATOM     40  H   UNL     1      27.173  20.252  17.919  1.00  0.00     0.211 HD
ENDBRANCH  14  39
ENDBRANCH   8   9
ENDBRANCH   7   8
ENDBRANCH   1   7
BRANCH   1  41
ATOM     41  C   UNL     1      25.716  18.256  12.988  1.00  0.00     0.364 C 
ATOM     42  O   UNL     1      26.295  17.604  12.092  1.00  0.00    -0.246 OA
BRANCH  41  43
ATOM     43  O   UNL     1      24.468  17.869  13.334  1.00  0.00    -0.477 OA
ATOM     44  H   UNL     1      23.609  18.348  13.227  1.00  0.00     0.296 HD
ENDBRANCH  41  43
ENDBRANCH   1  41
BRANCH   3  45
ATOM     45  O   UNL     1      26.101  21.905  10.955  1.00  0.00    -0.391 OA
ATOM     46  H   UNL     1      25.376  22.523  10.682  1.00  0.00     0.211 HD
ENDBRANCH   3  45
BRANCH   5  47
ATOM     47  C   UNL     1      25.968  22.488  14.621  1.00  0.00     0.176 C 
BRANCH  47  48
ATOM     48  O   UNL     1      26.513  22.411  15.936  1.00  0.00    -0.388 OA
ATOM     49  H   UNL     1      27.484  22.301  15.845  1.00  0.00     0.211 HD
ENDBRANCH  47  48
BRANCH  47  50
ATOM     50  C   UNL     1      25.184  23.820  14.805  1.00  0.00     0.165 C 
BRANCH  50  51
ATOM     51  O   UNL     1      25.788  24.811  15.468  1.00  0.00    -0.388 OA
ATOM     52  H   UNL     1      26.610  25.108  15.002  1.00  0.00     0.211 HD
ENDBRANCH  50  51
BRANCH  50  53
ATOM     53  C   UNL     1      23.841  23.439  15.467  1.00  0.00     0.154 C 
BRANCH  53  54
ATOM     54  N   UNL     1      23.665  24.039  16.749  1.00  0.00    -0.319 N 
ATOM     55  C   UNL     1      22.651  25.035  16.931  1.00  0.00     0.407 C 
ATOM     56  H   UNL     1      24.250  23.776  17.549  1.00  0.00     0.167 HD
ATOM     57  O   UNL     1      21.928  25.361  15.949  1.00  0.00    -0.225 OA
BRANCH  55  58
ATOM     58  O   UNL     1      22.505  25.600  18.185  1.00  0.00    -0.443 OA
BRANCH  58  59
ATOM     59  C   UNL     1      23.206  25.026  19.305  1.00  0.00     0.294 C 
BRANCH  59  60
ATOM     60  C   UNL     1      22.395  25.257  20.519  1.00  0.00     0.120 A 
ATOM     61  C   UNL     1      22.334  24.446  21.657  1.00  0.00     0.138 A 
ATOM     62  N   UNL     1      21.559  26.273  20.760  1.00  0.00    -0.132 NA
ATOM     63  N   UNL     1      21.470  25.017  22.505  1.00  0.00    -0.248 N 
ATOM     64  N   UNL     1      21.007  26.126  21.948  1.00  0.00    -0.067 NA
BRANCH  63  65
ATOM     65  C   UNL     1      21.102  24.514  23.804  1.00  0.00     0.181 C 
BRANCH  65  66
ATOM     66  C   UNL     1      22.226  24.728  24.742  1.00  0.00    -0.026 A 
ATOM     67  C   UNL     1      21.963  25.085  26.061  1.00  0.00     0.009 A 
ATOM     68  C   UNL     1      23.538  24.575  24.378  1.00  0.00     0.009 A 
ATOM     69  C   UNL     1      22.970  25.280  26.982  1.00  0.00     0.047 A 
ATOM     70  C   UNL     1      24.559  24.773  25.313  1.00  0.00     0.047 A 
ATOM     71  C   UNL     1      24.297  25.124  26.609  1.00  0.00     0.118 A 
BRANCH  71  72
ATOM     72  O   UNL     1      25.271  25.330  27.569  1.00  0.00    -0.497 OA
ATOM     73  C   UNL     1      25.659  26.580  28.059  1.00  0.00     0.278 C 
ENDBRANCH  71  72
ENDBRANCH  65  66
ENDBRANCH  63  65
ENDBRANCH  59  60
ENDBRANCH  58  59
ENDBRANCH  55  58
ENDBRANCH  53  54
ENDBRANCH  50  53
ENDBRANCH  47  50
ENDBRANCH   5  47
BRANCH   4  74
ATOM     74  N   UNL     1      23.258  21.209  12.650  1.00  0.00    -0.348 N 
ATOM     75  C   UNL     1      22.250  22.157  12.323  1.00  0.00     0.217 C 
ATOM     76  H   UNL     1      22.948  20.235  12.780  1.00  0.00     0.163 HD
ATOM     77  C   UNL     1      20.813  21.712  12.168  1.00  0.00     0.114 C 
ATOM     78  O   UNL     1      22.555  23.363  12.164  1.00  0.00    -0.275 OA
ENDBRANCH   4  74
TORSDOF 32
