REMARK VINA RESULT:    -5.207      2.881      6.262
REMARK INTER + INTRA:         -23.199
REMARK INTER:                 -15.104
REMARK INTRA:                  -8.095
REMARK UNBOUND:                -9.623
REMARK SMILES CC(=O)N[C@@H]1[C@@H](O)C[C@](OC[C@H]2O[C@@H](O[C@H]3[C@H](O)[C@@H](O)[C@H](OCCN=[N+]=[N-])O[C@@H]3CO)[C@H](O)[C@@H](O)[C@H]2O)(C(=O)O)O[C@H]1C(O)[C@H](O)CNC(=O)OCc1cn(Cc2ccc(C(=O)O)cc2)nn1
REMARK SMILES IDX 43 1 42 2 9 3 8 4 41 5 6 6 5 7 10 8 11 9 12 10 14 11 13 12
REMARK SMILES IDX 32 13 34 14 36 15 15 16 16 17 29 18 28 19 21 20 17 21 19 22
REMARK SMILES IDX 30 23 31 24 22 26 23 27 24 28 25 29 26 30 27 31 18 32 20 34
REMARK SMILES IDX 33 36 35 38 37 40 38 42 39 43 40 44 7 46 4 48 2 49 1 51 3 52
REMARK SMILES IDX 44 53 45 55 46 56 47 58 48 59 49 60 50 62 51 63 52 64 53 65
REMARK SMILES IDX 54 66 67 67 55 68 66 69 56 70 57 71 58 72 65 73 59 74 64 75
REMARK SMILES IDX 60 76 61 77 62 78 63 79
REMARK H PARENT 31 25 18 33 20 35 33 37 35 39 37 41 40 45 7 47 4 50 44 54
REMARK H PARENT 46 57 48 61 63 80
REMARK Flexibility Score: inf
ROOT
ATOM      1  C   UNL     1      16.858  29.207  19.870  1.00  0.00     0.176 C 
ENDROOT
BRANCH   1   2
ATOM      2  C   UNL     1      16.370  30.340  20.799  1.00  0.00     0.178 C 
ATOM      3  C   UNL     1      17.487  32.246  21.647  1.00  0.00     0.272 C 
ATOM      4  C   UNL     1      17.179  31.771  23.011  1.00  0.00     0.113 C 
ATOM      5  O   UNL     1      17.261  31.332  20.651  1.00  0.00    -0.332 OA
ATOM      6  C   UNL     1      17.169  30.262  23.132  1.00  0.00     0.145 C 
ATOM      7  C   UNL     1      16.167  29.756  22.136  1.00  0.00     0.142 C 
BRANCH   3   8
ATOM      8  O   UNL     1      18.803  32.605  21.523  1.00  0.00    -0.338 OA
BRANCH   8   9
ATOM      9  C   UNL     1      19.418  33.283  22.514  1.00  0.00     0.199 C 
BRANCH   9  10
ATOM     10  C   UNL     1      20.886  32.812  22.650  1.00  0.00     0.179 C 
ATOM     11  C   UNL     1      22.246  31.518  24.031  1.00  0.00     0.282 C 
ATOM     12  O   UNL     1      21.030  32.174  23.848  1.00  0.00    -0.341 OA
ATOM     13  C   UNL     1      23.263  31.814  22.988  1.00  0.00     0.202 C 
ATOM     14  C   UNL     1      22.668  31.478  21.637  1.00  0.00     0.179 C 
ATOM     15  C   UNL     1      21.255  31.944  21.474  1.00  0.00     0.177 C 
BRANCH  11  16
ATOM     16  O   UNL     1      21.986  30.150  24.104  1.00  0.00    -0.341 OA
BRANCH  16  17
ATOM     17  C   UNL     1      22.334  29.626  25.314  1.00  0.00     0.184 C 
ATOM     18  C   UNL     1      22.921  28.266  25.208  1.00  0.00     0.178 C 
ATOM     19  O   UNL     1      23.508  27.875  26.421  1.00  0.00    -0.341 OA
ATOM     20  C   UNL     1      22.701  28.231  27.504  1.00  0.00     0.281 C 
ATOM     21  C   UNL     1      21.039  29.557  26.146  1.00  0.00     0.180 C 
ATOM     22  C   UNL     1      21.260  28.442  27.148  1.00  0.00     0.202 C 
BRANCH  18  23
ATOM     23  C   UNL     1      23.986  28.225  24.149  1.00  0.00     0.191 C 
BRANCH  23  24
ATOM     24  O   UNL     1      23.308  27.967  22.935  1.00  0.00    -0.394 OA
ATOM     25  H   UNL     1      23.335  27.013  22.728  1.00  0.00     0.210 HD
ENDBRANCH  23  24
ENDBRANCH  18  23
BRANCH  20  26
ATOM     26  O   UNL     1      23.251  29.322  28.134  1.00  0.00    -0.350 OA
BRANCH  26  27
ATOM     27  C   UNL     1      23.820  29.066  29.361  1.00  0.00     0.169 C 
BRANCH  27  28
ATOM     28  C   UNL     1      23.120  28.046  30.195  1.00  0.00     0.119 C 
BRANCH  28  29
ATOM     29  N   UNL     1      24.126  27.499  31.120  1.00  0.00    -0.092 NA
ATOM     30  N   UNL     1      24.740  26.463  30.889  1.00  0.00     0.001 N 
ATOM     31  N   UNL     1      25.120  25.363  30.503  1.00  0.00    -0.003 NA
ENDBRANCH  28  29
ENDBRANCH  27  28
ENDBRANCH  26  27
ENDBRANCH  20  26
BRANCH  21  32
ATOM     32  O   UNL     1      20.803  30.764  26.766  1.00  0.00    -0.387 OA
ATOM     33  H   UNL     1      21.021  30.723  27.753  1.00  0.00     0.211 HD
ENDBRANCH  21  32
BRANCH  22  34
ATOM     34  O   UNL     1      20.661  27.289  26.697  1.00  0.00    -0.385 OA
ATOM     35  H   UNL     1      21.298  26.650  26.331  1.00  0.00     0.211 HD
ENDBRANCH  22  34
ENDBRANCH  16  17
ENDBRANCH  11  16
BRANCH  13  36
ATOM     36  O   UNL     1      23.666  33.157  23.016  1.00  0.00    -0.385 OA
ATOM     37  H   UNL     1      22.899  33.681  22.656  1.00  0.00     0.211 HD
ENDBRANCH  13  36
BRANCH  14  38
ATOM     38  O   UNL     1      22.735  30.108  21.378  1.00  0.00    -0.387 OA
ATOM     39  H   UNL     1      21.875  29.833  20.954  1.00  0.00     0.211 HD
ENDBRANCH  14  38
BRANCH  15  40
ATOM     40  O   UNL     1      20.359  30.877  21.320  1.00  0.00    -0.387 OA
ATOM     41  H   UNL     1      20.449  30.557  20.384  1.00  0.00     0.211 HD
ENDBRANCH  15  40
ENDBRANCH   9  10
ENDBRANCH   8   9
ENDBRANCH   3   8
BRANCH   3  42
ATOM     42  C   UNL     1      16.582  33.414  21.338  1.00  0.00     0.364 C 
ATOM     43  O   UNL     1      16.845  34.196  20.390  1.00  0.00    -0.246 OA
BRANCH  42  44
ATOM     44  O   UNL     1      15.439  33.665  22.078  1.00  0.00    -0.477 OA
ATOM     45  H   UNL     1      15.571  33.954  23.060  1.00  0.00     0.296 HD
ENDBRANCH  42  44
ENDBRANCH   3  42
BRANCH   6  46
ATOM     46  O   UNL     1      18.455  29.818  22.917  1.00  0.00    -0.391 OA
ATOM     47  H   UNL     1      18.448  28.842  22.732  1.00  0.00     0.211 HD
ENDBRANCH   6  46
BRANCH   7  48
ATOM     48  N   UNL     1      14.834  30.096  22.617  1.00  0.00    -0.348 N 
ATOM     49  C   UNL     1      13.678  29.345  22.207  1.00  0.00     0.217 C 
ATOM     50  H   UNL     1      14.628  30.882  23.270  1.00  0.00     0.163 HD
ATOM     51  C   UNL     1      12.326  29.725  22.723  1.00  0.00     0.114 C 
ATOM     52  O   UNL     1      13.835  28.391  21.427  1.00  0.00    -0.275 OA
ENDBRANCH   7  48
ENDBRANCH   1   2
BRANCH   1  53
ATOM     53  O   UNL     1      16.845  27.978  20.444  1.00  0.00    -0.388 OA
ATOM     54  H   UNL     1      17.613  27.747  21.011  1.00  0.00     0.211 HD
ENDBRANCH   1  53
BRANCH   1  55
ATOM     55  C   UNL     1      16.161  29.260  18.531  1.00  0.00     0.165 C 
BRANCH  55  56
ATOM     56  O   UNL     1      14.855  28.921  18.688  1.00  0.00    -0.388 OA
ATOM     57  H   UNL     1      14.268  29.610  19.056  1.00  0.00     0.211 HD
ENDBRANCH  55  56
BRANCH  55  58
ATOM     58  C   UNL     1      16.961  28.547  17.511  1.00  0.00     0.154 C 
BRANCH  58  59
ATOM     59  N   UNL     1      18.293  28.256  17.962  1.00  0.00    -0.319 N 
ATOM     60  C   UNL     1      19.448  28.358  17.155  1.00  0.00     0.407 C 
ATOM     61  H   UNL     1      18.449  27.942  18.960  1.00  0.00     0.167 HD
ATOM     62  O   UNL     1      19.393  28.716  15.969  1.00  0.00    -0.225 OA
BRANCH  60  63
ATOM     63  O   UNL     1      20.740  28.065  17.634  1.00  0.00    -0.443 OA
BRANCH  63  64
ATOM     64  C   UNL     1      21.166  28.594  18.877  1.00  0.00     0.294 C 
BRANCH  64  65
ATOM     65  C   UNL     1      21.248  27.572  19.934  1.00  0.00     0.120 A 
ATOM     66  C   UNL     1      21.951  26.399  19.964  1.00  0.00     0.138 A 
ATOM     67  N   UNL     1      20.577  27.643  21.100  1.00  0.00    -0.132 NA
ATOM     68  N   UNL     1      21.687  25.792  21.143  1.00  0.00    -0.248 N 
ATOM     69  N   UNL     1      20.852  26.566  21.812  1.00  0.00    -0.067 NA
BRANCH  68  70
ATOM     70  C   UNL     1      22.233  24.526  21.557  1.00  0.00     0.181 C 
BRANCH  70  71
ATOM     71  C   UNL     1      22.595  24.557  22.988  1.00  0.00    -0.026 A 
ATOM     72  C   UNL     1      23.922  24.546  23.363  1.00  0.00     0.006 A 
ATOM     73  C   UNL     1      21.603  24.578  23.964  1.00  0.00     0.006 A 
ATOM     74  C   UNL     1      24.191  24.558  24.720  1.00  0.00     0.016 A 
ATOM     75  C   UNL     1      21.878  24.587  25.313  1.00  0.00     0.016 A 
ATOM     76  C   UNL     1      23.202  24.577  25.684  1.00  0.00     0.059 A 
BRANCH  76  77
ATOM     77  C   UNL     1      23.553  24.583  27.095  1.00  0.00     0.335 C 
ATOM     78  O   UNL     1      22.766  24.124  27.935  1.00  0.00    -0.246 OA
BRANCH  77  79
ATOM     79  O   UNL     1      24.763  25.101  27.497  1.00  0.00    -0.478 OA
ATOM     80  H   UNL     1      25.349  24.641  28.191  1.00  0.00     0.297 HD
ENDBRANCH  77  79
ENDBRANCH  76  77
ENDBRANCH  70  71
ENDBRANCH  68  70
ENDBRANCH  64  65
ENDBRANCH  63  64
ENDBRANCH  60  63
ENDBRANCH  58  59
ENDBRANCH  55  58
ENDBRANCH   1  55
TORSDOF 33
