REMARK VINA RESULT:    -5.810      6.932     10.757
REMARK INTER + INTRA:         -23.706
REMARK INTER:                 -16.189
REMARK INTRA:                  -7.517
REMARK UNBOUND:                -7.877
REMARK SMILES CC(=O)N[C@@H]1[C@@H](O)C[C@](OC[C@H]2O[C@@H](O[C@H]3[C@H](O)[C@@H](O)[C@H](OCCN=[N+]=[N-])O[C@@H]3CO)[C@H](O)[C@@H](O)[C@H]2O)(C(=O)O)O[C@H]1C(O)[C@H](O)CNC(=O)OCc1cn(CC(O)CCc2ccccc2)nn1
REMARK SMILES IDX 43 1 42 2 9 3 8 4 41 5 6 6 5 7 10 8 11 9 12 10 14 11 13 12
REMARK SMILES IDX 32 13 34 14 36 15 15 16 16 17 29 18 28 19 21 20 17 21 19 22
REMARK SMILES IDX 30 23 31 24 22 26 23 27 24 28 25 29 26 30 27 31 18 32 20 34
REMARK SMILES IDX 33 36 35 38 37 40 38 42 39 43 40 44 7 46 4 48 2 49 1 51 3 52
REMARK SMILES IDX 44 53 45 55 46 56 47 58 48 59 49 60 50 62 51 63 52 64 53 65
REMARK SMILES IDX 54 66 68 67 55 68 67 69 56 70 57 71 58 72 59 74 60 75 61 76
REMARK SMILES IDX 62 77 66 78 63 79 65 80 64 81
REMARK H PARENT 31 25 18 33 20 35 33 37 35 39 37 41 40 45 7 47 4 50 44 54
REMARK H PARENT 46 57 48 61 58 73
REMARK Flexibility Score: inf
ROOT
ATOM      1  C   UNL     1      15.497  32.614  19.935  1.00  0.00     0.176 C 
ENDROOT
BRANCH   1   2
ATOM      2  C   UNL     1      15.941  31.186  20.302  1.00  0.00     0.178 C 
ATOM      3  C   UNL     1      15.678  29.227  18.990  1.00  0.00     0.272 C 
ATOM      4  C   UNL     1      14.309  29.118  19.574  1.00  0.00     0.113 C 
ATOM      5  O   UNL     1      16.148  30.499  19.177  1.00  0.00    -0.332 OA
ATOM      6  C   UNL     1      14.318  29.417  21.031  1.00  0.00     0.145 C 
ATOM      7  C   UNL     1      15.051  30.679  21.372  1.00  0.00     0.142 C 
BRANCH   3   8
ATOM      8  O   UNL     1      15.668  28.869  17.627  1.00  0.00    -0.338 OA
BRANCH   8   9
ATOM      9  C   UNL     1      15.000  29.687  16.788  1.00  0.00     0.199 C 
BRANCH   9  10
ATOM     10  C   UNL     1      15.842  30.013  15.532  1.00  0.00     0.179 C 
ATOM     11  C   UNL     1      17.789  29.624  14.434  1.00  0.00     0.282 C 
ATOM     12  O   UNL     1      17.093  29.516  15.611  1.00  0.00    -0.341 OA
ATOM     13  C   UNL     1      16.988  28.760  13.420  1.00  0.00     0.202 C 
ATOM     14  C   UNL     1      15.802  29.672  13.090  1.00  0.00     0.179 C 
ATOM     15  C   UNL     1      14.992  29.697  14.357  1.00  0.00     0.177 C 
BRANCH  11  16
ATOM     16  O   UNL     1      19.023  29.086  14.535  1.00  0.00    -0.341 OA
BRANCH  16  17
ATOM     17  C   UNL     1      19.796  29.363  15.639  1.00  0.00     0.184 C 
ATOM     18  C   UNL     1      20.348  30.749  15.653  1.00  0.00     0.178 C 
ATOM     19  O   UNL     1      21.697  30.883  15.747  1.00  0.00    -0.341 OA
ATOM     20  C   UNL     1      22.397  29.937  16.433  1.00  0.00     0.281 C 
ATOM     21  C   UNL     1      20.792  28.247  15.770  1.00  0.00     0.180 C 
ATOM     22  C   UNL     1      22.227  28.626  15.705  1.00  0.00     0.202 C 
BRANCH  18  23
ATOM     23  C   UNL     1      19.732  31.519  16.801  1.00  0.00     0.191 C 
BRANCH  23  24
ATOM     24  O   UNL     1      19.006  30.681  17.645  1.00  0.00    -0.394 OA
ATOM     25  H   UNL     1      18.828  29.847  17.115  1.00  0.00     0.210 HD
ENDBRANCH  23  24
ENDBRANCH  18  23
BRANCH  20  26
ATOM     26  O   UNL     1      22.067  29.849  17.775  1.00  0.00    -0.350 OA
BRANCH  26  27
ATOM     27  C   UNL     1      23.212  30.045  18.551  1.00  0.00     0.169 C 
BRANCH  27  28
ATOM     28  C   UNL     1      23.327  28.836  19.477  1.00  0.00     0.119 C 
BRANCH  28  29
ATOM     29  N   UNL     1      23.986  27.737  18.825  1.00  0.00    -0.092 NA
ATOM     30  N   UNL     1      23.315  26.741  18.484  1.00  0.00     0.001 N 
ATOM     31  N   UNL     1      22.708  25.656  18.412  1.00  0.00    -0.003 NA
ENDBRANCH  28  29
ENDBRANCH  27  28
ENDBRANCH  26  27
ENDBRANCH  20  26
BRANCH  21  32
ATOM     32  O   UNL     1      20.629  27.558  17.002  1.00  0.00    -0.387 OA
ATOM     33  H   UNL     1      19.681  27.479  17.257  1.00  0.00     0.211 HD
ENDBRANCH  21  32
BRANCH  22  34
ATOM     34  O   UNL     1      22.635  28.820  14.382  1.00  0.00    -0.385 OA
ATOM     35  H   UNL     1      21.933  28.597  13.738  1.00  0.00     0.211 HD
ENDBRANCH  22  34
ENDBRANCH  16  17
ENDBRANCH  11  16
BRANCH  13  36
ATOM     36  O   UNL     1      17.709  28.383  12.336  1.00  0.00    -0.385 OA
ATOM     37  H   UNL     1      18.609  28.049  12.479  1.00  0.00     0.211 HD
ENDBRANCH  13  36
BRANCH  14  38
ATOM     38  O   UNL     1      15.079  29.179  12.007  1.00  0.00    -0.387 OA
ATOM     39  H   UNL     1      15.420  28.297  11.739  1.00  0.00     0.211 HD
ENDBRANCH  14  38
BRANCH  15  40
ATOM     40  O   UNL     1      14.440  28.419  14.494  1.00  0.00    -0.387 OA
ATOM     41  H   UNL     1      14.674  28.019  15.364  1.00  0.00     0.211 HD
ENDBRANCH  15  40
ENDBRANCH   9  10
ENDBRANCH   8   9
ENDBRANCH   3   8
BRANCH   3  42
ATOM     42  C   UNL     1      16.549  28.196  19.606  1.00  0.00     0.364 C 
ATOM     43  O   UNL     1      16.343  26.981  19.329  1.00  0.00    -0.246 OA
BRANCH  42  44
ATOM     44  O   UNL     1      17.573  28.488  20.464  1.00  0.00    -0.477 OA
ATOM     45  H   UNL     1      18.363  27.863  20.530  1.00  0.00     0.296 HD
ENDBRANCH  42  44
ENDBRANCH   3  42
BRANCH   6  46
ATOM     46  O   UNL     1      12.951  29.488  21.415  1.00  0.00    -0.391 OA
ATOM     47  H   UNL     1      12.849  29.684  22.368  1.00  0.00     0.211 HD
ENDBRANCH   6  46
BRANCH   7  48
ATOM     48  N   UNL     1      15.706  30.625  22.654  1.00  0.00    -0.348 N 
ATOM     49  C   UNL     1      15.057  30.910  23.886  1.00  0.00     0.217 C 
ATOM     50  H   UNL     1      16.736  30.365  22.722  1.00  0.00     0.163 HD
ATOM     51  C   UNL     1      15.839  30.814  25.138  1.00  0.00     0.114 C 
ATOM     52  O   UNL     1      13.864  31.231  23.914  1.00  0.00    -0.275 OA
ENDBRANCH   7  48
ENDBRANCH   1   2
BRANCH   1  53
ATOM     53  O   UNL     1      14.225  32.589  19.397  1.00  0.00    -0.388 OA
ATOM     54  H   UNL     1      13.941  33.461  19.031  1.00  0.00     0.211 HD
ENDBRANCH   1  53
BRANCH   1  55
ATOM     55  C   UNL     1      16.504  33.415  19.201  1.00  0.00     0.165 C 
BRANCH  55  56
ATOM     56  O   UNL     1      16.833  32.797  18.021  1.00  0.00    -0.388 OA
ATOM     57  H   UNL     1      17.680  32.310  18.055  1.00  0.00     0.211 HD
ENDBRANCH  55  56
BRANCH  55  58
ATOM     58  C   UNL     1      17.709  33.560  20.102  1.00  0.00     0.154 C 
BRANCH  58  59
ATOM     59  N   UNL     1      18.527  32.418  20.265  1.00  0.00    -0.319 N 
ATOM     60  C   UNL     1      19.444  32.149  21.315  1.00  0.00     0.407 C 
ATOM     61  H   UNL     1      18.486  31.625  19.534  1.00  0.00     0.167 HD
ATOM     62  O   UNL     1      19.588  32.955  22.242  1.00  0.00    -0.225 OA
BRANCH  60  63
ATOM     63  O   UNL     1      20.196  30.984  21.326  1.00  0.00    -0.443 OA
BRANCH  63  64
ATOM     64  C   UNL     1      20.380  30.104  22.372  1.00  0.00     0.294 C 
BRANCH  64  65
ATOM     65  C   UNL     1      20.719  28.714  22.033  1.00  0.00     0.120 A 
ATOM     66  C   UNL     1      21.658  27.901  22.655  1.00  0.00     0.138 A 
ATOM     67  N   UNL     1      20.194  27.989  21.023  1.00  0.00    -0.132 NA
ATOM     68  N   UNL     1      21.654  26.745  21.997  1.00  0.00    -0.250 N 
ATOM     69  N   UNL     1      20.777  26.808  21.027  1.00  0.00    -0.067 NA
BRANCH  68  70
ATOM     70  C   UNL     1      22.546  25.608  22.347  1.00  0.00     0.177 C 
BRANCH  70  71
ATOM     71  C   UNL     1      21.665  24.542  22.904  1.00  0.00     0.136 C 
BRANCH  71  72
ATOM     72  O   UNL     1      20.387  24.566  22.321  1.00  0.00    -0.391 OA
ATOM     73  H   UNL     1      20.415  24.379  21.359  1.00  0.00     0.211 HD
ENDBRANCH  71  72
BRANCH  71  74
ATOM     74  C   UNL     1      21.568  24.508  24.378  1.00  0.00     0.038 C 
BRANCH  74  75
ATOM     75  C   UNL     1      22.688  24.862  25.243  1.00  0.00     0.038 C 
BRANCH  75  76
ATOM     76  C   UNL     1      22.449  25.399  26.565  1.00  0.00    -0.048 A 
ATOM     77  C   UNL     1      22.799  24.678  27.704  1.00  0.00     0.004 A 
ATOM     78  C   UNL     1      21.791  26.615  26.752  1.00  0.00     0.004 A 
ATOM     79  C   UNL     1      22.505  25.154  28.948  1.00  0.00     0.000 A 
ATOM     80  C   UNL     1      21.509  27.066  28.019  1.00  0.00     0.000 A 
ATOM     81  C   UNL     1      21.857  26.347  29.155  1.00  0.00     0.000 A 
ENDBRANCH  75  76
ENDBRANCH  74  75
ENDBRANCH  71  74
ENDBRANCH  70  71
ENDBRANCH  68  70
ENDBRANCH  64  65
ENDBRANCH  63  64
ENDBRANCH  60  63
ENDBRANCH  58  59
ENDBRANCH  55  58
ENDBRANCH   1  55
TORSDOF 35
