REMARK VINA RESULT:    -6.309      7.961     12.851
REMARK INTER + INTRA:         -22.271
REMARK INTER:                 -12.823
REMARK INTRA:                  -9.448
REMARK UNBOUND:                -5.634
REMARK SMILES CC(=O)N[C@@H]1[C@@H](O)C[C@](OC[C@H]2O[C@@H](O[C@H]3[C@H](O)[C@@H](O)[C@H](OCCN=[N+]=[N-])O[C@@H]3CO)[C@H](O)[C@@H](O)[C@H]2O)(C(=O)O)O[C@H]1C(O)[C@H](O)CNC(=O)OCc1cn(Cc2ccccc2OC(C)=O)nn1
REMARK SMILES IDX 43 1 42 2 9 3 8 4 41 5 6 6 5 7 10 8 11 9 12 10 14 11 13 12
REMARK SMILES IDX 32 13 34 14 36 15 15 16 16 17 29 18 28 19 21 20 17 21 19 22
REMARK SMILES IDX 30 23 31 24 22 26 23 27 24 28 25 29 26 30 27 31 18 32 20 34
REMARK SMILES IDX 33 36 35 38 37 40 38 42 39 43 40 44 7 46 4 48 2 49 1 51 3 52
REMARK SMILES IDX 44 53 45 55 46 56 47 58 48 59 49 60 50 62 51 63 52 64 53 65
REMARK SMILES IDX 54 66 68 67 55 68 67 69 56 70 57 71 62 72 58 73 61 74 59 75
REMARK SMILES IDX 60 76 63 77 64 78 66 79 65 80
REMARK H PARENT 31 25 18 33 20 35 33 37 35 39 37 41 40 45 7 47 4 50 44 54
REMARK H PARENT 46 57 48 61
REMARK Flexibility Score: inf
ROOT
ATOM      1  C   UNL     1      28.643  26.988  19.913  1.00  0.00     0.176 C 
ENDROOT
BRANCH   1   2
ATOM      2  C   UNL     1      28.187  25.700  20.579  1.00  0.00     0.178 C 
ATOM      3  C   UNL     1      28.301  23.386  20.316  1.00  0.00     0.272 C 
ATOM      4  C   UNL     1      27.161  23.518  21.320  1.00  0.00     0.113 C 
ATOM      5  O   UNL     1      28.545  24.660  19.750  1.00  0.00    -0.332 OA
ATOM      6  C   UNL     1      26.128  24.425  20.672  1.00  0.00     0.145 C 
ATOM      7  C   UNL     1      26.665  25.804  20.690  1.00  0.00     0.142 C 
BRANCH   3   8
ATOM      8  O   UNL     1      28.004  22.566  19.268  1.00  0.00    -0.338 OA
BRANCH   8   9
ATOM      9  C   UNL     1      27.955  21.225  19.479  1.00  0.00     0.199 C 
BRANCH   9  10
ATOM     10  C   UNL     1      27.980  20.534  18.104  1.00  0.00     0.179 C 
ATOM     11  C   UNL     1      27.731  20.979  15.863  1.00  0.00     0.282 C 
ATOM     12  O   UNL     1      27.840  21.566  17.170  1.00  0.00    -0.341 OA
ATOM     13  C   UNL     1      29.108  20.526  15.529  1.00  0.00     0.202 C 
ATOM     14  C   UNL     1      29.427  19.373  16.499  1.00  0.00     0.179 C 
ATOM     15  C   UNL     1      29.259  19.783  17.923  1.00  0.00     0.177 C 
BRANCH  11  16
ATOM     16  O   UNL     1      27.182  21.978  15.097  1.00  0.00    -0.341 OA
BRANCH  16  17
ATOM     17  C   UNL     1      25.851  21.683  14.749  1.00  0.00     0.184 C 
ATOM     18  C   UNL     1      25.624  21.544  13.290  1.00  0.00     0.178 C 
ATOM     19  O   UNL     1      24.485  22.224  12.846  1.00  0.00    -0.341 OA
ATOM     20  C   UNL     1      23.358  22.016  13.630  1.00  0.00     0.281 C 
ATOM     21  C   UNL     1      25.015  22.957  15.145  1.00  0.00     0.180 C 
ATOM     22  C   UNL     1      23.580  22.515  15.057  1.00  0.00     0.202 C 
BRANCH  18  23
ATOM     23  C   UNL     1      25.695  20.154  12.739  1.00  0.00     0.191 C 
BRANCH  23  24
ATOM     24  O   UNL     1      25.528  19.244  13.772  1.00  0.00    -0.394 OA
ATOM     25  H   UNL     1      24.724  19.459  14.291  1.00  0.00     0.210 HD
ENDBRANCH  23  24
ENDBRANCH  18  23
BRANCH  20  26
ATOM     26  O   UNL     1      23.033  20.708  13.698  1.00  0.00    -0.350 OA
BRANCH  26  27
ATOM     27  C   UNL     1      22.080  20.179  12.909  1.00  0.00     0.169 C 
BRANCH  27  28
ATOM     28  C   UNL     1      21.355  21.067  11.964  1.00  0.00     0.119 C 
BRANCH  28  29
ATOM     29  N   UNL     1      19.958  21.081  12.236  1.00  0.00    -0.092 NA
ATOM     30  N   UNL     1      19.225  20.152  11.978  1.00  0.00     0.001 N 
ATOM     31  N   UNL     1      18.642  19.066  11.917  1.00  0.00    -0.003 NA
ENDBRANCH  28  29
ENDBRANCH  27  28
ENDBRANCH  26  27
ENDBRANCH  20  26
BRANCH  21  32
ATOM     32  O   UNL     1      25.398  23.383  16.393  1.00  0.00    -0.387 OA
ATOM     33  H   UNL     1      26.245  23.928  16.326  1.00  0.00     0.211 HD
ENDBRANCH  21  32
BRANCH  22  34
ATOM     34  O   UNL     1      22.696  23.504  15.429  1.00  0.00    -0.385 OA
ATOM     35  H   UNL     1      22.922  24.317  14.893  1.00  0.00     0.211 HD
ENDBRANCH  22  34
ENDBRANCH  16  17
ENDBRANCH  11  16
BRANCH  13  36
ATOM     36  O   UNL     1      29.223  19.969  14.266  1.00  0.00    -0.385 OA
ATOM     37  H   UNL     1      29.771  20.487  13.640  1.00  0.00     0.211 HD
ENDBRANCH  13  36
BRANCH  14  38
ATOM     38  O   UNL     1      30.703  18.871  16.238  1.00  0.00    -0.387 OA
ATOM     39  H   UNL     1      30.695  18.575  15.283  1.00  0.00     0.211 HD
ENDBRANCH  14  38
BRANCH  15  40
ATOM     40  O   UNL     1      30.378  20.523  18.298  1.00  0.00    -0.387 OA
ATOM     41  H   UNL     1      31.206  20.216  17.882  1.00  0.00     0.211 HD
ENDBRANCH  15  40
ENDBRANCH   9  10
ENDBRANCH   8   9
ENDBRANCH   3   8
BRANCH   3  42
ATOM     42  C   UNL     1      29.487  22.979  21.100  1.00  0.00     0.364 C 
ATOM     43  O   UNL     1      30.599  22.845  20.594  1.00  0.00    -0.246 OA
BRANCH  42  44
ATOM     44  O   UNL     1      29.332  22.740  22.467  1.00  0.00    -0.477 OA
ATOM     45  H   UNL     1      29.486  21.804  22.870  1.00  0.00     0.296 HD
ENDBRANCH  42  44
ENDBRANCH   3  42
BRANCH   6  46
ATOM     46  O   UNL     1      26.041  24.008  19.340  1.00  0.00    -0.391 OA
ATOM     47  H   UNL     1      26.802  24.299  18.784  1.00  0.00     0.211 HD
ENDBRANCH   6  46
BRANCH   7  48
ATOM     48  N   UNL     1      26.302  26.638  21.759  1.00  0.00    -0.348 N 
ATOM     49  C   UNL     1      25.617  27.877  21.612  1.00  0.00     0.217 C 
ATOM     50  H   UNL     1      26.556  26.321  22.739  1.00  0.00     0.163 HD
ATOM     51  C   UNL     1      25.253  28.724  22.759  1.00  0.00     0.114 C 
ATOM     52  O   UNL     1      25.333  28.219  20.456  1.00  0.00    -0.275 OA
ENDBRANCH   7  48
ENDBRANCH   1   2
BRANCH   1  53
ATOM     53  O   UNL     1      29.810  27.369  20.549  1.00  0.00    -0.388 OA
ATOM     54  H   UNL     1      30.049  26.826  21.329  1.00  0.00     0.211 HD
ENDBRANCH   1  53
BRANCH   1  55
ATOM     55  C   UNL     1      28.731  26.899  18.426  1.00  0.00     0.165 C 
BRANCH  55  56
ATOM     56  O   UNL     1      30.069  27.085  18.067  1.00  0.00    -0.388 OA
ATOM     57  H   UNL     1      30.449  27.883  18.466  1.00  0.00     0.211 HD
ENDBRANCH  55  56
BRANCH  55  58
ATOM     58  C   UNL     1      27.838  27.890  17.720  1.00  0.00     0.154 C 
BRANCH  58  59
ATOM     59  N   UNL     1      26.454  27.545  17.716  1.00  0.00    -0.319 N 
ATOM     60  C   UNL     1      25.856  26.647  16.795  1.00  0.00     0.407 C 
ATOM     61  H   UNL     1      25.815  27.974  18.439  1.00  0.00     0.167 HD
ATOM     62  O   UNL     1      26.593  26.125  15.923  1.00  0.00    -0.225 OA
BRANCH  60  63
ATOM     63  O   UNL     1      24.520  26.322  16.803  1.00  0.00    -0.443 OA
BRANCH  63  64
ATOM     64  C   UNL     1      23.613  26.826  17.783  1.00  0.00     0.294 C 
BRANCH  64  65
ATOM     65  C   UNL     1      23.165  25.765  18.697  1.00  0.00     0.120 A 
ATOM     66  C   UNL     1      22.645  25.999  19.948  1.00  0.00     0.138 A 
ATOM     67  N   UNL     1      23.154  24.436  18.538  1.00  0.00    -0.132 NA
ATOM     68  N   UNL     1      22.336  24.831  20.513  1.00  0.00    -0.248 N 
ATOM     69  N   UNL     1      22.664  23.885  19.613  1.00  0.00    -0.067 NA
BRANCH  68  70
ATOM     70  C   UNL     1      21.775  24.540  21.818  1.00  0.00     0.185 C 
BRANCH  70  71
ATOM     71  C   UNL     1      22.646  25.004  22.903  1.00  0.00     0.016 A 
ATOM     72  C   UNL     1      22.328  26.064  23.680  1.00  0.00     0.135 A 
ATOM     73  C   UNL     1      23.829  24.288  23.112  1.00  0.00     0.009 A 
ATOM     74  C   UNL     1      23.202  26.436  24.703  1.00  0.00     0.047 A 
ATOM     75  C   UNL     1      24.679  24.663  24.119  1.00  0.00     0.001 A 
ATOM     76  C   UNL     1      24.374  25.738  24.922  1.00  0.00     0.004 A 
BRANCH  72  77
ATOM     77  O   UNL     1      21.176  26.802  23.511  1.00  0.00    -0.426 OA
BRANCH  77  78
ATOM     78  C   UNL     1      21.308  28.167  23.234  1.00  0.00     0.308 C 
ATOM     79  O   UNL     1      21.849  28.513  22.161  1.00  0.00    -0.252 OA
ATOM     80  C   UNL     1      20.817  29.159  24.195  1.00  0.00     0.139 C 
ENDBRANCH  77  78
ENDBRANCH  72  77
ENDBRANCH  70  71
ENDBRANCH  68  70
ENDBRANCH  64  65
ENDBRANCH  63  64
ENDBRANCH  60  63
ENDBRANCH  58  59
ENDBRANCH  55  58
ENDBRANCH   1  55
TORSDOF 33
