REMARK VINA RESULT:    -6.198     22.557     27.194
REMARK INTER + INTRA:         -21.220
REMARK INTER:                 -12.787
REMARK INTRA:                  -8.432
REMARK UNBOUND:                -5.964
REMARK SMILES CC(=O)N[C@@H]1[C@@H](O)C[C@](OC[C@H]2O[C@@H](O[C@H]3[C@H](O)[C@@H](O)[C@H](OCCN=[N+]=[N-])O[C@@H]3CO)[C@H](O)[C@@H](O)[C@H]2O)(C(=O)O)O[C@H]1C(O)[C@H](O)CNC(=O)OCc1cn(C2CCN(C)CC2)nn1
REMARK SMILES IDX 9 1 8 2 6 3 5 4 42 5 41 6 10 7 11 8 12 9 14 10 13 11 32 12
REMARK SMILES IDX 34 13 36 14 15 15 16 16 29 17 28 18 21 19 17 20 19 21 30 22
REMARK SMILES IDX 31 23 22 25 23 26 24 27 25 28 26 29 27 30 18 31 20 33 33 35
REMARK SMILES IDX 35 37 37 39 38 41 39 42 40 43 7 45 43 47 44 48 45 50 46 51
REMARK SMILES IDX 47 53 48 54 49 55 50 57 51 58 52 59 53 60 54 61 64 62 55 63
REMARK SMILES IDX 63 64 56 65 57 66 62 67 58 68 61 69 59 70 60 71 4 72 2 73
REMARK SMILES IDX 1 75 3 76
REMARK H PARENT 31 24 18 32 20 34 33 36 35 38 37 40 40 44 7 46 44 49 46 52
REMARK H PARENT 48 56 4 74
REMARK Flexibility Score: inf
ROOT
ATOM      1  C   UNL     1       6.879  27.132  34.086  1.00  0.00     0.272 C 
ATOM      2  C   UNL     1       6.388  27.169  35.522  1.00  0.00     0.113 C 
ATOM      3  C   UNL     1       5.439  26.116  35.916  1.00  0.00     0.145 C 
ATOM      4  C   UNL     1       5.729  24.749  35.335  1.00  0.00     0.142 C 
ATOM      5  C   UNL     1       6.568  24.792  34.117  1.00  0.00     0.178 C 
ATOM      6  O   UNL     1       7.390  25.809  33.890  1.00  0.00    -0.332 OA
ENDROOT
BRANCH   1   7
ATOM      7  O   UNL     1       7.988  27.883  33.999  1.00  0.00    -0.338 OA
BRANCH   7   8
ATOM      8  C   UNL     1       9.247  27.607  33.974  1.00  0.00     0.199 C 
BRANCH   8   9
ATOM      9  C   UNL     1      10.200  27.911  35.089  1.00  0.00     0.179 C 
ATOM     10  C   UNL     1      10.879  25.838  36.061  1.00  0.00     0.282 C 
ATOM     11  O   UNL     1      10.055  26.911  36.011  1.00  0.00    -0.341 OA
ATOM     12  C   UNL     1      11.899  25.796  35.008  1.00  0.00     0.202 C 
ATOM     13  C   UNL     1      12.612  27.157  35.064  1.00  0.00     0.179 C 
ATOM     14  C   UNL     1      11.602  28.162  34.643  1.00  0.00     0.177 C 
BRANCH  10  15
ATOM     15  O   UNL     1      10.020  24.754  36.185  1.00  0.00    -0.341 OA
BRANCH  15  16
ATOM     16  C   UNL     1       9.878  24.208  37.393  1.00  0.00     0.184 C 
ATOM     17  C   UNL     1       9.994  22.723  37.338  1.00  0.00     0.178 C 
ATOM     18  O   UNL     1      10.262  22.250  38.628  1.00  0.00    -0.341 OA
ATOM     19  C   UNL     1       9.167  22.450  39.436  1.00  0.00     0.281 C 
ATOM     20  C   UNL     1       8.498  24.444  38.027  1.00  0.00     0.180 C 
ATOM     21  C   UNL     1       8.618  23.852  39.428  1.00  0.00     0.202 C 
BRANCH  17  22
ATOM     22  C   UNL     1      10.952  22.195  36.327  1.00  0.00     0.191 C 
BRANCH  22  23
ATOM     23  O   UNL     1      12.227  22.644  36.640  1.00  0.00    -0.394 OA
ATOM     24  H   UNL     1      12.327  23.618  36.485  1.00  0.00     0.210 HD
ENDBRANCH  22  23
ENDBRANCH  17  22
BRANCH  19  25
ATOM     25  O   UNL     1       9.596  22.214  40.749  1.00  0.00    -0.350 OA
BRANCH  25  26
ATOM     26  C   UNL     1      10.460  23.160  41.237  1.00  0.00     0.169 C 
BRANCH  26  27
ATOM     27  C   UNL     1      11.673  22.575  41.931  1.00  0.00     0.119 C 
BRANCH  27  28
ATOM     28  N   UNL     1      12.873  22.779  41.142  1.00  0.00    -0.092 NA
ATOM     29  N   UNL     1      12.938  23.684  40.312  1.00  0.00     0.001 N 
ATOM     30  N   UNL     1      12.984  24.197  39.192  1.00  0.00    -0.003 NA
ENDBRANCH  27  28
ENDBRANCH  26  27
ENDBRANCH  25  26
ENDBRANCH  19  25
BRANCH  20  31
ATOM     31  O   UNL     1       8.197  25.770  38.186  1.00  0.00    -0.387 OA
ATOM     32  H   UNL     1       8.134  26.193  37.302  1.00  0.00     0.211 HD
ENDBRANCH  20  31
BRANCH  21  33
ATOM     33  O   UNL     1       7.391  23.888  40.042  1.00  0.00    -0.385 OA
ATOM     34  H   UNL     1       7.320  23.274  40.791  1.00  0.00     0.211 HD
ENDBRANCH  21  33
ENDBRANCH  15  16
ENDBRANCH  10  15
BRANCH  12  35
ATOM     35  O   UNL     1      12.933  24.887  35.224  1.00  0.00    -0.385 OA
ATOM     36  H   UNL     1      12.594  23.960  35.157  1.00  0.00     0.211 HD
ENDBRANCH  12  35
BRANCH  13  37
ATOM     37  O   UNL     1      13.751  27.188  34.299  1.00  0.00    -0.387 OA
ATOM     38  H   UNL     1      14.037  26.252  34.145  1.00  0.00     0.211 HD
ENDBRANCH  13  37
BRANCH  14  39
ATOM     39  O   UNL     1      11.624  28.253  33.254  1.00  0.00    -0.387 OA
ATOM     40  H   UNL     1      12.389  28.770  32.911  1.00  0.00     0.211 HD
ENDBRANCH  14  39
ENDBRANCH   8   9
ENDBRANCH   7   8
ENDBRANCH   1   7
BRANCH   1  41
ATOM     41  C   UNL     1       5.747  27.325  33.192  1.00  0.00     0.364 C 
ATOM     42  O   UNL     1       4.902  28.258  33.510  1.00  0.00    -0.246 OA
BRANCH  41  43
ATOM     43  O   UNL     1       5.396  26.677  32.038  1.00  0.00    -0.477 OA
ATOM     44  H   UNL     1       5.661  25.718  31.813  1.00  0.00     0.296 HD
ENDBRANCH  41  43
ENDBRANCH   1  41
BRANCH   3  45
ATOM     45  O   UNL     1       5.439  26.009  37.339  1.00  0.00    -0.391 OA
ATOM     46  H   UNL     1       5.355  26.892  37.756  1.00  0.00     0.211 HD
ENDBRANCH   3  45
BRANCH   5  47
ATOM     47  C   UNL     1       7.408  23.491  33.983  1.00  0.00     0.176 C 
BRANCH  47  48
ATOM     48  O   UNL     1       8.755  23.825  33.941  1.00  0.00    -0.388 OA
ATOM     49  H   UNL     1       9.313  23.126  33.540  1.00  0.00     0.211 HD
ENDBRANCH  47  48
BRANCH  47  50
ATOM     50  C   UNL     1       6.998  22.729  32.809  1.00  0.00     0.165 C 
BRANCH  50  51
ATOM     51  O   UNL     1       6.085  23.584  32.076  1.00  0.00    -0.388 OA
ATOM     52  H   UNL     1       5.170  23.437  32.414  1.00  0.00     0.211 HD
ENDBRANCH  50  51
BRANCH  50  53
ATOM     53  C   UNL     1       6.342  21.422  32.946  1.00  0.00     0.154 C 
BRANCH  53  54
ATOM     54  N   UNL     1       4.958  21.239  32.830  1.00  0.00    -0.319 N 
ATOM     55  C   UNL     1       4.239  20.807  31.689  1.00  0.00     0.407 C 
ATOM     56  H   UNL     1       4.361  21.449  33.702  1.00  0.00     0.167 HD
ATOM     57  O   UNL     1       4.822  20.497  30.632  1.00  0.00    -0.225 OA
BRANCH  55  58
ATOM     58  O   UNL     1       2.830  20.733  31.771  1.00  0.00    -0.443 OA
BRANCH  58  59
ATOM     59  C   UNL     1       2.131  21.791  32.376  1.00  0.00     0.294 C 
BRANCH  59  60
ATOM     60  C   UNL     1       2.504  23.055  31.699  1.00  0.00     0.120 A 
ATOM     61  C   UNL     1       2.051  23.476  30.436  1.00  0.00     0.138 A 
ATOM     62  N   UNL     1       3.305  24.053  32.097  1.00  0.00    -0.132 NA
ATOM     63  N   UNL     1       2.583  24.674  30.138  1.00  0.00    -0.249 N 
ATOM     64  N   UNL     1       3.335  24.998  31.157  1.00  0.00    -0.067 NA
BRANCH  63  65
ATOM     65  C   UNL     1       2.359  25.436  28.933  1.00  0.00     0.111 C 
ATOM     66  C   UNL     1       3.627  25.399  28.128  1.00  0.00     0.043 C 
ATOM     67  C   UNL     1       1.231  24.881  28.108  1.00  0.00     0.043 C 
ATOM     68  C   UNL     1       3.466  24.421  26.987  1.00  0.00     0.086 C 
ATOM     69  C   UNL     1       1.270  25.331  26.673  1.00  0.00     0.086 C 
ATOM     70  N   UNL     1       2.527  25.009  26.031  1.00  0.00    -0.306 NA
ATOM     71  C   UNL     1       3.127  26.229  25.521  1.00  0.00     0.105 C 
ENDBRANCH  63  65
ENDBRANCH  59  60
ENDBRANCH  58  59
ENDBRANCH  55  58
ENDBRANCH  53  54
ENDBRANCH  50  53
ENDBRANCH  47  50
ENDBRANCH   5  47
BRANCH   4  72
ATOM     72  N   UNL     1       4.511  23.994  35.114  1.00  0.00    -0.348 N 
ATOM     73  C   UNL     1       4.028  23.146  36.137  1.00  0.00     0.217 C 
ATOM     74  H   UNL     1       3.970  24.053  34.217  1.00  0.00     0.163 HD
ATOM     75  C   UNL     1       2.776  22.342  35.959  1.00  0.00     0.114 C 
ATOM     76  O   UNL     1       4.661  23.056  37.238  1.00  0.00    -0.275 OA
ENDBRANCH   4  72
TORSDOF 30
