REMARK VINA RESULT:    -5.636      7.437     10.890
REMARK INTER + INTRA:         -21.017
REMARK INTER:                 -12.641
REMARK INTRA:                  -8.376
REMARK UNBOUND:                -7.145
REMARK SMILES CC(=O)N[C@@H]1[C@@H](O)C[C@](OC[C@H]2O[C@@H](O[C@H]3[C@H](O)[C@@H](O)[C@H](OCCN=[N+]=[N-])O[C@@H]3CO)[C@H](O)[C@@H](O)[C@H]2O)(C(=O)O)O[C@H]1C(O)[C@H](O)CNC(=O)OCc1cn(-c2ccccc2Br)nn1
REMARK SMILES IDX 9 1 8 2 6 3 5 4 42 5 41 6 10 7 11 8 12 9 14 10 13 11 32 12
REMARK SMILES IDX 34 13 36 14 15 15 16 16 29 17 28 18 21 19 17 20 19 21 30 22
REMARK SMILES IDX 31 23 22 25 23 26 24 27 25 28 26 29 27 30 18 31 20 33 33 35
REMARK SMILES IDX 35 37 37 39 38 41 39 42 40 43 7 45 43 47 44 48 45 50 46 51
REMARK SMILES IDX 47 53 48 54 49 55 50 57 51 58 52 59 53 60 54 61 64 62 55 63
REMARK SMILES IDX 63 64 56 65 57 66 61 67 58 68 60 69 62 70 59 71 4 72 2 73
REMARK SMILES IDX 1 75 3 76
REMARK H PARENT 31 24 18 32 20 34 33 36 35 38 37 40 40 44 7 46 44 49 46 52
REMARK H PARENT 48 56 4 74
REMARK Flexibility Score: inf
ROOT
ATOM      1  C   UNL     1      23.413  26.115  24.217  1.00  0.00     0.272 C 
ATOM      2  C   UNL     1      22.106  26.640  23.756  1.00  0.00     0.113 C 
ATOM      3  C   UNL     1      21.485  27.557  24.758  1.00  0.00     0.145 C 
ATOM      4  C   UNL     1      22.399  28.554  25.376  1.00  0.00     0.142 C 
ATOM      5  C   UNL     1      23.832  28.249  25.111  1.00  0.00     0.178 C 
ATOM      6  O   UNL     1      24.186  26.947  24.999  1.00  0.00    -0.332 OA
ENDROOT
BRANCH   1   7
ATOM      7  O   UNL     1      24.273  25.695  23.219  1.00  0.00    -0.338 OA
BRANCH   7   8
ATOM      8  C   UNL     1      24.222  24.393  22.853  1.00  0.00     0.199 C 
BRANCH   8   9
ATOM      9  C   UNL     1      23.803  24.359  21.362  1.00  0.00     0.179 C 
ATOM     10  C   UNL     1      22.350  25.498  19.972  1.00  0.00     0.282 C 
ATOM     11  O   UNL     1      22.577  24.873  21.168  1.00  0.00    -0.341 OA
ATOM     12  C   UNL     1      23.012  24.798  18.806  1.00  0.00     0.202 C 
ATOM     13  C   UNL     1      24.500  24.645  19.043  1.00  0.00     0.179 C 
ATOM     14  C   UNL     1      24.853  24.922  20.491  1.00  0.00     0.177 C 
BRANCH  10  15
ATOM     15  O   UNL     1      22.636  26.855  20.007  1.00  0.00    -0.341 OA
BRANCH  15  16
ATOM     16  C   UNL     1      21.701  27.653  19.390  1.00  0.00     0.184 C 
ATOM     17  C   UNL     1      22.285  28.780  18.574  1.00  0.00     0.178 C 
ATOM     18  O   UNL     1      21.282  29.204  17.716  1.00  0.00    -0.341 OA
ATOM     19  C   UNL     1      20.141  29.626  18.319  1.00  0.00     0.281 C 
ATOM     20  C   UNL     1      20.812  28.349  20.414  1.00  0.00     0.180 C 
ATOM     21  C   UNL     1      19.960  29.352  19.753  1.00  0.00     0.202 C 
BRANCH  17  22
ATOM     22  C   UNL     1      23.495  28.412  17.781  1.00  0.00     0.191 C 
BRANCH  22  23
ATOM     23  O   UNL     1      24.580  28.275  18.644  1.00  0.00    -0.394 OA
ATOM     24  H   UNL     1      24.857  27.343  18.681  1.00  0.00     0.210 HD
ENDBRANCH  22  23
ENDBRANCH  17  22
BRANCH  19  25
ATOM     25  O   UNL     1      19.074  29.023  17.612  1.00  0.00    -0.350 OA
BRANCH  25  26
ATOM     26  C   UNL     1      17.951  28.843  18.369  1.00  0.00     0.169 C 
BRANCH  26  27
ATOM     27  C   UNL     1      16.723  29.545  17.878  1.00  0.00     0.119 C 
BRANCH  27  28
ATOM     28  N   UNL     1      16.213  30.342  18.984  1.00  0.00    -0.092 NA
ATOM     29  N   UNL     1      16.899  31.230  19.467  1.00  0.00     0.001 N 
ATOM     30  N   UNL     1      17.540  32.171  19.920  1.00  0.00    -0.003 NA
ENDBRANCH  27  28
ENDBRANCH  26  27
ENDBRANCH  25  26
ENDBRANCH  19  25
BRANCH  20  31
ATOM     31  O   UNL     1      20.029  27.442  21.110  1.00  0.00    -0.387 OA
ATOM     32  H   UNL     1      19.081  27.458  20.842  1.00  0.00     0.211 HD
ENDBRANCH  20  31
BRANCH  21  33
ATOM     33  O   UNL     1      20.098  30.547  20.520  1.00  0.00    -0.385 OA
ATOM     34  H   UNL     1      20.958  30.988  20.332  1.00  0.00     0.211 HD
ENDBRANCH  21  33
ENDBRANCH  15  16
ENDBRANCH  10  15
BRANCH  12  35
ATOM     35  O   UNL     1      22.394  23.580  18.521  1.00  0.00    -0.385 OA
ATOM     36  H   UNL     1      21.673  23.379  19.168  1.00  0.00     0.211 HD
ENDBRANCH  12  35
BRANCH  13  37
ATOM     37  O   UNL     1      25.226  25.406  18.148  1.00  0.00    -0.387 OA
ATOM     38  H   UNL     1      24.646  25.775  17.452  1.00  0.00     0.211 HD
ENDBRANCH  13  37
BRANCH  14  39
ATOM     39  O   UNL     1      25.038  26.288  20.628  1.00  0.00    -0.387 OA
ATOM     40  H   UNL     1      25.794  26.517  21.222  1.00  0.00     0.211 HD
ENDBRANCH  14  39
ENDBRANCH   8   9
ENDBRANCH   7   8
ENDBRANCH   1   7
BRANCH   1  41
ATOM     41  C   UNL     1      23.088  24.956  25.142  1.00  0.00     0.364 C 
ATOM     42  O   UNL     1      23.959  24.654  25.986  1.00  0.00    -0.246 OA
BRANCH  41  43
ATOM     43  O   UNL     1      21.922  24.252  25.091  1.00  0.00    -0.477 OA
ATOM     44  H   UNL     1      21.628  23.796  24.213  1.00  0.00     0.296 HD
ENDBRANCH  41  43
ENDBRANCH   1  41
BRANCH   3  45
ATOM     45  O   UNL     1      20.383  28.195  24.143  1.00  0.00    -0.391 OA
ATOM     46  H   UNL     1      20.738  28.980  23.643  1.00  0.00     0.211 HD
ENDBRANCH   3  45
BRANCH   5  47
ATOM     47  C   UNL     1      24.409  29.166  24.033  1.00  0.00     0.176 C 
BRANCH  47  48
ATOM     48  O   UNL     1      24.589  30.460  24.455  1.00  0.00    -0.388 OA
ATOM     49  H   UNL     1      23.797  30.793  24.971  1.00  0.00     0.211 HD
ENDBRANCH  47  48
BRANCH  47  50
ATOM     50  C   UNL     1      23.504  29.199  22.791  1.00  0.00     0.165 C 
BRANCH  50  51
ATOM     51  O   UNL     1      24.174  28.576  21.770  1.00  0.00    -0.388 OA
ATOM     52  H   UNL     1      24.886  29.078  21.336  1.00  0.00     0.211 HD
ENDBRANCH  50  51
BRANCH  50  53
ATOM     53  C   UNL     1      23.156  30.609  22.439  1.00  0.00     0.154 C 
BRANCH  53  54
ATOM     54  N   UNL     1      21.851  30.971  22.875  1.00  0.00    -0.319 N 
ATOM     55  C   UNL     1      21.501  31.823  23.943  1.00  0.00     0.407 C 
ATOM     56  H   UNL     1      21.020  30.559  22.342  1.00  0.00     0.167 HD
ATOM     57  O   UNL     1      22.372  32.371  24.626  1.00  0.00    -0.225 OA
BRANCH  55  58
ATOM     58  O   UNL     1      20.163  32.064  24.251  1.00  0.00    -0.443 OA
BRANCH  58  59
ATOM     59  C   UNL     1      19.144  32.255  23.298  1.00  0.00     0.294 C 
BRANCH  59  60
ATOM     60  C   UNL     1      18.065  31.228  23.452  1.00  0.00     0.121 A 
ATOM     61  C   UNL     1      16.698  31.501  23.384  1.00  0.00     0.144 A 
ATOM     62  N   UNL     1      18.166  29.929  23.684  1.00  0.00    -0.131 NA
ATOM     63  N   UNL     1      16.051  30.343  23.580  1.00  0.00    -0.219 N 
ATOM     64  N   UNL     1      16.940  29.398  23.760  1.00  0.00    -0.062 NA
BRANCH  63  65
ATOM     65  C   UNL     1      14.647  30.155  23.596  1.00  0.00     0.081 A 
ATOM     66  C   UNL     1      13.961  29.732  22.479  1.00  0.00     0.029 A 
ATOM     67  C   UNL     1      13.934  30.393  24.741  1.00  0.00     0.043 A 
ATOM     68  C   UNL     1      12.581  29.557  22.534  1.00  0.00     0.002 A 
ATOM     69  C   UNL     1      12.572  30.223  24.801  1.00  0.00     0.018 A 
ATOM     70  Br  UNL     1      14.844  30.985  26.306  1.00  0.00    -0.048 Br
ATOM     71  C   UNL     1      11.876  29.800  23.693  1.00  0.00     0.001 A 
ENDBRANCH  63  65
ENDBRANCH  59  60
ENDBRANCH  58  59
ENDBRANCH  55  58
ENDBRANCH  53  54
ENDBRANCH  50  53
ENDBRANCH  47  50
ENDBRANCH   5  47
BRANCH   4  72
ATOM     72  N   UNL     1      22.178  28.727  26.794  1.00  0.00    -0.348 N 
ATOM     73  C   UNL     1      21.031  29.397  27.284  1.00  0.00     0.217 C 
ATOM     74  H   UNL     1      22.865  28.356  27.479  1.00  0.00     0.163 HD
ATOM     75  C   UNL     1      20.882  29.531  28.765  1.00  0.00     0.114 C 
ATOM     76  O   UNL     1      20.163  29.869  26.526  1.00  0.00    -0.275 OA
ENDBRANCH   4  72
TORSDOF 30
