REMARK VINA RESULT:    -6.445      4.389     10.455
REMARK INTER + INTRA:         -22.512
REMARK INTER:                 -14.426
REMARK INTRA:                  -8.086
REMARK UNBOUND:                -6.272
REMARK SMILES CC(=O)N[C@@H]1[C@@H](O)C[C@](OC[C@H]2O[C@@H](O[C@H]3[C@H](O)[C@@H](O)[C@H](OCCN=[N+]=[N-])O[C@@H]3CO)[C@H](O)[C@@H](O)[C@H]2O)(C(=O)O)O[C@H]1C(O)[C@H](O)CNC(=O)OCc1cn(Cc2cccc(Br)c2)nn1
REMARK SMILES IDX 9 1 8 2 6 3 5 4 42 5 41 6 10 7 11 8 12 9 14 10 13 11 32 12
REMARK SMILES IDX 34 13 36 14 15 15 16 16 29 17 28 18 21 19 17 20 19 21 30 22
REMARK SMILES IDX 31 23 22 25 23 26 24 27 25 28 26 29 27 30 18 31 20 33 33 35
REMARK SMILES IDX 35 37 37 39 38 41 39 42 40 43 7 45 43 47 44 48 45 50 46 51
REMARK SMILES IDX 47 53 48 54 49 55 50 57 51 58 52 59 53 60 54 61 65 62 55 63
REMARK SMILES IDX 64 64 56 65 57 66 58 67 63 68 59 69 61 70 60 71 62 72 4 73
REMARK SMILES IDX 2 74 1 76 3 77
REMARK H PARENT 31 24 18 32 20 34 33 36 35 38 37 40 40 44 7 46 44 49 46 52
REMARK H PARENT 48 56 4 75
REMARK Flexibility Score: inf
ROOT
ATOM      1  C   UNL     1      25.051  25.725  20.454  1.00  0.00     0.272 C 
ATOM      2  C   UNL     1      24.509  24.372  20.717  1.00  0.00     0.113 C 
ATOM      3  C   UNL     1      23.188  24.343  21.416  1.00  0.00     0.145 C 
ATOM      4  C   UNL     1      23.006  25.494  22.380  1.00  0.00     0.142 C 
ATOM      5  C   UNL     1      23.727  26.715  22.020  1.00  0.00     0.178 C 
ATOM      6  O   UNL     1      24.244  26.784  20.764  1.00  0.00    -0.332 OA
ENDROOT
BRANCH   1   7
ATOM      7  O   UNL     1      25.432  25.807  19.078  1.00  0.00    -0.338 OA
BRANCH   7   8
ATOM      8  C   UNL     1      25.260  24.628  18.414  1.00  0.00     0.199 C 
BRANCH   8   9
ATOM      9  C   UNL     1      24.287  24.811  17.230  1.00  0.00     0.179 C 
ATOM     10  C   UNL     1      22.327  26.021  16.803  1.00  0.00     0.282 C 
ATOM     11  O   UNL     1      23.182  25.405  17.747  1.00  0.00    -0.341 OA
ATOM     12  C   UNL     1      22.639  25.618  15.417  1.00  0.00     0.202 C 
ATOM     13  C   UNL     1      24.091  25.849  15.041  1.00  0.00     0.179 C 
ATOM     14  C   UNL     1      24.975  25.759  16.272  1.00  0.00     0.177 C 
BRANCH  10  15
ATOM     15  O   UNL     1      22.400  27.357  17.114  1.00  0.00    -0.341 OA
BRANCH  15  16
ATOM     16  C   UNL     1      21.274  27.953  17.555  1.00  0.00     0.184 C 
ATOM     17  C   UNL     1      21.288  29.403  17.145  1.00  0.00     0.178 C 
ATOM     18  O   UNL     1      20.052  29.966  17.449  1.00  0.00    -0.341 OA
ATOM     19  C   UNL     1      19.791  30.020  18.820  1.00  0.00     0.281 C 
ATOM     20  C   UNL     1      21.150  27.998  19.075  1.00  0.00     0.180 C 
ATOM     21  C   UNL     1      19.758  28.597  19.324  1.00  0.00     0.202 C 
BRANCH  17  22
ATOM     22  C   UNL     1      21.484  29.499  15.670  1.00  0.00     0.191 C 
BRANCH  22  23
ATOM     23  O   UNL     1      20.733  28.546  15.007  1.00  0.00    -0.394 OA
ATOM     24  H   UNL     1      19.997  28.268  15.611  1.00  0.00     0.210 HD
ENDBRANCH  22  23
ENDBRANCH  17  22
BRANCH  19  25
ATOM     25  O   UNL     1      18.582  30.671  18.955  1.00  0.00    -0.350 OA
BRANCH  25  26
ATOM     26  C   UNL     1      17.709  30.509  17.916  1.00  0.00     0.169 C 
BRANCH  26  27
ATOM     27  C   UNL     1      16.266  30.335  18.333  1.00  0.00     0.119 C 
BRANCH  27  28
ATOM     28  N   UNL     1      15.952  28.930  18.208  1.00  0.00    -0.092 NA
ATOM     29  N   UNL     1      16.255  28.080  19.033  1.00  0.00     0.001 N 
ATOM     30  N   UNL     1      16.482  27.330  19.979  1.00  0.00    -0.003 NA
ENDBRANCH  27  28
ENDBRANCH  26  27
ENDBRANCH  25  26
ENDBRANCH  19  25
BRANCH  20  31
ATOM     31  O   UNL     1      21.184  26.771  19.672  1.00  0.00    -0.387 OA
ATOM     32  H   UNL     1      21.968  26.219  19.456  1.00  0.00     0.211 HD
ENDBRANCH  20  31
BRANCH  21  33
ATOM     33  O   UNL     1      19.504  28.476  20.665  1.00  0.00    -0.385 OA
ATOM     34  H   UNL     1      18.946  27.662  20.883  1.00  0.00     0.211 HD
ENDBRANCH  21  33
ENDBRANCH  15  16
ENDBRANCH  10  15
BRANCH  12  35
ATOM     35  O   UNL     1      22.381  24.226  15.315  1.00  0.00    -0.385 OA
ATOM     36  H   UNL     1      22.246  23.991  14.361  1.00  0.00     0.211 HD
ENDBRANCH  12  35
BRANCH  13  37
ATOM     37  O   UNL     1      24.276  27.032  14.331  1.00  0.00    -0.387 OA
ATOM     38  H   UNL     1      23.522  27.664  14.566  1.00  0.00     0.211 HD
ENDBRANCH  13  37
BRANCH  14  39
ATOM     39  O   UNL     1      25.161  26.963  16.911  1.00  0.00    -0.387 OA
ATOM     40  H   UNL     1      24.300  27.279  17.324  1.00  0.00     0.211 HD
ENDBRANCH  14  39
ENDBRANCH   8   9
ENDBRANCH   7   8
ENDBRANCH   1   7
BRANCH   1  41
ATOM     41  C   UNL     1      26.346  25.880  21.182  1.00  0.00     0.364 C 
ATOM     42  O   UNL     1      27.067  26.914  20.951  1.00  0.00    -0.246 OA
BRANCH  41  43
ATOM     43  O   UNL     1      26.862  25.005  22.097  1.00  0.00    -0.477 OA
ATOM     44  H   UNL     1      27.515  25.377  22.799  1.00  0.00     0.296 HD
ENDBRANCH  41  43
ENDBRANCH   1  41
BRANCH   3  45
ATOM     45  O   UNL     1      22.136  24.213  20.521  1.00  0.00    -0.391 OA
ATOM     46  H   UNL     1      21.945  23.285  20.262  1.00  0.00     0.211 HD
ENDBRANCH   3  45
BRANCH   5  47
ATOM     47  C   UNL     1      22.911  27.989  22.298  1.00  0.00     0.176 C 
BRANCH  47  48
ATOM     48  O   UNL     1      21.568  27.513  22.584  1.00  0.00    -0.388 OA
ATOM     49  H   UNL     1      21.374  27.798  23.513  1.00  0.00     0.211 HD
ENDBRANCH  47  48
BRANCH  47  50
ATOM     50  C   UNL     1      23.340  28.764  23.489  1.00  0.00     0.165 C 
BRANCH  50  51
ATOM     51  O   UNL     1      24.473  28.031  24.005  1.00  0.00    -0.388 OA
ATOM     52  H   UNL     1      24.320  27.905  24.991  1.00  0.00     0.211 HD
ENDBRANCH  50  51
BRANCH  50  53
ATOM     53  C   UNL     1      22.410  28.828  24.654  1.00  0.00     0.154 C 
BRANCH  53  54
ATOM     54  N   UNL     1      21.424  29.893  24.562  1.00  0.00    -0.319 N 
ATOM     55  C   UNL     1      20.048  29.556  24.529  1.00  0.00     0.407 C 
ATOM     56  H   UNL     1      21.700  30.890  24.522  1.00  0.00     0.167 HD
ATOM     57  O   UNL     1      19.691  28.345  24.573  1.00  0.00    -0.225 OA
BRANCH  55  58
ATOM     58  O   UNL     1      19.064  30.541  24.449  1.00  0.00    -0.443 OA
BRANCH  58  59
ATOM     59  C   UNL     1      18.482  30.815  23.167  1.00  0.00     0.294 C 
BRANCH  59  60
ATOM     60  C   UNL     1      17.137  30.196  23.126  1.00  0.00     0.120 A 
ATOM     61  C   UNL     1      16.273  30.099  22.064  1.00  0.00     0.138 A 
ATOM     62  N   UNL     1      16.541  29.610  24.172  1.00  0.00    -0.132 NA
ATOM     63  N   UNL     1      15.175  29.455  22.505  1.00  0.00    -0.248 N 
ATOM     64  N   UNL     1      15.360  29.170  23.785  1.00  0.00    -0.067 NA
BRANCH  63  65
ATOM     65  C   UNL     1      14.005  29.142  21.690  1.00  0.00     0.181 C 
BRANCH  65  66
ATOM     66  C   UNL     1      13.079  30.301  21.608  1.00  0.00    -0.025 A 
ATOM     67  C   UNL     1      13.033  31.084  20.472  1.00  0.00     0.006 A 
ATOM     68  C   UNL     1      12.238  30.656  22.633  1.00  0.00     0.021 A 
ATOM     69  C   UNL     1      12.201  32.172  20.335  1.00  0.00     0.002 A 
ATOM     70  C   UNL     1      11.394  31.738  22.529  1.00  0.00     0.018 A 
ATOM     71  C   UNL     1      11.353  32.511  21.398  1.00  0.00     0.016 A 
ATOM     72  Br  UNL     1      10.218  32.235  23.956  1.00  0.00    -0.051 Br
ENDBRANCH  65  66
ENDBRANCH  63  65
ENDBRANCH  59  60
ENDBRANCH  58  59
ENDBRANCH  55  58
ENDBRANCH  53  54
ENDBRANCH  50  53
ENDBRANCH  47  50
ENDBRANCH   5  47
BRANCH   4  73
ATOM     73  N   UNL     1      23.390  25.048  23.745  1.00  0.00    -0.348 N 
ATOM     74  C   UNL     1      22.437  25.036  24.792  1.00  0.00     0.217 C 
ATOM     75  H   UNL     1      24.372  24.737  23.955  1.00  0.00     0.163 HD
ATOM     76  C   UNL     1      22.803  24.589  26.182  1.00  0.00     0.114 C 
ATOM     77  O   UNL     1      21.260  25.409  24.541  1.00  0.00    -0.275 OA
ENDBRANCH   4  73
TORSDOF 31
