REMARK VINA RESULT:    -5.698      2.238      2.979
REMARK INTER + INTRA:         -20.793
REMARK INTER:                 -14.317
REMARK INTRA:                  -6.476
REMARK UNBOUND:                -6.769
REMARK SMILES CC(=O)N[C@@H]1[C@@H](O)C[C@](OC[C@H]2O[C@@H](O[C@H]3[C@H](O)[C@@H](O)[C@H](OCCN=[N+]=[N-])O[C@@H]3CO)[C@H](O)[C@@H](O)[C@H]2O)(C(=O)O)O[C@H]1C(O)[C@H](O)CNC(=O)OCc1cn(-c2cccnc2)nn1
REMARK SMILES IDX 9 1 8 2 6 3 5 4 42 5 41 6 10 7 11 8 12 9 14 10 13 11 32 12
REMARK SMILES IDX 34 13 36 14 15 15 16 16 29 17 28 18 21 19 17 20 19 21 30 22
REMARK SMILES IDX 31 23 22 25 23 26 24 27 25 28 26 29 27 30 18 31 20 33 33 35
REMARK SMILES IDX 35 37 37 39 38 41 39 42 40 43 7 45 43 47 44 48 45 50 46 51
REMARK SMILES IDX 47 53 48 54 49 55 50 57 51 58 52 59 53 60 54 61 63 62 55 63
REMARK SMILES IDX 62 64 56 65 57 66 61 67 58 68 60 69 59 70 4 71 2 72 1 74
REMARK SMILES IDX 3 75
REMARK H PARENT 31 24 18 32 20 34 33 36 35 38 37 40 40 44 7 46 44 49 46 52
REMARK H PARENT 48 56 4 73
REMARK Flexibility Score: inf
ROOT
ATOM      1  C   UNL     1      12.657  31.119  15.759  1.00  0.00     0.272 C 
ATOM      2  C   UNL     1      12.445  29.660  15.798  1.00  0.00     0.113 C 
ATOM      3  C   UNL     1      12.287  29.077  14.437  1.00  0.00     0.145 C 
ATOM      4  C   UNL     1      13.211  29.666  13.402  1.00  0.00     0.142 C 
ATOM      5  C   UNL     1      14.113  30.718  13.942  1.00  0.00     0.178 C 
ATOM      6  O   UNL     1      13.458  31.632  14.755  1.00  0.00    -0.332 OA
ENDROOT
BRANCH   1   7
ATOM      7  O   UNL     1      13.226  31.604  16.935  1.00  0.00    -0.338 OA
BRANCH   7   8
ATOM      8  C   UNL     1      13.531  30.691  17.894  1.00  0.00     0.199 C 
BRANCH   8   9
ATOM      9  C   UNL     1      14.988  30.956  18.320  1.00  0.00     0.179 C 
ATOM     10  C   UNL     1      14.709  30.350  20.565  1.00  0.00     0.282 C 
ATOM     11  O   UNL     1      15.042  31.293  19.617  1.00  0.00    -0.341 OA
ATOM     12  C   UNL     1      15.294  29.026  20.210  1.00  0.00     0.202 C 
ATOM     13  C   UNL     1      16.463  29.281  19.247  1.00  0.00     0.179 C 
ATOM     14  C   UNL     1      15.893  29.799  17.935  1.00  0.00     0.177 C 
BRANCH  10  15
ATOM     15  O   UNL     1      13.319  30.359  20.657  1.00  0.00    -0.341 OA
BRANCH  15  16
ATOM     16  C   UNL     1      12.818  31.235  21.564  1.00  0.00     0.184 C 
ATOM     17  C   UNL     1      11.985  30.643  22.659  1.00  0.00     0.178 C 
ATOM     18  O   UNL     1      12.046  31.516  23.745  1.00  0.00    -0.341 OA
ATOM     19  C   UNL     1      11.901  32.854  23.395  1.00  0.00     0.281 C 
ATOM     20  C   UNL     1      11.925  32.305  20.944  1.00  0.00     0.180 C 
ATOM     21  C   UNL     1      11.197  33.048  22.072  1.00  0.00     0.202 C 
BRANCH  17  22
ATOM     22  C   UNL     1      12.346  29.275  23.103  1.00  0.00     0.191 C 
BRANCH  22  23
ATOM     23  O   UNL     1      13.655  29.171  23.492  1.00  0.00    -0.394 OA
ATOM     24  H   UNL     1      14.046  30.082  23.484  1.00  0.00     0.210 HD
ENDBRANCH  22  23
ENDBRANCH  17  22
BRANCH  19  25
ATOM     25  O   UNL     1      13.077  33.546  23.380  1.00  0.00    -0.350 OA
BRANCH  25  26
ATOM     26  C   UNL     1      14.003  33.326  24.335  1.00  0.00     0.169 C 
BRANCH  26  27
ATOM     27  C   UNL     1      15.250  32.602  23.965  1.00  0.00     0.119 C 
BRANCH  27  28
ATOM     28  N   UNL     1      15.428  31.301  24.511  1.00  0.00    -0.092 NA
ATOM     29  N   UNL     1      16.454  30.619  24.308  1.00  0.00     0.001 N 
ATOM     30  N   UNL     1      17.185  29.861  23.647  1.00  0.00    -0.003 NA
ENDBRANCH  27  28
ENDBRANCH  26  27
ENDBRANCH  25  26
ENDBRANCH  19  25
BRANCH  20  31
ATOM     31  O   UNL     1      12.715  33.238  20.287  1.00  0.00    -0.387 OA
ATOM     32  H   UNL     1      12.208  34.046  20.011  1.00  0.00     0.211 HD
ENDBRANCH  20  31
BRANCH  21  33
ATOM     33  O   UNL     1       9.862  32.660  22.165  1.00  0.00    -0.385 OA
ATOM     34  H   UNL     1       9.544  32.866  23.078  1.00  0.00     0.211 HD
ENDBRANCH  21  33
ENDBRANCH  15  16
ENDBRANCH  10  15
BRANCH  12  35
ATOM     35  O   UNL     1      15.913  28.466  21.344  1.00  0.00    -0.385 OA
ATOM     36  H   UNL     1      16.241  29.220  21.923  1.00  0.00     0.211 HD
ENDBRANCH  12  35
BRANCH  13  37
ATOM     37  O   UNL     1      17.265  28.181  19.079  1.00  0.00    -0.387 OA
ATOM     38  H   UNL     1      17.309  27.666  19.923  1.00  0.00     0.211 HD
ENDBRANCH  13  37
BRANCH  14  39
ATOM     39  O   UNL     1      15.234  28.802  17.244  1.00  0.00    -0.387 OA
ATOM     40  H   UNL     1      14.573  29.240  16.643  1.00  0.00     0.211 HD
ENDBRANCH  14  39
ENDBRANCH   8   9
ENDBRANCH   7   8
ENDBRANCH   1   7
BRANCH   1  41
ATOM     41  C   UNL     1      11.288  31.759  15.647  1.00  0.00     0.364 C 
ATOM     42  O   UNL     1      10.981  32.319  14.582  1.00  0.00    -0.246 OA
BRANCH  41  43
ATOM     43  O   UNL     1      10.373  31.747  16.672  1.00  0.00    -0.477 OA
ATOM     44  H   UNL     1       9.532  32.309  16.710  1.00  0.00     0.296 HD
ENDBRANCH  41  43
ENDBRANCH   1  41
BRANCH   3  45
ATOM     45  O   UNL     1      12.528  27.690  14.571  1.00  0.00    -0.391 OA
ATOM     46  H   UNL     1      12.290  27.356  15.456  1.00  0.00     0.211 HD
ENDBRANCH   3  45
BRANCH   5  47
ATOM     47  C   UNL     1      15.384  30.231  14.553  1.00  0.00     0.176 C 
BRANCH  47  48
ATOM     48  O   UNL     1      16.225  31.358  14.747  1.00  0.00    -0.388 OA
ATOM     49  H   UNL     1      15.788  31.967  15.404  1.00  0.00     0.211 HD
ENDBRANCH  47  48
BRANCH  47  50
ATOM     50  C   UNL     1      16.188  29.255  13.753  1.00  0.00     0.165 C 
BRANCH  50  51
ATOM     51  O   UNL     1      15.566  27.986  14.122  1.00  0.00    -0.388 OA
ATOM     52  H   UNL     1      15.114  28.173  14.980  1.00  0.00     0.211 HD
ENDBRANCH  50  51
BRANCH  50  53
ATOM     53  C   UNL     1      17.599  29.054  14.201  1.00  0.00     0.154 C 
BRANCH  53  54
ATOM     54  N   UNL     1      17.803  28.715  15.573  1.00  0.00    -0.319 N 
ATOM     55  C   UNL     1      19.161  28.515  16.022  1.00  0.00     0.407 C 
ATOM     56  H   UNL     1      17.089  28.613  16.287  1.00  0.00     0.167 HD
ATOM     57  O   UNL     1      20.080  28.652  15.189  1.00  0.00    -0.225 OA
BRANCH  55  58
ATOM     58  O   UNL     1      19.449  28.182  17.322  1.00  0.00    -0.443 OA
BRANCH  58  59
ATOM     59  C   UNL     1      20.618  28.671  17.931  1.00  0.00     0.294 C 
BRANCH  59  60
ATOM     60  C   UNL     1      20.782  28.016  19.246  1.00  0.00     0.121 A 
ATOM     61  C   UNL     1      21.836  27.272  19.725  1.00  0.00     0.144 A 
ATOM     62  N   UNL     1      19.872  28.035  20.266  1.00  0.00    -0.131 NA
ATOM     63  N   UNL     1      21.562  26.870  20.976  1.00  0.00    -0.219 N 
ATOM     64  N   UNL     1      20.367  27.347  21.273  1.00  0.00    -0.062 NA
BRANCH  63  65
ATOM     65  C   UNL     1      22.323  26.090  21.893  1.00  0.00     0.085 A 
ATOM     66  C   UNL     1      23.051  24.985  21.504  1.00  0.00     0.031 A 
ATOM     67  C   UNL     1      22.359  26.408  23.237  1.00  0.00     0.139 A 
ATOM     68  C   UNL     1      23.773  24.242  22.410  1.00  0.00     0.022 A 
ATOM     69  N   UNL     1      23.074  25.668  24.120  1.00  0.00    -0.262 NA
ATOM     70  C   UNL     1      23.783  24.590  23.742  1.00  0.00     0.111 A 
ENDBRANCH  63  65
ENDBRANCH  59  60
ENDBRANCH  58  59
ENDBRANCH  55  58
ENDBRANCH  53  54
ENDBRANCH  50  53
ENDBRANCH  47  50
ENDBRANCH   5  47
BRANCH   4  71
ATOM     71  N   UNL     1      12.449  30.199  12.276  1.00  0.00    -0.348 N 
ATOM     72  C   UNL     1      11.854  29.396  11.273  1.00  0.00     0.217 C 
ATOM     73  H   UNL     1      12.313  31.242  12.171  1.00  0.00     0.163 HD
ATOM     74  C   UNL     1      11.086  29.989  10.133  1.00  0.00     0.114 C 
ATOM     75  O   UNL     1      11.961  28.140  11.320  1.00  0.00    -0.275 OA
ENDBRANCH   4  71
TORSDOF 30
