REMARK VINA RESULT:    -5.726      6.450      9.465
REMARK INTER + INTRA:         -21.228
REMARK INTER:                 -11.912
REMARK INTRA:                  -9.316
REMARK UNBOUND:                -6.131
REMARK SMILES COCC(C(N)=O)n1cc(COC(=O)NC[C@@H](O)C(O)[C@@H]2O[C@@](OC[C@H]3O[C@@H](O[C@H]4[C@H](O)[C@@H](O)[C@H](OCCN=[N+]=[N-])O[C@@H]4CO)[C@H](O)[C@@H](O)[C@H]3O)(C(=O)O)C[C@H](O)[C@H]2NC(C)=O)nn1
REMARK SMILES IDX 23 1 55 2 56 3 58 4 21 5 22 6 24 7 25 8 26 9 28 10 27 11
REMARK SMILES IDX 46 12 48 13 50 14 29 15 30 16 43 17 42 18 35 19 31 20 33 21
REMARK SMILES IDX 44 22 45 23 36 25 37 26 38 27 39 28 40 29 41 30 32 31 34 33
REMARK SMILES IDX 47 35 49 37 51 39 52 41 53 42 54 43 57 45 19 47 20 48 17 50
REMARK SMILES IDX 18 51 16 53 15 54 13 55 14 57 12 58 11 59 10 60 9 61 63 62
REMARK SMILES IDX 8 63 64 64 4 65 3 66 2 67 1 68 5 69 7 70 6 71 59 74 60 75
REMARK SMILES IDX 61 77 62 78
REMARK H PARENT 45 24 32 32 34 34 47 36 49 38 51 40 54 44 57 46 20 49 18 52
REMARK H PARENT 15 56 6 72 6 73 59 76
REMARK Flexibility Score: inf
ROOT
ATOM      1  C   UNL     1      22.661  25.021  23.431  1.00  0.00     0.272 C 
ATOM      2  C   UNL     1      23.061  24.160  22.295  1.00  0.00     0.113 C 
ATOM      3  C   UNL     1      24.510  24.074  21.987  1.00  0.00     0.145 C 
ATOM      4  C   UNL     1      25.162  25.416  22.183  1.00  0.00     0.142 C 
ATOM      5  C   UNL     1      24.049  26.452  22.216  1.00  0.00     0.178 C 
ATOM      6  O   UNL     1      23.286  26.264  23.339  1.00  0.00    -0.332 OA
ENDROOT
BRANCH   1   7
ATOM      7  O   UNL     1      22.887  24.544  24.693  1.00  0.00    -0.338 OA
BRANCH   7   8
ATOM      8  C   UNL     1      23.494  25.363  25.586  1.00  0.00     0.199 C 
BRANCH   8   9
ATOM      9  C   UNL     1      22.644  25.593  26.843  1.00  0.00     0.179 C 
ATOM     10  C   UNL     1      24.101  25.860  28.632  1.00  0.00     0.282 C 
ATOM     11  O   UNL     1      23.215  25.036  27.952  1.00  0.00    -0.341 OA
ATOM     12  C   UNL     1      23.519  27.185  28.986  1.00  0.00     0.202 C 
ATOM     13  C   UNL     1      22.996  27.912  27.791  1.00  0.00     0.179 C 
ATOM     14  C   UNL     1      22.162  26.994  26.973  1.00  0.00     0.177 C 
BRANCH  10  15
ATOM     15  O   UNL     1      25.312  25.992  27.979  1.00  0.00    -0.341 OA
BRANCH  15  16
ATOM     16  C   UNL     1      26.293  26.476  28.843  1.00  0.00     0.184 C 
ATOM     17  C   UNL     1      27.544  26.932  28.193  1.00  0.00     0.178 C 
ATOM     18  O   UNL     1      28.384  27.558  29.081  1.00  0.00    -0.341 OA
ATOM     19  C   UNL     1      28.310  27.076  30.389  1.00  0.00     0.281 C 
ATOM     20  C   UNL     1      26.668  25.287  29.745  1.00  0.00     0.180 C 
ATOM     21  C   UNL     1      27.970  25.594  30.402  1.00  0.00     0.202 C 
BRANCH  17  22
ATOM     22  C   UNL     1      27.344  27.889  27.033  1.00  0.00     0.191 C 
BRANCH  22  23
ATOM     23  O   UNL     1      28.529  28.574  26.775  1.00  0.00    -0.394 OA
ATOM     24  H   UNL     1      28.959  28.897  27.601  1.00  0.00     0.210 HD
ENDBRANCH  22  23
ENDBRANCH  17  22
BRANCH  19  25
ATOM     25  O   UNL     1      27.451  27.832  31.106  1.00  0.00    -0.350 OA
BRANCH  25  26
ATOM     26  C   UNL     1      27.679  28.091  32.413  1.00  0.00     0.169 C 
BRANCH  26  27
ATOM     27  C   UNL     1      26.626  27.722  33.397  1.00  0.00     0.119 C 
BRANCH  27  28
ATOM     28  N   UNL     1      26.429  26.312  33.514  1.00  0.00    -0.092 NA
ATOM     29  N   UNL     1      27.374  25.578  33.791  1.00  0.00     0.001 N 
ATOM     30  N   UNL     1      28.107  24.872  34.503  1.00  0.00    -0.003 NA
ENDBRANCH  27  28
ENDBRANCH  26  27
ENDBRANCH  25  26
ENDBRANCH  19  25
BRANCH  20  31
ATOM     31  O   UNL     1      25.658  25.075  30.681  1.00  0.00    -0.387 OA
ATOM     32  H   UNL     1      25.033  25.832  30.589  1.00  0.00     0.211 HD
ENDBRANCH  20  31
BRANCH  21  33
ATOM     33  O   UNL     1      29.034  24.941  29.742  1.00  0.00    -0.385 OA
ATOM     34  H   UNL     1      28.664  24.179  29.208  1.00  0.00     0.211 HD
ENDBRANCH  21  33
ENDBRANCH  15  16
ENDBRANCH  10  15
BRANCH  12  35
ATOM     35  O   UNL     1      22.415  26.936  29.823  1.00  0.00    -0.385 OA
ATOM     36  H   UNL     1      22.709  26.709  30.730  1.00  0.00     0.211 HD
ENDBRANCH  12  35
BRANCH  13  37
ATOM     37  O   UNL     1      23.998  28.567  27.077  1.00  0.00    -0.387 OA
ATOM     38  H   UNL     1      23.792  29.540  27.131  1.00  0.00     0.211 HD
ENDBRANCH  13  37
BRANCH  14  39
ATOM     39  O   UNL     1      21.953  27.514  25.694  1.00  0.00    -0.387 OA
ATOM     40  H   UNL     1      21.230  27.018  25.226  1.00  0.00     0.211 HD
ENDBRANCH  14  39
ENDBRANCH   8   9
ENDBRANCH   7   8
ENDBRANCH   1   7
BRANCH   1  41
ATOM     41  C   UNL     1      21.197  25.332  23.252  1.00  0.00     0.364 C 
ATOM     42  O   UNL     1      20.442  25.499  24.229  1.00  0.00    -0.246 OA
BRANCH  41  43
ATOM     43  O   UNL     1      20.701  25.428  21.978  1.00  0.00    -0.477 OA
ATOM     44  H   UNL     1      20.946  26.175  21.348  1.00  0.00     0.296 HD
ENDBRANCH  41  43
ENDBRANCH   1  41
BRANCH   3  45
ATOM     45  O   UNL     1      25.177  23.059  22.666  1.00  0.00    -0.391 OA
ATOM     46  H   UNL     1      26.087  23.361  22.914  1.00  0.00     0.211 HD
ENDBRANCH   3  45
BRANCH   5  47
ATOM     47  C   UNL     1      24.651  27.844  22.242  1.00  0.00     0.176 C 
BRANCH  47  48
ATOM     48  O   UNL     1      23.803  28.808  21.786  1.00  0.00    -0.388 OA
ATOM     49  H   UNL     1      24.166  29.526  21.251  1.00  0.00     0.211 HD
ENDBRANCH  47  48
BRANCH  47  50
ATOM     50  C   UNL     1      25.129  28.177  23.629  1.00  0.00     0.165 C 
BRANCH  50  51
ATOM     51  O   UNL     1      24.077  28.894  24.249  1.00  0.00    -0.388 OA
ATOM     52  H   UNL     1      24.437  29.376  25.043  1.00  0.00     0.211 HD
ENDBRANCH  50  51
BRANCH  50  53
ATOM     53  C   UNL     1      26.325  29.068  23.678  1.00  0.00     0.154 C 
BRANCH  53  54
ATOM     54  N   UNL     1      26.061  30.468  23.708  1.00  0.00    -0.319 N 
ATOM     55  C   UNL     1      26.051  31.279  22.541  1.00  0.00     0.407 C 
ATOM     56  H   UNL     1      25.862  30.960  24.622  1.00  0.00     0.167 HD
ATOM     57  O   UNL     1      26.283  30.758  21.440  1.00  0.00    -0.225 OA
BRANCH  55  58
ATOM     58  O   UNL     1      25.787  32.652  22.598  1.00  0.00    -0.443 OA
BRANCH  58  59
ATOM     59  C   UNL     1      24.509  33.181  22.411  1.00  0.00     0.294 C 
BRANCH  59  60
ATOM     60  C   UNL     1      23.419  32.395  23.002  1.00  0.00     0.120 A 
ATOM     61  C   UNL     1      22.269  32.046  22.339  1.00  0.00     0.139 A 
ATOM     62  N   UNL     1      23.378  31.907  24.247  1.00  0.00    -0.132 NA
ATOM     63  N   UNL     1      21.543  31.343  23.211  1.00  0.00    -0.237 N 
ATOM     64  N   UNL     1      22.225  31.267  24.356  1.00  0.00    -0.066 NA
BRANCH  63  65
ATOM     65  C   UNL     1      20.239  30.766  22.943  1.00  0.00     0.223 C 
BRANCH  65  66
ATOM     66  C   UNL     1      20.048  30.690  21.464  1.00  0.00     0.197 C 
BRANCH  66  67
ATOM     67  O   UNL     1      19.313  29.591  21.095  1.00  0.00    -0.382 OA
ATOM     68  C   UNL     1      19.644  29.159  19.838  1.00  0.00     0.195 C 
ENDBRANCH  66  67
ENDBRANCH  65  66
BRANCH  65  69
ATOM     69  C   UNL     1      20.251  29.392  23.548  1.00  0.00     0.244 C 
ATOM     70  O   UNL     1      19.430  29.127  24.448  1.00  0.00    -0.273 OA
ATOM     71  N   UNL     1      21.192  28.442  23.077  1.00  0.00    -0.368 N 
ATOM     72  H   UNL     1      22.028  28.140  23.605  1.00  0.00     0.159 HD
ATOM     73  H   UNL     1      21.027  28.026  22.135  1.00  0.00     0.159 HD
ENDBRANCH  65  69
ENDBRANCH  63  65
ENDBRANCH  59  60
ENDBRANCH  58  59
ENDBRANCH  55  58
ENDBRANCH  53  54
ENDBRANCH  50  53
ENDBRANCH  47  50
ENDBRANCH   5  47
BRANCH   4  74
ATOM     74  N   UNL     1      26.129  25.694  21.123  1.00  0.00    -0.348 N 
ATOM     75  C   UNL     1      27.392  25.050  21.026  1.00  0.00     0.217 C 
ATOM     76  H   UNL     1      25.909  26.399  20.375  1.00  0.00     0.163 HD
ATOM     77  C   UNL     1      28.380  25.312  19.967  1.00  0.00     0.114 C 
ATOM     78  O   UNL     1      27.672  24.187  21.926  1.00  0.00    -0.275 OA
ENDBRANCH   4  74
TORSDOF 33
