REMARK VINA RESULT:    -6.020      9.685     15.120
REMARK INTER + INTRA:         -21.032
REMARK INTER:                 -15.774
REMARK INTRA:                  -5.259
REMARK UNBOUND:                -5.863
REMARK SMILES CC(=O)N[C@@H]1[C@@H](O)C[C@](OC[C@H]2O[C@@H](O[C@H]3[C@H](O)[C@@H](O)[C@H](OCCN=[N+]=[N-])O[C@@H]3CO)[C@H](O)[C@@H](O)[C@H]2O)(C(=O)O)O[C@H]1C(O)[C@H](O)CNC(=O)OCc1cn(-c2ncccc2C#N)nn1
REMARK SMILES IDX 9 1 8 2 6 3 5 4 42 5 41 6 10 7 11 8 12 9 14 10 13 11 32 12
REMARK SMILES IDX 34 13 36 14 15 15 16 16 29 17 28 18 21 19 17 20 19 21 30 22
REMARK SMILES IDX 31 23 22 25 23 26 24 27 25 28 26 29 27 30 18 31 20 33 33 35
REMARK SMILES IDX 35 37 37 39 38 41 39 42 40 43 7 45 43 47 44 48 45 50 46 51
REMARK SMILES IDX 47 53 48 54 49 55 50 57 51 58 52 59 53 60 54 61 65 62 55 63
REMARK SMILES IDX 64 64 56 65 57 66 61 67 58 68 60 69 59 70 62 71 63 72 4 73
REMARK SMILES IDX 2 74 1 76 3 77
REMARK H PARENT 31 24 18 32 20 34 33 36 35 38 37 40 40 44 7 46 44 49 46 52
REMARK H PARENT 48 56 4 75
REMARK Flexibility Score: inf
ROOT
ATOM      1  C   UNL     1      28.668  21.966  18.558  1.00  0.00     0.272 C 
ATOM      2  C   UNL     1      29.695  22.881  19.074  1.00  0.00     0.113 C 
ATOM      3  C   UNL     1      29.183  23.854  20.061  1.00  0.00     0.145 C 
ATOM      4  C   UNL     1      28.011  23.424  20.881  1.00  0.00     0.142 C 
ATOM      5  C   UNL     1      27.536  22.014  20.675  1.00  0.00     0.178 C 
ATOM      6  O   UNL     1      27.761  21.507  19.485  1.00  0.00    -0.332 OA
ENDROOT
BRANCH   1   7
ATOM      7  O   UNL     1      28.998  20.875  17.859  1.00  0.00    -0.338 OA
BRANCH   7   8
ATOM      8  C   UNL     1      28.629  19.632  17.853  1.00  0.00     0.199 C 
BRANCH   8   9
ATOM      9  C   UNL     1      28.178  19.299  16.426  1.00  0.00     0.179 C 
ATOM     10  C   UNL     1      27.190  20.126  14.561  1.00  0.00     0.282 C 
ATOM     11  O   UNL     1      27.234  20.194  16.002  1.00  0.00    -0.341 OA
ATOM     12  C   UNL     1      28.407  20.764  13.997  1.00  0.00     0.202 C 
ATOM     13  C   UNL     1      29.675  20.175  14.624  1.00  0.00     0.179 C 
ATOM     14  C   UNL     1      29.283  19.026  15.474  1.00  0.00     0.177 C 
BRANCH  10  15
ATOM     15  O   UNL     1      26.048  20.681  14.096  1.00  0.00    -0.341 OA
BRANCH  15  16
ATOM     16  C   UNL     1      25.020  19.813  13.857  1.00  0.00     0.184 C 
ATOM     17  C   UNL     1      24.882  19.571  12.326  1.00  0.00     0.178 C 
ATOM     18  O   UNL     1      23.700  20.175  11.900  1.00  0.00    -0.341 OA
ATOM     19  C   UNL     1      23.672  21.526  12.276  1.00  0.00     0.281 C 
ATOM     20  C   UNL     1      23.679  20.265  14.374  1.00  0.00     0.180 C 
ATOM     21  C   UNL     1      23.311  21.608  13.733  1.00  0.00     0.202 C 
BRANCH  17  22
ATOM     22  C   UNL     1      24.898  18.098  12.073  1.00  0.00     0.191 C 
BRANCH  22  23
ATOM     23  O   UNL     1      24.877  17.359  13.270  1.00  0.00    -0.394 OA
ATOM     24  H   UNL     1      24.488  16.461  13.142  1.00  0.00     0.210 HD
ENDBRANCH  22  23
ENDBRANCH  17  22
BRANCH  19  25
ATOM     25  O   UNL     1      22.754  22.144  11.459  1.00  0.00    -0.350 OA
BRANCH  25  26
ATOM     26  C   UNL     1      21.485  22.210  12.065  1.00  0.00     0.169 C 
BRANCH  26  27
ATOM     27  C   UNL     1      20.515  21.285  11.359  1.00  0.00     0.119 C 
BRANCH  27  28
ATOM     28  N   UNL     1      20.152  20.249  12.336  1.00  0.00    -0.092 NA
ATOM     29  N   UNL     1      19.335  19.385  11.924  1.00  0.00     0.001 N 
ATOM     30  N   UNL     1      18.298  18.733  11.729  1.00  0.00    -0.003 NA
ENDBRANCH  27  28
ENDBRANCH  26  27
ENDBRANCH  25  26
ENDBRANCH  19  25
BRANCH  20  31
ATOM     31  O   UNL     1      22.677  19.352  14.144  1.00  0.00    -0.387 OA
ATOM     32  H   UNL     1      22.781  18.750  13.390  1.00  0.00     0.211 HD
ENDBRANCH  20  31
BRANCH  21  33
ATOM     33  O   UNL     1      23.981  22.639  14.385  1.00  0.00    -0.385 OA
ATOM     34  H   UNL     1      24.641  23.009  13.737  1.00  0.00     0.211 HD
ENDBRANCH  21  33
ENDBRANCH  15  16
ENDBRANCH  10  15
BRANCH  12  35
ATOM     35  O   UNL     1      28.465  20.592  12.625  1.00  0.00    -0.385 OA
ATOM     36  H   UNL     1      27.862  21.292  12.210  1.00  0.00     0.211 HD
ENDBRANCH  12  35
BRANCH  13  37
ATOM     37  O   UNL     1      30.326  21.183  15.374  1.00  0.00    -0.387 OA
ATOM     38  H   UNL     1      30.583  21.939  14.776  1.00  0.00     0.211 HD
ENDBRANCH  13  37
BRANCH  14  39
ATOM     39  O   UNL     1      30.356  18.436  16.150  1.00  0.00    -0.387 OA
ATOM     40  H   UNL     1      31.223  18.667  15.686  1.00  0.00     0.211 HD
ENDBRANCH  14  39
ENDBRANCH   8   9
ENDBRANCH   7   8
ENDBRANCH   1   7
BRANCH   1  41
ATOM     41  C   UNL     1      27.835  22.808  17.591  1.00  0.00     0.364 C 
ATOM     42  O   UNL     1      26.694  23.183  17.801  1.00  0.00    -0.246 OA
BRANCH  41  43
ATOM     43  O   UNL     1      28.407  23.190  16.361  1.00  0.00    -0.477 OA
ATOM     44  H   UNL     1      28.208  24.076  15.922  1.00  0.00     0.296 HD
ENDBRANCH  41  43
ENDBRANCH   1  41
BRANCH   3  45
ATOM     45  O   UNL     1      30.228  24.335  20.872  1.00  0.00    -0.391 OA
ATOM     46  H   UNL     1      30.374  25.286  20.555  1.00  0.00     0.211 HD
ENDBRANCH   3  45
BRANCH   5  47
ATOM     47  C   UNL     1      28.008  21.090  21.834  1.00  0.00     0.176 C 
BRANCH  47  48
ATOM     48  O   UNL     1      28.617  21.954  22.792  1.00  0.00    -0.388 OA
ATOM     49  H   UNL     1      28.975  21.447  23.540  1.00  0.00     0.211 HD
ENDBRANCH  47  48
BRANCH  47  50
ATOM     50  C   UNL     1      28.987  20.089  21.499  1.00  0.00     0.165 C 
BRANCH  50  51
ATOM     51  O   UNL     1      28.749  18.770  21.958  1.00  0.00    -0.388 OA
ATOM     52  H   UNL     1      27.805  18.718  22.310  1.00  0.00     0.211 HD
ENDBRANCH  50  51
BRANCH  50  53
ATOM     53  C   UNL     1      30.375  20.374  21.978  1.00  0.00     0.154 C 
BRANCH  53  54
ATOM     54  N   UNL     1      30.868  19.761  23.147  1.00  0.00    -0.319 N 
ATOM     55  C   UNL     1      30.941  20.251  24.450  1.00  0.00     0.407 C 
ATOM     56  H   UNL     1      31.263  18.749  23.038  1.00  0.00     0.167 HD
ATOM     57  O   UNL     1      30.504  21.408  24.668  1.00  0.00    -0.225 OA
BRANCH  55  58
ATOM     58  O   UNL     1      31.488  19.446  25.469  1.00  0.00    -0.443 OA
BRANCH  58  59
ATOM     59  C   UNL     1      31.499  19.934  26.778  1.00  0.00     0.294 C 
BRANCH  59  60
ATOM     60  C   UNL     1      31.733  18.895  27.764  1.00  0.00     0.121 A 
ATOM     61  C   UNL     1      32.674  18.906  28.723  1.00  0.00     0.146 A 
ATOM     62  N   UNL     1      31.066  17.665  27.856  1.00  0.00    -0.131 NA
ATOM     63  N   UNL     1      32.642  17.769  29.404  1.00  0.00    -0.201 N 
ATOM     64  N   UNL     1      31.682  17.094  28.848  1.00  0.00    -0.060 NA
BRANCH  63  65
ATOM     65  C   UNL     1      33.385  17.340  30.527  1.00  0.00     0.173 A 
ATOM     66  N   UNL     1      32.860  17.666  31.737  1.00  0.00    -0.236 NA
ATOM     67  C   UNL     1      34.650  16.752  30.403  1.00  0.00     0.097 A 
ATOM     68  C   UNL     1      33.660  17.394  32.909  1.00  0.00     0.113 A 
ATOM     69  C   UNL     1      35.358  16.531  31.565  1.00  0.00     0.025 A 
ATOM     70  C   UNL     1      34.844  16.855  32.750  1.00  0.00     0.022 A 
BRANCH  67  71
ATOM     71  C   UNL     1      35.219  16.288  29.179  1.00  0.00     0.103 C 
ATOM     72  N   UNL     1      35.716  15.908  28.143  1.00  0.00    -0.192 NA
ENDBRANCH  67  71
ENDBRANCH  63  65
ENDBRANCH  59  60
ENDBRANCH  58  59
ENDBRANCH  55  58
ENDBRANCH  53  54
ENDBRANCH  50  53
ENDBRANCH  47  50
ENDBRANCH   5  47
BRANCH   4  73
ATOM     73  N   UNL     1      27.027  24.476  20.746  1.00  0.00    -0.348 N 
ATOM     74  C   UNL     1      25.808  24.605  21.416  1.00  0.00     0.217 C 
ATOM     75  H   UNL     1      27.233  25.265  20.033  1.00  0.00     0.163 HD
ATOM     76  C   UNL     1      24.921  25.813  21.180  1.00  0.00     0.114 C 
ATOM     77  O   UNL     1      25.349  23.782  22.239  1.00  0.00    -0.275 OA
ENDBRANCH   4  73
TORSDOF 31
