REMARK VINA RESULT:    -6.191      4.737     10.199
REMARK INTER + INTRA:         -22.159
REMARK INTER:                 -13.625
REMARK INTRA:                  -8.535
REMARK UNBOUND:                -6.197
REMARK SMILES CC(=O)N[C@@H]1[C@@H](O)C[C@](OC[C@H]2O[C@@H](O[C@H]3[C@H](O)[C@@H](O)[C@H](OCCN=[N+]=[N-])O[C@@H]3CO)[C@H](O)[C@@H](O)[C@H]2O)(C(=O)O)O[C@H]1C(O)[C@H](O)CNC(=O)OCc1cn(Cc2cccc(C#N)c2)nn1
REMARK SMILES IDX 9 1 8 2 6 3 5 4 42 5 41 6 10 7 11 8 12 9 14 10 13 11 32 12
REMARK SMILES IDX 34 13 36 14 15 15 16 16 29 17 28 18 21 19 17 20 19 21 30 22
REMARK SMILES IDX 31 23 22 25 23 26 24 27 25 28 26 29 27 30 18 31 20 33 33 35
REMARK SMILES IDX 35 37 37 39 38 41 39 42 40 43 7 45 43 47 44 48 45 50 46 51
REMARK SMILES IDX 47 53 48 54 49 55 50 57 51 58 52 59 53 60 54 61 66 62 55 63
REMARK SMILES IDX 65 64 56 65 57 66 58 67 64 68 59 69 61 70 60 71 62 72 63 73
REMARK SMILES IDX 4 74 2 75 1 77 3 78
REMARK H PARENT 31 24 18 32 20 34 33 36 35 38 37 40 40 44 7 46 44 49 46 52
REMARK H PARENT 48 56 4 76
REMARK Flexibility Score: inf
ROOT
ATOM      1  C   UNL     1      23.018  25.228  24.406  1.00  0.00     0.272 C 
ATOM      2  C   UNL     1      22.047  25.204  25.562  1.00  0.00     0.113 C 
ATOM      3  C   UNL     1      21.581  26.498  26.083  1.00  0.00     0.145 C 
ATOM      4  C   UNL     1      22.646  27.590  25.942  1.00  0.00     0.142 C 
ATOM      5  C   UNL     1      23.278  27.610  24.624  1.00  0.00     0.178 C 
ATOM      6  O   UNL     1      23.377  26.448  23.932  1.00  0.00    -0.332 OA
ENDROOT
BRANCH   1   7
ATOM      7  O   UNL     1      22.508  24.526  23.411  1.00  0.00    -0.338 OA
BRANCH   7   8
ATOM      8  C   UNL     1      21.732  24.449  22.439  1.00  0.00     0.199 C 
BRANCH   8   9
ATOM      9  C   UNL     1      21.988  24.848  21.013  1.00  0.00     0.179 C 
ATOM     10  C   UNL     1      21.915  26.627  19.631  1.00  0.00     0.282 C 
ATOM     11  O   UNL     1      22.102  26.290  20.978  1.00  0.00    -0.341 OA
ATOM     12  C   UNL     1      23.070  26.200  18.790  1.00  0.00     0.202 C 
ATOM     13  C   UNL     1      23.568  24.813  19.149  1.00  0.00     0.179 C 
ATOM     14  C   UNL     1      23.421  24.470  20.592  1.00  0.00     0.177 C 
BRANCH  10  15
ATOM     15  O   UNL     1      21.737  28.004  19.529  1.00  0.00    -0.341 OA
BRANCH  15  16
ATOM     16  C   UNL     1      20.430  28.358  19.319  1.00  0.00     0.184 C 
ATOM     17  C   UNL     1      20.277  29.442  18.316  1.00  0.00     0.178 C 
ATOM     18  O   UNL     1      18.979  29.869  18.151  1.00  0.00    -0.341 OA
ATOM     19  C   UNL     1      18.300  30.196  19.304  1.00  0.00     0.281 C 
ATOM     20  C   UNL     1      19.970  29.011  20.663  1.00  0.00     0.180 C 
ATOM     21  C   UNL     1      18.490  29.256  20.451  1.00  0.00     0.202 C 
BRANCH  17  22
ATOM     22  C   UNL     1      20.761  28.985  16.959  1.00  0.00     0.191 C 
BRANCH  22  23
ATOM     23  O   UNL     1      20.354  27.666  16.731  1.00  0.00    -0.394 OA
ATOM     24  H   UNL     1      19.683  27.357  17.362  1.00  0.00     0.210 HD
ENDBRANCH  22  23
ENDBRANCH  17  22
BRANCH  19  25
ATOM     25  O   UNL     1      16.927  30.149  18.984  1.00  0.00    -0.350 OA
BRANCH  25  26
ATOM     26  C   UNL     1      16.398  31.413  19.011  1.00  0.00     0.169 C 
BRANCH  26  27
ATOM     27  C   UNL     1      15.126  31.494  19.807  1.00  0.00     0.119 C 
BRANCH  27  28
ATOM     28  N   UNL     1      15.167  30.719  21.025  1.00  0.00    -0.092 NA
ATOM     29  N   UNL     1      14.742  29.556  21.002  1.00  0.00     0.001 N 
ATOM     30  N   UNL     1      14.264  28.406  21.133  1.00  0.00    -0.003 NA
ENDBRANCH  27  28
ENDBRANCH  26  27
ENDBRANCH  25  26
ENDBRANCH  19  25
BRANCH  20  31
ATOM     31  O   UNL     1      20.252  28.127  21.669  1.00  0.00    -0.387 OA
ATOM     32  H   UNL     1      21.194  27.795  21.625  1.00  0.00     0.211 HD
ENDBRANCH  20  31
BRANCH  21  33
ATOM     33  O   UNL     1      17.999  29.857  21.607  1.00  0.00    -0.385 OA
ATOM     34  H   UNL     1      17.697  29.115  22.208  1.00  0.00     0.211 HD
ENDBRANCH  21  33
ENDBRANCH  15  16
ENDBRANCH  10  15
BRANCH  12  35
ATOM     35  O   UNL     1      22.614  26.083  17.457  1.00  0.00    -0.385 OA
ATOM     36  H   UNL     1      23.106  25.317  17.070  1.00  0.00     0.211 HD
ENDBRANCH  12  35
BRANCH  13  37
ATOM     37  O   UNL     1      24.941  24.813  18.859  1.00  0.00    -0.387 OA
ATOM     38  H   UNL     1      25.210  25.539  18.263  1.00  0.00     0.211 HD
ENDBRANCH  13  37
BRANCH  14  39
ATOM     39  O   UNL     1      24.298  25.305  21.303  1.00  0.00    -0.387 OA
ATOM     40  H   UNL     1      23.900  25.643  22.129  1.00  0.00     0.211 HD
ENDBRANCH  14  39
ENDBRANCH   8   9
ENDBRANCH   7   8
ENDBRANCH   1   7
BRANCH   1  41
ATOM     41  C   UNL     1      24.294  24.624  24.933  1.00  0.00     0.364 C 
ATOM     42  O   UNL     1      24.480  24.487  26.189  1.00  0.00    -0.246 OA
BRANCH  41  43
ATOM     43  O   UNL     1      25.292  24.201  24.097  1.00  0.00    -0.477 OA
ATOM     44  H   UNL     1      25.907  24.928  23.696  1.00  0.00     0.296 HD
ENDBRANCH  41  43
ENDBRANCH   1  41
BRANCH   3  45
ATOM     45  O   UNL     1      20.436  26.901  25.413  1.00  0.00    -0.391 OA
ATOM     46  H   UNL     1      19.754  27.295  26.006  1.00  0.00     0.211 HD
ENDBRANCH   3  45
BRANCH   5  47
ATOM     47  C   UNL     1      22.643  28.549  23.618  1.00  0.00     0.176 C 
BRANCH  47  48
ATOM     48  O   UNL     1      21.586  29.178  24.357  1.00  0.00    -0.388 OA
ATOM     49  H   UNL     1      21.375  30.019  23.890  1.00  0.00     0.211 HD
ENDBRANCH  47  48
BRANCH  47  50
ATOM     50  C   UNL     1      23.444  29.660  23.078  1.00  0.00     0.165 C 
BRANCH  50  51
ATOM     51  O   UNL     1      22.445  30.719  22.936  1.00  0.00    -0.388 OA
ATOM     52  H   UNL     1      22.401  31.193  23.820  1.00  0.00     0.211 HD
ENDBRANCH  50  51
BRANCH  50  53
ATOM     53  C   UNL     1      23.999  29.536  21.707  1.00  0.00     0.154 C 
BRANCH  53  54
ATOM     54  N   UNL     1      24.501  28.258  21.319  1.00  0.00    -0.319 N 
ATOM     55  C   UNL     1      25.718  28.170  20.563  1.00  0.00     0.407 C 
ATOM     56  H   UNL     1      24.040  27.372  21.556  1.00  0.00     0.167 HD
ATOM     57  O   UNL     1      26.291  29.247  20.278  1.00  0.00    -0.225 OA
BRANCH  55  58
ATOM     58  O   UNL     1      26.264  26.987  20.157  1.00  0.00    -0.443 OA
BRANCH  58  59
ATOM     59  C   UNL     1      27.677  26.723  20.274  1.00  0.00     0.294 C 
BRANCH  59  60
ATOM     60  C   UNL     1      27.868  25.364  20.855  1.00  0.00     0.120 A 
ATOM     61  C   UNL     1      28.965  24.546  20.708  1.00  0.00     0.138 A 
ATOM     62  N   UNL     1      27.008  24.685  21.622  1.00  0.00    -0.132 NA
ATOM     63  N   UNL     1      28.754  23.384  21.388  1.00  0.00    -0.248 N 
ATOM     64  N   UNL     1      27.553  23.501  21.933  1.00  0.00    -0.067 NA
BRANCH  63  65
ATOM     65  C   UNL     1      29.658  22.273  21.470  1.00  0.00     0.181 C 
BRANCH  65  66
ATOM     66  C   UNL     1      30.562  22.460  22.628  1.00  0.00    -0.025 A 
ATOM     67  C   UNL     1      31.580  23.376  22.646  1.00  0.00     0.006 A 
ATOM     68  C   UNL     1      30.384  21.673  23.760  1.00  0.00     0.025 A 
ATOM     69  C   UNL     1      32.415  23.539  23.719  1.00  0.00     0.002 A 
ATOM     70  C   UNL     1      31.221  21.836  24.837  1.00  0.00     0.052 A 
ATOM     71  C   UNL     1      32.260  22.766  24.862  1.00  0.00     0.019 A 
BRANCH  70  72
ATOM     72  C   UNL     1      31.027  21.020  26.007  1.00  0.00     0.099 C 
ATOM     73  N   UNL     1      30.883  20.362  26.962  1.00  0.00    -0.192 NA
ENDBRANCH  70  72
ENDBRANCH  65  66
ENDBRANCH  63  65
ENDBRANCH  59  60
ENDBRANCH  58  59
ENDBRANCH  55  58
ENDBRANCH  53  54
ENDBRANCH  50  53
ENDBRANCH  47  50
ENDBRANCH   5  47
BRANCH   4  74
ATOM     74  N   UNL     1      23.548  27.507  27.090  1.00  0.00    -0.348 N 
ATOM     75  C   UNL     1      24.025  28.695  27.682  1.00  0.00     0.217 C 
ATOM     76  H   UNL     1      23.873  26.618  27.518  1.00  0.00     0.163 HD
ATOM     77  C   UNL     1      24.947  28.706  28.852  1.00  0.00     0.114 C 
ATOM     78  O   UNL     1      23.662  29.784  27.207  1.00  0.00    -0.275 OA
ENDBRANCH   4  74
TORSDOF 32
