REMARK VINA RESULT:    -6.589      6.279     10.476
REMARK INTER + INTRA:         -23.800
REMARK INTER:                 -18.180
REMARK INTRA:                  -5.620
REMARK UNBOUND:                -6.425
REMARK SMILES CC(=O)N[C@@H]1[C@@H](O)C[C@](OC[C@H]2O[C@@H](O[C@H]3[C@H](O)[C@@H](O)[C@H](OCCN=[N+]=[N-])O[C@@H]3CO)[C@H](O)[C@@H](O)[C@H]2O)(C(=O)O)O[C@H]1C(O)[C@H](O)CNC(=O)OCc1cn(-c2ccc(S(=O)(=O)Nc3nccs3)cc2)nn1
REMARK SMILES IDX 43 1 42 2 9 3 8 4 41 5 6 6 5 7 10 8 11 9 12 10 14 11 13 12
REMARK SMILES IDX 32 13 34 14 36 15 15 16 16 17 29 18 28 19 21 20 17 21 19 22
REMARK SMILES IDX 30 23 31 24 22 26 23 27 24 28 25 29 26 30 27 31 18 32 20 34
REMARK SMILES IDX 33 36 35 38 37 40 38 42 39 43 40 44 7 46 4 48 2 49 1 51 3 52
REMARK SMILES IDX 44 53 45 55 46 56 47 58 48 59 49 60 50 62 51 63 52 64 53 65
REMARK SMILES IDX 54 66 72 67 55 68 71 69 56 70 57 71 70 72 58 73 69 74 59 75
REMARK SMILES IDX 60 76 61 77 62 78 63 79 64 81 65 82 68 83 66 84 67 85
REMARK H PARENT 31 25 18 33 20 35 33 37 35 39 37 41 40 45 7 47 4 50 44 54
REMARK H PARENT 46 57 48 61 63 80
REMARK Flexibility Score: inf
ROOT
ATOM      1  C   UNL     1      22.527  26.590  21.943  1.00  0.00     0.176 C 
ENDROOT
BRANCH   1   2
ATOM      2  C   UNL     1      21.976  27.619  21.014  1.00  0.00     0.178 C 
ATOM      3  C   UNL     1      19.920  28.711  20.800  1.00  0.00     0.272 C 
ATOM      4  C   UNL     1      20.769  29.372  19.693  1.00  0.00     0.113 C 
ATOM      5  O   UNL     1      20.578  27.629  21.314  1.00  0.00    -0.332 OA
ATOM      6  C   UNL     1      21.393  28.395  18.771  1.00  0.00     0.145 C 
ATOM      7  C   UNL     1      22.019  27.239  19.554  1.00  0.00     0.142 C 
BRANCH   3   8
ATOM      8  O   UNL     1      18.723  28.286  20.281  1.00  0.00    -0.338 OA
BRANCH   8   9
ATOM      9  C   UNL     1      17.866  29.287  19.899  1.00  0.00     0.199 C 
BRANCH   9  10
ATOM     10  C   UNL     1      16.519  29.216  20.580  1.00  0.00     0.179 C 
ATOM     11  C   UNL     1      14.716  30.291  21.338  1.00  0.00     0.282 C 
ATOM     12  O   UNL     1      15.751  30.356  20.375  1.00  0.00    -0.341 OA
ATOM     13  C   UNL     1      13.692  29.326  20.794  1.00  0.00     0.202 C 
ATOM     14  C   UNL     1      14.305  28.503  19.656  1.00  0.00     0.179 C 
ATOM     15  C   UNL     1      15.700  28.051  20.048  1.00  0.00     0.177 C 
BRANCH  11  16
ATOM     16  O   UNL     1      14.156  31.497  21.593  1.00  0.00    -0.341 OA
BRANCH  16  17
ATOM     17  C   UNL     1      14.372  32.009  22.860  1.00  0.00     0.184 C 
ATOM     18  C   UNL     1      15.293  31.274  23.746  1.00  0.00     0.178 C 
ATOM     19  O   UNL     1      14.890  31.515  25.089  1.00  0.00    -0.341 OA
ATOM     20  C   UNL     1      13.751  30.761  25.406  1.00  0.00     0.281 C 
ATOM     21  C   UNL     1      13.053  32.286  23.568  1.00  0.00     0.180 C 
ATOM     22  C   UNL     1      12.625  31.114  24.453  1.00  0.00     0.202 C 
BRANCH  18  23
ATOM     23  C   UNL     1      16.737  31.774  23.730  1.00  0.00     0.191 C 
BRANCH  23  24
ATOM     24  O   UNL     1      17.257  31.960  22.485  1.00  0.00    -0.394 OA
ATOM     25  H   UNL     1      16.881  32.773  22.077  1.00  0.00     0.210 HD
ENDBRANCH  23  24
ENDBRANCH  18  23
BRANCH  20  26
ATOM     26  O   UNL     1      13.399  31.051  26.706  1.00  0.00    -0.350 OA
BRANCH  26  27
ATOM     27  C   UNL     1      14.140  32.029  27.316  1.00  0.00     0.169 C 
BRANCH  27  28
ATOM     28  C   UNL     1      14.611  31.658  28.702  1.00  0.00     0.119 C 
BRANCH  28  29
ATOM     29  N   UNL     1      15.675  30.700  28.551  1.00  0.00    -0.092 NA
ATOM     30  N   UNL     1      16.753  31.062  28.087  1.00  0.00     0.001 N 
ATOM     31  N   UNL     1      17.679  31.212  27.287  1.00  0.00    -0.003 NA
ENDBRANCH  28  29
ENDBRANCH  27  28
ENDBRANCH  26  27
ENDBRANCH  20  26
BRANCH  21  32
ATOM     32  O   UNL     1      13.160  33.396  24.403  1.00  0.00    -0.387 OA
ATOM     33  H   UNL     1      13.938  33.322  25.001  1.00  0.00     0.211 HD
ENDBRANCH  21  32
BRANCH  22  34
ATOM     34  O   UNL     1      12.194  30.035  23.693  1.00  0.00    -0.385 OA
ATOM     35  H   UNL     1      12.151  29.259  24.295  1.00  0.00     0.211 HD
ENDBRANCH  22  34
ENDBRANCH  16  17
ENDBRANCH  11  16
BRANCH  13  36
ATOM     36  O   UNL     1      13.326  28.344  21.748  1.00  0.00    -0.385 OA
ATOM     37  H   UNL     1      12.487  27.916  21.522  1.00  0.00     0.211 HD
ENDBRANCH  13  36
BRANCH  14  38
ATOM     38  O   UNL     1      14.283  29.218  18.467  1.00  0.00    -0.387 OA
ATOM     39  H   UNL     1      14.877  30.013  18.499  1.00  0.00     0.211 HD
ENDBRANCH  14  38
BRANCH  15  40
ATOM     40  O   UNL     1      16.288  27.476  18.933  1.00  0.00    -0.387 OA
ATOM     41  H   UNL     1      15.697  26.919  18.401  1.00  0.00     0.211 HD
ENDBRANCH  15  40
ENDBRANCH   9  10
ENDBRANCH   8   9
ENDBRANCH   3   8
BRANCH   3  42
ATOM     42  C   UNL     1      19.731  29.750  21.814  1.00  0.00     0.364 C 
ATOM     43  O   UNL     1      19.229  29.497  22.957  1.00  0.00    -0.246 OA
BRANCH  42  44
ATOM     44  O   UNL     1      20.084  31.072  21.608  1.00  0.00    -0.477 OA
ATOM     45  H   UNL     1      19.936  31.500  20.684  1.00  0.00     0.296 HD
ENDBRANCH  42  44
ENDBRANCH   3  42
BRANCH   6  46
ATOM     46  O   UNL     1      20.513  27.916  17.800  1.00  0.00    -0.391 OA
ATOM     47  H   UNL     1      20.619  26.938  17.715  1.00  0.00     0.211 HD
ENDBRANCH   6  46
BRANCH   7  48
ATOM     48  N   UNL     1      23.300  26.928  19.027  1.00  0.00    -0.348 N 
ATOM     49  C   UNL     1      23.445  25.886  18.069  1.00  0.00     0.217 C 
ATOM     50  H   UNL     1      24.155  27.440  19.315  1.00  0.00     0.163 HD
ATOM     51  C   UNL     1      24.735  25.502  17.473  1.00  0.00     0.114 C 
ATOM     52  O   UNL     1      22.407  25.240  17.696  1.00  0.00    -0.275 OA
ENDBRANCH   7  48
ENDBRANCH   1   2
BRANCH   1  53
ATOM     53  O   UNL     1      23.924  26.848  22.115  1.00  0.00    -0.388 OA
ATOM     54  H   UNL     1      24.336  26.161  22.670  1.00  0.00     0.211 HD
ENDBRANCH   1  53
BRANCH   1  55
ATOM     55  C   UNL     1      22.350  25.154  21.542  1.00  0.00     0.165 C 
BRANCH  55  56
ATOM     56  O   UNL     1      21.134  24.767  22.203  1.00  0.00    -0.388 OA
ATOM     57  H   UNL     1      20.972  23.804  22.031  1.00  0.00     0.211 HD
ENDBRANCH  55  56
BRANCH  55  58
ATOM     58  C   UNL     1      23.393  24.254  22.194  1.00  0.00     0.154 C 
BRANCH  58  59
ATOM     59  N   UNL     1      24.472  24.113  21.252  1.00  0.00    -0.319 N 
ATOM     60  C   UNL     1      25.824  24.418  21.558  1.00  0.00     0.407 C 
ATOM     61  H   UNL     1      24.285  23.761  20.257  1.00  0.00     0.167 HD
ATOM     62  O   UNL     1      26.145  24.812  22.686  1.00  0.00    -0.225 OA
BRANCH  60  63
ATOM     63  O   UNL     1      26.828  24.288  20.606  1.00  0.00    -0.443 OA
BRANCH  63  64
ATOM     64  C   UNL     1      27.015  23.197  19.747  1.00  0.00     0.294 C 
BRANCH  64  65
ATOM     65  C   UNL     1      27.881  22.129  20.273  1.00  0.00     0.121 A 
ATOM     66  C   UNL     1      28.591  22.158  21.477  1.00  0.00     0.144 A 
ATOM     67  N   UNL     1      28.167  20.939  19.748  1.00  0.00    -0.131 NA
ATOM     68  N   UNL     1      29.276  20.996  21.638  1.00  0.00    -0.220 N 
ATOM     69  N   UNL     1      28.998  20.275  20.568  1.00  0.00    -0.062 NA
BRANCH  68  70
ATOM     70  C   UNL     1      30.110  20.676  22.765  1.00  0.00     0.066 A 
ATOM     71  C   UNL     1      30.820  19.513  22.844  1.00  0.00     0.030 A 
ATOM     72  C   UNL     1      30.176  21.584  23.808  1.00  0.00     0.030 A 
ATOM     73  C   UNL     1      31.604  19.244  23.965  1.00  0.00     0.024 A 
ATOM     74  C   UNL     1      30.934  21.364  24.933  1.00  0.00     0.024 A 
ATOM     75  C   UNL     1      31.643  20.171  24.980  1.00  0.00     0.088 A 
BRANCH  75  76
ATOM     76  S   UNL     1      32.610  19.860  26.400  1.00  0.00     0.263 S 
ATOM     77  O   UNL     1      33.545  21.039  26.586  1.00  0.00    -0.201 OA
ATOM     78  O   UNL     1      33.457  18.656  26.097  1.00  0.00    -0.201 OA
BRANCH  76  79
ATOM     79  N   UNL     1      31.603  19.614  27.750  1.00  0.00    -0.255 N 
ATOM     80  H   UNL     1      30.641  19.995  27.722  1.00  0.00     0.182 HD
BRANCH  79  81
ATOM     81  C   UNL     1      32.079  18.917  28.849  1.00  0.00     0.196 A 
ATOM     82  N   UNL     1      32.685  19.128  29.952  1.00  0.00    -0.228 NA
ATOM     83  S   UNL     1      31.886  17.074  28.965  1.00  0.00    -0.105 S 
ATOM     84  C   UNL     1      33.016  18.242  30.817  1.00  0.00     0.125 A 
ATOM     85  C   UNL     1      32.714  16.927  30.586  1.00  0.00     0.089 A 
ENDBRANCH  79  81
ENDBRANCH  76  79
ENDBRANCH  75  76
ENDBRANCH  68  70
ENDBRANCH  64  65
ENDBRANCH  63  64
ENDBRANCH  60  63
ENDBRANCH  58  59
ENDBRANCH  55  58
ENDBRANCH   1  55
TORSDOF 33
