REMARK VINA RESULT:    -6.181      9.190     15.484
REMARK INTER + INTRA:         -21.943
REMARK INTER:                 -16.309
REMARK INTRA:                  -5.634
REMARK UNBOUND:                -6.367
REMARK SMILES CC(=O)N[C@@H]1[C@@H](O)C[C@](OC[C@H]2O[C@@H](O[C@H]3[C@H](O)[C@@H](O)[C@H](OCCN=[N+]=[N-])O[C@@H]3CO)[C@H](O)[C@@H](O)[C@H]2O)(C(=O)O)O[C@H]1C(O)[C@H](O)CNC(=O)OCc1cn(-c2ncn3c2c(=O)n(C(C)C)c2ccccc23)nn1
REMARK SMILES IDX 9 1 8 2 6 3 5 4 42 5 41 6 10 7 11 8 12 9 14 10 13 11 32 12
REMARK SMILES IDX 34 13 36 14 15 15 16 16 29 17 28 18 21 19 17 20 19 21 30 22
REMARK SMILES IDX 31 23 22 25 23 26 24 27 25 28 26 29 27 30 18 31 20 33 33 35
REMARK SMILES IDX 35 37 37 39 38 41 39 42 40 43 7 45 43 47 44 48 45 50 46 51
REMARK SMILES IDX 47 53 48 54 49 55 50 57 51 58 52 59 53 60 54 61 74 62 55 63
REMARK SMILES IDX 73 64 56 65 57 66 60 67 58 68 59 69 61 70 72 71 63 72 62 73
REMARK SMILES IDX 71 74 67 75 70 76 68 77 69 78 64 79 65 80 66 81 4 82 2 83
REMARK SMILES IDX 1 85 3 86
REMARK H PARENT 31 24 18 32 20 34 33 36 35 38 37 40 40 44 7 46 44 49 46 52
REMARK H PARENT 48 56 4 84
REMARK Flexibility Score: inf
ROOT
ATOM      1  C   UNL     1      18.771  30.907  15.479  1.00  0.00     0.272 C 
ATOM      2  C   UNL     1      18.123  32.224  15.810  1.00  0.00     0.113 C 
ATOM      3  C   UNL     1      16.666  32.215  15.607  1.00  0.00     0.145 C 
ATOM      4  C   UNL     1      15.964  30.995  16.131  1.00  0.00     0.142 C 
ATOM      5  C   UNL     1      16.813  29.776  16.148  1.00  0.00     0.178 C 
ATOM      6  O   UNL     1      18.129  29.920  16.291  1.00  0.00    -0.332 OA
ENDROOT
BRANCH   1   7
ATOM      7  O   UNL     1      20.018  30.946  16.038  1.00  0.00    -0.338 OA
BRANCH   7   8
ATOM      8  C   UNL     1      20.464  30.230  17.030  1.00  0.00     0.199 C 
BRANCH   8   9
ATOM      9  C   UNL     1      21.663  29.345  17.015  1.00  0.00     0.179 C 
ATOM     10  C   UNL     1      22.338  27.384  18.074  1.00  0.00     0.282 C 
ATOM     11  O   UNL     1      21.337  28.312  17.953  1.00  0.00    -0.341 OA
ATOM     12  C   UNL     1      22.580  26.622  16.783  1.00  0.00     0.202 C 
ATOM     13  C   UNL     1      22.788  27.581  15.625  1.00  0.00     0.179 C 
ATOM     14  C   UNL     1      21.703  28.622  15.668  1.00  0.00     0.177 C 
BRANCH  10  15
ATOM     15  O   UNL     1      21.931  26.468  19.037  1.00  0.00    -0.341 OA
BRANCH  15  16
ATOM     16  C   UNL     1      22.875  26.330  20.020  1.00  0.00     0.184 C 
ATOM     17  C   UNL     1      22.979  24.911  20.449  1.00  0.00     0.178 C 
ATOM     18  O   UNL     1      22.295  24.569  21.588  1.00  0.00    -0.341 OA
ATOM     19  C   UNL     1      21.202  25.338  21.892  1.00  0.00     0.281 C 
ATOM     20  C   UNL     1      22.656  27.275  21.184  1.00  0.00     0.180 C 
ATOM     21  C   UNL     1      21.528  26.805  22.026  1.00  0.00     0.202 C 
BRANCH  17  22
ATOM     22  C   UNL     1      24.430  24.502  20.586  1.00  0.00     0.191 C 
BRANCH  22  23
ATOM     23  O   UNL     1      25.021  24.788  19.332  1.00  0.00    -0.394 OA
ATOM     24  H   UNL     1      24.889  25.753  19.184  1.00  0.00     0.210 HD
ENDBRANCH  22  23
ENDBRANCH  17  22
BRANCH  19  25
ATOM     25  O   UNL     1      20.750  24.932  23.160  1.00  0.00    -0.350 OA
BRANCH  25  26
ATOM     26  C   UNL     1      21.402  25.529  24.205  1.00  0.00     0.169 C 
BRANCH  26  27
ATOM     27  C   UNL     1      22.207  24.620  25.078  1.00  0.00     0.119 C 
BRANCH  27  28
ATOM     28  N   UNL     1      23.586  25.132  25.031  1.00  0.00    -0.092 NA
ATOM     29  N   UNL     1      23.869  26.309  25.084  1.00  0.00     0.001 N 
ATOM     30  N   UNL     1      24.242  27.463  24.849  1.00  0.00    -0.003 NA
ENDBRANCH  27  28
ENDBRANCH  26  27
ENDBRANCH  25  26
ENDBRANCH  19  25
BRANCH  20  31
ATOM     31  O   UNL     1      23.861  27.412  21.884  1.00  0.00    -0.387 OA
ATOM     32  H   UNL     1      23.632  27.190  22.834  1.00  0.00     0.211 HD
ENDBRANCH  20  31
BRANCH  21  33
ATOM     33  O   UNL     1      20.387  27.535  21.645  1.00  0.00    -0.385 OA
ATOM     34  H   UNL     1      19.942  27.954  22.426  1.00  0.00     0.211 HD
ENDBRANCH  21  33
ENDBRANCH  15  16
ENDBRANCH  10  15
BRANCH  12  35
ATOM     35  O   UNL     1      23.777  25.926  16.929  1.00  0.00    -0.385 OA
ATOM     36  H   UNL     1      23.761  25.053  16.469  1.00  0.00     0.211 HD
ENDBRANCH  12  35
BRANCH  13  37
ATOM     37  O   UNL     1      22.576  26.836  14.450  1.00  0.00    -0.387 OA
ATOM     38  H   UNL     1      21.657  27.002  14.102  1.00  0.00     0.211 HD
ENDBRANCH  13  37
BRANCH  14  39
ATOM     39  O   UNL     1      20.481  27.912  15.532  1.00  0.00    -0.387 OA
ATOM     40  H   UNL     1      20.188  27.570  16.410  1.00  0.00     0.211 HD
ENDBRANCH  14  39
ENDBRANCH   8   9
ENDBRANCH   7   8
ENDBRANCH   1   7
BRANCH   1  41
ATOM     41  C   UNL     1      18.630  30.485  14.092  1.00  0.00     0.364 C 
ATOM     42  O   UNL     1      18.363  31.235  13.154  1.00  0.00    -0.246 OA
BRANCH  41  43
ATOM     43  O   UNL     1      18.798  29.132  13.742  1.00  0.00    -0.477 OA
ATOM     44  H   UNL     1      19.730  28.738  13.711  1.00  0.00     0.296 HD
ENDBRANCH  41  43
ENDBRANCH   1  41
BRANCH   3  45
ATOM     45  O   UNL     1      16.155  33.362  16.269  1.00  0.00    -0.391 OA
ATOM     46  H   UNL     1      15.261  33.182  16.638  1.00  0.00     0.211 HD
ENDBRANCH   3  45
BRANCH   5  47
ATOM     47  C   UNL     1      16.318  28.744  17.147  1.00  0.00     0.176 C 
BRANCH  47  48
ATOM     48  O   UNL     1      15.129  29.164  17.700  1.00  0.00    -0.388 OA
ATOM     49  H   UNL     1      15.069  29.009  18.676  1.00  0.00     0.211 HD
ENDBRANCH  47  48
BRANCH  47  50
ATOM     50  C   UNL     1      17.300  28.387  18.207  1.00  0.00     0.165 C 
BRANCH  50  51
ATOM     51  O   UNL     1      18.388  27.657  17.813  1.00  0.00    -0.388 OA
ATOM     52  H   UNL     1      18.170  26.788  17.404  1.00  0.00     0.211 HD
ENDBRANCH  50  51
BRANCH  50  53
ATOM     53  C   UNL     1      16.677  27.777  19.426  1.00  0.00     0.154 C 
BRANCH  53  54
ATOM     54  N   UNL     1      16.470  28.794  20.464  1.00  0.00    -0.319 N 
ATOM     55  C   UNL     1      15.215  29.039  21.046  1.00  0.00     0.407 C 
ATOM     56  H   UNL     1      17.297  29.375  20.798  1.00  0.00     0.167 HD
ATOM     57  O   UNL     1      14.195  28.396  20.687  1.00  0.00    -0.225 OA
BRANCH  55  58
ATOM     58  O   UNL     1      15.128  30.023  22.041  1.00  0.00    -0.443 OA
BRANCH  58  59
ATOM     59  C   UNL     1      14.081  30.951  22.036  1.00  0.00     0.294 C 
BRANCH  59  60
ATOM     60  C   UNL     1      13.062  30.676  23.118  1.00  0.00     0.121 A 
ATOM     61  C   UNL     1      12.107  29.684  23.105  1.00  0.00     0.146 A 
ATOM     62  N   UNL     1      12.894  31.323  24.283  1.00  0.00    -0.131 NA
ATOM     63  N   UNL     1      11.377  29.745  24.258  1.00  0.00    -0.200 N 
ATOM     64  N   UNL     1      11.888  30.751  24.940  1.00  0.00    -0.060 NA
BRANCH  63  65
ATOM     65  C   UNL     1      10.301  28.875  24.607  1.00  0.00     0.186 A 
ATOM     66  N   UNL     1      10.444  27.611  25.040  1.00  0.00    -0.216 NA
ATOM     67  C   UNL     1       8.945  29.086  24.579  1.00  0.00     0.158 A 
ATOM     68  C   UNL     1       9.233  27.067  25.268  1.00  0.00     0.207 A 
ATOM     69  N   UNL     1       8.277  27.977  24.984  1.00  0.00    -0.291 N 
ATOM     70  C   UNL     1       8.240  30.204  24.214  1.00  0.00     0.279 A 
ATOM     71  C   UNL     1       6.934  27.945  25.037  1.00  0.00     0.071 A 
ATOM     72  N   UNL     1       6.883  30.202  24.257  1.00  0.00    -0.302 N 
ATOM     73  O   UNL     1       8.839  31.257  23.832  1.00  0.00    -0.267 OA
ATOM     74  C   UNL     1       6.258  26.825  25.440  1.00  0.00     0.029 A 
ATOM     75  C   UNL     1       6.248  29.081  24.664  1.00  0.00     0.068 A 
ATOM     76  C   UNL     1       4.855  26.791  25.489  1.00  0.00     0.002 A 
ATOM     77  C   UNL     1       4.868  29.042  24.714  1.00  0.00     0.028 A 
ATOM     78  C   UNL     1       4.159  27.918  25.119  1.00  0.00     0.002 A 
BRANCH  72  79
ATOM     79  C   UNL     1       6.130  31.398  23.876  1.00  0.00     0.085 C 
ATOM     80  C   UNL     1       5.348  31.235  22.614  1.00  0.00     0.031 C 
ATOM     81  C   UNL     1       5.344  31.970  25.029  1.00  0.00     0.031 C 
ENDBRANCH  72  79
ENDBRANCH  63  65
ENDBRANCH  59  60
ENDBRANCH  58  59
ENDBRANCH  55  58
ENDBRANCH  53  54
ENDBRANCH  50  53
ENDBRANCH  47  50
ENDBRANCH   5  47
BRANCH   4  82
ATOM     82  N   UNL     1      14.738  30.816  15.381  1.00  0.00    -0.348 N 
ATOM     83  C   UNL     1      13.470  31.221  15.855  1.00  0.00     0.217 C 
ATOM     84  H   UNL     1      14.770  30.364  14.435  1.00  0.00     0.163 HD
ATOM     85  C   UNL     1      12.214  31.030  15.072  1.00  0.00     0.114 C 
ATOM     86  O   UNL     1      13.415  31.768  16.996  1.00  0.00    -0.275 OA
ENDBRANCH   4  82
TORSDOF 31
