REMARK VINA RESULT:    -5.457      3.853      8.107
REMARK INTER + INTRA:         -20.933
REMARK INTER:                 -13.511
REMARK INTRA:                  -7.422
REMARK UNBOUND:                -6.864
REMARK SMILES CC(=O)N[C@@H]1[C@@H](O)C[C@](OC[C@H]2O[C@@H](O[C@H]3[C@H](O)[C@@H](O)[C@H](OCCN=[N+]=[N-])O[C@@H]3CO)[C@H](O)[C@@H](O)[C@H]2O)(C(=O)O)O[C@H]1C(O)[C@H](O)CNC(=O)OCc1cn(CCC2OCCO2)nn1
REMARK SMILES IDX 9 1 8 2 6 3 5 4 42 5 41 6 10 7 11 8 12 9 14 10 13 11 32 12
REMARK SMILES IDX 34 13 36 14 15 15 16 16 29 17 28 18 21 19 17 20 19 21 30 22
REMARK SMILES IDX 31 23 22 25 23 26 24 27 25 28 26 29 27 30 18 31 20 33 33 35
REMARK SMILES IDX 35 37 37 39 38 41 39 42 40 43 7 45 43 47 44 48 45 50 46 51
REMARK SMILES IDX 47 53 48 54 49 55 50 57 51 58 52 59 53 60 54 61 64 62 55 63
REMARK SMILES IDX 63 64 56 65 57 66 58 67 59 68 62 69 60 70 61 71 4 72 2 73
REMARK SMILES IDX 1 75 3 76
REMARK H PARENT 31 24 18 32 20 34 33 36 35 38 37 40 40 44 7 46 44 49 46 52
REMARK H PARENT 48 56 4 74
REMARK Flexibility Score: inf
ROOT
ATOM      1  C   UNL     1      18.062  31.723  21.088  1.00  0.00     0.272 C 
ATOM      2  C   UNL     1      18.305  30.688  22.248  1.00  0.00     0.113 C 
ATOM      3  C   UNL     1      17.065  30.419  22.990  1.00  0.00     0.145 C 
ATOM      4  C   UNL     1      16.009  29.882  22.044  1.00  0.00     0.142 C 
ATOM      5  C   UNL     1      16.272  30.263  20.627  1.00  0.00     0.178 C 
ATOM      6  O   UNL     1      16.911  31.429  20.399  1.00  0.00    -0.332 OA
ENDROOT
BRANCH   1   7
ATOM      7  O   UNL     1      19.133  31.544  20.316  1.00  0.00    -0.338 OA
BRANCH   7   8
ATOM      8  C   UNL     1      19.937  30.509  20.232  1.00  0.00     0.199 C 
BRANCH   8   9
ATOM      9  C   UNL     1      21.397  30.609  20.538  1.00  0.00     0.179 C 
ATOM     10  C   UNL     1      23.072  29.523  21.759  1.00  0.00     0.282 C 
ATOM     11  O   UNL     1      21.729  29.787  21.590  1.00  0.00    -0.341 OA
ATOM     12  C   UNL     1      24.004  30.381  20.987  1.00  0.00     0.202 C 
ATOM     13  C   UNL     1      23.619  30.555  19.543  1.00  0.00     0.179 C 
ATOM     14  C   UNL     1      22.222  30.071  19.342  1.00  0.00     0.177 C 
BRANCH  10  15
ATOM     15  O   UNL     1      23.269  28.148  21.628  1.00  0.00    -0.341 OA
BRANCH  15  16
ATOM     16  C   UNL     1      22.917  27.424  22.758  1.00  0.00     0.184 C 
ATOM     17  C   UNL     1      24.052  26.679  23.393  1.00  0.00     0.178 C 
ATOM     18  O   UNL     1      23.568  26.073  24.554  1.00  0.00    -0.341 OA
ATOM     19  C   UNL     1      22.655  25.058  24.305  1.00  0.00     0.281 C 
ATOM     20  C   UNL     1      21.898  26.322  22.352  1.00  0.00     0.180 C 
ATOM     21  C   UNL     1      21.435  25.725  23.675  1.00  0.00     0.202 C 
BRANCH  17  22
ATOM     22  C   UNL     1      25.106  27.668  23.859  1.00  0.00     0.191 C 
BRANCH  22  23
ATOM     23  O   UNL     1      26.003  27.796  22.770  1.00  0.00    -0.394 OA
ATOM     24  H   UNL     1      25.910  27.069  22.118  1.00  0.00     0.210 HD
ENDBRANCH  22  23
ENDBRANCH  17  22
BRANCH  19  25
ATOM     25  O   UNL     1      22.330  24.456  25.488  1.00  0.00    -0.350 OA
BRANCH  25  26
ATOM     26  C   UNL     1      23.179  24.682  26.534  1.00  0.00     0.169 C 
BRANCH  26  27
ATOM     27  C   UNL     1      22.657  24.241  27.884  1.00  0.00     0.119 C 
BRANCH  27  28
ATOM     28  N   UNL     1      22.881  25.280  28.871  1.00  0.00    -0.092 NA
ATOM     29  N   UNL     1      23.667  25.155  29.807  1.00  0.00     0.001 N 
ATOM     30  N   UNL     1      24.542  25.177  30.668  1.00  0.00    -0.003 NA
ENDBRANCH  27  28
ENDBRANCH  26  27
ENDBRANCH  25  26
ENDBRANCH  19  25
BRANCH  20  31
ATOM     31  O   UNL     1      20.845  26.919  21.705  1.00  0.00    -0.387 OA
ATOM     32  H   UNL     1      20.990  27.905  21.702  1.00  0.00     0.211 HD
ENDBRANCH  20  31
BRANCH  21  33
ATOM     33  O   UNL     1      20.435  24.820  23.392  1.00  0.00    -0.385 OA
ATOM     34  H   UNL     1      19.625  25.083  23.897  1.00  0.00     0.211 HD
ENDBRANCH  21  33
ENDBRANCH  15  16
ENDBRANCH  10  15
BRANCH  12  35
ATOM     35  O   UNL     1      24.122  31.638  21.631  1.00  0.00    -0.385 OA
ATOM     36  H   UNL     1      25.097  31.827  21.645  1.00  0.00     0.211 HD
ENDBRANCH  12  35
BRANCH  13  37
ATOM     37  O   UNL     1      24.533  29.947  18.682  1.00  0.00    -0.387 OA
ATOM     38  H   UNL     1      24.293  28.985  18.619  1.00  0.00     0.211 HD
ENDBRANCH  13  37
BRANCH  14  39
ATOM     39  O   UNL     1      22.098  28.698  19.301  1.00  0.00    -0.387 OA
ATOM     40  H   UNL     1      22.714  28.218  19.909  1.00  0.00     0.211 HD
ENDBRANCH  14  39
ENDBRANCH   8   9
ENDBRANCH   7   8
ENDBRANCH   1   7
BRANCH   1  41
ATOM     41  C   UNL     1      17.846  32.977  21.810  1.00  0.00     0.364 C 
ATOM     42  O   UNL     1      16.750  33.644  21.604  1.00  0.00    -0.246 OA
BRANCH  41  43
ATOM     43  O   UNL     1      18.668  33.589  22.728  1.00  0.00    -0.477 OA
ATOM     44  H   UNL     1      19.616  33.829  22.474  1.00  0.00     0.296 HD
ENDBRANCH  41  43
ENDBRANCH   1  41
BRANCH   3  45
ATOM     45  O   UNL     1      17.387  29.427  23.961  1.00  0.00    -0.391 OA
ATOM     46  H   UNL     1      17.940  28.740  23.476  1.00  0.00     0.211 HD
ENDBRANCH   3  45
BRANCH   5  47
ATOM     47  C   UNL     1      16.807  29.086  19.867  1.00  0.00     0.176 C 
BRANCH  47  48
ATOM     48  O   UNL     1      16.496  27.858  20.468  1.00  0.00    -0.388 OA
ATOM     49  H   UNL     1      17.274  27.514  20.997  1.00  0.00     0.211 HD
ENDBRANCH  47  48
BRANCH  47  50
ATOM     50  C   UNL     1      16.095  28.986  18.488  1.00  0.00     0.165 C 
BRANCH  50  51
ATOM     51  O   UNL     1      14.756  28.766  18.706  1.00  0.00    -0.388 OA
ATOM     52  H   UNL     1      14.204  29.569  18.655  1.00  0.00     0.211 HD
ENDBRANCH  50  51
BRANCH  50  53
ATOM     53  C   UNL     1      16.826  28.006  17.664  1.00  0.00     0.154 C 
BRANCH  53  54
ATOM     54  N   UNL     1      17.880  28.608  16.910  1.00  0.00    -0.319 N 
ATOM     55  C   UNL     1      19.235  28.508  17.221  1.00  0.00     0.407 C 
ATOM     56  H   UNL     1      17.597  29.161  16.063  1.00  0.00     0.167 HD
ATOM     57  O   UNL     1      19.625  27.877  18.217  1.00  0.00    -0.225 OA
BRANCH  55  58
ATOM     58  O   UNL     1      20.246  29.102  16.452  1.00  0.00    -0.443 OA
BRANCH  58  59
ATOM     59  C   UNL     1      21.033  28.332  15.562  1.00  0.00     0.294 C 
BRANCH  59  60
ATOM     60  C   UNL     1      22.215  27.728  16.219  1.00  0.00     0.120 A 
ATOM     61  C   UNL     1      22.320  26.388  16.605  1.00  0.00     0.138 A 
ATOM     62  N   UNL     1      23.385  28.279  16.578  1.00  0.00    -0.132 NA
ATOM     63  N   UNL     1      23.538  26.184  17.176  1.00  0.00    -0.252 N 
ATOM     64  N   UNL     1      24.156  27.342  17.146  1.00  0.00    -0.067 NA
BRANCH  63  65
ATOM     65  C   UNL     1      23.961  24.886  17.680  1.00  0.00     0.151 C 
BRANCH  65  66
ATOM     66  C   UNL     1      23.399  24.647  19.075  1.00  0.00     0.086 C 
BRANCH  66  67
ATOM     67  C   UNL     1      24.468  24.753  20.124  1.00  0.00     0.251 C 
ATOM     68  O   UNL     1      24.133  23.939  21.208  1.00  0.00    -0.350 OA
ATOM     69  O   UNL     1      25.705  24.312  19.698  1.00  0.00    -0.350 OA
ATOM     70  C   UNL     1      25.325  23.768  21.901  1.00  0.00     0.192 C 
ATOM     71  C   UNL     1      26.392  24.249  20.933  1.00  0.00     0.192 C 
ENDBRANCH  66  67
ENDBRANCH  65  66
ENDBRANCH  63  65
ENDBRANCH  59  60
ENDBRANCH  58  59
ENDBRANCH  55  58
ENDBRANCH  53  54
ENDBRANCH  50  53
ENDBRANCH  47  50
ENDBRANCH   5  47
BRANCH   4  72
ATOM     72  N   UNL     1      14.672  30.257  22.500  1.00  0.00    -0.348 N 
ATOM     73  C   UNL     1      13.524  29.511  22.219  1.00  0.00     0.217 C 
ATOM     74  H   UNL     1      14.605  31.149  23.072  1.00  0.00     0.163 HD
ATOM     75  C   UNL     1      12.186  29.962  22.723  1.00  0.00     0.114 C 
ATOM     76  O   UNL     1      13.662  28.459  21.536  1.00  0.00    -0.275 OA
ENDBRANCH   4  72
TORSDOF 32
