REMARK VINA RESULT:    -6.574      3.192     10.292
REMARK INTER + INTRA:         -21.314
REMARK INTER:                 -14.165
REMARK INTRA:                  -7.149
REMARK UNBOUND:                -4.749
REMARK SMILES CC(=O)N[C@@H]1[C@@H](O)C[C@](OC[C@H]2O[C@@H](O[C@H]3[C@H](O)[C@@H](O)[C@H](OCCN=[N+]=[N-])O[C@@H]3CO)[C@H](O)[C@@H](O)[C@H]2O)(C(=O)O)O[C@H]1C(O)[C@H](O)CNC(=O)OCc1cn(-c2ccccc2C(C)=O)nn1
REMARK SMILES IDX 9 1 8 2 6 3 5 4 42 5 41 6 10 7 11 8 12 9 14 10 13 11 32 12
REMARK SMILES IDX 34 13 36 14 15 15 16 16 29 17 28 18 21 19 17 20 19 21 30 22
REMARK SMILES IDX 31 23 22 25 23 26 24 27 25 28 26 29 27 30 18 31 20 33 33 35
REMARK SMILES IDX 35 37 37 39 38 41 39 42 40 43 7 45 43 47 44 48 45 50 46 51
REMARK SMILES IDX 47 53 48 54 49 55 50 57 51 58 52 59 53 60 54 61 66 62 55 63
REMARK SMILES IDX 65 64 56 65 61 66 57 67 60 68 58 69 59 70 62 71 64 72 63 73
REMARK SMILES IDX 4 74 2 75 1 77 3 78
REMARK H PARENT 31 24 18 32 20 34 33 36 35 38 37 40 40 44 7 46 44 49 46 52
REMARK H PARENT 48 56 4 76
REMARK Flexibility Score: inf
ROOT
ATOM      1  C   UNL     1      24.858  26.902  26.723  1.00  0.00     0.272 C 
ATOM      2  C   UNL     1      25.694  25.873  27.428  1.00  0.00     0.113 C 
ATOM      3  C   UNL     1      26.247  26.499  28.682  1.00  0.00     0.145 C 
ATOM      4  C   UNL     1      25.030  26.733  29.561  1.00  0.00     0.142 C 
ATOM      5  C   UNL     1      24.216  27.775  28.841  1.00  0.00     0.178 C 
ATOM      6  O   UNL     1      24.497  27.995  27.544  1.00  0.00    -0.332 OA
ENDROOT
BRANCH   1   7
ATOM      7  O   UNL     1      23.762  26.505  26.129  1.00  0.00    -0.338 OA
BRANCH   7   8
ATOM      8  C   UNL     1      23.354  25.391  25.607  1.00  0.00     0.199 C 
BRANCH   8   9
ATOM      9  C   UNL     1      22.729  25.224  24.274  1.00  0.00     0.179 C 
ATOM     10  C   UNL     1      21.868  26.501  22.547  1.00  0.00     0.282 C 
ATOM     11  O   UNL     1      22.600  26.536  23.720  1.00  0.00    -0.341 OA
ATOM     12  C   UNL     1      21.666  25.166  21.936  1.00  0.00     0.202 C 
ATOM     13  C   UNL     1      22.790  24.189  22.091  1.00  0.00     0.179 C 
ATOM     14  C   UNL     1      23.676  24.542  23.259  1.00  0.00     0.177 C 
BRANCH  10  15
ATOM     15  O   UNL     1      22.454  27.356  21.615  1.00  0.00    -0.341 OA
BRANCH  15  16
ATOM     16  C   UNL     1      21.893  27.207  20.349  1.00  0.00     0.184 C 
ATOM     17  C   UNL     1      22.941  27.582  19.330  1.00  0.00     0.178 C 
ATOM     18  O   UNL     1      22.609  28.651  18.539  1.00  0.00    -0.341 OA
ATOM     19  C   UNL     1      21.395  28.578  17.902  1.00  0.00     0.281 C 
ATOM     20  C   UNL     1      20.788  28.269  20.260  1.00  0.00     0.180 C 
ATOM     21  C   UNL     1      20.261  28.248  18.861  1.00  0.00     0.202 C 
BRANCH  17  22
ATOM     22  C   UNL     1      23.277  26.342  18.522  1.00  0.00     0.191 C 
BRANCH  22  23
ATOM     23  O   UNL     1      22.244  25.423  18.697  1.00  0.00    -0.394 OA
ATOM     24  H   UNL     1      22.481  24.641  19.228  1.00  0.00     0.210 HD
ENDBRANCH  22  23
ENDBRANCH  17  22
BRANCH  19  25
ATOM     25  O   UNL     1      21.373  27.762  16.789  1.00  0.00    -0.350 OA
BRANCH  25  26
ATOM     26  C   UNL     1      22.035  28.394  15.748  1.00  0.00     0.169 C 
BRANCH  26  27
ATOM     27  C   UNL     1      22.859  27.370  14.982  1.00  0.00     0.119 C 
BRANCH  27  28
ATOM     28  N   UNL     1      22.219  26.050  15.063  1.00  0.00    -0.092 NA
ATOM     29  N   UNL     1      22.979  25.084  15.102  1.00  0.00     0.001 N 
ATOM     30  N   UNL     1      23.596  24.035  15.032  1.00  0.00    -0.003 NA
ENDBRANCH  27  28
ENDBRANCH  26  27
ENDBRANCH  25  26
ENDBRANCH  19  25
BRANCH  20  31
ATOM     31  O   UNL     1      19.831  28.014  21.215  1.00  0.00    -0.387 OA
ATOM     32  H   UNL     1      20.221  27.564  22.027  1.00  0.00     0.211 HD
ENDBRANCH  20  31
BRANCH  21  33
ATOM     33  O   UNL     1      19.167  29.099  18.694  1.00  0.00    -0.385 OA
ATOM     34  H   UNL     1      18.321  28.564  18.790  1.00  0.00     0.211 HD
ENDBRANCH  21  33
ENDBRANCH  15  16
ENDBRANCH  10  15
BRANCH  12  35
ATOM     35  O   UNL     1      20.428  24.609  22.292  1.00  0.00    -0.385 OA
ATOM     36  H   UNL     1      20.388  23.645  22.068  1.00  0.00     0.211 HD
ENDBRANCH  12  35
BRANCH  13  37
ATOM     37  O   UNL     1      23.608  24.146  20.949  1.00  0.00    -0.387 OA
ATOM     38  H   UNL     1      23.006  23.941  20.186  1.00  0.00     0.211 HD
ENDBRANCH  13  37
BRANCH  14  39
ATOM     39  O   UNL     1      24.679  25.444  22.886  1.00  0.00    -0.387 OA
ATOM     40  H   UNL     1      24.927  26.063  23.620  1.00  0.00     0.211 HD
ENDBRANCH  14  39
ENDBRANCH   8   9
ENDBRANCH   7   8
ENDBRANCH   1   7
BRANCH   1  41
ATOM     41  C   UNL     1      25.807  27.571  25.788  1.00  0.00     0.364 C 
ATOM     42  O   UNL     1      26.462  28.603  26.163  1.00  0.00    -0.246 OA
BRANCH  41  43
ATOM     43  O   UNL     1      26.066  27.188  24.496  1.00  0.00    -0.477 OA
ATOM     44  H   UNL     1      25.437  27.383  23.729  1.00  0.00     0.296 HD
ENDBRANCH  41  43
ENDBRANCH   1  41
BRANCH   3  45
ATOM     45  O   UNL     1      27.112  25.566  29.247  1.00  0.00    -0.391 OA
ATOM     46  H   UNL     1      27.791  26.004  29.825  1.00  0.00     0.211 HD
ENDBRANCH   3  45
BRANCH   5  47
ATOM     47  C   UNL     1      22.698  27.527  29.115  1.00  0.00     0.176 C 
BRANCH  47  48
ATOM     48  O   UNL     1      22.542  26.125  28.794  1.00  0.00    -0.388 OA
ATOM     49  H   UNL     1      22.327  26.164  27.812  1.00  0.00     0.211 HD
ENDBRANCH  47  48
BRANCH  47  50
ATOM     50  C   UNL     1      21.852  28.267  28.167  1.00  0.00     0.165 C 
BRANCH  50  51
ATOM     51  O   UNL     1      21.370  29.479  28.723  1.00  0.00    -0.388 OA
ATOM     52  H   UNL     1      20.787  29.308  29.494  1.00  0.00     0.211 HD
ENDBRANCH  50  51
BRANCH  50  53
ATOM     53  C   UNL     1      20.977  27.613  27.197  1.00  0.00     0.154 C 
BRANCH  53  54
ATOM     54  N   UNL     1      21.056  28.053  25.854  1.00  0.00    -0.319 N 
ATOM     55  C   UNL     1      20.577  29.259  25.295  1.00  0.00     0.407 C 
ATOM     56  H   UNL     1      21.539  27.416  25.139  1.00  0.00     0.167 HD
ATOM     57  O   UNL     1      19.980  30.068  26.042  1.00  0.00    -0.225 OA
BRANCH  55  58
ATOM     58  O   UNL     1      20.725  29.611  23.961  1.00  0.00    -0.443 OA
BRANCH  58  59
ATOM     59  C   UNL     1      20.381  30.897  23.516  1.00  0.00     0.294 C 
BRANCH  59  60
ATOM     60  C   UNL     1      19.173  30.755  22.632  1.00  0.00     0.121 A 
ATOM     61  C   UNL     1      17.915  30.345  23.004  1.00  0.00     0.144 A 
ATOM     62  N   UNL     1      19.080  30.992  21.316  1.00  0.00    -0.131 NA
ATOM     63  N   UNL     1      17.112  30.351  21.891  1.00  0.00    -0.220 N 
ATOM     64  N   UNL     1      17.862  30.751  20.887  1.00  0.00    -0.062 NA
BRANCH  63  65
ATOM     65  C   UNL     1      15.749  29.944  21.894  1.00  0.00     0.077 A 
ATOM     66  C   UNL     1      15.168  29.099  21.018  1.00  0.00     0.043 A 
ATOM     67  C   UNL     1      14.967  30.493  22.929  1.00  0.00     0.029 A 
ATOM     68  C   UNL     1      13.797  28.811  21.190  1.00  0.00     0.014 A 
ATOM     69  C   UNL     1      13.631  30.194  23.073  1.00  0.00     0.002 A 
ATOM     70  C   UNL     1      13.027  29.334  22.188  1.00  0.00     0.001 A 
BRANCH  66  71
ATOM     71  C   UNL     1      15.890  28.493  19.924  1.00  0.00     0.161 C 
ATOM     72  O   UNL     1      16.760  27.606  20.272  1.00  0.00    -0.294 OA
ATOM     73  C   UNL     1      15.767  28.746  18.487  1.00  0.00     0.093 C 
ENDBRANCH  66  71
ENDBRANCH  63  65
ENDBRANCH  59  60
ENDBRANCH  58  59
ENDBRANCH  55  58
ENDBRANCH  53  54
ENDBRANCH  50  53
ENDBRANCH  47  50
ENDBRANCH   5  47
BRANCH   4  74
ATOM     74  N   UNL     1      25.385  27.113  30.895  1.00  0.00    -0.348 N 
ATOM     75  C   UNL     1      24.938  26.429  32.052  1.00  0.00     0.217 C 
ATOM     76  H   UNL     1      26.015  27.952  30.997  1.00  0.00     0.163 HD
ATOM     77  C   UNL     1      25.374  26.914  33.407  1.00  0.00     0.114 C 
ATOM     78  O   UNL     1      24.193  25.440  31.892  1.00  0.00    -0.275 OA
ENDBRANCH   4  74
TORSDOF 31
