REMARK VINA RESULT:    -6.057      7.885     11.889
REMARK INTER + INTRA:         -21.536
REMARK INTER:                 -12.489
REMARK INTRA:                  -9.047
REMARK UNBOUND:                -6.272
REMARK SMILES CC(=O)N[C@@H]1[C@@H](O)C[C@](OC[C@H]2O[C@@H](O[C@H]3[C@H](O)[C@@H](O)[C@H](OCCN=[N+]=[N-])O[C@@H]3CO)[C@H](O)[C@@H](O)[C@H]2O)(C(=O)O)O[C@H]1C(O)[C@H](O)CNC(=O)OCc1cn(Cc2cccc(Br)c2)nn1
REMARK SMILES IDX 9 1 8 2 6 3 5 4 42 5 41 6 10 7 11 8 12 9 14 10 13 11 32 12
REMARK SMILES IDX 34 13 36 14 15 15 16 16 29 17 28 18 21 19 17 20 19 21 30 22
REMARK SMILES IDX 31 23 22 25 23 26 24 27 25 28 26 29 27 30 18 31 20 33 33 35
REMARK SMILES IDX 35 37 37 39 38 41 39 42 40 43 7 45 43 47 44 48 45 50 46 51
REMARK SMILES IDX 47 53 48 54 49 55 50 57 51 58 52 59 53 60 54 61 65 62 55 63
REMARK SMILES IDX 64 64 56 65 57 66 58 67 63 68 59 69 61 70 60 71 62 72 4 73
REMARK SMILES IDX 2 74 1 76 3 77
REMARK H PARENT 31 24 18 32 20 34 33 36 35 38 37 40 40 44 7 46 44 49 46 52
REMARK H PARENT 48 56 4 75
REMARK Flexibility Score: inf
ROOT
ATOM      1  C   UNL     1      25.443  23.576  11.481  1.00  0.00     0.272 C 
ATOM      2  C   UNL     1      24.355  24.378  10.873  1.00  0.00     0.113 C 
ATOM      3  C   UNL     1      23.008  24.190  11.493  1.00  0.00     0.145 C 
ATOM      4  C   UNL     1      22.789  22.788  12.017  1.00  0.00     0.142 C 
ATOM      5  C   UNL     1      24.006  22.101  12.454  1.00  0.00     0.178 C 
ATOM      6  O   UNL     1      25.127  22.855  12.599  1.00  0.00    -0.332 OA
ENDROOT
BRANCH   1   7
ATOM      7  O   UNL     1      26.544  24.441  11.770  1.00  0.00    -0.338 OA
BRANCH   7   8
ATOM      8  C   UNL     1      27.674  23.756  12.112  1.00  0.00     0.199 C 
BRANCH   8   9
ATOM      9  C   UNL     1      28.245  24.286  13.445  1.00  0.00     0.179 C 
ATOM     10  C   UNL     1      27.389  24.970  15.515  1.00  0.00     0.282 C 
ATOM     11  O   UNL     1      27.186  24.789  14.127  1.00  0.00    -0.341 OA
ATOM     12  C   UNL     1      28.815  24.880  15.889  1.00  0.00     0.202 C 
ATOM     13  C   UNL     1      29.474  23.593  15.424  1.00  0.00     0.179 C 
ATOM     14  C   UNL     1      28.791  23.076  14.171  1.00  0.00     0.177 C 
BRANCH  10  15
ATOM     15  O   UNL     1      26.517  24.083  16.096  1.00  0.00    -0.341 OA
BRANCH  15  16
ATOM     16  C   UNL     1      25.446  24.595  16.736  1.00  0.00     0.184 C 
ATOM     17  C   UNL     1      25.351  23.982  18.110  1.00  0.00     0.178 C 
ATOM     18  O   UNL     1      24.353  24.640  18.825  1.00  0.00    -0.341 OA
ATOM     19  C   UNL     1      23.076  24.447  18.296  1.00  0.00     0.281 C 
ATOM     20  C   UNL     1      24.111  24.251  16.084  1.00  0.00     0.180 C 
ATOM     21  C   UNL     1      23.075  25.035  16.905  1.00  0.00     0.202 C 
BRANCH  17  22
ATOM     22  C   UNL     1      26.640  24.184  18.832  1.00  0.00     0.191 C 
BRANCH  22  23
ATOM     23  O   UNL     1      27.516  23.143  18.586  1.00  0.00    -0.394 OA
ATOM     24  H   UNL     1      27.902  23.281  17.682  1.00  0.00     0.210 HD
ENDBRANCH  22  23
ENDBRANCH  17  22
BRANCH  19  25
ATOM     25  O   UNL     1      22.205  25.085  19.154  1.00  0.00    -0.350 OA
BRANCH  25  26
ATOM     26  C   UNL     1      22.714  25.393  20.385  1.00  0.00     0.169 C 
BRANCH  26  27
ATOM     27  C   UNL     1      21.791  25.079  21.540  1.00  0.00     0.119 C 
BRANCH  27  28
ATOM     28  N   UNL     1      22.474  25.472  22.752  1.00  0.00    -0.092 NA
ATOM     29  N   UNL     1      23.392  24.846  23.260  1.00  0.00     0.001 N 
ATOM     30  N   UNL     1      24.391  24.223  23.612  1.00  0.00    -0.003 NA
ENDBRANCH  27  28
ENDBRANCH  26  27
ENDBRANCH  25  26
ENDBRANCH  19  25
BRANCH  20  31
ATOM     31  O   UNL     1      24.003  24.662  14.786  1.00  0.00    -0.387 OA
ATOM     32  H   UNL     1      23.169  25.130  14.560  1.00  0.00     0.211 HD
ENDBRANCH  20  31
BRANCH  21  33
ATOM     33  O   UNL     1      21.879  24.930  16.245  1.00  0.00    -0.385 OA
ATOM     34  H   UNL     1      21.994  24.839  15.245  1.00  0.00     0.211 HD
ENDBRANCH  21  33
ENDBRANCH  15  16
ENDBRANCH  10  15
BRANCH  12  35
ATOM     35  O   UNL     1      29.485  25.961  15.261  1.00  0.00    -0.385 OA
ATOM     36  H   UNL     1      30.386  26.062  15.663  1.00  0.00     0.211 HD
ENDBRANCH  12  35
BRANCH  13  37
ATOM     37  O   UNL     1      29.544  22.637  16.433  1.00  0.00    -0.387 OA
ATOM     38  H   UNL     1      30.518  22.495  16.668  1.00  0.00     0.211 HD
ENDBRANCH  13  37
BRANCH  14  39
ATOM     39  O   UNL     1      27.749  22.213  14.421  1.00  0.00    -0.387 OA
ATOM     40  H   UNL     1      26.907  22.541  13.981  1.00  0.00     0.211 HD
ENDBRANCH  14  39
ENDBRANCH   8   9
ENDBRANCH   7   8
ENDBRANCH   1   7
BRANCH   1  41
ATOM     41  C   UNL     1      25.994  22.645  10.451  1.00  0.00     0.364 C 
ATOM     42  O   UNL     1      26.045  23.031   9.230  1.00  0.00    -0.246 OA
BRANCH  41  43
ATOM     43  O   UNL     1      26.463  21.381  10.680  1.00  0.00    -0.477 OA
ATOM     44  H   UNL     1      27.210  21.267  11.378  1.00  0.00     0.296 HD
ENDBRANCH  41  43
ENDBRANCH   1  41
BRANCH   3  45
ATOM     45  O   UNL     1      22.734  25.171  12.435  1.00  0.00    -0.391 OA
ATOM     46  H   UNL     1      22.333  25.985  12.059  1.00  0.00     0.211 HD
ENDBRANCH   3  45
BRANCH   5  47
ATOM     47  C   UNL     1      23.791  21.269  13.729  1.00  0.00     0.176 C 
BRANCH  47  48
ATOM     48  O   UNL     1      22.583  21.812  14.326  1.00  0.00    -0.388 OA
ATOM     49  H   UNL     1      21.961  21.047  14.423  1.00  0.00     0.211 HD
ENDBRANCH  47  48
BRANCH  47  50
ATOM     50  C   UNL     1      23.529  19.826  13.502  1.00  0.00     0.165 C 
BRANCH  50  51
ATOM     51  O   UNL     1      23.030  19.348  14.771  1.00  0.00    -0.388 OA
ATOM     52  H   UNL     1      22.181  18.842  14.585  1.00  0.00     0.211 HD
ENDBRANCH  50  51
BRANCH  50  53
ATOM     53  C   UNL     1      24.696  18.936  13.233  1.00  0.00     0.154 C 
BRANCH  53  54
ATOM     54  N   UNL     1      25.913  19.337  13.921  1.00  0.00    -0.319 N 
ATOM     55  C   UNL     1      27.159  19.168  13.269  1.00  0.00     0.407 C 
ATOM     56  H   UNL     1      25.893  19.743  14.873  1.00  0.00     0.167 HD
ATOM     57  O   UNL     1      27.206  18.672  12.109  1.00  0.00    -0.225 OA
BRANCH  55  58
ATOM     58  O   UNL     1      28.353  19.544  13.884  1.00  0.00    -0.443 OA
BRANCH  58  59
ATOM     59  C   UNL     1      28.943  18.639  14.828  1.00  0.00     0.294 C 
BRANCH  59  60
ATOM     60  C   UNL     1      28.663  19.145  16.192  1.00  0.00     0.120 A 
ATOM     61  C   UNL     1      29.133  18.672  17.392  1.00  0.00     0.138 A 
ATOM     62  N   UNL     1      27.872  20.191  16.465  1.00  0.00    -0.132 NA
ATOM     63  N   UNL     1      28.608  19.451  18.357  1.00  0.00    -0.248 N 
ATOM     64  N   UNL     1      27.847  20.363  17.771  1.00  0.00    -0.067 NA
BRANCH  63  65
ATOM     65  C   UNL     1      28.854  19.291  19.788  1.00  0.00     0.181 C 
BRANCH  65  66
ATOM     66  C   UNL     1      29.048  20.606  20.451  1.00  0.00    -0.025 A 
ATOM     67  C   UNL     1      28.111  21.090  21.341  1.00  0.00     0.006 A 
ATOM     68  C   UNL     1      30.144  21.402  20.220  1.00  0.00     0.021 A 
ATOM     69  C   UNL     1      28.231  22.300  21.986  1.00  0.00     0.002 A 
ATOM     70  C   UNL     1      30.296  22.617  20.847  1.00  0.00     0.018 A 
ATOM     71  C   UNL     1      29.361  23.091  21.731  1.00  0.00     0.016 A 
ATOM     72  Br  UNL     1      31.822  23.728  20.529  1.00  0.00    -0.051 Br
ENDBRANCH  65  66
ENDBRANCH  63  65
ENDBRANCH  59  60
ENDBRANCH  58  59
ENDBRANCH  55  58
ENDBRANCH  53  54
ENDBRANCH  50  53
ENDBRANCH  47  50
ENDBRANCH   5  47
BRANCH   4  73
ATOM     73  N   UNL     1      22.085  21.988  10.982  1.00  0.00    -0.348 N 
ATOM     74  C   UNL     1      20.820  21.413  11.256  1.00  0.00     0.217 C 
ATOM     75  H   UNL     1      22.511  21.835  10.033  1.00  0.00     0.163 HD
ATOM     76  C   UNL     1      20.088  20.598  10.224  1.00  0.00     0.114 C 
ATOM     77  O   UNL     1      20.308  21.595  12.393  1.00  0.00    -0.275 OA
ENDBRANCH   4  73
TORSDOF 31
