REMARK VINA RESULT:    -6.647      7.043     12.069
REMARK INTER + INTRA:         -22.599
REMARK INTER:                 -14.557
REMARK INTRA:                  -8.042
REMARK UNBOUND:                -5.460
REMARK SMILES CC(=O)N[C@@H]1[C@@H](O)C[C@](OC[C@H]2O[C@@H](O[C@H]3[C@H](O)[C@@H](O)[C@H](OCCN=[N+]=[N-])O[C@@H]3CO)[C@H](O)[C@@H](O)[C@H]2O)(C(=O)O)O[C@H]1C(O)[C@H](O)CNC(=O)OCc1cn(C(c2ccccc2)c2ccccc2)nn1
REMARK SMILES IDX 9 1 8 2 6 3 5 4 42 5 41 6 10 7 11 8 12 9 14 10 13 11 32 12
REMARK SMILES IDX 34 13 36 14 15 15 16 16 29 17 28 18 21 19 17 20 19 21 30 22
REMARK SMILES IDX 31 23 22 25 23 26 24 27 25 28 26 29 27 30 18 31 20 33 33 35
REMARK SMILES IDX 35 37 37 39 38 41 39 42 40 43 7 45 43 47 44 48 45 50 46 51
REMARK SMILES IDX 47 53 48 54 49 55 50 57 51 58 52 59 53 60 54 61 70 62 55 63
REMARK SMILES IDX 69 64 56 65 57 66 58 67 62 68 59 69 61 70 60 71 63 72 64 73
REMARK SMILES IDX 68 74 65 75 67 76 66 77 4 78 2 79 1 81 3 82
REMARK H PARENT 31 24 18 32 20 34 33 36 35 38 37 40 40 44 7 46 44 49 46 52
REMARK H PARENT 48 56 4 80
REMARK Flexibility Score: inf
ROOT
ATOM      1  C   UNL     1      12.267  33.424  23.583  1.00  0.00     0.272 C 
ATOM      2  C   UNL     1      11.217  33.431  24.713  1.00  0.00     0.113 C 
ATOM      3  C   UNL     1      10.740  34.806  24.946  1.00  0.00     0.145 C 
ATOM      4  C   UNL     1      10.149  35.366  23.676  1.00  0.00     0.142 C 
ATOM      5  C   UNL     1      10.630  34.683  22.449  1.00  0.00     0.178 C 
ATOM      6  O   UNL     1      11.869  34.132  22.514  1.00  0.00    -0.332 OA
ENDROOT
BRANCH   1   7
ATOM      7  O   UNL     1      12.469  32.085  23.207  1.00  0.00    -0.338 OA
BRANCH   7   8
ATOM      8  C   UNL     1      11.564  31.251  23.808  1.00  0.00     0.199 C 
BRANCH   8   9
ATOM      9  C   UNL     1      12.076  29.815  23.913  1.00  0.00     0.179 C 
ATOM     10  C   UNL     1      13.564  29.170  22.164  1.00  0.00     0.282 C 
ATOM     11  O   UNL     1      12.355  29.305  22.743  1.00  0.00    -0.341 OA
ATOM     12  C   UNL     1      14.682  29.731  22.903  1.00  0.00     0.202 C 
ATOM     13  C   UNL     1      14.542  29.697  24.385  1.00  0.00     0.179 C 
ATOM     14  C   UNL     1      13.173  29.695  24.945  1.00  0.00     0.177 C 
BRANCH  10  15
ATOM     15  O   UNL     1      13.364  29.720  20.860  1.00  0.00    -0.341 OA
BRANCH  15  16
ATOM     16  C   UNL     1      14.544  29.946  20.219  1.00  0.00     0.184 C 
ATOM     17  C   UNL     1      14.516  31.198  19.417  1.00  0.00     0.178 C 
ATOM     18  O   UNL     1      15.802  31.508  18.954  1.00  0.00    -0.341 OA
ATOM     19  C   UNL     1      16.166  30.629  17.971  1.00  0.00     0.281 C 
ATOM     20  C   UNL     1      14.873  28.823  19.242  1.00  0.00     0.180 C 
ATOM     21  C   UNL     1      15.421  29.356  17.978  1.00  0.00     0.202 C 
BRANCH  17  22
ATOM     22  C   UNL     1      13.894  32.391  20.116  1.00  0.00     0.191 C 
BRANCH  22  23
ATOM     23  O   UNL     1      12.518  32.200  20.201  1.00  0.00    -0.394 OA
ATOM     24  H   UNL     1      12.109  32.604  20.995  1.00  0.00     0.210 HD
ENDBRANCH  22  23
ENDBRANCH  17  22
BRANCH  19  25
ATOM     25  O   UNL     1      17.557  30.435  17.934  1.00  0.00    -0.350 OA
BRANCH  25  26
ATOM     26  C   UNL     1      18.229  30.862  19.042  1.00  0.00     0.169 C 
BRANCH  26  27
ATOM     27  C   UNL     1      18.692  29.667  19.844  1.00  0.00     0.119 C 
BRANCH  27  28
ATOM     28  N   UNL     1      18.366  29.807  21.261  1.00  0.00    -0.092 NA
ATOM     29  N   UNL     1      19.220  29.750  22.137  1.00  0.00     0.001 N 
ATOM     30  N   UNL     1      20.075  29.349  22.936  1.00  0.00    -0.003 NA
ENDBRANCH  27  28
ENDBRANCH  26  27
ENDBRANCH  25  26
ENDBRANCH  19  25
BRANCH  20  31
ATOM     31  O   UNL     1      15.712  27.933  19.914  1.00  0.00    -0.387 OA
ATOM     32  H   UNL     1      16.353  27.494  19.292  1.00  0.00     0.211 HD
ENDBRANCH  20  31
BRANCH  21  33
ATOM     33  O   UNL     1      14.349  29.426  17.040  1.00  0.00    -0.385 OA
ATOM     34  H   UNL     1      14.528  28.692  16.387  1.00  0.00     0.211 HD
ENDBRANCH  21  33
ENDBRANCH  15  16
ENDBRANCH  10  15
BRANCH  12  35
ATOM     35  O   UNL     1      15.917  29.090  22.629  1.00  0.00    -0.385 OA
ATOM     36  H   UNL     1      16.021  29.131  21.648  1.00  0.00     0.211 HD
ENDBRANCH  12  35
BRANCH  13  37
ATOM     37  O   UNL     1      15.270  30.754  24.991  1.00  0.00    -0.387 OA
ATOM     38  H   UNL     1      15.255  30.636  25.976  1.00  0.00     0.211 HD
ENDBRANCH  13  37
BRANCH  14  39
ATOM     39  O   UNL     1      13.019  30.806  25.791  1.00  0.00    -0.387 OA
ATOM     40  H   UNL     1      12.477  30.591  26.587  1.00  0.00     0.211 HD
ENDBRANCH  14  39
ENDBRANCH   8   9
ENDBRANCH   7   8
ENDBRANCH   1   7
BRANCH   1  41
ATOM     41  C   UNL     1      13.493  33.941  24.191  1.00  0.00     0.364 C 
ATOM     42  O   UNL     1      13.978  33.415  25.211  1.00  0.00    -0.246 OA
BRANCH  41  43
ATOM     43  O   UNL     1      14.180  35.041  23.670  1.00  0.00    -0.477 OA
ATOM     44  H   UNL     1      14.727  34.960  22.826  1.00  0.00     0.296 HD
ENDBRANCH  41  43
ENDBRANCH   1  41
BRANCH   3  45
ATOM     45  O   UNL     1       9.740  34.736  25.940  1.00  0.00    -0.391 OA
ATOM     46  H   UNL     1       8.848  34.927  25.556  1.00  0.00     0.211 HD
ENDBRANCH   3  45
BRANCH   5  47
ATOM     47  C   UNL     1       9.678  33.725  21.792  1.00  0.00     0.176 C 
BRANCH  47  48
ATOM     48  O   UNL     1       9.382  34.275  20.527  1.00  0.00    -0.388 OA
ATOM     49  H   UNL     1       8.833  33.692  19.974  1.00  0.00     0.211 HD
ENDBRANCH  47  48
BRANCH  47  50
ATOM     50  C   UNL     1       8.394  33.484  22.498  1.00  0.00     0.165 C 
BRANCH  50  51
ATOM     51  O   UNL     1       8.326  32.122  22.772  1.00  0.00    -0.388 OA
ATOM     52  H   UNL     1       9.197  31.739  23.053  1.00  0.00     0.211 HD
ENDBRANCH  50  51
BRANCH  50  53
ATOM     53  C   UNL     1       7.159  33.912  21.784  1.00  0.00     0.154 C 
BRANCH  53  54
ATOM     54  N   UNL     1       6.317  32.870  21.291  1.00  0.00    -0.319 N 
ATOM     55  C   UNL     1       6.451  32.150  20.100  1.00  0.00     0.407 C 
ATOM     56  H   UNL     1       5.479  32.601  21.900  1.00  0.00     0.167 HD
ATOM     57  O   UNL     1       7.378  32.397  19.321  1.00  0.00    -0.225 OA
BRANCH  55  58
ATOM     58  O   UNL     1       5.551  31.142  19.760  1.00  0.00    -0.443 OA
BRANCH  58  59
ATOM     59  C   UNL     1       5.729  29.819  20.291  1.00  0.00     0.294 C 
BRANCH  59  60
ATOM     60  C   UNL     1       5.416  29.851  21.742  1.00  0.00     0.120 A 
ATOM     61  C   UNL     1       6.169  29.217  22.688  1.00  0.00     0.139 A 
ATOM     62  N   UNL     1       4.396  30.484  22.313  1.00  0.00    -0.132 NA
ATOM     63  N   UNL     1       5.572  29.484  23.862  1.00  0.00    -0.240 N 
ATOM     64  N   UNL     1       4.503  30.252  23.621  1.00  0.00    -0.066 NA
BRANCH  63  65
ATOM     65  C   UNL     1       5.949  29.076  25.200  1.00  0.00     0.169 C 
BRANCH  65  66
ATOM     66  C   UNL     1       6.181  30.289  25.995  1.00  0.00    -0.019 A 
ATOM     67  C   UNL     1       6.831  31.375  25.445  1.00  0.00     0.006 A 
ATOM     68  C   UNL     1       5.789  30.408  27.311  1.00  0.00     0.006 A 
ATOM     69  C   UNL     1       7.075  32.525  26.183  1.00  0.00     0.000 A 
ATOM     70  C   UNL     1       6.028  31.556  28.061  1.00  0.00     0.000 A 
ATOM     71  C   UNL     1       6.680  32.633  27.494  1.00  0.00     0.000 A 
ENDBRANCH  65  66
BRANCH  65  72
ATOM     72  C   UNL     1       7.085  28.134  25.153  1.00  0.00    -0.019 A 
ATOM     73  C   UNL     1       6.786  26.780  25.245  1.00  0.00     0.006 A 
ATOM     74  C   UNL     1       8.396  28.496  25.054  1.00  0.00     0.006 A 
ATOM     75  C   UNL     1       7.785  25.843  25.235  1.00  0.00     0.000 A 
ATOM     76  C   UNL     1       9.411  27.556  25.043  1.00  0.00     0.000 A 
ATOM     77  C   UNL     1       9.109  26.221  25.134  1.00  0.00     0.000 A 
ENDBRANCH  65  72
ENDBRANCH  63  65
ENDBRANCH  59  60
ENDBRANCH  58  59
ENDBRANCH  55  58
ENDBRANCH  53  54
ENDBRANCH  50  53
ENDBRANCH  47  50
ENDBRANCH   5  47
BRANCH   4  78
ATOM     78  N   UNL     1      10.569  36.781  23.661  1.00  0.00    -0.348 N 
ATOM     79  C   UNL     1       9.808  37.806  24.287  1.00  0.00     0.217 C 
ATOM     80  H   UNL     1      11.455  37.082  23.182  1.00  0.00     0.163 HD
ATOM     81  C   UNL     1      10.264  39.238  24.257  1.00  0.00     0.114 C 
ATOM     82  O   UNL     1       8.740  37.549  24.882  1.00  0.00    -0.275 OA
ENDBRANCH   4  78
TORSDOF 32
