REMARK VINA RESULT:    -6.428      9.222     16.406
REMARK INTER + INTRA:         -24.757
REMARK INTER:                 -16.100
REMARK INTRA:                  -8.657
REMARK UNBOUND:                -7.995
REMARK SMILES CC(=O)N[C@@H]1[C@@H](O)C[C@](OC[C@H]2O[C@@H](O[C@H]3[C@H](O)[C@@H](O)[C@H](OCCN=[N+]=[N-])O[C@@H]3CO)[C@H](O)[C@@H](O)[C@H]2O)(C(=O)O)O[C@H]1C(O)[C@H](O)CNC(=O)OCc1cn(-c2ccc(-c3c4ccc(=O)cc-4oc4cc(O)ccc34)c(C(=O)[O-])c2)nn1
REMARK SMILES IDX 9 1 8 2 6 3 5 4 42 5 41 6 10 7 11 8 12 9 14 10 13 11 32 12
REMARK SMILES IDX 34 13 36 14 15 15 16 16 29 17 28 18 21 19 17 20 19 21 30 22
REMARK SMILES IDX 31 23 22 25 23 26 24 27 25 28 26 29 27 30 18 31 20 33 33 35
REMARK SMILES IDX 35 37 37 39 38 41 39 42 40 43 7 45 43 47 44 48 45 50 46 51
REMARK SMILES IDX 47 53 48 54 49 55 50 57 51 58 52 59 53 60 54 61 82 62 55 63
REMARK SMILES IDX 81 64 56 65 80 66 57 67 76 68 58 69 59 70 77 71 78 72 79 73
REMARK SMILES IDX 60 74 75 75 61 76 74 77 69 78 67 79 62 80 73 81 70 82 68 83
REMARK SMILES IDX 66 84 63 85 71 86 64 87 65 88 72 89 4 91 2 92 1 94 3 95
REMARK H PARENT 31 24 18 32 20 34 33 36 35 38 37 40 40 44 7 46 44 49 46 52
REMARK H PARENT 48 56 72 90 4 93
REMARK Flexibility Score: inf
ROOT
ATOM      1  C   UNL     1      16.387  29.622  16.315  1.00  0.00     0.272 C 
ATOM      2  C   UNL     1      17.495  28.766  15.752  1.00  0.00     0.113 C 
ATOM      3  C   UNL     1      17.592  28.831  14.253  1.00  0.00     0.145 C 
ATOM      4  C   UNL     1      16.307  29.422  13.731  1.00  0.00     0.142 C 
ATOM      5  C   UNL     1      15.188  28.759  14.489  1.00  0.00     0.178 C 
ATOM      6  O   UNL     1      15.133  29.261  15.765  1.00  0.00    -0.332 OA
ENDROOT
BRANCH   1   7
ATOM      7  O   UNL     1      16.558  30.974  16.204  1.00  0.00    -0.338 OA
BRANCH   7   8
ATOM      8  C   UNL     1      15.423  31.698  16.293  1.00  0.00     0.199 C 
BRANCH   8   9
ATOM      9  C   UNL     1      15.447  32.649  17.498  1.00  0.00     0.179 C 
ATOM     10  C   UNL     1      15.027  32.713  19.765  1.00  0.00     0.282 C 
ATOM     11  O   UNL     1      14.717  32.199  18.537  1.00  0.00    -0.341 OA
ATOM     12  C   UNL     1      15.603  34.075  19.757  1.00  0.00     0.202 C 
ATOM     13  C   UNL     1      16.760  34.220  18.797  1.00  0.00     0.179 C 
ATOM     14  C   UNL     1      16.834  33.008  17.881  1.00  0.00     0.177 C 
BRANCH  10  15
ATOM     15  O   UNL     1      15.746  31.730  20.442  1.00  0.00    -0.341 OA
BRANCH  15  16
ATOM     16  C   UNL     1      15.024  31.074  21.385  1.00  0.00     0.184 C 
ATOM     17  C   UNL     1      15.755  29.904  21.967  1.00  0.00     0.178 C 
ATOM     18  O   UNL     1      15.183  29.537  23.193  1.00  0.00    -0.341 OA
ATOM     19  C   UNL     1      13.795  29.550  23.126  1.00  0.00     0.281 C 
ATOM     20  C   UNL     1      13.719  30.473  20.831  1.00  0.00     0.180 C 
ATOM     21  C   UNL     1      13.285  29.346  21.744  1.00  0.00     0.202 C 
BRANCH  17  22
ATOM     22  C   UNL     1      17.193  30.250  22.201  1.00  0.00     0.191 C 
BRANCH  22  23
ATOM     23  O   UNL     1      17.976  29.580  21.259  1.00  0.00    -0.394 OA
ATOM     24  H   UNL     1      18.320  30.260  20.639  1.00  0.00     0.210 HD
ENDBRANCH  22  23
ENDBRANCH  17  22
BRANCH  19  25
ATOM     25  O   UNL     1      13.276  30.688  23.705  1.00  0.00    -0.350 OA
BRANCH  25  26
ATOM     26  C   UNL     1      12.977  30.556  25.055  1.00  0.00     0.169 C 
BRANCH  26  27
ATOM     27  C   UNL     1      13.316  31.887  25.701  1.00  0.00     0.119 C 
BRANCH  27  28
ATOM     28  N   UNL     1      14.243  32.648  24.907  1.00  0.00    -0.092 NA
ATOM     29  N   UNL     1      15.453  32.550  25.149  1.00  0.00     0.001 N 
ATOM     30  N   UNL     1      16.673  32.413  25.048  1.00  0.00    -0.003 NA
ENDBRANCH  27  28
ENDBRANCH  26  27
ENDBRANCH  25  26
ENDBRANCH  19  25
BRANCH  20  31
ATOM     31  O   UNL     1      12.759  31.478  20.919  1.00  0.00    -0.387 OA
ATOM     32  H   UNL     1      12.312  31.676  20.068  1.00  0.00     0.211 HD
ENDBRANCH  20  31
BRANCH  21  33
ATOM     33  O   UNL     1      13.594  28.084  21.236  1.00  0.00    -0.385 OA
ATOM     34  H   UNL     1      12.725  27.726  20.876  1.00  0.00     0.211 HD
ENDBRANCH  21  33
ENDBRANCH  15  16
ENDBRANCH  10  15
BRANCH  12  35
ATOM     35  O   UNL     1      14.607  35.033  19.438  1.00  0.00    -0.385 OA
ATOM     36  H   UNL     1      13.854  34.559  18.972  1.00  0.00     0.211 HD
ENDBRANCH  12  35
BRANCH  13  37
ATOM     37  O   UNL     1      17.956  34.479  19.444  1.00  0.00    -0.387 OA
ATOM     38  H   UNL     1      18.424  33.621  19.570  1.00  0.00     0.211 HD
ENDBRANCH  13  37
BRANCH  14  39
ATOM     39  O   UNL     1      17.529  32.013  18.555  1.00  0.00    -0.387 OA
ATOM     40  H   UNL     1      18.097  32.491  19.227  1.00  0.00     0.211 HD
ENDBRANCH  14  39
ENDBRANCH   8   9
ENDBRANCH   7   8
ENDBRANCH   1   7
BRANCH   1  41
ATOM     41  C   UNL     1      16.253  29.171  17.757  1.00  0.00     0.364 C 
ATOM     42  O   UNL     1      17.220  29.040  18.530  1.00  0.00    -0.246 OA
BRANCH  41  43
ATOM     43  O   UNL     1      14.996  28.879  18.277  1.00  0.00    -0.477 OA
ATOM     44  H   UNL     1      14.365  28.254  17.795  1.00  0.00     0.296 HD
ENDBRANCH  41  43
ENDBRANCH   1  41
BRANCH   3  45
ATOM     45  O   UNL     1      18.727  29.532  13.896  1.00  0.00    -0.391 OA
ATOM     46  H   UNL     1      19.503  29.068  14.297  1.00  0.00     0.211 HD
ENDBRANCH   3  45
BRANCH   5  47
ATOM     47  C   UNL     1      13.836  29.086  13.846  1.00  0.00     0.176 C 
BRANCH  47  48
ATOM     48  O   UNL     1      13.799  30.482  13.616  1.00  0.00    -0.388 OA
ATOM     49  H   UNL     1      13.860  30.998  14.435  1.00  0.00     0.211 HD
ENDBRANCH  47  48
BRANCH  47  50
ATOM     50  C   UNL     1      12.713  28.797  14.787  1.00  0.00     0.165 C 
BRANCH  50  51
ATOM     51  O   UNL     1      12.193  27.527  14.534  1.00  0.00    -0.388 OA
ATOM     52  H   UNL     1      12.663  27.145  13.749  1.00  0.00     0.211 HD
ENDBRANCH  50  51
BRANCH  50  53
ATOM     53  C   UNL     1      11.632  29.820  14.835  1.00  0.00     0.154 C 
BRANCH  53  54
ATOM     54  N   UNL     1      11.774  30.711  15.964  1.00  0.00    -0.319 N 
ATOM     55  C   UNL     1      11.863  32.119  15.865  1.00  0.00     0.407 C 
ATOM     56  H   UNL     1      11.817  30.336  16.961  1.00  0.00     0.167 HD
ATOM     57  O   UNL     1      11.820  32.668  14.747  1.00  0.00    -0.225 OA
BRANCH  55  58
ATOM     58  O   UNL     1      12.001  32.945  16.974  1.00  0.00    -0.443 OA
BRANCH  58  59
ATOM     59  C   UNL     1      10.982  33.871  17.368  1.00  0.00     0.294 C 
BRANCH  59  60
ATOM     60  C   UNL     1      10.894  33.773  18.847  1.00  0.00     0.121 A 
ATOM     61  C   UNL     1       9.979  33.063  19.574  1.00  0.00     0.144 A 
ATOM     62  N   UNL     1      11.709  34.373  19.761  1.00  0.00    -0.131 NA
ATOM     63  N   UNL     1      10.234  33.229  20.889  1.00  0.00    -0.220 N 
ATOM     64  N   UNL     1      11.293  34.032  20.966  1.00  0.00    -0.062 NA
BRANCH  63  65
ATOM     65  C   UNL     1       9.502  32.647  21.956  1.00  0.00     0.067 A 
ATOM     66  C   UNL     1       8.131  32.545  21.932  1.00  0.00     0.039 A 
ATOM     67  C   UNL     1      10.189  32.166  23.043  1.00  0.00     0.029 A 
ATOM     68  C   UNL     1       7.469  31.967  22.990  1.00  0.00     0.007 A 
ATOM     69  C   UNL     1       9.522  31.588  24.102  1.00  0.00     0.012 A 
ATOM     70  C   UNL     1       8.151  31.475  24.100  1.00  0.00    -0.008 A 
BRANCH  68  71
ATOM     71  C   UNL     1       6.009  31.842  22.997  1.00  0.00     0.072 C 
ATOM     72  O   UNL     1       5.426  30.829  22.541  1.00  0.00    -0.545 OA
ATOM     73  O   UNL     1       5.251  32.862  23.517  1.00  0.00    -0.545 OA
ENDBRANCH  68  71
BRANCH  70  74
ATOM     74  C   UNL     1       7.440  30.865  25.208  1.00  0.00     0.004 A 
ATOM     75  C   UNL     1       7.044  31.654  26.259  1.00  0.00     0.026 A 
ATOM     76  C   UNL     1       7.152  29.524  25.242  1.00  0.00     0.026 A 
ATOM     77  C   UNL     1       7.290  33.006  26.311  1.00  0.00     0.016 A 
ATOM     78  C   UNL     1       6.367  31.054  27.314  1.00  0.00     0.139 A 
ATOM     79  C   UNL     1       6.428  28.932  26.388  1.00  0.00     0.139 A 
ATOM     80  C   UNL     1       7.514  28.673  24.229  1.00  0.00     0.016 A 
ATOM     81  C   UNL     1       6.887  33.793  27.375  1.00  0.00     0.047 A 
ATOM     82  C   UNL     1       5.970  31.841  28.367  1.00  0.00     0.093 A 
ATOM     83  O   UNL     1       6.094  29.764  27.339  1.00  0.00    -0.456 OA
ATOM     84  C   UNL     1       6.142  27.590  26.417  1.00  0.00     0.099 A 
ATOM     85  C   UNL     1       7.219  27.322  24.273  1.00  0.00     0.053 A 
ATOM     86  C   UNL     1       6.215  33.206  28.425  1.00  0.00     0.119 A 
ATOM     87  C   UNL     1       6.541  26.805  25.362  1.00  0.00     0.182 A 
ATOM     88  O   UNL     1       6.302  25.567  25.342  1.00  0.00    -0.290 OA
BRANCH  86  89
ATOM     89  O   UNL     1       5.814  34.002  29.487  1.00  0.00    -0.508 OA
ATOM     90  H   UNL     1       6.542  34.300  30.131  1.00  0.00     0.293 HD
ENDBRANCH  86  89
ENDBRANCH  70  74
ENDBRANCH  63  65
ENDBRANCH  59  60
ENDBRANCH  58  59
ENDBRANCH  55  58
ENDBRANCH  53  54
ENDBRANCH  50  53
ENDBRANCH  47  50
ENDBRANCH   5  47
BRANCH   4  91
ATOM     91  N   UNL     1      16.165  29.265  12.299  1.00  0.00    -0.348 N 
ATOM     92  C   UNL     1      16.590  30.314  11.459  1.00  0.00     0.217 C 
ATOM     93  H   UNL     1      15.761  28.412  11.855  1.00  0.00     0.163 HD
ATOM     94  C   UNL     1      16.491  30.261   9.980  1.00  0.00     0.114 C 
ATOM     95  O   UNL     1      17.093  31.387  11.942  1.00  0.00    -0.275 OA
ENDBRANCH   4  91
TORSDOF 33
