REMARK VINA RESULT:    -6.451      5.141     10.627
REMARK INTER + INTRA:         -22.528
REMARK INTER:                 -14.864
REMARK INTRA:                  -7.664
REMARK UNBOUND:                -6.272
REMARK SMILES CC(=O)N[C@@H]1[C@@H](O)C[C@](OC[C@H]2O[C@@H](O[C@H]3[C@H](O)[C@@H](O)[C@H](OCCN=[N+]=[N-])O[C@@H]3CO)[C@H](O)[C@@H](O)[C@H]2O)(C(=O)O)O[C@H]1C(O)[C@H](O)CNC(=O)OCc1cn(Cc2cccc(Br)c2)nn1
REMARK SMILES IDX 9 1 8 2 6 3 5 4 42 5 41 6 10 7 11 8 12 9 14 10 13 11 32 12
REMARK SMILES IDX 34 13 36 14 15 15 16 16 29 17 28 18 21 19 17 20 19 21 30 22
REMARK SMILES IDX 31 23 22 25 23 26 24 27 25 28 26 29 27 30 18 31 20 33 33 35
REMARK SMILES IDX 35 37 37 39 38 41 39 42 40 43 7 45 43 47 44 48 45 50 46 51
REMARK SMILES IDX 47 53 48 54 49 55 50 57 51 58 52 59 53 60 54 61 65 62 55 63
REMARK SMILES IDX 64 64 56 65 57 66 58 67 63 68 59 69 61 70 60 71 62 72 4 73
REMARK SMILES IDX 2 74 1 76 3 77
REMARK H PARENT 31 24 18 32 20 34 33 36 35 38 37 40 40 44 7 46 44 49 46 52
REMARK H PARENT 48 56 4 75
REMARK Flexibility Score: inf
ROOT
ATOM      1  C   UNL     1      23.161  25.910  21.222  1.00  0.00     0.272 C 
ATOM      2  C   UNL     1      24.356  25.375  20.529  1.00  0.00     0.113 C 
ATOM      3  C   UNL     1      24.676  26.029  19.223  1.00  0.00     0.145 C 
ATOM      4  C   UNL     1      23.445  26.495  18.479  1.00  0.00     0.142 C 
ATOM      5  C   UNL     1      22.314  26.861  19.334  1.00  0.00     0.178 C 
ATOM      6  O   UNL     1      22.561  27.004  20.663  1.00  0.00    -0.332 OA
ENDROOT
BRANCH   1   7
ATOM      7  O   UNL     1      23.510  26.203  22.578  1.00  0.00    -0.338 OA
BRANCH   7   8
ATOM      8  C   UNL     1      24.335  25.263  23.123  1.00  0.00     0.199 C 
BRANCH   8   9
ATOM      9  C   UNL     1      24.462  25.472  24.647  1.00  0.00     0.179 C 
ATOM     10  C   UNL     1      23.679  27.012  26.228  1.00  0.00     0.282 C 
ATOM     11  O   UNL     1      24.024  26.733  24.885  1.00  0.00    -0.341 OA
ATOM     12  C   UNL     1      24.168  25.975  27.159  1.00  0.00     0.202 C 
ATOM     13  C   UNL     1      23.721  24.575  26.781  1.00  0.00     0.179 C 
ATOM     14  C   UNL     1      23.515  24.475  25.280  1.00  0.00     0.177 C 
BRANCH  10  15
ATOM     15  O   UNL     1      22.326  27.245  26.181  1.00  0.00    -0.341 OA
BRANCH  15  16
ATOM     16  C   UNL     1      21.911  28.371  25.567  1.00  0.00     0.184 C 
ATOM     17  C   UNL     1      21.279  29.285  26.584  1.00  0.00     0.178 C 
ATOM     18  O   UNL     1      21.013  30.511  25.979  1.00  0.00    -0.341 OA
ATOM     19  C   UNL     1      20.049  30.433  24.972  1.00  0.00     0.281 C 
ATOM     20  C   UNL     1      20.809  28.145  24.536  1.00  0.00     0.180 C 
ATOM     21  C   UNL     1      20.600  29.527  23.897  1.00  0.00     0.202 C 
BRANCH  17  22
ATOM     22  C   UNL     1      22.241  29.525  27.699  1.00  0.00     0.191 C 
BRANCH  22  23
ATOM     23  O   UNL     1      21.956  28.714  28.783  1.00  0.00    -0.394 OA
ATOM     24  H   UNL     1      21.367  27.981  28.464  1.00  0.00     0.210 HD
ENDBRANCH  22  23
ENDBRANCH  17  22
BRANCH  19  25
ATOM     25  O   UNL     1      19.843  31.726  24.538  1.00  0.00    -0.350 OA
BRANCH  25  26
ATOM     26  C   UNL     1      18.547  32.158  24.574  1.00  0.00     0.169 C 
BRANCH  26  27
ATOM     27  C   UNL     1      18.067  32.581  25.944  1.00  0.00     0.119 C 
BRANCH  27  28
ATOM     28  N   UNL     1      16.670  32.218  26.037  1.00  0.00    -0.092 NA
ATOM     29  N   UNL     1      16.218  31.421  26.846  1.00  0.00     0.001 N 
ATOM     30  N   UNL     1      15.843  30.717  27.781  1.00  0.00    -0.003 NA
ENDBRANCH  27  28
ENDBRANCH  26  27
ENDBRANCH  25  26
ENDBRANCH  19  25
BRANCH  20  31
ATOM     31  O   UNL     1      21.150  27.278  23.538  1.00  0.00    -0.387 OA
ATOM     32  H   UNL     1      21.669  27.667  22.800  1.00  0.00     0.211 HD
ENDBRANCH  20  31
BRANCH  21  33
ATOM     33  O   UNL     1      19.767  29.349  22.824  1.00  0.00    -0.385 OA
ATOM     34  H   UNL     1      19.118  30.115  22.705  1.00  0.00     0.211 HD
ENDBRANCH  21  33
ENDBRANCH  15  16
ENDBRANCH  10  15
BRANCH  12  35
ATOM     35  O   UNL     1      25.586  26.005  27.115  1.00  0.00    -0.385 OA
ATOM     36  H   UNL     1      25.941  25.957  28.040  1.00  0.00     0.211 HD
ENDBRANCH  12  35
BRANCH  13  37
ATOM     37  O   UNL     1      22.610  24.157  27.506  1.00  0.00    -0.387 OA
ATOM     38  H   UNL     1      22.061  24.973  27.743  1.00  0.00     0.211 HD
ENDBRANCH  13  37
BRANCH  14  39
ATOM     39  O   UNL     1      22.235  24.774  24.874  1.00  0.00    -0.387 OA
ATOM     40  H   UNL     1      22.236  25.578  24.271  1.00  0.00     0.211 HD
ENDBRANCH  14  39
ENDBRANCH   8   9
ENDBRANCH   7   8
ENDBRANCH   1   7
BRANCH   1  41
ATOM     41  C   UNL     1      22.146  24.822  21.352  1.00  0.00     0.364 C 
ATOM     42  O   UNL     1      21.066  25.055  22.001  1.00  0.00    -0.246 OA
BRANCH  41  43
ATOM     43  O   UNL     1      22.253  23.560  20.837  1.00  0.00    -0.477 OA
ATOM     44  H   UNL     1      23.196  23.159  20.743  1.00  0.00     0.296 HD
ENDBRANCH  41  43
ENDBRANCH   1  41
BRANCH   3  45
ATOM     45  O   UNL     1      25.633  27.023  19.367  1.00  0.00    -0.391 OA
ATOM     46  H   UNL     1      25.965  27.127  20.286  1.00  0.00     0.211 HD
ENDBRANCH   3  45
BRANCH   5  47
ATOM     47  C   UNL     1      21.564  28.102  18.825  1.00  0.00     0.176 C 
BRANCH  47  48
ATOM     48  O   UNL     1      20.708  27.608  17.761  1.00  0.00    -0.388 OA
ATOM     49  H   UNL     1      19.879  27.295  18.204  1.00  0.00     0.211 HD
ENDBRANCH  47  48
BRANCH  47  50
ATOM     50  C   UNL     1      20.665  28.745  19.816  1.00  0.00     0.165 C 
BRANCH  50  51
ATOM     51  O   UNL     1      20.080  27.639  20.540  1.00  0.00    -0.388 OA
ATOM     52  H   UNL     1      19.360  28.019  21.130  1.00  0.00     0.211 HD
ENDBRANCH  50  51
BRANCH  50  53
ATOM     53  C   UNL     1      19.478  29.490  19.305  1.00  0.00     0.154 C 
BRANCH  53  54
ATOM     54  N   UNL     1      18.229  29.124  19.953  1.00  0.00    -0.319 N 
ATOM     55  C   UNL     1      17.393  28.158  19.339  1.00  0.00     0.407 C 
ATOM     56  H   UNL     1      17.935  29.548  20.850  1.00  0.00     0.167 HD
ATOM     57  O   UNL     1      17.731  27.631  18.243  1.00  0.00    -0.225 OA
BRANCH  55  58
ATOM     58  O   UNL     1      16.189  27.768  19.925  1.00  0.00    -0.443 OA
BRANCH  58  59
ATOM     59  C   UNL     1      15.170  28.761  20.106  1.00  0.00     0.294 C 
BRANCH  59  60
ATOM     60  C   UNL     1      15.106  29.104  21.545  1.00  0.00     0.120 A 
ATOM     61  C   UNL     1      14.013  29.105  22.376  1.00  0.00     0.138 A 
ATOM     62  N   UNL     1      16.159  29.480  22.282  1.00  0.00    -0.132 NA
ATOM     63  N   UNL     1      14.443  29.484  23.595  1.00  0.00    -0.248 N 
ATOM     64  N   UNL     1      15.746  29.707  23.513  1.00  0.00    -0.067 NA
BRANCH  63  65
ATOM     65  C   UNL     1      13.596  29.616  24.777  1.00  0.00     0.181 C 
BRANCH  65  66
ATOM     66  C   UNL     1      12.697  30.794  24.667  1.00  0.00    -0.025 A 
ATOM     67  C   UNL     1      13.135  32.049  25.039  1.00  0.00     0.006 A 
ATOM     68  C   UNL     1      11.407  30.706  24.204  1.00  0.00     0.021 A 
ATOM     69  C   UNL     1      12.351  33.178  24.964  1.00  0.00     0.002 A 
ATOM     70  C   UNL     1      10.597  31.814  24.117  1.00  0.00     0.018 A 
ATOM     71  C   UNL     1      11.038  33.058  24.487  1.00  0.00     0.016 A 
ATOM     72  Br  UNL     1       8.799  31.696  23.471  1.00  0.00    -0.051 Br
ENDBRANCH  65  66
ENDBRANCH  63  65
ENDBRANCH  59  60
ENDBRANCH  58  59
ENDBRANCH  55  58
ENDBRANCH  53  54
ENDBRANCH  50  53
ENDBRANCH  47  50
ENDBRANCH   5  47
BRANCH   4  73
ATOM     73  N   UNL     1      23.041  25.448  17.505  1.00  0.00    -0.348 N 
ATOM     74  C   UNL     1      22.845  25.773  16.141  1.00  0.00     0.217 C 
ATOM     75  H   UNL     1      22.895  24.453  17.810  1.00  0.00     0.163 HD
ATOM     76  C   UNL     1      22.435  24.730  15.136  1.00  0.00     0.114 C 
ATOM     77  O   UNL     1      23.020  26.965  15.773  1.00  0.00    -0.275 OA
ENDBRANCH   4  73
TORSDOF 31
