REMARK VINA RESULT:    -4.744     11.281     16.994
REMARK INTER + INTRA:         -22.793
REMARK INTER:                 -14.360
REMARK INTRA:                  -8.433
REMARK UNBOUND:               -10.839
REMARK SMILES CC(=O)N[C@@H]1[C@@H](O)C[C@](OC[C@H]2O[C@@H](O[C@H]3[C@H](O)[C@@H](O)[C@H](OCCN=[N+]=[N-])O[C@@H]3CO)[C@H](O)[C@@H](O)[C@H]2O)(C(=O)O)O[C@H]1C(O)[C@H](O)CNC(=O)OCc1cn(-c2ccccc2C(C)C)nn1
REMARK SMILES IDX 9 1 8 2 6 3 5 4 42 5 41 6 10 7 11 8 12 9 14 10 13 11 32 12
REMARK SMILES IDX 34 13 36 14 15 15 16 16 29 17 28 18 21 19 17 20 19 21 30 22
REMARK SMILES IDX 31 23 22 25 23 26 24 27 25 28 26 29 27 30 18 31 20 33 33 35
REMARK SMILES IDX 35 37 37 39 38 41 39 42 40 43 7 45 43 47 44 48 45 50 46 51
REMARK SMILES IDX 47 53 48 54 49 55 50 57 51 58 52 59 53 60 54 61 66 62 55 63
REMARK SMILES IDX 65 64 56 65 61 66 57 67 60 68 58 69 59 70 62 71 63 72 64 73
REMARK SMILES IDX 4 74 2 75 1 77 3 78
REMARK H PARENT 31 24 18 32 20 34 33 36 35 38 37 40 40 44 7 46 44 49 46 52
REMARK H PARENT 48 56 4 76
REMARK Flexibility Score: inf
ROOT
ATOM      1  C   UNL     1      15.942  29.607  19.124  1.00  0.00     0.272 C 
ATOM      2  C   UNL     1      14.438  29.466  19.088  1.00  0.00     0.113 C 
ATOM      3  C   UNL     1      13.843  30.845  19.335  1.00  0.00     0.145 C 
ATOM      4  C   UNL     1      14.153  31.205  20.799  1.00  0.00     0.142 C 
ATOM      5  C   UNL     1      15.602  30.981  21.013  1.00  0.00     0.178 C 
ATOM      6  O   UNL     1      16.239  30.834  19.790  1.00  0.00    -0.332 OA
ENDROOT
BRANCH   1   7
ATOM      7  O   UNL     1      16.471  29.781  17.898  1.00  0.00    -0.338 OA
BRANCH   7   8
ATOM      8  C   UNL     1      17.341  30.616  17.445  1.00  0.00     0.199 C 
BRANCH   8   9
ATOM      9  C   UNL     1      18.799  30.328  17.288  1.00  0.00     0.179 C 
ATOM     10  C   UNL     1      20.610  29.344  18.247  1.00  0.00     0.282 C 
ATOM     11  O   UNL     1      19.401  29.888  18.441  1.00  0.00    -0.341 OA
ATOM     12  C   UNL     1      21.283  29.639  16.914  1.00  0.00     0.202 C 
ATOM     13  C   UNL     1      20.394  29.285  15.752  1.00  0.00     0.179 C 
ATOM     14  C   UNL     1      18.975  29.210  16.234  1.00  0.00     0.177 C 
BRANCH  10  15
ATOM     15  O   UNL     1      20.768  28.016  18.505  1.00  0.00    -0.341 OA
BRANCH  15  16
ATOM     16  C   UNL     1      21.534  27.621  19.573  1.00  0.00     0.184 C 
ATOM     17  C   UNL     1      22.636  26.683  19.207  1.00  0.00     0.178 C 
ATOM     18  O   UNL     1      22.584  25.498  19.854  1.00  0.00    -0.341 OA
ATOM     19  C   UNL     1      22.533  25.460  21.212  1.00  0.00     0.281 C 
ATOM     20  C   UNL     1      20.786  27.150  20.753  1.00  0.00     0.180 C 
ATOM     21  C   UNL     1      21.792  26.669  21.785  1.00  0.00     0.202 C 
BRANCH  17  22
ATOM     22  C   UNL     1      24.038  27.278  19.416  1.00  0.00     0.191 C 
BRANCH  22  23
ATOM     23  O   UNL     1      24.967  26.327  18.936  1.00  0.00    -0.394 OA
ATOM     24  H   UNL     1      24.951  25.571  19.604  1.00  0.00     0.210 HD
ENDBRANCH  22  23
ENDBRANCH  17  22
BRANCH  19  25
ATOM     25  O   UNL     1      23.795  25.456  21.745  1.00  0.00    -0.350 OA
BRANCH  25  26
ATOM     26  C   UNL     1      24.347  24.262  22.087  1.00  0.00     0.169 C 
BRANCH  26  27
ATOM     27  C   UNL     1      25.602  23.848  21.414  1.00  0.00     0.119 C 
BRANCH  27  28
ATOM     28  N   UNL     1      26.708  24.663  21.790  1.00  0.00    -0.092 NA
ATOM     29  N   UNL     1      27.338  25.421  21.080  1.00  0.00     0.001 N 
ATOM     30  N   UNL     1      27.767  26.245  20.281  1.00  0.00    -0.003 NA
ENDBRANCH  27  28
ENDBRANCH  26  27
ENDBRANCH  25  26
ENDBRANCH  19  25
BRANCH  20  31
ATOM     31  O   UNL     1      20.024  28.130  21.384  1.00  0.00    -0.387 OA
ATOM     32  H   UNL     1      20.325  29.008  21.062  1.00  0.00     0.211 HD
ENDBRANCH  20  31
BRANCH  21  33
ATOM     33  O   UNL     1      21.143  26.258  22.951  1.00  0.00    -0.385 OA
ATOM     34  H   UNL     1      21.663  25.498  23.316  1.00  0.00     0.211 HD
ENDBRANCH  21  33
ENDBRANCH  15  16
ENDBRANCH  10  15
BRANCH  12  35
ATOM     35  O   UNL     1      21.616  30.982  16.893  1.00  0.00    -0.385 OA
ATOM     36  H   UNL     1      21.775  31.309  17.835  1.00  0.00     0.211 HD
ENDBRANCH  12  35
BRANCH  13  37
ATOM     37  O   UNL     1      20.815  28.064  15.208  1.00  0.00    -0.387 OA
ATOM     38  H   UNL     1      20.980  27.459  15.973  1.00  0.00     0.211 HD
ENDBRANCH  13  37
BRANCH  14  39
ATOM     39  O   UNL     1      18.762  28.009  16.877  1.00  0.00    -0.387 OA
ATOM     40  H   UNL     1      18.506  27.339  16.194  1.00  0.00     0.211 HD
ENDBRANCH  14  39
ENDBRANCH   8   9
ENDBRANCH   7   8
ENDBRANCH   1   7
BRANCH   1  41
ATOM     41  C   UNL     1      16.574  28.521  19.882  1.00  0.00     0.364 C 
ATOM     42  O   UNL     1      15.846  27.950  20.771  1.00  0.00    -0.246 OA
BRANCH  41  43
ATOM     43  O   UNL     1      17.847  28.027  19.776  1.00  0.00    -0.477 OA
ATOM     44  H   UNL     1      18.581  28.105  20.455  1.00  0.00     0.296 HD
ENDBRANCH  41  43
ENDBRANCH   1  41
BRANCH   3  45
ATOM     45  O   UNL     1      14.533  31.798  18.579  1.00  0.00    -0.391 OA
ATOM     46  H   UNL     1      15.489  31.544  18.592  1.00  0.00     0.211 HD
ENDBRANCH   3  45
BRANCH   5  47
ATOM     47  C   UNL     1      16.368  32.052  21.729  1.00  0.00     0.176 C 
BRANCH  47  48
ATOM     48  O   UNL     1      15.347  32.747  22.468  1.00  0.00    -0.388 OA
ATOM     49  H   UNL     1      15.715  32.699  23.406  1.00  0.00     0.211 HD
ENDBRANCH  47  48
BRANCH  47  50
ATOM     50  C   UNL     1      17.019  33.098  20.881  1.00  0.00     0.165 C 
BRANCH  50  51
ATOM     51  O   UNL     1      16.211  33.613  19.904  1.00  0.00    -0.388 OA
ATOM     52  H   UNL     1      16.510  33.215  19.046  1.00  0.00     0.211 HD
ENDBRANCH  50  51
BRANCH  50  53
ATOM     53  C   UNL     1      18.429  32.799  20.533  1.00  0.00     0.154 C 
BRANCH  53  54
ATOM     54  N   UNL     1      18.970  31.586  21.114  1.00  0.00    -0.319 N 
ATOM     55  C   UNL     1      20.001  31.624  22.084  1.00  0.00     0.407 C 
ATOM     56  H   UNL     1      18.627  30.638  20.847  1.00  0.00     0.167 HD
ATOM     57  O   UNL     1      20.520  32.681  22.506  1.00  0.00    -0.225 OA
BRANCH  55  58
ATOM     58  O   UNL     1      20.541  30.454  22.671  1.00  0.00    -0.443 OA
BRANCH  58  59
ATOM     59  C   UNL     1      21.328  30.549  23.818  1.00  0.00     0.294 C 
BRANCH  59  60
ATOM     60  C   UNL     1      21.102  29.335  24.651  1.00  0.00     0.121 A 
ATOM     61  C   UNL     1      21.776  28.871  25.759  1.00  0.00     0.144 A 
ATOM     62  N   UNL     1      20.117  28.402  24.451  1.00  0.00    -0.131 NA
ATOM     63  N   UNL     1      21.236  27.726  26.210  1.00  0.00    -0.220 N 
ATOM     64  N   UNL     1      20.218  27.471  25.376  1.00  0.00    -0.062 NA
BRANCH  63  65
ATOM     65  C   UNL     1      21.612  26.922  27.322  1.00  0.00     0.070 A 
ATOM     66  C   UNL     1      22.485  25.874  27.134  1.00  0.00    -0.020 A 
ATOM     67  C   UNL     1      21.136  27.125  28.598  1.00  0.00     0.029 A 
ATOM     68  C   UNL     1      22.864  25.062  28.185  1.00  0.00     0.006 A 
ATOM     69  C   UNL     1      21.505  26.322  29.662  1.00  0.00     0.002 A 
ATOM     70  C   UNL     1      22.381  25.276  29.454  1.00  0.00     0.000 A 
BRANCH  66  71
ATOM     71  C   UNL     1      23.028  25.627  25.782  1.00  0.00     0.015 C 
ATOM     72  C   UNL     1      22.252  24.473  25.166  1.00  0.00     0.012 C 
ATOM     73  C   UNL     1      24.498  25.193  25.896  1.00  0.00     0.012 C 
ENDBRANCH  66  71
ENDBRANCH  63  65
ENDBRANCH  59  60
ENDBRANCH  58  59
ENDBRANCH  55  58
ENDBRANCH  53  54
ENDBRANCH  50  53
ENDBRANCH  47  50
ENDBRANCH   5  47
BRANCH   4  74
ATOM     74  N   UNL     1      13.321  30.360  21.625  1.00  0.00    -0.348 N 
ATOM     75  C   UNL     1      12.639  30.776  22.779  1.00  0.00     0.217 C 
ATOM     76  H   UNL     1      13.220  29.339  21.341  1.00  0.00     0.163 HD
ATOM     77  C   UNL     1      11.815  29.772  23.532  1.00  0.00     0.114 C 
ATOM     78  O   UNL     1      12.711  31.948  23.173  1.00  0.00    -0.275 OA
ENDBRANCH   4  74
TORSDOF 31
