REMARK VINA RESULT:    -5.714     11.968     17.615
REMARK INTER + INTRA:         -20.661
REMARK INTER:                 -11.931
REMARK INTRA:                  -8.730
REMARK UNBOUND:                -6.597
REMARK SMILES CC(=O)N[C@@H]1[C@@H](O)C[C@](OC[C@H]2O[C@@H](O[C@H]3[C@H](O)[C@@H](O)[C@H](OCCN=[N+]=[N-])O[C@@H]3CO)[C@H](O)[C@@H](O)[C@H]2O)(C(=O)O)O[C@H]1C(O)[C@H](O)CNC(=O)OCc1cn(-c2ccccc2)nn1
REMARK SMILES IDX 9 1 8 2 6 3 5 4 42 5 41 6 10 7 11 8 12 9 14 10 13 11 32 12
REMARK SMILES IDX 34 13 36 14 15 15 16 16 29 17 28 18 21 19 17 20 19 21 30 22
REMARK SMILES IDX 31 23 22 25 23 26 24 27 25 28 26 29 27 30 18 31 20 33 33 35
REMARK SMILES IDX 35 37 37 39 38 41 39 42 40 43 7 45 43 47 44 48 45 50 46 51
REMARK SMILES IDX 47 53 48 54 49 55 50 57 51 58 52 59 53 60 54 61 63 62 55 63
REMARK SMILES IDX 62 64 56 65 57 66 61 67 58 68 60 69 59 70 4 71 2 72 1 74
REMARK SMILES IDX 3 75
REMARK H PARENT 31 24 18 32 20 34 33 36 35 38 37 40 40 44 7 46 44 49 46 52
REMARK H PARENT 48 56 4 73
REMARK Flexibility Score: inf
ROOT
ATOM      1  C   UNL     1      20.364  19.453  10.943  1.00  0.00     0.272 C 
ATOM      2  C   UNL     1      19.782  18.469   9.997  1.00  0.00     0.113 C 
ATOM      3  C   UNL     1      19.137  19.052   8.796  1.00  0.00     0.145 C 
ATOM      4  C   UNL     1      19.968  20.197   8.247  1.00  0.00     0.142 C 
ATOM      5  C   UNL     1      20.095  21.198   9.373  1.00  0.00     0.178 C 
ATOM      6  O   UNL     1      20.911  20.607  10.302  1.00  0.00    -0.332 OA
ENDROOT
BRANCH   1   7
ATOM      7  O   UNL     1      21.429  19.007  11.669  1.00  0.00    -0.338 OA
BRANCH   7   8
ATOM      8  C   UNL     1      22.373  18.209  11.207  1.00  0.00     0.199 C 
BRANCH   8   9
ATOM      9  C   UNL     1      23.818  18.497  11.335  1.00  0.00     0.179 C 
ATOM     10  C   UNL     1      25.214  20.303  11.820  1.00  0.00     0.282 C 
ATOM     11  O   UNL     1      23.900  19.919  11.476  1.00  0.00    -0.341 OA
ATOM     12  C   UNL     1      26.212  19.194  11.766  1.00  0.00     0.202 C 
ATOM     13  C   UNL     1      25.820  18.057  12.684  1.00  0.00     0.179 C 
ATOM     14  C   UNL     1      24.323  17.936  12.669  1.00  0.00     0.177 C 
BRANCH  10  15
ATOM     15  O   UNL     1      25.181  20.808  13.068  1.00  0.00    -0.341 OA
BRANCH  15  16
ATOM     16  C   UNL     1      25.066  22.128  13.307  1.00  0.00     0.184 C 
ATOM     17  C   UNL     1      24.863  22.507  14.755  1.00  0.00     0.178 C 
ATOM     18  O   UNL     1      24.225  23.763  14.731  1.00  0.00    -0.341 OA
ATOM     19  C   UNL     1      22.856  23.474  14.546  1.00  0.00     0.281 C 
ATOM     20  C   UNL     1      23.962  22.791  12.482  1.00  0.00     0.180 C 
ATOM     21  C   UNL     1      22.649  22.740  13.237  1.00  0.00     0.202 C 
BRANCH  17  22
ATOM     22  C   UNL     1      26.171  22.696  15.492  1.00  0.00     0.191 C 
BRANCH  22  23
ATOM     23  O   UNL     1      26.926  21.528  15.354  1.00  0.00    -0.394 OA
ATOM     24  H   UNL     1      26.722  20.871  16.092  1.00  0.00     0.210 HD
ENDBRANCH  22  23
ENDBRANCH  17  22
BRANCH  19  25
ATOM     25  O   UNL     1      22.086  24.596  14.547  1.00  0.00    -0.350 OA
BRANCH  25  26
ATOM     26  C   UNL     1      22.220  25.462  15.597  1.00  0.00     0.169 C 
BRANCH  26  27
ATOM     27  C   UNL     1      22.630  26.853  15.229  1.00  0.00     0.119 C 
BRANCH  27  28
ATOM     28  N   UNL     1      22.995  26.960  13.865  1.00  0.00    -0.092 NA
ATOM     29  N   UNL     1      24.044  27.525  13.505  1.00  0.00     0.001 N 
ATOM     30  N   UNL     1      24.917  28.388  13.317  1.00  0.00    -0.003 NA
ENDBRANCH  27  28
ENDBRANCH  26  27
ENDBRANCH  25  26
ENDBRANCH  19  25
BRANCH  20  31
ATOM     31  O   UNL     1      24.220  24.125  12.201  1.00  0.00    -0.387 OA
ATOM     32  H   UNL     1      23.409  24.681  12.297  1.00  0.00     0.211 HD
ENDBRANCH  20  31
BRANCH  21  33
ATOM     33  O   UNL     1      22.213  21.450  13.457  1.00  0.00    -0.385 OA
ATOM     34  H   UNL     1      22.912  20.851  13.805  1.00  0.00     0.211 HD
ENDBRANCH  21  33
ENDBRANCH  15  16
ENDBRANCH  10  15
BRANCH  12  35
ATOM     35  O   UNL     1      26.559  18.784  10.485  1.00  0.00    -0.385 OA
ATOM     36  H   UNL     1      26.713  19.600   9.944  1.00  0.00     0.211 HD
ENDBRANCH  12  35
BRANCH  13  37
ATOM     37  O   UNL     1      26.228  18.363  13.968  1.00  0.00    -0.387 OA
ATOM     38  H   UNL     1      25.852  17.770  14.667  1.00  0.00     0.211 HD
ENDBRANCH  13  37
BRANCH  14  39
ATOM     39  O   UNL     1      23.740  18.752  13.666  1.00  0.00    -0.387 OA
ATOM     40  H   UNL     1      24.345  18.873  14.427  1.00  0.00     0.211 HD
ENDBRANCH  14  39
ENDBRANCH   8   9
ENDBRANCH   7   8
ENDBRANCH   1   7
BRANCH   1  41
ATOM     41  C   UNL     1      19.292  20.048  11.773  1.00  0.00     0.364 C 
ATOM     42  O   UNL     1      18.191  19.513  11.896  1.00  0.00    -0.246 OA
BRANCH  41  43
ATOM     43  O   UNL     1      19.515  21.265  12.450  1.00  0.00    -0.477 OA
ATOM     44  H   UNL     1      20.057  21.243  13.311  1.00  0.00     0.296 HD
ENDBRANCH  41  43
ENDBRANCH   1  41
BRANCH   3  45
ATOM     45  O   UNL     1      18.943  18.058   7.839  1.00  0.00    -0.391 OA
ATOM     46  H   UNL     1      19.514  18.273   7.082  1.00  0.00     0.211 HD
ENDBRANCH   3  45
BRANCH   5  47
ATOM     47  C   UNL     1      20.814  22.461   8.908  1.00  0.00     0.176 C 
BRANCH  47  48
ATOM     48  O   UNL     1      19.980  23.523   9.130  1.00  0.00    -0.388 OA
ATOM     49  H   UNL     1      20.164  24.023   9.956  1.00  0.00     0.211 HD
ENDBRANCH  47  48
BRANCH  47  50
ATOM     50  C   UNL     1      22.164  22.669   9.454  1.00  0.00     0.165 C 
BRANCH  50  51
ATOM     51  O   UNL     1      22.334  24.085   9.564  1.00  0.00    -0.388 OA
ATOM     52  H   UNL     1      23.073  24.219  10.185  1.00  0.00     0.211 HD
ENDBRANCH  50  51
BRANCH  50  53
ATOM     53  C   UNL     1      23.259  22.262   8.453  1.00  0.00     0.154 C 
BRANCH  53  54
ATOM     54  N   UNL     1      23.548  20.851   8.515  1.00  0.00    -0.319 N 
ATOM     55  C   UNL     1      24.765  20.307   7.975  1.00  0.00     0.407 C 
ATOM     56  H   UNL     1      22.906  20.155   8.948  1.00  0.00     0.167 HD
ATOM     57  O   UNL     1      25.619  21.051   7.443  1.00  0.00    -0.225 OA
BRANCH  55  58
ATOM     58  O   UNL     1      25.023  18.950   8.033  1.00  0.00    -0.443 OA
BRANCH  58  59
ATOM     59  C   UNL     1      24.956  18.133   6.869  1.00  0.00     0.294 C 
BRANCH  59  60
ATOM     60  C   UNL     1      23.544  17.655   6.797  1.00  0.00     0.121 A 
ATOM     61  C   UNL     1      22.832  17.555   5.609  1.00  0.00     0.144 A 
ATOM     62  N   UNL     1      22.705  17.248   7.753  1.00  0.00    -0.131 NA
ATOM     63  N   UNL     1      21.584  17.092   5.879  1.00  0.00    -0.220 N 
ATOM     64  N   UNL     1      21.543  16.918   7.181  1.00  0.00    -0.062 NA
BRANCH  63  65
ATOM     65  C   UNL     1      20.545  16.853   4.943  1.00  0.00     0.066 A 
ATOM     66  C   UNL     1      19.622  15.849   5.125  1.00  0.00     0.028 A 
ATOM     67  C   UNL     1      20.435  17.642   3.820  1.00  0.00     0.028 A 
ATOM     68  C   UNL     1      18.605  15.616   4.224  1.00  0.00     0.002 A 
ATOM     69  C   UNL     1      19.411  17.404   2.916  1.00  0.00     0.002 A 
ATOM     70  C   UNL     1      18.481  16.406   3.080  1.00  0.00     0.000 A 
ENDBRANCH  63  65
ENDBRANCH  59  60
ENDBRANCH  58  59
ENDBRANCH  55  58
ENDBRANCH  53  54
ENDBRANCH  50  53
ENDBRANCH  47  50
ENDBRANCH   5  47
BRANCH   4  71
ATOM     71  N   UNL     1      19.454  20.689   7.019  1.00  0.00    -0.348 N 
ATOM     72  C   UNL     1      20.331  20.835   5.912  1.00  0.00     0.217 C 
ATOM     73  H   UNL     1      18.456  20.935   6.890  1.00  0.00     0.163 HD
ATOM     74  C   UNL     1      19.817  21.350   4.606  1.00  0.00     0.114 C 
ATOM     75  O   UNL     1      21.563  20.541   5.976  1.00  0.00    -0.275 OA
ENDBRANCH   4  71
TORSDOF 30
