REMARK VINA RESULT:    -5.678      3.553      8.857
REMARK INTER + INTRA:         -20.573
REMARK INTER:                 -14.297
REMARK INTRA:                  -6.276
REMARK UNBOUND:                -6.597
REMARK SMILES CC(=O)N[C@@H]1[C@@H](O)C[C@](OC[C@H]2O[C@@H](O[C@H]3[C@H](O)[C@@H](O)[C@H](OCCN=[N+]=[N-])O[C@@H]3CO)[C@H](O)[C@@H](O)[C@H]2O)(C(=O)O)O[C@H]1C(O)[C@H](O)CNC(=O)OCc1cn(-c2ccccc2)nn1
REMARK SMILES IDX 9 1 8 2 6 3 5 4 42 5 41 6 10 7 11 8 12 9 14 10 13 11 32 12
REMARK SMILES IDX 34 13 36 14 15 15 16 16 29 17 28 18 21 19 17 20 19 21 30 22
REMARK SMILES IDX 31 23 22 25 23 26 24 27 25 28 26 29 27 30 18 31 20 33 33 35
REMARK SMILES IDX 35 37 37 39 38 41 39 42 40 43 7 45 43 47 44 48 45 50 46 51
REMARK SMILES IDX 47 53 48 54 49 55 50 57 51 58 52 59 53 60 54 61 63 62 55 63
REMARK SMILES IDX 62 64 56 65 57 66 61 67 58 68 60 69 59 70 4 71 2 72 1 74
REMARK SMILES IDX 3 75
REMARK H PARENT 31 24 18 32 20 34 33 36 35 38 37 40 40 44 7 46 44 49 46 52
REMARK H PARENT 48 56 4 73
REMARK Flexibility Score: inf
ROOT
ATOM      1  C   UNL     1      20.642  29.488  20.345  1.00  0.00     0.272 C 
ATOM      2  C   UNL     1      21.228  30.323  19.269  1.00  0.00     0.113 C 
ATOM      3  C   UNL     1      20.344  31.394  18.747  1.00  0.00     0.145 C 
ATOM      4  C   UNL     1      19.601  32.072  19.883  1.00  0.00     0.142 C 
ATOM      5  C   UNL     1      18.827  30.981  20.587  1.00  0.00     0.178 C 
ATOM      6  O   UNL     1      19.768  30.208  21.216  1.00  0.00    -0.332 OA
ENDROOT
BRANCH   1   7
ATOM      7  O   UNL     1      21.537  28.956  21.227  1.00  0.00    -0.338 OA
BRANCH   7   8
ATOM      8  C   UNL     1      22.490  28.102  20.906  1.00  0.00     0.199 C 
BRANCH   8   9
ATOM      9  C   UNL     1      22.618  26.758  21.510  1.00  0.00     0.179 C 
ATOM     10  C   UNL     1      23.277  25.795  23.530  1.00  0.00     0.282 C 
ATOM     11  O   UNL     1      23.284  26.976  22.758  1.00  0.00    -0.341 OA
ATOM     12  C   UNL     1      22.767  24.592  22.809  1.00  0.00     0.202 C 
ATOM     13  C   UNL     1      21.357  24.810  22.306  1.00  0.00     0.179 C 
ATOM     14  C   UNL     1      21.223  26.245  21.888  1.00  0.00     0.177 C 
BRANCH  10  15
ATOM     15  O   UNL     1      22.511  26.018  24.615  1.00  0.00    -0.341 OA
BRANCH  15  16
ATOM     16  C   UNL     1      23.035  26.328  25.815  1.00  0.00     0.184 C 
ATOM     17  C   UNL     1      22.423  25.608  26.994  1.00  0.00     0.178 C 
ATOM     18  O   UNL     1      22.671  26.430  28.110  1.00  0.00    -0.341 OA
ATOM     19  C   UNL     1      21.645  27.399  28.085  1.00  0.00     0.281 C 
ATOM     20  C   UNL     1      23.010  27.828  26.109  1.00  0.00     0.180 C 
ATOM     21  C   UNL     1      21.714  28.200  26.800  1.00  0.00     0.202 C 
BRANCH  17  22
ATOM     22  C   UNL     1      23.094  24.280  27.272  1.00  0.00     0.191 C 
BRANCH  22  23
ATOM     23  O   UNL     1      23.048  24.043  28.648  1.00  0.00    -0.394 OA
ATOM     24  H   UNL     1      22.165  23.640  28.921  1.00  0.00     0.210 HD
ENDBRANCH  22  23
ENDBRANCH  17  22
BRANCH  19  25
ATOM     25  O   UNL     1      21.717  28.256  29.140  1.00  0.00    -0.350 OA
BRANCH  25  26
ATOM     26  C   UNL     1      20.589  28.440  29.892  1.00  0.00     0.169 C 
BRANCH  26  27
ATOM     27  C   UNL     1      19.976  27.191  30.440  1.00  0.00     0.119 C 
BRANCH  27  28
ATOM     28  N   UNL     1      18.838  27.460  31.240  1.00  0.00    -0.092 NA
ATOM     29  N   UNL     1      18.936  27.856  32.416  1.00  0.00     0.001 N 
ATOM     30  N   UNL     1      19.212  27.909  33.626  1.00  0.00    -0.003 NA
ENDBRANCH  27  28
ENDBRANCH  26  27
ENDBRANCH  25  26
ENDBRANCH  19  25
BRANCH  20  31
ATOM     31  O   UNL     1      24.046  28.238  26.937  1.00  0.00    -0.387 OA
ATOM     32  H   UNL     1      24.804  27.604  26.911  1.00  0.00     0.211 HD
ENDBRANCH  20  31
BRANCH  21  33
ATOM     33  O   UNL     1      20.606  27.965  26.012  1.00  0.00    -0.385 OA
ATOM     34  H   UNL     1      19.760  28.257  26.422  1.00  0.00     0.211 HD
ENDBRANCH  21  33
ENDBRANCH  15  16
ENDBRANCH  10  15
BRANCH  12  35
ATOM     35  O   UNL     1      23.629  24.079  21.849  1.00  0.00    -0.385 OA
ATOM     36  H   UNL     1      23.992  24.846  21.336  1.00  0.00     0.211 HD
ENDBRANCH  12  35
BRANCH  13  37
ATOM     37  O   UNL     1      20.474  24.564  23.341  1.00  0.00    -0.387 OA
ATOM     38  H   UNL     1      20.414  23.613  23.608  1.00  0.00     0.211 HD
ENDBRANCH  13  37
BRANCH  14  39
ATOM     39  O   UNL     1      20.807  27.051  22.974  1.00  0.00    -0.387 OA
ATOM     40  H   UNL     1      21.411  27.811  23.105  1.00  0.00     0.211 HD
ENDBRANCH  14  39
ENDBRANCH   8   9
ENDBRANCH   7   8
ENDBRANCH   1   7
BRANCH   1  41
ATOM     41  C   UNL     1      19.725  28.483  19.760  1.00  0.00     0.364 C 
ATOM     42  O   UNL     1      19.911  28.006  18.641  1.00  0.00    -0.246 OA
BRANCH  41  43
ATOM     43  O   UNL     1      18.597  28.047  20.485  1.00  0.00    -0.477 OA
ATOM     44  H   UNL     1      17.730  27.889  19.975  1.00  0.00     0.296 HD
ENDBRANCH  41  43
ENDBRANCH   1  41
BRANCH   3  45
ATOM     45  O   UNL     1      21.098  32.307  18.013  1.00  0.00    -0.391 OA
ATOM     46  H   UNL     1      21.502  31.818  17.275  1.00  0.00     0.211 HD
ENDBRANCH   3  45
BRANCH   5  47
ATOM     47  C   UNL     1      17.938  31.557  21.683  1.00  0.00     0.176 C 
BRANCH  47  48
ATOM     48  O   UNL     1      16.697  31.775  21.146  1.00  0.00    -0.388 OA
ATOM     49  H   UNL     1      16.249  30.968  20.811  1.00  0.00     0.211 HD
ENDBRANCH  47  48
BRANCH  47  50
ATOM     50  C   UNL     1      17.891  30.793  22.940  1.00  0.00     0.165 C 
BRANCH  50  51
ATOM     51  O   UNL     1      17.363  29.507  22.603  1.00  0.00    -0.388 OA
ATOM     52  H   UNL     1      17.442  28.964  23.409  1.00  0.00     0.211 HD
ENDBRANCH  50  51
BRANCH  50  53
ATOM     53  C   UNL     1      16.845  31.355  23.917  1.00  0.00     0.154 C 
BRANCH  53  54
ATOM     54  N   UNL     1      15.640  30.565  23.931  1.00  0.00    -0.319 N 
ATOM     55  C   UNL     1      14.385  31.095  23.471  1.00  0.00     0.407 C 
ATOM     56  H   UNL     1      15.607  29.580  24.267  1.00  0.00     0.167 HD
ATOM     57  O   UNL     1      14.306  32.264  23.030  1.00  0.00    -0.225 OA
BRANCH  55  58
ATOM     58  O   UNL     1      13.235  30.328  23.500  1.00  0.00    -0.443 OA
BRANCH  58  59
ATOM     59  C   UNL     1      12.582  29.928  22.301  1.00  0.00     0.294 C 
BRANCH  59  60
ATOM     60  C   UNL     1      13.662  29.416  21.407  1.00  0.00     0.121 A 
ATOM     61  C   UNL     1      13.809  29.809  20.084  1.00  0.00     0.144 A 
ATOM     62  N   UNL     1      14.649  28.545  21.634  1.00  0.00    -0.131 NA
ATOM     63  N   UNL     1      14.879  29.167  19.548  1.00  0.00    -0.220 N 
ATOM     64  N   UNL     1      15.361  28.414  20.511  1.00  0.00    -0.062 NA
BRANCH  63  65
ATOM     65  C   UNL     1      15.365  29.287  18.221  1.00  0.00     0.066 A 
ATOM     66  C   UNL     1      14.682  29.995  17.260  1.00  0.00     0.028 A 
ATOM     67  C   UNL     1      16.556  28.692  17.868  1.00  0.00     0.028 A 
ATOM     68  C   UNL     1      15.152  30.123  15.969  1.00  0.00     0.002 A 
ATOM     69  C   UNL     1      17.025  28.822  16.569  1.00  0.00     0.002 A 
ATOM     70  C   UNL     1      16.356  29.524  15.596  1.00  0.00     0.000 A 
ENDBRANCH  63  65
ENDBRANCH  59  60
ENDBRANCH  58  59
ENDBRANCH  55  58
ENDBRANCH  53  54
ENDBRANCH  50  53
ENDBRANCH  47  50
ENDBRANCH   5  47
BRANCH   4  71
ATOM     71  N   UNL     1      18.852  33.192  19.438  1.00  0.00    -0.348 N 
ATOM     72  C   UNL     1      19.192  34.486  19.913  1.00  0.00     0.217 C 
ATOM     73  H   UNL     1      18.070  33.107  18.763  1.00  0.00     0.163 HD
ATOM     74  C   UNL     1      18.421  35.682  19.460  1.00  0.00     0.114 C 
ATOM     75  O   UNL     1      20.146  34.682  20.727  1.00  0.00    -0.275 OA
ENDBRANCH   4  71
TORSDOF 30
