REMARK VINA RESULT:    -6.265      4.008      7.256
REMARK INTER + INTRA:         -20.636
REMARK INTER:                 -14.641
REMARK INTRA:                  -5.995
REMARK UNBOUND:                -5.215
REMARK SMILES CC(=O)N[C@@H]1[C@@H](O)C[C@](OC[C@H]2O[C@@H](O[C@H]3[C@H](O)[C@@H](O)[C@H](OCCN=[N+]=[N-])O[C@@H]3CO)[C@H](O)[C@@H](O)[C@H]2O)(C(=O)O)O[C@H]1C(O)[C@H](O)CNC(=O)OCc1cn(C2CCCC2)nn1
REMARK SMILES IDX 9 1 8 2 6 3 5 4 42 5 41 6 10 7 11 8 12 9 14 10 13 11 32 12
REMARK SMILES IDX 34 13 36 14 15 15 16 16 29 17 28 18 21 19 17 20 19 21 30 22
REMARK SMILES IDX 31 23 22 25 23 26 24 27 25 28 26 29 27 30 18 31 20 33 33 35
REMARK SMILES IDX 35 37 37 39 38 41 39 42 40 43 7 45 43 47 44 48 45 50 46 51
REMARK SMILES IDX 47 53 48 54 49 55 50 57 51 58 52 59 53 60 54 61 62 62 55 63
REMARK SMILES IDX 61 64 56 65 57 66 60 67 58 68 59 69 4 70 2 71 1 73 3 74
REMARK H PARENT 31 24 18 32 20 34 33 36 35 38 37 40 40 44 7 46 44 49 46 52
REMARK H PARENT 48 56 4 72
REMARK Flexibility Score: inf
ROOT
ATOM      1  C   UNL     1      19.337  30.427  20.034  1.00  0.00     0.272 C 
ATOM      2  C   UNL     1      18.606  31.618  20.529  1.00  0.00     0.113 C 
ATOM      3  C   UNL     1      17.550  31.325  21.538  1.00  0.00     0.145 C 
ATOM      4  C   UNL     1      16.640  30.177  21.039  1.00  0.00     0.142 C 
ATOM      5  C   UNL     1      17.129  29.771  19.693  1.00  0.00     0.178 C 
ATOM      6  O   UNL     1      18.469  29.314  19.941  1.00  0.00    -0.332 OA
ENDROOT
BRANCH   1   7
ATOM      7  O   UNL     1      20.385  30.065  20.801  1.00  0.00    -0.338 OA
BRANCH   7   8
ATOM      8  C   UNL     1      20.448  28.794  21.311  1.00  0.00     0.199 C 
BRANCH   8   9
ATOM      9  C   UNL     1      21.891  28.319  21.168  1.00  0.00     0.179 C 
ATOM     10  C   UNL     1      22.039  26.613  22.746  1.00  0.00     0.282 C 
ATOM     11  O   UNL     1      22.443  27.874  22.326  1.00  0.00    -0.341 OA
ATOM     12  C   UNL     1      21.724  25.679  21.630  1.00  0.00     0.202 C 
ATOM     13  C   UNL     1      22.387  26.020  20.332  1.00  0.00     0.179 C 
ATOM     14  C   UNL     1      22.015  27.440  19.981  1.00  0.00     0.177 C 
BRANCH  10  15
ATOM     15  O   UNL     1      21.040  26.687  23.714  1.00  0.00    -0.341 OA
BRANCH  15  16
ATOM     16  C   UNL     1      21.544  26.525  25.004  1.00  0.00     0.184 C 
ATOM     17  C   UNL     1      22.412  27.645  25.471  1.00  0.00     0.178 C 
ATOM     18  O   UNL     1      22.916  27.323  26.729  1.00  0.00    -0.341 OA
ATOM     19  C   UNL     1      23.933  26.394  26.605  1.00  0.00     0.281 C 
ATOM     20  C   UNL     1      22.420  25.280  24.952  1.00  0.00     0.180 C 
ATOM     21  C   UNL     1      23.272  25.100  26.167  1.00  0.00     0.202 C 
BRANCH  17  22
ATOM     22  C   UNL     1      21.662  28.957  25.670  1.00  0.00     0.191 C 
BRANCH  22  23
ATOM     23  O   UNL     1      20.312  28.656  25.423  1.00  0.00    -0.394 OA
ATOM     24  H   UNL     1      19.886  29.353  24.897  1.00  0.00     0.210 HD
ENDBRANCH  22  23
ENDBRANCH  17  22
BRANCH  19  25
ATOM     25  O   UNL     1      24.491  26.165  27.859  1.00  0.00    -0.350 OA
BRANCH  25  26
ATOM     26  C   UNL     1      24.442  27.344  28.622  1.00  0.00     0.169 C 
BRANCH  26  27
ATOM     27  C   UNL     1      24.736  27.045  30.082  1.00  0.00     0.119 C 
BRANCH  27  28
ATOM     28  N   UNL     1      25.065  25.662  30.270  1.00  0.00    -0.092 NA
ATOM     29  N   UNL     1      26.056  25.304  30.939  1.00  0.00     0.001 N 
ATOM     30  N   UNL     1      27.236  25.051  31.170  1.00  0.00    -0.003 NA
ENDBRANCH  27  28
ENDBRANCH  26  27
ENDBRANCH  25  26
ENDBRANCH  19  25
BRANCH  20  31
ATOM     31  O   UNL     1      21.548  24.197  24.859  1.00  0.00    -0.387 OA
ATOM     32  H   UNL     1      20.779  24.267  25.477  1.00  0.00     0.211 HD
ENDBRANCH  20  31
BRANCH  21  33
ATOM     33  O   UNL     1      24.306  24.208  25.843  1.00  0.00    -0.385 OA
ATOM     34  H   UNL     1      25.109  24.550  26.315  1.00  0.00     0.211 HD
ENDBRANCH  21  33
ENDBRANCH  15  16
ENDBRANCH  10  15
BRANCH  12  35
ATOM     35  O   UNL     1      22.134  24.360  21.937  1.00  0.00    -0.385 OA
ATOM     36  H   UNL     1      23.074  24.285  21.689  1.00  0.00     0.211 HD
ENDBRANCH  12  35
BRANCH  13  37
ATOM     37  O   UNL     1      21.911  25.185  19.338  1.00  0.00    -0.387 OA
ATOM     38  H   UNL     1      21.024  25.509  19.068  1.00  0.00     0.211 HD
ENDBRANCH  13  37
BRANCH  14  39
ATOM     39  O   UNL     1      20.884  27.407  19.176  1.00  0.00    -0.387 OA
ATOM     40  H   UNL     1      20.203  26.801  19.501  1.00  0.00     0.211 HD
ENDBRANCH  14  39
ENDBRANCH   8   9
ENDBRANCH   7   8
ENDBRANCH   1   7
BRANCH   1  41
ATOM     41  C   UNL     1      19.735  30.673  18.596  1.00  0.00     0.364 C 
ATOM     42  O   UNL     1      20.297  29.813  17.901  1.00  0.00    -0.246 OA
BRANCH  41  43
ATOM     43  O   UNL     1      19.430  31.941  18.091  1.00  0.00    -0.477 OA
ATOM     44  H   UNL     1      18.814  32.556  18.639  1.00  0.00     0.296 HD
ENDBRANCH  41  43
ENDBRANCH   1  41
BRANCH   3  45
ATOM     45  O   UNL     1      17.990  31.106  22.818  1.00  0.00    -0.391 OA
ATOM     46  H   UNL     1      18.050  31.957  23.309  1.00  0.00     0.211 HD
ENDBRANCH   3  45
BRANCH   5  47
ATOM     47  C   UNL     1      16.447  28.565  19.096  1.00  0.00     0.176 C 
BRANCH  47  48
ATOM     48  O   UNL     1      16.698  27.477  20.032  1.00  0.00    -0.388 OA
ATOM     49  H   UNL     1      16.966  26.741  19.435  1.00  0.00     0.211 HD
ENDBRANCH  47  48
BRANCH  47  50
ATOM     50  C   UNL     1      17.055  28.027  17.831  1.00  0.00     0.165 C 
BRANCH  50  51
ATOM     51  O   UNL     1      18.348  27.643  17.859  1.00  0.00    -0.388 OA
ATOM     52  H   UNL     1      19.006  28.342  17.652  1.00  0.00     0.211 HD
ENDBRANCH  50  51
BRANCH  50  53
ATOM     53  C   UNL     1      16.907  29.096  16.755  1.00  0.00     0.154 C 
BRANCH  53  54
ATOM     54  N   UNL     1      15.576  28.952  16.149  1.00  0.00    -0.319 N 
ATOM     55  C   UNL     1      15.430  28.629  14.776  1.00  0.00     0.407 C 
ATOM     56  H   UNL     1      14.699  29.084  16.715  1.00  0.00     0.167 HD
ATOM     57  O   UNL     1      16.461  28.465  14.074  1.00  0.00    -0.225 OA
BRANCH  55  58
ATOM     58  O   UNL     1      14.190  28.491  14.194  1.00  0.00    -0.443 OA
BRANCH  58  59
ATOM     59  C   UNL     1      13.501  29.580  13.611  1.00  0.00     0.294 C 
BRANCH  59  60
ATOM     60  C   UNL     1      12.698  30.351  14.587  1.00  0.00     0.120 A 
ATOM     61  C   UNL     1      12.879  31.616  15.098  1.00  0.00     0.138 A 
ATOM     62  N   UNL     1      11.571  29.897  15.179  1.00  0.00    -0.132 NA
ATOM     63  N   UNL     1      11.890  31.883  15.956  1.00  0.00    -0.249 N 
ATOM     64  N   UNL     1      11.112  30.814  15.980  1.00  0.00    -0.067 NA
BRANCH  63  65
ATOM     65  C   UNL     1      11.667  33.096  16.734  1.00  0.00     0.109 C 
ATOM     66  C   UNL     1      10.765  32.878  17.904  1.00  0.00     0.027 C 
ATOM     67  C   UNL     1      12.985  33.521  17.346  1.00  0.00     0.027 C 
ATOM     68  C   UNL     1      11.631  32.585  19.102  1.00  0.00     0.002 C 
ATOM     69  C   UNL     1      13.052  32.891  18.704  1.00  0.00     0.002 C 
ENDBRANCH  63  65
ENDBRANCH  59  60
ENDBRANCH  58  59
ENDBRANCH  55  58
ENDBRANCH  53  54
ENDBRANCH  50  53
ENDBRANCH  47  50
ENDBRANCH   5  47
BRANCH   4  70
ATOM     70  N   UNL     1      15.265  30.615  21.122  1.00  0.00    -0.348 N 
ATOM     71  C   UNL     1      14.243  29.702  21.588  1.00  0.00     0.217 C 
ATOM     72  H   UNL     1      14.951  31.577  20.882  1.00  0.00     0.163 HD
ATOM     73  C   UNL     1      12.826  30.131  21.682  1.00  0.00     0.114 C 
ATOM     74  O   UNL     1      14.536  28.523  21.923  1.00  0.00    -0.275 OA
ENDBRANCH   4  70
TORSDOF 30
