REMARK VINA RESULT:    -6.204      2.694      9.787
REMARK INTER + INTRA:         -20.824
REMARK INTER:                 -12.805
REMARK INTRA:                  -8.019
REMARK UNBOUND:                -4.828
REMARK SMILES CC(=O)N[C@@H]1[C@@H](O)C[C@](OC[C@H]2O[C@@H](O[C@H]3[C@H](O)[C@@H](O)[C@H](OCCN=[N+]=[N-])O[C@@H]3CO)[C@H](O)[C@@H](O)[C@H]2O)(C(=O)O)O[C@H]1C(O)[C@H](O)CNC(=O)OCc1cn(CCN2CCCC2)nn1
REMARK SMILES IDX 9 1 8 2 6 3 5 4 42 5 41 6 10 7 11 8 12 9 14 10 13 11 32 12
REMARK SMILES IDX 34 13 36 14 15 15 16 16 29 17 28 18 21 19 17 20 19 21 30 22
REMARK SMILES IDX 31 23 22 25 23 26 24 27 25 28 26 29 27 30 18 31 20 33 33 35
REMARK SMILES IDX 35 37 37 39 38 41 39 42 40 43 7 45 43 47 44 48 45 50 46 51
REMARK SMILES IDX 47 53 48 54 49 55 50 57 51 58 52 59 53 60 54 61 64 62 55 63
REMARK SMILES IDX 63 64 56 65 57 66 58 67 59 68 62 69 60 70 61 71 4 72 2 73
REMARK SMILES IDX 1 75 3 76
REMARK H PARENT 31 24 18 32 20 34 33 36 35 38 37 40 40 44 7 46 44 49 46 52
REMARK H PARENT 48 56 4 74
REMARK Flexibility Score: inf
ROOT
ATOM      1  C   UNL     1      18.205  32.933  22.368  1.00  0.00     0.272 C 
ATOM      2  C   UNL     1      17.152  32.316  21.502  1.00  0.00     0.113 C 
ATOM      3  C   UNL     1      16.922  30.849  21.889  1.00  0.00     0.145 C 
ATOM      4  C   UNL     1      18.258  30.124  21.559  1.00  0.00     0.142 C 
ATOM      5  C   UNL     1      19.328  30.854  22.284  1.00  0.00     0.178 C 
ATOM      6  O   UNL     1      18.804  31.881  23.074  1.00  0.00    -0.332 OA
ENDROOT
BRANCH   1   7
ATOM      7  O   UNL     1      17.652  33.714  23.386  1.00  0.00    -0.338 OA
BRANCH   7   8
ATOM      8  C   UNL     1      17.964  33.404  24.660  1.00  0.00     0.199 C 
BRANCH   8   9
ATOM      9  C   UNL     1      16.741  33.068  25.509  1.00  0.00     0.179 C 
ATOM     10  C   UNL     1      14.468  32.770  25.430  1.00  0.00     0.282 C 
ATOM     11  O   UNL     1      15.657  32.637  24.764  1.00  0.00    -0.341 OA
ATOM     12  C   UNL     1      14.630  32.421  26.871  1.00  0.00     0.202 C 
ATOM     13  C   UNL     1      15.786  31.447  27.018  1.00  0.00     0.179 C 
ATOM     14  C   UNL     1      17.098  32.080  26.602  1.00  0.00     0.177 C 
BRANCH  10  15
ATOM     15  O   UNL     1      13.385  32.214  24.818  1.00  0.00    -0.341 OA
BRANCH  15  16
ATOM     16  C   UNL     1      13.451  31.637  23.623  1.00  0.00     0.184 C 
ATOM     17  C   UNL     1      12.745  32.323  22.471  1.00  0.00     0.178 C 
ATOM     18  O   UNL     1      13.374  31.894  21.298  1.00  0.00    -0.341 OA
ATOM     19  C   UNL     1      12.887  30.575  21.069  1.00  0.00     0.281 C 
ATOM     20  C   UNL     1      13.006  30.188  23.550  1.00  0.00     0.180 C 
ATOM     21  C   UNL     1      13.456  29.717  22.181  1.00  0.00     0.202 C 
BRANCH  17  22
ATOM     22  C   UNL     1      12.717  33.811  22.558  1.00  0.00     0.191 C 
BRANCH  22  23
ATOM     23  O   UNL     1      11.715  34.172  23.454  1.00  0.00    -0.394 OA
ATOM     24  H   UNL     1      10.951  33.535  23.386  1.00  0.00     0.210 HD
ENDBRANCH  22  23
ENDBRANCH  17  22
BRANCH  19  25
ATOM     25  O   UNL     1      13.455  30.175  19.902  1.00  0.00    -0.350 OA
BRANCH  25  26
ATOM     26  C   UNL     1      13.774  31.085  18.954  1.00  0.00     0.169 C 
BRANCH  26  27
ATOM     27  C   UNL     1      15.168  31.096  18.434  1.00  0.00     0.119 C 
BRANCH  27  28
ATOM     28  N   UNL     1      15.655  32.398  18.046  1.00  0.00    -0.092 NA
ATOM     29  N   UNL     1      16.860  32.604  18.015  1.00  0.00     0.001 N 
ATOM     30  N   UNL     1      18.092  32.656  17.940  1.00  0.00    -0.003 NA
ENDBRANCH  27  28
ENDBRANCH  26  27
ENDBRANCH  25  26
ENDBRANCH  19  25
BRANCH  20  31
ATOM     31  O   UNL     1      13.679  29.404  24.476  1.00  0.00    -0.387 OA
ATOM     32  H   UNL     1      14.444  29.842  24.896  1.00  0.00     0.211 HD
ENDBRANCH  20  31
BRANCH  21  33
ATOM     33  O   UNL     1      13.256  28.372  21.976  1.00  0.00    -0.385 OA
ATOM     34  H   UNL     1      12.390  28.109  21.621  1.00  0.00     0.211 HD
ENDBRANCH  21  33
ENDBRANCH  15  16
ENDBRANCH  10  15
BRANCH  12  35
ATOM     35  O   UNL     1      14.927  33.525  27.680  1.00  0.00    -0.385 OA
ATOM     36  H   UNL     1      14.592  33.372  28.611  1.00  0.00     0.211 HD
ENDBRANCH  12  35
BRANCH  13  37
ATOM     37  O   UNL     1      15.584  30.344  26.183  1.00  0.00    -0.387 OA
ATOM     38  H   UNL     1      16.223  29.604  26.435  1.00  0.00     0.211 HD
ENDBRANCH  13  37
BRANCH  14  39
ATOM     39  O   UNL     1      17.902  31.048  26.122  1.00  0.00    -0.387 OA
ATOM     40  H   UNL     1      18.321  30.643  26.938  1.00  0.00     0.211 HD
ENDBRANCH  14  39
ENDBRANCH   8   9
ENDBRANCH   7   8
ENDBRANCH   1   7
BRANCH   1  41
ATOM     41  C   UNL     1      19.240  33.692  21.619  1.00  0.00     0.364 C 
ATOM     42  O   UNL     1      20.124  34.306  22.292  1.00  0.00    -0.246 OA
BRANCH  41  43
ATOM     43  O   UNL     1      19.334  33.798  20.256  1.00  0.00    -0.477 OA
ATOM     44  H   UNL     1      19.978  34.336  19.724  1.00  0.00     0.296 HD
ENDBRANCH  41  43
ENDBRANCH   1  41
BRANCH   3  45
ATOM     45  O   UNL     1      16.729  30.709  23.240  1.00  0.00    -0.391 OA
ATOM     46  H   UNL     1      17.073  29.846  23.597  1.00  0.00     0.211 HD
ENDBRANCH   3  45
BRANCH   5  47
ATOM     47  C   UNL     1      20.009  29.949  23.283  1.00  0.00     0.176 C 
BRANCH  47  48
ATOM     48  O   UNL     1      19.242  29.630  24.387  1.00  0.00    -0.388 OA
ATOM     49  H   UNL     1      18.288  29.473  24.210  1.00  0.00     0.211 HD
ENDBRANCH  47  48
BRANCH  47  50
ATOM     50  C   UNL     1      20.761  28.776  22.787  1.00  0.00     0.165 C 
BRANCH  50  51
ATOM     51  O   UNL     1      20.930  27.731  23.665  1.00  0.00    -0.388 OA
ATOM     52  H   UNL     1      20.860  26.830  23.279  1.00  0.00     0.211 HD
ENDBRANCH  50  51
BRANCH  50  53
ATOM     53  C   UNL     1      21.859  29.040  21.810  1.00  0.00     0.154 C 
BRANCH  53  54
ATOM     54  N   UNL     1      22.571  27.881  21.419  1.00  0.00    -0.319 N 
ATOM     55  C   UNL     1      22.114  27.005  20.373  1.00  0.00     0.407 C 
ATOM     56  H   UNL     1      23.474  27.628  21.889  1.00  0.00     0.167 HD
ATOM     57  O   UNL     1      21.063  27.199  19.736  1.00  0.00    -0.225 OA
BRANCH  55  58
ATOM     58  O   UNL     1      22.860  25.878  20.026  1.00  0.00    -0.443 OA
BRANCH  58  59
ATOM     59  C   UNL     1      22.457  24.584  20.486  1.00  0.00     0.294 C 
BRANCH  59  60
ATOM     60  C   UNL     1      22.083  24.628  21.914  1.00  0.00     0.120 A 
ATOM     61  C   UNL     1      22.810  24.536  23.066  1.00  0.00     0.138 A 
ATOM     62  N   UNL     1      20.795  24.790  22.337  1.00  0.00    -0.132 NA
ATOM     63  N   UNL     1      21.997  24.639  24.117  1.00  0.00    -0.251 N 
ATOM     64  N   UNL     1      20.747  24.795  23.634  1.00  0.00    -0.067 NA
BRANCH  63  65
ATOM     65  C   UNL     1      22.285  24.601  25.516  1.00  0.00     0.161 C 
BRANCH  65  66
ATOM     66  C   UNL     1      23.338  25.548  25.957  1.00  0.00     0.108 C 
BRANCH  66  67
ATOM     67  N   UNL     1      23.173  26.267  27.149  1.00  0.00    -0.301 NA
ATOM     68  C   UNL     1      21.949  26.894  27.451  1.00  0.00     0.084 C 
ATOM     69  C   UNL     1      23.754  25.685  28.322  1.00  0.00     0.084 C 
ATOM     70  C   UNL     1      21.582  26.534  28.883  1.00  0.00     0.017 C 
ATOM     71  C   UNL     1      22.849  25.989  29.475  1.00  0.00     0.017 C 
ENDBRANCH  66  67
ENDBRANCH  65  66
ENDBRANCH  63  65
ENDBRANCH  59  60
ENDBRANCH  58  59
ENDBRANCH  55  58
ENDBRANCH  53  54
ENDBRANCH  50  53
ENDBRANCH  47  50
ENDBRANCH   5  47
BRANCH   4  72
ATOM     72  N   UNL     1      18.373  30.147  20.112  1.00  0.00    -0.348 N 
ATOM     73  C   UNL     1      18.082  29.031  19.276  1.00  0.00     0.217 C 
ATOM     74  H   UNL     1      18.682  31.007  19.623  1.00  0.00     0.163 HD
ATOM     75  C   UNL     1      18.246  29.165  17.787  1.00  0.00     0.114 C 
ATOM     76  O   UNL     1      17.701  27.976  19.786  1.00  0.00    -0.275 OA
ENDBRANCH   4  72
TORSDOF 32
