REMARK VINA RESULT:    -5.798     16.121     22.055
REMARK INTER + INTRA:         -22.385
REMARK INTER:                 -16.539
REMARK INTRA:                  -5.847
REMARK UNBOUND:                -7.606
REMARK SMILES CC(=O)N[C@@H]1[C@@H](O)C[C@](OC[C@H]2O[C@@H](O[C@H]3[C@H](O)[C@@H](O)[C@H](OCCN=[N+]=[N-])O[C@@H]3CO)[C@H](O)[C@@H](O)[C@H]2O)(C(=O)O)O[C@H]1C(O)[C@H](O)CNC(=O)OCc1cn(-c2ccc(CO)cn2)nn1
REMARK SMILES IDX 9 1 8 2 6 3 5 4 42 5 41 6 10 7 11 8 12 9 14 10 13 11 32 12
REMARK SMILES IDX 34 13 36 14 15 15 16 16 29 17 28 18 21 19 17 20 19 21 30 22
REMARK SMILES IDX 31 23 22 25 23 26 24 27 25 28 26 29 27 30 18 31 20 33 33 35
REMARK SMILES IDX 35 37 37 39 38 41 39 42 40 43 7 45 43 47 44 48 45 50 46 51
REMARK SMILES IDX 47 53 48 54 49 55 50 57 51 58 52 59 53 60 54 61 65 62 55 63
REMARK SMILES IDX 64 64 56 65 57 66 63 67 58 68 62 69 59 70 60 71 61 72 4 74
REMARK SMILES IDX 2 75 1 77 3 78
REMARK H PARENT 31 24 18 32 20 34 33 36 35 38 37 40 40 44 7 46 44 49 46 52
REMARK H PARENT 48 56 61 73 4 76
REMARK Flexibility Score: inf
ROOT
ATOM      1  C   UNL     1       3.778  26.527  26.207  1.00  0.00     0.272 C 
ATOM      2  C   UNL     1       4.773  25.500  25.813  1.00  0.00     0.113 C 
ATOM      3  C   UNL     1       6.008  26.101  25.202  1.00  0.00     0.145 C 
ATOM      4  C   UNL     1       6.511  27.243  26.064  1.00  0.00     0.142 C 
ATOM      5  C   UNL     1       5.418  28.184  26.367  1.00  0.00     0.178 C 
ATOM      6  O   UNL     1       4.312  27.598  26.878  1.00  0.00    -0.332 OA
ENDROOT
BRANCH   1   7
ATOM      7  O   UNL     1       2.746  26.036  26.988  1.00  0.00    -0.338 OA
BRANCH   7   8
ATOM      8  C   UNL     1       3.119  24.963  27.771  1.00  0.00     0.199 C 
BRANCH   8   9
ATOM      9  C   UNL     1       2.921  25.302  29.218  1.00  0.00     0.179 C 
ATOM     10  C   UNL     1       2.313  24.406  31.202  1.00  0.00     0.282 C 
ATOM     11  O   UNL     1       3.106  24.179  30.048  1.00  0.00    -0.341 OA
ATOM     12  C   UNL     1       2.600  25.739  31.760  1.00  0.00     0.202 C 
ATOM     13  C   UNL     1       3.841  26.430  31.220  1.00  0.00     0.179 C 
ATOM     14  C   UNL     1       3.879  26.344  29.698  1.00  0.00     0.177 C 
BRANCH  10  15
ATOM     15  O   UNL     1       2.482  23.340  32.092  1.00  0.00    -0.341 OA
BRANCH  15  16
ATOM     16  C   UNL     1       3.277  22.339  31.579  1.00  0.00     0.184 C 
ATOM     17  C   UNL     1       2.671  20.971  31.562  1.00  0.00     0.178 C 
ATOM     18  O   UNL     1       3.276  20.081  32.446  1.00  0.00    -0.341 OA
ATOM     19  C   UNL     1       3.275  20.520  33.746  1.00  0.00     0.281 C 
ATOM     20  C   UNL     1       4.512  22.266  32.496  1.00  0.00     0.180 C 
ATOM     21  C   UNL     1       3.935  21.901  33.871  1.00  0.00     0.202 C 
BRANCH  17  22
ATOM     22  C   UNL     1       2.942  20.380  30.166  1.00  0.00     0.191 C 
BRANCH  22  23
ATOM     23  O   UNL     1       3.439  21.382  29.319  1.00  0.00    -0.394 OA
ATOM     24  H   UNL     1       3.231  22.292  29.691  1.00  0.00     0.210 HD
ENDBRANCH  22  23
ENDBRANCH  17  22
BRANCH  19  25
ATOM     25  O   UNL     1       3.992  19.609  34.517  1.00  0.00    -0.350 OA
BRANCH  25  26
ATOM     26  C   UNL     1       3.253  18.522  34.905  1.00  0.00     0.169 C 
BRANCH  26  27
ATOM     27  C   UNL     1       2.821  18.737  36.350  1.00  0.00     0.119 C 
BRANCH  27  28
ATOM     28  N   UNL     1       3.983  18.979  37.194  1.00  0.00    -0.092 NA
ATOM     29  N   UNL     1       4.582  18.099  37.790  1.00  0.00     0.001 N 
ATOM     30  N   UNL     1       5.449  17.279  38.090  1.00  0.00    -0.003 NA
ENDBRANCH  27  28
ENDBRANCH  26  27
ENDBRANCH  25  26
ENDBRANCH  19  25
BRANCH  20  31
ATOM     31  O   UNL     1       5.455  21.380  32.053  1.00  0.00    -0.387 OA
ATOM     32  H   UNL     1       5.445  20.586  32.608  1.00  0.00     0.211 HD
ENDBRANCH  20  31
BRANCH  21  33
ATOM     33  O   UNL     1       2.970  22.865  34.153  1.00  0.00    -0.385 OA
ATOM     34  H   UNL     1       3.178  23.241  35.044  1.00  0.00     0.211 HD
ENDBRANCH  21  33
ENDBRANCH  15  16
ENDBRANCH  10  15
BRANCH  12  35
ATOM     35  O   UNL     1       1.495  26.587  31.514  1.00  0.00    -0.385 OA
ATOM     36  H   UNL     1       1.759  27.542  31.535  1.00  0.00     0.211 HD
ENDBRANCH  12  35
BRANCH  13  37
ATOM     37  O   UNL     1       5.000  25.962  31.814  1.00  0.00    -0.387 OA
ATOM     38  H   UNL     1       5.679  25.668  31.188  1.00  0.00     0.211 HD
ENDBRANCH  13  37
BRANCH  14  39
ATOM     39  O   UNL     1       5.176  26.058  29.333  1.00  0.00    -0.387 OA
ATOM     40  H   UNL     1       5.786  26.678  29.778  1.00  0.00     0.211 HD
ENDBRANCH  14  39
ENDBRANCH   8   9
ENDBRANCH   7   8
ENDBRANCH   1   7
BRANCH   1  41
ATOM     41  C   UNL     1       3.095  27.129  24.997  1.00  0.00     0.364 C 
ATOM     42  O   UNL     1       2.893  26.489  23.938  1.00  0.00    -0.246 OA
BRANCH  41  43
ATOM     43  O   UNL     1       2.664  28.440  25.019  1.00  0.00    -0.477 OA
ATOM     44  H   UNL     1       1.836  28.712  24.475  1.00  0.00     0.296 HD
ENDBRANCH  41  43
ENDBRANCH   1  41
BRANCH   3  45
ATOM     45  O   UNL     1       7.003  25.106  25.266  1.00  0.00    -0.391 OA
ATOM     46  H   UNL     1       7.813  25.336  24.774  1.00  0.00     0.211 HD
ENDBRANCH   3  45
BRANCH   5  47
ATOM     47  C   UNL     1       5.847  29.353  27.234  1.00  0.00     0.176 C 
BRANCH  47  48
ATOM     48  O   UNL     1       5.735  29.002  28.579  1.00  0.00    -0.388 OA
ATOM     49  H   UNL     1       4.927  29.402  28.977  1.00  0.00     0.211 HD
ENDBRANCH  47  48
BRANCH  47  50
ATOM     50  C   UNL     1       5.104  30.616  27.018  1.00  0.00     0.165 C 
BRANCH  50  51
ATOM     51  O   UNL     1       4.741  30.817  25.679  1.00  0.00    -0.388 OA
ATOM     52  H   UNL     1       3.798  30.679  25.506  1.00  0.00     0.211 HD
ENDBRANCH  50  51
BRANCH  50  53
ATOM     53  C   UNL     1       5.722  31.856  27.597  1.00  0.00     0.154 C 
BRANCH  53  54
ATOM     54  N   UNL     1       6.959  32.173  26.935  1.00  0.00    -0.319 N 
ATOM     55  C   UNL     1       7.078  33.369  26.187  1.00  0.00     0.407 C 
ATOM     56  H   UNL     1       7.791  31.500  27.008  1.00  0.00     0.167 HD
ATOM     57  O   UNL     1       6.144  34.192  26.067  1.00  0.00    -0.225 OA
BRANCH  55  58
ATOM     58  O   UNL     1       8.271  33.694  25.534  1.00  0.00    -0.443 OA
BRANCH  58  59
ATOM     59  C   UNL     1       8.919  32.721  24.765  1.00  0.00     0.294 C 
BRANCH  59  60
ATOM     60  C   UNL     1       8.054  31.825  24.008  1.00  0.00     0.121 A 
ATOM     61  C   UNL     1       7.614  31.996  22.719  1.00  0.00     0.146 A 
ATOM     62  N   UNL     1       7.521  30.666  24.430  1.00  0.00    -0.131 NA
ATOM     63  N   UNL     1       6.831  30.948  22.392  1.00  0.00    -0.202 N 
ATOM     64  N   UNL     1       6.802  30.166  23.456  1.00  0.00    -0.061 NA
BRANCH  63  65
ATOM     65  C   UNL     1       6.190  30.776  21.138  1.00  0.00     0.155 A 
ATOM     66  C   UNL     1       5.936  29.514  20.613  1.00  0.00     0.049 A 
ATOM     67  N   UNL     1       5.808  31.834  20.403  1.00  0.00    -0.237 NA
ATOM     68  C   UNL     1       5.315  29.366  19.380  1.00  0.00     0.011 A 
ATOM     69  C   UNL     1       5.201  31.713  19.198  1.00  0.00     0.119 A 
ATOM     70  C   UNL     1       4.936  30.470  18.648  1.00  0.00    -0.004 A 
BRANCH  70  71
ATOM     71  C   UNL     1       4.273  30.304  17.327  1.00  0.00     0.193 C 
BRANCH  71  72
ATOM     72  O   UNL     1       2.885  30.302  17.464  1.00  0.00    -0.392 OA
ATOM     73  H   UNL     1       2.441  29.776  16.768  1.00  0.00     0.211 HD
ENDBRANCH  71  72
ENDBRANCH  70  71
ENDBRANCH  63  65
ENDBRANCH  59  60
ENDBRANCH  58  59
ENDBRANCH  55  58
ENDBRANCH  53  54
ENDBRANCH  50  53
ENDBRANCH  47  50
ENDBRANCH   5  47
BRANCH   4  74
ATOM     74  N   UNL     1       7.638  27.893  25.394  1.00  0.00    -0.348 N 
ATOM     75  C   UNL     1       8.952  27.454  25.540  1.00  0.00     0.217 C 
ATOM     76  H   UNL     1       7.433  28.709  24.784  1.00  0.00     0.163 HD
ATOM     77  C   UNL     1      10.022  28.222  24.797  1.00  0.00     0.114 C 
ATOM     78  O   UNL     1       9.289  26.484  26.234  1.00  0.00    -0.275 OA
ENDBRANCH   4  74
TORSDOF 32
