REMARK VINA RESULT:    -6.118      8.626     13.160
REMARK INTER + INTRA:         -22.558
REMARK INTER:                 -14.417
REMARK INTRA:                  -8.142
REMARK UNBOUND:                -6.784
REMARK SMILES COc1ccc(Cn2cc(COC(=O)NC[C@@H](O)C(O)[C@@H]3O[C@@](OC[C@H]4O[C@@H](O[C@H]5[C@H](O)[C@@H](O)[C@H](OCCN=[N+]=[N-])O[C@@H]5CO)[C@H](O)[C@@H](O)[C@H]4O)(C(=O)O)C[C@H](O)[C@H]3NC(C)=O)nn2)cc1
REMARK SMILES IDX 23 1 55 2 56 3 58 4 21 5 22 6 24 7 25 8 26 9 28 10 27 11
REMARK SMILES IDX 46 12 48 13 50 14 29 15 30 16 43 17 42 18 35 19 31 20 33 21
REMARK SMILES IDX 44 22 45 23 36 25 37 26 38 27 39 28 40 29 41 30 32 31 34 33
REMARK SMILES IDX 47 35 49 37 51 39 52 41 53 42 54 43 57 45 19 47 20 48 17 50
REMARK SMILES IDX 18 51 16 53 15 54 13 55 14 57 12 58 11 59 10 60 9 61 63 62
REMARK SMILES IDX 8 63 64 64 7 65 6 66 5 67 65 68 4 69 66 70 3 71 2 72 1 73
REMARK SMILES IDX 59 74 60 75 61 77 62 78
REMARK H PARENT 45 24 32 32 34 34 47 36 49 38 51 40 54 44 57 46 20 49 18 52
REMARK H PARENT 15 56 59 76
REMARK Flexibility Score: inf
ROOT
ATOM      1  C   UNL     1      13.452  30.377  23.179  1.00  0.00     0.272 C 
ATOM      2  C   UNL     1      12.855  31.739  22.891  1.00  0.00     0.113 C 
ATOM      3  C   UNL     1      12.746  32.534  24.177  1.00  0.00     0.145 C 
ATOM      4  C   UNL     1      13.986  32.487  25.021  1.00  0.00     0.142 C 
ATOM      5  C   UNL     1      15.062  31.572  24.461  1.00  0.00     0.178 C 
ATOM      6  O   UNL     1      14.533  30.397  23.962  1.00  0.00    -0.332 OA
ENDROOT
BRANCH   1   7
ATOM      7  O   UNL     1      13.466  29.584  22.082  1.00  0.00    -0.338 OA
BRANCH   7   8
ATOM      8  C   UNL     1      13.450  30.049  20.828  1.00  0.00     0.199 C 
BRANCH   8   9
ATOM      9  C   UNL     1      14.656  29.625  20.019  1.00  0.00     0.179 C 
ATOM     10  C   UNL     1      16.088  30.528  18.496  1.00  0.00     0.282 C 
ATOM     11  O   UNL     1      15.464  30.764  19.741  1.00  0.00    -0.341 OA
ATOM     12  C   UNL     1      16.568  29.129  18.374  1.00  0.00     0.202 C 
ATOM     13  C   UNL     1      16.640  28.327  19.628  1.00  0.00     0.179 C 
ATOM     14  C   UNL     1      15.557  28.628  20.645  1.00  0.00     0.177 C 
BRANCH  10  15
ATOM     15  O   UNL     1      16.956  31.528  18.160  1.00  0.00    -0.341 OA
BRANCH  15  16
ATOM     16  C   UNL     1      18.274  31.171  17.968  1.00  0.00     0.184 C 
ATOM     17  C   UNL     1      19.282  32.059  18.656  1.00  0.00     0.178 C 
ATOM     18  O   UNL     1      20.487  32.078  17.954  1.00  0.00    -0.341 OA
ATOM     19  C   UNL     1      20.756  30.864  17.298  1.00  0.00     0.281 C 
ATOM     20  C   UNL     1      18.544  31.434  16.474  1.00  0.00     0.180 C 
ATOM     21  C   UNL     1      19.780  30.650  16.126  1.00  0.00     0.202 C 
BRANCH  17  22
ATOM     22  C   UNL     1      19.604  31.675  20.066  1.00  0.00     0.191 C 
BRANCH  22  23
ATOM     23  O   UNL     1      18.430  31.319  20.727  1.00  0.00    -0.394 OA
ATOM     24  H   UNL     1      17.672  31.728  20.220  1.00  0.00     0.210 HD
ENDBRANCH  22  23
ENDBRANCH  17  22
BRANCH  19  25
ATOM     25  O   UNL     1      20.786  29.778  18.111  1.00  0.00    -0.350 OA
BRANCH  25  26
ATOM     26  C   UNL     1      21.160  28.572  17.604  1.00  0.00     0.169 C 
BRANCH  26  27
ATOM     27  C   UNL     1      21.942  27.662  18.475  1.00  0.00     0.119 C 
BRANCH  27  28
ATOM     28  N   UNL     1      22.283  26.416  17.881  1.00  0.00    -0.092 NA
ATOM     29  N   UNL     1      22.652  25.414  18.512  1.00  0.00     0.001 N 
ATOM     30  N   UNL     1      22.609  24.273  19.025  1.00  0.00    -0.003 NA
ENDBRANCH  27  28
ENDBRANCH  26  27
ENDBRANCH  25  26
ENDBRANCH  19  25
BRANCH  20  31
ATOM     31  O   UNL     1      17.456  31.166  15.692  1.00  0.00    -0.387 OA
ATOM     32  H   UNL     1      17.627  30.406  15.048  1.00  0.00     0.211 HD
ENDBRANCH  20  31
BRANCH  21  33
ATOM     33  O   UNL     1      20.333  31.075  14.918  1.00  0.00    -0.385 OA
ATOM     34  H   UNL     1      19.609  31.150  14.241  1.00  0.00     0.211 HD
ENDBRANCH  21  33
ENDBRANCH  15  16
ENDBRANCH  10  15
BRANCH  12  35
ATOM     35  O   UNL     1      15.857  28.410  17.378  1.00  0.00    -0.385 OA
ATOM     36  H   UNL     1      16.367  28.458  16.513  1.00  0.00     0.211 HD
ENDBRANCH  12  35
BRANCH  13  37
ATOM     37  O   UNL     1      17.924  28.398  20.222  1.00  0.00    -0.387 OA
ATOM     38  H   UNL     1      18.468  29.032  19.689  1.00  0.00     0.211 HD
ENDBRANCH  13  37
BRANCH  14  39
ATOM     39  O   UNL     1      16.093  29.053  21.857  1.00  0.00    -0.387 OA
ATOM     40  H   UNL     1      16.862  28.500  22.141  1.00  0.00     0.211 HD
ENDBRANCH  14  39
ENDBRANCH   8   9
ENDBRANCH   7   8
ENDBRANCH   1   7
BRANCH   1  41
ATOM     41  C   UNL     1      12.286  29.688  23.964  1.00  0.00     0.364 C 
ATOM     42  O   UNL     1      11.107  29.850  23.584  1.00  0.00    -0.246 OA
BRANCH  41  43
ATOM     43  O   UNL     1      12.491  28.910  25.051  1.00  0.00    -0.477 OA
ATOM     44  H   UNL     1      12.964  28.043  25.123  1.00  0.00     0.296 HD
ENDBRANCH  41  43
ENDBRANCH   1  41
BRANCH   3  45
ATOM     45  O   UNL     1      12.522  33.869  23.727  1.00  0.00    -0.391 OA
ATOM     46  H   UNL     1      12.665  33.926  22.748  1.00  0.00     0.211 HD
ENDBRANCH   3  45
BRANCH   5  47
ATOM     47  C   UNL     1      15.923  32.383  23.574  1.00  0.00     0.176 C 
BRANCH  47  48
ATOM     48  O   UNL     1      16.351  31.692  22.403  1.00  0.00    -0.388 OA
ATOM     49  H   UNL     1      17.303  31.484  22.517  1.00  0.00     0.211 HD
ENDBRANCH  47  48
BRANCH  47  50
ATOM     50  C   UNL     1      17.333  32.672  24.166  1.00  0.00     0.165 C 
BRANCH  50  51
ATOM     51  O   UNL     1      18.280  33.114  23.331  1.00  0.00    -0.388 OA
ATOM     52  H   UNL     1      19.078  33.430  23.824  1.00  0.00     0.211 HD
ENDBRANCH  50  51
BRANCH  50  53
ATOM     53  C   UNL     1      17.774  31.374  24.878  1.00  0.00     0.154 C 
BRANCH  53  54
ATOM     54  N   UNL     1      19.142  31.049  24.640  1.00  0.00    -0.319 N 
ATOM     55  C   UNL     1      19.475  30.091  23.628  1.00  0.00     0.407 C 
ATOM     56  H   UNL     1      19.899  31.483  25.179  1.00  0.00     0.167 HD
ATOM     57  O   UNL     1      18.547  29.554  22.962  1.00  0.00    -0.225 OA
BRANCH  55  58
ATOM     58  O   UNL     1      20.810  29.793  23.421  1.00  0.00    -0.443 OA
BRANCH  58  59
ATOM     59  C   UNL     1      21.252  29.406  22.106  1.00  0.00     0.294 C 
BRANCH  59  60
ATOM     60  C   UNL     1      21.356  27.932  22.073  1.00  0.00     0.120 A 
ATOM     61  C   UNL     1      22.378  27.149  22.617  1.00  0.00     0.138 A 
ATOM     62  N   UNL     1      20.504  27.067  21.510  1.00  0.00    -0.132 NA
ATOM     63  N   UNL     1      22.084  25.871  22.349  1.00  0.00    -0.248 N 
ATOM     64  N   UNL     1      20.943  25.836  21.677  1.00  0.00    -0.067 NA
BRANCH  63  65
ATOM     65  C   UNL     1      22.872  24.724  22.724  1.00  0.00     0.181 C 
BRANCH  65  66
ATOM     66  C   UNL     1      23.106  24.755  24.185  1.00  0.00    -0.026 A 
ATOM     67  C   UNL     1      24.401  24.912  24.671  1.00  0.00     0.009 A 
ATOM     68  C   UNL     1      22.095  24.652  25.103  1.00  0.00     0.009 A 
ATOM     69  C   UNL     1      24.675  24.964  26.021  1.00  0.00     0.047 A 
ATOM     70  C   UNL     1      22.374  24.706  26.473  1.00  0.00     0.047 A 
ATOM     71  C   UNL     1      23.648  24.860  26.947  1.00  0.00     0.118 A 
BRANCH  71  72
ATOM     72  O   UNL     1      23.973  24.919  28.290  1.00  0.00    -0.497 OA
ATOM     73  C   UNL     1      23.301  25.687  29.244  1.00  0.00     0.278 C 
ENDBRANCH  71  72
ENDBRANCH  65  66
ENDBRANCH  63  65
ENDBRANCH  59  60
ENDBRANCH  58  59
ENDBRANCH  55  58
ENDBRANCH  53  54
ENDBRANCH  50  53
ENDBRANCH  47  50
ENDBRANCH   5  47
BRANCH   4  74
ATOM     74  N   UNL     1      13.760  32.260  26.432  1.00  0.00    -0.348 N 
ATOM     75  C   UNL     1      14.478  32.901  27.479  1.00  0.00     0.217 C 
ATOM     76  H   UNL     1      13.042  31.578  26.717  1.00  0.00     0.163 HD
ATOM     77  C   UNL     1      14.159  32.581  28.922  1.00  0.00     0.114 C 
ATOM     78  O   UNL     1      15.375  33.732  27.202  1.00  0.00    -0.275 OA
ENDBRANCH   4  74
TORSDOF 32
