REMARK VINA RESULT:    -5.538      5.606      8.973
REMARK INTER + INTRA:         -21.177
REMARK INTER:                 -11.692
REMARK INTRA:                  -9.485
REMARK UNBOUND:                -7.546
REMARK SMILES CC(=O)N[C@@H]1[C@@H](O)C[C@](OC[C@H]2O[C@@H](O[C@H]3[C@H](O)[C@@H](O)[C@H](OCCN=[N+]=[N-])O[C@@H]3CO)[C@H](O)[C@@H](O)[C@H]2O)(C(=O)O)O[C@H]1C(O)[C@H](O)CNC(=O)OCc1cn(-c2ccc3[nH]ncc3c2)nn1
REMARK SMILES IDX 9 1 8 2 6 3 5 4 42 5 41 6 10 7 11 8 12 9 14 10 13 11 32 12
REMARK SMILES IDX 34 13 36 14 15 15 16 16 29 17 28 18 21 19 17 20 19 21 30 22
REMARK SMILES IDX 31 23 22 25 23 26 24 27 25 28 26 29 27 30 18 31 20 33 33 35
REMARK SMILES IDX 35 37 37 39 38 41 39 42 40 43 7 45 43 47 44 48 45 50 46 51
REMARK SMILES IDX 47 53 48 54 49 55 50 57 51 58 52 59 53 60 54 61 66 62 55 63
REMARK SMILES IDX 65 64 56 65 57 66 64 67 58 68 63 69 59 70 62 71 60 72 61 73
REMARK SMILES IDX 4 75 2 76 1 78 3 79
REMARK H PARENT 31 24 18 32 20 34 33 36 35 38 37 40 40 44 7 46 44 49 46 52
REMARK H PARENT 48 56 60 74 4 77
REMARK Flexibility Score: inf
ROOT
ATOM      1  C   UNL     1      21.844  29.382  22.170  1.00  0.00     0.272 C 
ATOM      2  C   UNL     1      20.658  29.830  22.945  1.00  0.00     0.113 C 
ATOM      3  C   UNL     1      20.438  29.128  24.260  1.00  0.00     0.145 C 
ATOM      4  C   UNL     1      21.740  29.389  25.064  1.00  0.00     0.142 C 
ATOM      5  C   UNL     1      22.831  28.887  24.200  1.00  0.00     0.178 C 
ATOM      6  O   UNL     1      22.986  29.418  22.967  1.00  0.00    -0.332 OA
ENDROOT
BRANCH   1   7
ATOM      7  O   UNL     1      22.031  30.276  21.094  1.00  0.00    -0.338 OA
BRANCH   7   8
ATOM      8  C   UNL     1      20.897  30.800  20.567  1.00  0.00     0.199 C 
BRANCH   8   9
ATOM      9  C   UNL     1      20.883  30.711  19.025  1.00  0.00     0.179 C 
ATOM     10  C   UNL     1      20.404  28.835  17.754  1.00  0.00     0.282 C 
ATOM     11  O   UNL     1      21.317  29.493  18.596  1.00  0.00    -0.341 OA
ATOM     12  C   UNL     1      19.178  28.590  18.572  1.00  0.00     0.202 C 
ATOM     13  C   UNL     1      18.511  29.959  18.773  1.00  0.00     0.179 C 
ATOM     14  C   UNL     1      19.497  31.067  18.520  1.00  0.00     0.177 C 
BRANCH  10  15
ATOM     15  O   UNL     1      21.000  27.706  17.222  1.00  0.00    -0.341 OA
BRANCH  15  16
ATOM     16  C   UNL     1      22.371  27.758  17.435  1.00  0.00     0.184 C 
ATOM     17  C   UNL     1      23.197  27.821  16.186  1.00  0.00     0.178 C 
ATOM     18  O   UNL     1      24.503  27.959  16.469  1.00  0.00    -0.341 OA
ATOM     19  C   UNL     1      25.003  27.654  17.695  1.00  0.00     0.281 C 
ATOM     20  C   UNL     1      22.833  26.445  18.096  1.00  0.00     0.180 C 
ATOM     21  C   UNL     1      24.259  26.633  18.485  1.00  0.00     0.202 C 
BRANCH  17  22
ATOM     22  C   UNL     1      22.775  28.903  15.213  1.00  0.00     0.191 C 
BRANCH  22  23
ATOM     23  O   UNL     1      21.692  28.517  14.444  1.00  0.00    -0.394 OA
ATOM     24  H   UNL     1      20.882  28.863  14.928  1.00  0.00     0.210 HD
ENDBRANCH  22  23
ENDBRANCH  17  22
BRANCH  19  25
ATOM     25  O   UNL     1      25.119  28.826  18.400  1.00  0.00    -0.350 OA
BRANCH  25  26
ATOM     26  C   UNL     1      26.191  28.958  19.213  1.00  0.00     0.169 C 
BRANCH  26  27
ATOM     27  C   UNL     1      25.855  29.142  20.658  1.00  0.00     0.119 C 
BRANCH  27  28
ATOM     28  N   UNL     1      26.276  28.087  21.530  1.00  0.00    -0.092 NA
ATOM     29  N   UNL     1      26.812  27.065  21.149  1.00  0.00     0.001 N 
ATOM     30  N   UNL     1      27.022  25.894  20.759  1.00  0.00    -0.003 NA
ENDBRANCH  27  28
ENDBRANCH  26  27
ENDBRANCH  25  26
ENDBRANCH  19  25
BRANCH  20  31
ATOM     31  O   UNL     1      22.036  26.097  19.153  1.00  0.00    -0.387 OA
ATOM     32  H   UNL     1      21.657  25.183  19.086  1.00  0.00     0.211 HD
ENDBRANCH  20  31
BRANCH  21  33
ATOM     33  O   UNL     1      24.881  25.373  18.408  1.00  0.00    -0.385 OA
ATOM     34  H   UNL     1      25.754  25.370  18.878  1.00  0.00     0.211 HD
ENDBRANCH  21  33
ENDBRANCH  15  16
ENDBRANCH  10  15
BRANCH  12  35
ATOM     35  O   UNL     1      18.288  27.678  18.066  1.00  0.00    -0.385 OA
ATOM     36  H   UNL     1      18.045  27.878  17.111  1.00  0.00     0.211 HD
ENDBRANCH  12  35
BRANCH  13  37
ATOM     37  O   UNL     1      17.855  30.041  19.983  1.00  0.00    -0.387 OA
ATOM     38  H   UNL     1      17.946  29.144  20.426  1.00  0.00     0.211 HD
ENDBRANCH  13  37
BRANCH  14  39
ATOM     39  O   UNL     1      19.054  32.177  19.283  1.00  0.00    -0.387 OA
ATOM     40  H   UNL     1      19.312  33.026  18.893  1.00  0.00     0.211 HD
ENDBRANCH  14  39
ENDBRANCH   8   9
ENDBRANCH   7   8
ENDBRANCH   1   7
BRANCH   1  41
ATOM     41  C   UNL     1      21.758  27.986  21.664  1.00  0.00     0.364 C 
ATOM     42  O   UNL     1      22.863  27.372  21.486  1.00  0.00    -0.246 OA
BRANCH  41  43
ATOM     43  O   UNL     1      20.632  27.283  21.365  1.00  0.00    -0.477 OA
ATOM     44  H   UNL     1      20.064  27.453  20.535  1.00  0.00     0.296 HD
ENDBRANCH  41  43
ENDBRANCH   1  41
BRANCH   3  45
ATOM     45  O   UNL     1      19.363  29.718  24.895  1.00  0.00    -0.391 OA
ATOM     46  H   UNL     1      19.424  29.631  25.894  1.00  0.00     0.211 HD
ENDBRANCH   3  45
BRANCH   5  47
ATOM     47  C   UNL     1      24.112  28.725  24.963  1.00  0.00     0.176 C 
BRANCH  47  48
ATOM     48  O   UNL     1      24.918  27.899  24.097  1.00  0.00    -0.388 OA
ATOM     49  H   UNL     1      24.422  27.099  23.833  1.00  0.00     0.211 HD
ENDBRANCH  47  48
BRANCH  47  50
ATOM     50  C   UNL     1      24.927  29.982  25.147  1.00  0.00     0.165 C 
BRANCH  50  51
ATOM     51  O   UNL     1      25.839  29.993  24.055  1.00  0.00    -0.388 OA
ATOM     52  H   UNL     1      26.547  30.649  24.174  1.00  0.00     0.211 HD
ENDBRANCH  50  51
BRANCH  50  53
ATOM     53  C   UNL     1      25.696  30.076  26.410  1.00  0.00     0.154 C 
BRANCH  53  54
ATOM     54  N   UNL     1      26.239  28.880  26.951  1.00  0.00    -0.319 N 
ATOM     55  C   UNL     1      26.101  28.394  28.272  1.00  0.00     0.407 C 
ATOM     56  H   UNL     1      26.823  28.249  26.313  1.00  0.00     0.167 HD
ATOM     57  O   UNL     1      25.440  29.005  29.118  1.00  0.00    -0.225 OA
BRANCH  55  58
ATOM     58  O   UNL     1      26.715  27.201  28.642  1.00  0.00    -0.443 OA
BRANCH  58  59
ATOM     59  C   UNL     1      26.066  26.051  29.090  1.00  0.00     0.294 C 
BRANCH  59  60
ATOM     60  C   UNL     1      24.916  25.630  28.278  1.00  0.00     0.121 A 
ATOM     61  C   UNL     1      24.871  25.545  26.904  1.00  0.00     0.144 A 
ATOM     62  N   UNL     1      23.702  25.266  28.740  1.00  0.00    -0.131 NA
ATOM     63  N   UNL     1      23.636  25.135  26.607  1.00  0.00    -0.220 N 
ATOM     64  N   UNL     1      22.950  24.972  27.723  1.00  0.00    -0.062 NA
BRANCH  63  65
ATOM     65  C   UNL     1      23.149  24.914  25.283  1.00  0.00     0.067 A 
ATOM     66  C   UNL     1      21.803  24.979  25.001  1.00  0.00     0.030 A 
ATOM     67  C   UNL     1      24.024  24.627  24.261  1.00  0.00     0.040 A 
ATOM     68  C   UNL     1      21.337  24.763  23.728  1.00  0.00     0.030 A 
ATOM     69  C   UNL     1      23.535  24.411  22.975  1.00  0.00     0.022 A 
ATOM     70  C   UNL     1      22.184  24.472  22.676  1.00  0.00     0.065 A 
ATOM     71  C   UNL     1      24.198  24.115  21.807  1.00  0.00     0.143 A 
ATOM     72  N   UNL     1      22.044  24.221  21.364  1.00  0.00    -0.278 N 
ATOM     73  N   UNL     1      23.242  24.013  20.868  1.00  0.00    -0.183 NA
ATOM     74  H   UNL     1      21.125  24.201  20.858  1.00  0.00     0.190 HD
ENDBRANCH  63  65
ENDBRANCH  59  60
ENDBRANCH  58  59
ENDBRANCH  55  58
ENDBRANCH  53  54
ENDBRANCH  50  53
ENDBRANCH  47  50
ENDBRANCH   5  47
BRANCH   4  75
ATOM     75  N   UNL     1      21.583  28.491  26.213  1.00  0.00    -0.348 N 
ATOM     76  C   UNL     1      21.609  29.028  27.502  1.00  0.00     0.217 C 
ATOM     77  H   UNL     1      21.456  27.472  26.097  1.00  0.00     0.163 HD
ATOM     78  C   UNL     1      21.462  28.178  28.729  1.00  0.00     0.114 C 
ATOM     79  O   UNL     1      21.758  30.285  27.654  1.00  0.00    -0.275 OA
ENDBRANCH   4  75
TORSDOF 30
