REMARK VINA RESULT:    -5.748      4.821     12.108
REMARK INTER + INTRA:         -21.749
REMARK INTER:                 -15.684
REMARK INTRA:                  -6.065
REMARK UNBOUND:                -7.600
REMARK SMILES CC(=O)N[C@@H]1[C@@H](O)C[C@](OC[C@H]2O[C@@H](O[C@H]3[C@H](O)[C@@H](O)[C@H](OCCN=[N+]=[N-])O[C@@H]3CO)[C@H](O)[C@@H](O)[C@H]2O)(C(=O)O)O[C@H]1C(O)[C@H](O)CNC(=O)OCc1cn(-c2ccc(Cl)cc2)nn1
REMARK SMILES IDX 9 1 8 2 6 3 5 4 42 5 41 6 10 7 11 8 12 9 14 10 13 11 32 12
REMARK SMILES IDX 34 13 36 14 15 15 16 16 29 17 28 18 21 19 17 20 19 21 30 22
REMARK SMILES IDX 31 23 22 25 23 26 24 27 25 28 26 29 27 30 18 31 20 33 33 35
REMARK SMILES IDX 35 37 37 39 38 41 39 42 40 43 7 45 43 47 44 48 45 50 46 51
REMARK SMILES IDX 47 53 48 54 49 55 50 57 51 58 52 59 53 60 54 61 64 62 55 63
REMARK SMILES IDX 63 64 56 65 57 66 62 67 58 68 61 69 59 70 60 71 4 72 2 73
REMARK SMILES IDX 1 75 3 76
REMARK H PARENT 31 24 18 32 20 34 33 36 35 38 37 40 40 44 7 46 44 49 46 52
REMARK H PARENT 48 56 4 74
REMARK Flexibility Score: inf
ROOT
ATOM      1  C   UNL     1      15.133  29.318  19.475  1.00  0.00     0.272 C 
ATOM      2  C   UNL     1      14.206  28.778  20.485  1.00  0.00     0.113 C 
ATOM      3  C   UNL     1      14.000  29.502  21.752  1.00  0.00     0.145 C 
ATOM      4  C   UNL     1      14.684  30.852  21.705  1.00  0.00     0.142 C 
ATOM      5  C   UNL     1      16.086  30.556  21.131  1.00  0.00     0.178 C 
ATOM      6  O   UNL     1      15.782  30.497  19.736  1.00  0.00    -0.332 OA
ENDROOT
BRANCH   1   7
ATOM      7  O   UNL     1      14.392  29.472  18.270  1.00  0.00    -0.338 OA
BRANCH   7   8
ATOM      8  C   UNL     1      14.275  30.773  17.866  1.00  0.00     0.199 C 
BRANCH   8   9
ATOM      9  C   UNL     1      14.921  31.005  16.502  1.00  0.00     0.179 C 
ATOM     10  C   UNL     1      15.910  29.486  15.002  1.00  0.00     0.282 C 
ATOM     11  O   UNL     1      15.916  30.117  16.247  1.00  0.00    -0.341 OA
ATOM     12  C   UNL     1      14.645  28.746  14.869  1.00  0.00     0.202 C 
ATOM     13  C   UNL     1      13.478  29.722  14.931  1.00  0.00     0.179 C 
ATOM     14  C   UNL     1      13.884  31.081  15.404  1.00  0.00     0.177 C 
BRANCH  10  15
ATOM     15  O   UNL     1      17.086  28.740  15.016  1.00  0.00    -0.341 OA
BRANCH  15  16
ATOM     16  C   UNL     1      17.978  28.974  14.059  1.00  0.00     0.184 C 
ATOM     17  C   UNL     1      19.152  29.774  14.496  1.00  0.00     0.178 C 
ATOM     18  O   UNL     1      20.178  29.717  13.557  1.00  0.00    -0.341 OA
ATOM     19  C   UNL     1      19.867  30.173  12.317  1.00  0.00     0.281 C 
ATOM     20  C   UNL     1      17.416  29.709  12.824  1.00  0.00     0.180 C 
ATOM     21  C   UNL     1      18.444  30.584  12.202  1.00  0.00     0.202 C 
BRANCH  17  22
ATOM     22  C   UNL     1      19.721  29.464  15.845  1.00  0.00     0.191 C 
BRANCH  22  23
ATOM     23  O   UNL     1      18.948  29.990  16.879  1.00  0.00    -0.394 OA
ATOM     24  H   UNL     1      18.815  29.296  17.568  1.00  0.00     0.210 HD
ENDBRANCH  22  23
ENDBRANCH  17  22
BRANCH  19  25
ATOM     25  O   UNL     1      20.105  29.179  11.361  1.00  0.00    -0.350 OA
BRANCH  25  26
ATOM     26  C   UNL     1      21.155  29.518  10.521  1.00  0.00     0.169 C 
BRANCH  26  27
ATOM     27  C   UNL     1      21.447  28.491   9.470  1.00  0.00     0.119 C 
BRANCH  27  28
ATOM     28  N   UNL     1      20.423  27.456   9.591  1.00  0.00    -0.092 NA
ATOM     29  N   UNL     1      20.848  26.286   9.586  1.00  0.00     0.001 N 
ATOM     30  N   UNL     1      21.244  25.154   9.937  1.00  0.00    -0.003 NA
ENDBRANCH  27  28
ENDBRANCH  26  27
ENDBRANCH  25  26
ENDBRANCH  19  25
BRANCH  20  31
ATOM     31  O   UNL     1      17.032  28.728  11.926  1.00  0.00    -0.387 OA
ATOM     32  H   UNL     1      16.325  29.147  11.338  1.00  0.00     0.211 HD
ENDBRANCH  20  31
BRANCH  21  33
ATOM     33  O   UNL     1      18.311  31.932  12.590  1.00  0.00    -0.385 OA
ATOM     34  H   UNL     1      18.976  32.420  12.056  1.00  0.00     0.211 HD
ENDBRANCH  21  33
ENDBRANCH  15  16
ENDBRANCH  10  15
BRANCH  12  35
ATOM     35  O   UNL     1      14.509  27.993  13.701  1.00  0.00    -0.385 OA
ATOM     36  H   UNL     1      15.246  27.305  13.622  1.00  0.00     0.211 HD
ENDBRANCH  12  35
BRANCH  13  37
ATOM     37  O   UNL     1      12.471  29.142  15.699  1.00  0.00    -0.387 OA
ATOM     38  H   UNL     1      11.666  29.676  15.787  1.00  0.00     0.211 HD
ENDBRANCH  13  37
BRANCH  14  39
ATOM     39  O   UNL     1      12.770  31.729  15.993  1.00  0.00    -0.387 OA
ATOM     40  H   UNL     1      12.422  32.344  15.324  1.00  0.00     0.211 HD
ENDBRANCH  14  39
ENDBRANCH   8   9
ENDBRANCH   7   8
ENDBRANCH   1   7
BRANCH   1  41
ATOM     41  C   UNL     1      16.167  28.268  19.163  1.00  0.00     0.364 C 
ATOM     42  O   UNL     1      16.307  27.247  19.871  1.00  0.00    -0.246 OA
BRANCH  41  43
ATOM     43  O   UNL     1      16.981  28.434  18.070  1.00  0.00    -0.477 OA
ATOM     44  H   UNL     1      17.900  28.005  17.976  1.00  0.00     0.296 HD
ENDBRANCH  41  43
ENDBRANCH   1  41
BRANCH   3  45
ATOM     45  O   UNL     1      12.647  29.746  21.983  1.00  0.00    -0.391 OA
ATOM     46  H   UNL     1      12.286  28.996  22.493  1.00  0.00     0.211 HD
ENDBRANCH   3  45
BRANCH   5  47
ATOM     47  C   UNL     1      17.053  31.663  21.353  1.00  0.00     0.176 C 
BRANCH  47  48
ATOM     48  O   UNL     1      17.313  31.735  22.714  1.00  0.00    -0.388 OA
ATOM     49  H   UNL     1      16.521  31.932  23.272  1.00  0.00     0.211 HD
ENDBRANCH  47  48
BRANCH  47  50
ATOM     50  C   UNL     1      18.290  31.723  20.561  1.00  0.00     0.165 C 
BRANCH  50  51
ATOM     51  O   UNL     1      17.907  31.263  19.248  1.00  0.00    -0.388 OA
ATOM     52  H   UNL     1      17.270  31.899  18.846  1.00  0.00     0.211 HD
ENDBRANCH  50  51
BRANCH  50  53
ATOM     53  C   UNL     1      19.321  30.682  20.969  1.00  0.00     0.154 C 
BRANCH  53  54
ATOM     54  N   UNL     1      19.940  30.000  19.866  1.00  0.00    -0.319 N 
ATOM     55  C   UNL     1      19.926  28.582  19.844  1.00  0.00     0.407 C 
ATOM     56  H   UNL     1      20.408  30.497  19.071  1.00  0.00     0.167 HD
ATOM     57  O   UNL     1      19.399  27.902  20.775  1.00  0.00    -0.225 OA
BRANCH  55  58
ATOM     58  O   UNL     1      20.493  27.884  18.794  1.00  0.00    -0.443 OA
BRANCH  58  59
ATOM     59  C   UNL     1      21.879  27.532  18.776  1.00  0.00     0.294 C 
BRANCH  59  60
ATOM     60  C   UNL     1      22.133  26.391  19.703  1.00  0.00     0.121 A 
ATOM     61  C   UNL     1      22.294  26.498  21.077  1.00  0.00     0.144 A 
ATOM     62  N   UNL     1      22.249  25.091  19.400  1.00  0.00    -0.131 NA
ATOM     63  N   UNL     1      22.503  25.267  21.562  1.00  0.00    -0.220 N 
ATOM     64  N   UNL     1      22.471  24.453  20.546  1.00  0.00    -0.062 NA
BRANCH  63  65
ATOM     65  C   UNL     1      22.710  25.011  22.953  1.00  0.00     0.066 A 
ATOM     66  C   UNL     1      23.973  24.932  23.483  1.00  0.00     0.030 A 
ATOM     67  C   UNL     1      21.643  24.840  23.791  1.00  0.00     0.030 A 
ATOM     68  C   UNL     1      24.208  24.684  24.837  1.00  0.00     0.023 A 
ATOM     69  C   UNL     1      21.847  24.591  25.141  1.00  0.00     0.023 A 
ATOM     70  C   UNL     1      23.135  24.512  25.671  1.00  0.00     0.041 A 
ATOM     71  Cl  UNL     1      23.380  24.195  27.391  1.00  0.00    -0.084 Cl
ENDBRANCH  63  65
ENDBRANCH  59  60
ENDBRANCH  58  59
ENDBRANCH  55  58
ENDBRANCH  53  54
ENDBRANCH  50  53
ENDBRANCH  47  50
ENDBRANCH   5  47
BRANCH   4  72
ATOM     72  N   UNL     1      14.681  31.483  22.969  1.00  0.00    -0.348 N 
ATOM     73  C   UNL     1      13.721  32.520  23.246  1.00  0.00     0.217 C 
ATOM     74  H   UNL     1      15.317  31.254  23.750  1.00  0.00     0.163 HD
ATOM     75  C   UNL     1      13.691  33.205  24.569  1.00  0.00     0.114 C 
ATOM     76  O   UNL     1      12.906  32.833  22.341  1.00  0.00    -0.275 OA
ENDBRANCH   4  72
TORSDOF 30
