REMARK VINA RESULT:    -4.670     12.578     15.333
REMARK INTER + INTRA:         -22.606
REMARK INTER:                 -15.083
REMARK INTRA:                  -7.523
REMARK UNBOUND:               -10.839
REMARK SMILES CC(=O)N[C@@H]1[C@@H](O)C[C@](OC[C@H]2O[C@@H](O[C@H]3[C@H](O)[C@@H](O)[C@H](OCCN=[N+]=[N-])O[C@@H]3CO)[C@H](O)[C@@H](O)[C@H]2O)(C(=O)O)O[C@H]1C(O)[C@H](O)CNC(=O)OCc1cn(-c2ccccc2C(C)C)nn1
REMARK SMILES IDX 9 1 8 2 6 3 5 4 42 5 41 6 10 7 11 8 12 9 14 10 13 11 32 12
REMARK SMILES IDX 34 13 36 14 15 15 16 16 29 17 28 18 21 19 17 20 19 21 30 22
REMARK SMILES IDX 31 23 22 25 23 26 24 27 25 28 26 29 27 30 18 31 20 33 33 35
REMARK SMILES IDX 35 37 37 39 38 41 39 42 40 43 7 45 43 47 44 48 45 50 46 51
REMARK SMILES IDX 47 53 48 54 49 55 50 57 51 58 52 59 53 60 54 61 66 62 55 63
REMARK SMILES IDX 65 64 56 65 61 66 57 67 60 68 58 69 59 70 62 71 63 72 64 73
REMARK SMILES IDX 4 74 2 75 1 77 3 78
REMARK H PARENT 31 24 18 32 20 34 33 36 35 38 37 40 40 44 7 46 44 49 46 52
REMARK H PARENT 48 56 4 76
REMARK Flexibility Score: inf
ROOT
ATOM      1  C   UNL     1      12.474  32.489  18.500  1.00  0.00     0.272 C 
ATOM      2  C   UNL     1      13.742  33.291  18.319  1.00  0.00     0.113 C 
ATOM      3  C   UNL     1      14.900  32.430  18.799  1.00  0.00     0.145 C 
ATOM      4  C   UNL     1      14.753  32.299  20.325  1.00  0.00     0.142 C 
ATOM      5  C   UNL     1      13.360  31.876  20.601  1.00  0.00     0.178 C 
ATOM      6  O   UNL     1      12.761  31.442  19.427  1.00  0.00    -0.332 OA
ENDROOT
BRANCH   1   7
ATOM      7  O   UNL     1      12.119  31.828  17.382  1.00  0.00    -0.338 OA
BRANCH   7   8
ATOM      8  C   UNL     1      12.340  32.062  16.135  1.00  0.00     0.199 C 
BRANCH   8   9
ATOM      9  C   UNL     1      12.914  31.076  15.171  1.00  0.00     0.179 C 
ATOM     10  C   UNL     1      14.771  29.890  14.615  1.00  0.00     0.282 C 
ATOM     11  O   UNL     1      14.281  30.966  15.243  1.00  0.00    -0.341 OA
ATOM     12  C   UNL     1      13.845  29.200  13.623  1.00  0.00     0.202 C 
ATOM     13  C   UNL     1      12.525  28.841  14.251  1.00  0.00     0.179 C 
ATOM     14  C   UNL     1      12.333  29.677  15.482  1.00  0.00     0.177 C 
BRANCH  10  15
ATOM     15  O   UNL     1      15.368  28.923  15.365  1.00  0.00    -0.341 OA
BRANCH  15  16
ATOM     16  C   UNL     1      16.402  29.259  16.203  1.00  0.00     0.184 C 
ATOM     17  C   UNL     1      17.681  29.549  15.491  1.00  0.00     0.178 C 
ATOM     18  O   UNL     1      18.711  28.762  15.872  1.00  0.00    -0.341 OA
ATOM     19  C   UNL     1      19.056  28.673  17.185  1.00  0.00     0.281 C 
ATOM     20  C   UNL     1      16.609  28.358  17.351  1.00  0.00     0.180 C 
ATOM     21  C   UNL     1      17.843  28.829  18.102  1.00  0.00     0.202 C 
BRANCH  17  22
ATOM     22  C   UNL     1      18.131  31.014  15.617  1.00  0.00     0.191 C 
BRANCH  22  23
ATOM     23  O   UNL     1      17.093  31.710  16.278  1.00  0.00    -0.394 OA
ATOM     24  H   UNL     1      16.275  31.590  15.700  1.00  0.00     0.210 HD
ENDBRANCH  22  23
ENDBRANCH  17  22
BRANCH  19  25
ATOM     25  O   UNL     1      19.957  29.650  17.517  1.00  0.00    -0.350 OA
BRANCH  25  26
ATOM     26  C   UNL     1      21.278  29.330  17.537  1.00  0.00     0.169 C 
BRANCH  26  27
ATOM     27  C   UNL     1      21.673  28.003  18.070  1.00  0.00     0.119 C 
BRANCH  27  28
ATOM     28  N   UNL     1      21.976  28.050  19.461  1.00  0.00    -0.092 NA
ATOM     29  N   UNL     1      21.250  27.739  20.383  1.00  0.00     0.001 N 
ATOM     30  N   UNL     1      20.460  27.246  21.180  1.00  0.00    -0.003 NA
ENDBRANCH  27  28
ENDBRANCH  26  27
ENDBRANCH  25  26
ENDBRANCH  19  25
BRANCH  20  31
ATOM     31  O   UNL     1      15.570  28.354  18.279  1.00  0.00    -0.387 OA
ATOM     32  H   UNL     1      14.731  28.538  17.801  1.00  0.00     0.211 HD
ENDBRANCH  20  31
BRANCH  21  33
ATOM     33  O   UNL     1      18.060  28.043  19.235  1.00  0.00    -0.385 OA
ATOM     34  H   UNL     1      17.273  28.166  19.825  1.00  0.00     0.211 HD
ENDBRANCH  21  33
ENDBRANCH  15  16
ENDBRANCH  10  15
BRANCH  12  35
ATOM     35  O   UNL     1      13.668  30.049  12.544  1.00  0.00    -0.385 OA
ATOM     36  H   UNL     1      13.773  29.534  11.683  1.00  0.00     0.211 HD
ENDBRANCH  12  35
BRANCH  13  37
ATOM     37  O   UNL     1      12.519  27.473  14.555  1.00  0.00    -0.387 OA
ATOM     38  H   UNL     1      13.048  27.027  13.848  1.00  0.00     0.211 HD
ENDBRANCH  13  37
BRANCH  14  39
ATOM     39  O   UNL     1      13.071  29.155  16.524  1.00  0.00    -0.387 OA
ATOM     40  H   UNL     1      13.948  29.613  16.535  1.00  0.00     0.211 HD
ENDBRANCH  14  39
ENDBRANCH   8   9
ENDBRANCH   7   8
ENDBRANCH   1   7
BRANCH   1  41
ATOM     41  C   UNL     1      11.390  33.302  19.064  1.00  0.00     0.364 C 
ATOM     42  O   UNL     1      11.650  34.545  19.250  1.00  0.00    -0.246 OA
BRANCH  41  43
ATOM     43  O   UNL     1      10.127  32.917  19.428  1.00  0.00    -0.477 OA
ATOM     44  H   UNL     1       9.845  32.013  19.758  1.00  0.00     0.296 HD
ENDBRANCH  41  43
ENDBRANCH   1  41
BRANCH   3  45
ATOM     45  O   UNL     1      14.752  31.127  18.312  1.00  0.00    -0.391 OA
ATOM     46  H   UNL     1      13.863  31.077  17.880  1.00  0.00     0.211 HD
ENDBRANCH   3  45
BRANCH   5  47
ATOM     47  C   UNL     1      13.159  30.759  21.580  1.00  0.00     0.176 C 
BRANCH  47  48
ATOM     48  O   UNL     1      13.776  31.260  22.780  1.00  0.00    -0.388 OA
ATOM     49  H   UNL     1      13.197  32.062  22.980  1.00  0.00     0.211 HD
ENDBRANCH  47  48
BRANCH  47  50
ATOM     50  C   UNL     1      13.858  29.470  21.287  1.00  0.00     0.165 C 
BRANCH  50  51
ATOM     51  O   UNL     1      13.343  28.389  21.950  1.00  0.00    -0.388 OA
ATOM     52  H   UNL     1      12.924  27.807  21.265  1.00  0.00     0.211 HD
ENDBRANCH  50  51
BRANCH  50  53
ATOM     53  C   UNL     1      15.332  29.592  21.193  1.00  0.00     0.154 C 
BRANCH  53  54
ATOM     54  N   UNL     1      16.037  29.629  22.460  1.00  0.00    -0.319 N 
ATOM     55  C   UNL     1      17.451  29.670  22.522  1.00  0.00     0.407 C 
ATOM     56  H   UNL     1      15.538  29.629  23.376  1.00  0.00     0.167 HD
ATOM     57  O   UNL     1      18.191  29.673  21.513  1.00  0.00    -0.225 OA
BRANCH  55  58
ATOM     58  O   UNL     1      18.161  29.714  23.746  1.00  0.00    -0.443 OA
BRANCH  58  59
ATOM     59  C   UNL     1      19.359  30.424  23.831  1.00  0.00     0.294 C 
BRANCH  59  60
ATOM     60  C   UNL     1      20.436  29.487  24.258  1.00  0.00     0.121 A 
ATOM     61  C   UNL     1      20.405  28.431  25.142  1.00  0.00     0.144 A 
ATOM     62  N   UNL     1      21.733  29.508  23.816  1.00  0.00    -0.131 NA
ATOM     63  N   UNL     1      21.609  27.843  25.235  1.00  0.00    -0.220 N 
ATOM     64  N   UNL     1      22.399  28.536  24.403  1.00  0.00    -0.062 NA
BRANCH  63  65
ATOM     65  C   UNL     1      22.015  26.725  26.017  1.00  0.00     0.070 A 
ATOM     66  C   UNL     1      22.225  25.510  25.401  1.00  0.00    -0.020 A 
ATOM     67  C   UNL     1      22.204  26.783  27.380  1.00  0.00     0.029 A 
ATOM     68  C   UNL     1      22.607  24.399  26.127  1.00  0.00     0.006 A 
ATOM     69  C   UNL     1      22.587  25.680  28.121  1.00  0.00     0.002 A 
ATOM     70  C   UNL     1      22.791  24.470  27.487  1.00  0.00     0.000 A 
BRANCH  66  71
ATOM     71  C   UNL     1      22.045  25.408  23.939  1.00  0.00     0.015 C 
ATOM     72  C   UNL     1      20.810  24.559  23.675  1.00  0.00     0.012 C 
ATOM     73  C   UNL     1      23.251  24.678  23.327  1.00  0.00     0.012 C 
ENDBRANCH  66  71
ENDBRANCH  63  65
ENDBRANCH  59  60
ENDBRANCH  58  59
ENDBRANCH  55  58
ENDBRANCH  53  54
ENDBRANCH  50  53
ENDBRANCH  47  50
ENDBRANCH   5  47
BRANCH   4  74
ATOM     74  N   UNL     1      15.076  33.589  20.890  1.00  0.00    -0.348 N 
ATOM     75  C   UNL     1      15.839  33.795  22.050  1.00  0.00     0.217 C 
ATOM     76  H   UNL     1      14.703  34.452  20.392  1.00  0.00     0.163 HD
ATOM     77  C   UNL     1      16.083  35.203  22.512  1.00  0.00     0.114 C 
ATOM     78  O   UNL     1      16.304  32.840  22.685  1.00  0.00    -0.275 OA
ENDBRANCH   4  74
TORSDOF 31
