REMARK VINA RESULT:    -6.871      6.473     14.000
REMARK INTER + INTRA:         -24.542
REMARK INTER:                 -17.306
REMARK INTRA:                  -7.237
REMARK UNBOUND:                -6.425
REMARK SMILES CC(=O)N[C@@H]1[C@@H](O)C[C@](OC[C@H]2O[C@@H](O[C@H]3[C@H](O)[C@@H](O)[C@H](OCCN=[N+]=[N-])O[C@@H]3CO)[C@H](O)[C@@H](O)[C@H]2O)(C(=O)O)O[C@H]1C(O)[C@H](O)CNC(=O)OCc1cn(-c2ccc(S(=O)(=O)Nc3nccs3)cc2)nn1
REMARK SMILES IDX 43 1 42 2 9 3 8 4 41 5 6 6 5 7 10 8 11 9 12 10 14 11 13 12
REMARK SMILES IDX 32 13 34 14 36 15 15 16 16 17 29 18 28 19 21 20 17 21 19 22
REMARK SMILES IDX 30 23 31 24 22 26 23 27 24 28 25 29 26 30 27 31 18 32 20 34
REMARK SMILES IDX 33 36 35 38 37 40 38 42 39 43 40 44 7 46 4 48 2 49 1 51 3 52
REMARK SMILES IDX 44 53 45 55 46 56 47 58 48 59 49 60 50 62 51 63 52 64 53 65
REMARK SMILES IDX 54 66 72 67 55 68 71 69 56 70 57 71 70 72 58 73 69 74 59 75
REMARK SMILES IDX 60 76 61 77 62 78 63 79 64 81 65 82 68 83 66 84 67 85
REMARK H PARENT 31 25 18 33 20 35 33 37 35 39 37 41 40 45 7 47 4 50 44 54
REMARK H PARENT 46 57 48 61 63 80
REMARK Flexibility Score: inf
ROOT
ATOM      1  C   UNL     1      15.104  32.060  19.132  1.00  0.00     0.176 C 
ENDROOT
BRANCH   1   2
ATOM      2  C   UNL     1      15.079  30.752  19.848  1.00  0.00     0.178 C 
ATOM      3  C   UNL     1      15.959  29.963  21.866  1.00  0.00     0.272 C 
ATOM      4  C   UNL     1      15.172  28.743  21.340  1.00  0.00     0.113 C 
ATOM      5  O   UNL     1      16.036  30.925  20.897  1.00  0.00    -0.332 OA
ATOM      6  C   UNL     1      15.545  28.356  19.959  1.00  0.00     0.145 C 
ATOM      7  C   UNL     1      15.630  29.590  19.058  1.00  0.00     0.142 C 
BRANCH   3   8
ATOM      8  O   UNL     1      17.233  29.588  22.208  1.00  0.00    -0.338 OA
BRANCH   8   9
ATOM      9  C   UNL     1      18.221  30.457  21.820  1.00  0.00     0.199 C 
BRANCH   9  10
ATOM     10  C   UNL     1      19.463  29.765  21.309  1.00  0.00     0.179 C 
ATOM     11  C   UNL     1      20.609  27.867  21.057  1.00  0.00     0.282 C 
ATOM     12  O   UNL     1      19.301  28.389  21.189  1.00  0.00    -0.341 OA
ATOM     13  C   UNL     1      21.011  28.092  19.620  1.00  0.00     0.202 C 
ATOM     14  C   UNL     1      20.072  29.114  18.971  1.00  0.00     0.179 C 
ATOM     15  C   UNL     1      19.838  30.270  19.926  1.00  0.00     0.177 C 
BRANCH  11  16
ATOM     16  O   UNL     1      20.688  26.555  21.380  1.00  0.00    -0.341 OA
BRANCH  16  17
ATOM     17  C   UNL     1      21.876  26.145  21.957  1.00  0.00     0.184 C 
ATOM     18  C   UNL     1      22.025  24.712  22.271  1.00  0.00     0.178 C 
ATOM     19  O   UNL     1      22.911  24.599  23.379  1.00  0.00    -0.341 OA
ATOM     20  C   UNL     1      22.259  24.941  24.571  1.00  0.00     0.281 C 
ATOM     21  C   UNL     1      22.217  26.999  23.171  1.00  0.00     0.180 C 
ATOM     22  C   UNL     1      21.728  26.359  24.472  1.00  0.00     0.202 C 
BRANCH  18  23
ATOM     23  C   UNL     1      22.724  23.886  21.191  1.00  0.00     0.191 C 
BRANCH  23  24
ATOM     24  O   UNL     1      22.349  24.188  19.918  1.00  0.00    -0.394 OA
ATOM     25  H   UNL     1      22.977  23.790  19.274  1.00  0.00     0.210 HD
ENDBRANCH  23  24
ENDBRANCH  18  23
BRANCH  20  26
ATOM     26  O   UNL     1      23.168  24.833  25.599  1.00  0.00    -0.350 OA
BRANCH  26  27
ATOM     27  C   UNL     1      23.188  25.878  26.486  1.00  0.00     0.169 C 
BRANCH  27  28
ATOM     28  C   UNL     1      24.570  26.433  26.738  1.00  0.00     0.119 C 
BRANCH  28  29
ATOM     29  N   UNL     1      25.157  25.656  27.799  1.00  0.00    -0.092 NA
ATOM     30  N   UNL     1      24.577  25.572  28.878  1.00  0.00     0.001 N 
ATOM     31  N   UNL     1      24.310  25.754  30.068  1.00  0.00    -0.003 NA
ENDBRANCH  28  29
ENDBRANCH  27  28
ENDBRANCH  26  27
ENDBRANCH  20  26
BRANCH  21  32
ATOM     32  O   UNL     1      23.596  27.154  23.299  1.00  0.00    -0.387 OA
ATOM     33  H   UNL     1      24.045  26.286  23.424  1.00  0.00     0.211 HD
ENDBRANCH  21  32
BRANCH  22  34
ATOM     34  O   UNL     1      20.346  26.434  24.585  1.00  0.00    -0.385 OA
ATOM     35  H   UNL     1      20.092  27.365  24.401  1.00  0.00     0.211 HD
ENDBRANCH  22  34
ENDBRANCH  16  17
ENDBRANCH  11  16
BRANCH  13  36
ATOM     36  O   UNL     1      22.286  28.704  19.514  1.00  0.00    -0.385 OA
ATOM     37  H   UNL     1      22.299  29.395  18.836  1.00  0.00     0.211 HD
ENDBRANCH  13  36
BRANCH  14  38
ATOM     38  O   UNL     1      18.895  28.507  18.560  1.00  0.00    -0.387 OA
ATOM     39  H   UNL     1      18.108  29.100  18.678  1.00  0.00     0.211 HD
ENDBRANCH  14  38
BRANCH  15  40
ATOM     40  O   UNL     1      18.847  31.073  19.385  1.00  0.00    -0.387 OA
ATOM     41  H   UNL     1      18.965  32.025  19.537  1.00  0.00     0.211 HD
ENDBRANCH  15  40
ENDBRANCH   9  10
ENDBRANCH   8   9
ENDBRANCH   3   8
BRANCH   3  42
ATOM     42  C   UNL     1      15.204  30.437  23.027  1.00  0.00     0.364 C 
ATOM     43  O   UNL     1      15.633  30.292  24.218  1.00  0.00    -0.246 OA
BRANCH  42  44
ATOM     44  O   UNL     1      13.980  31.073  22.918  1.00  0.00    -0.477 OA
ATOM     45  H   UNL     1      13.205  30.795  23.534  1.00  0.00     0.296 HD
ENDBRANCH  42  44
ENDBRANCH   3  42
BRANCH   6  46
ATOM     46  O   UNL     1      16.725  27.615  19.895  1.00  0.00    -0.391 OA
ATOM     47  H   UNL     1      17.067  27.460  20.808  1.00  0.00     0.211 HD
ENDBRANCH   6  46
BRANCH   7  48
ATOM     48  N   UNL     1      15.003  29.329  17.812  1.00  0.00    -0.348 N 
ATOM     49  C   UNL     1      15.749  29.422  16.603  1.00  0.00     0.217 C 
ATOM     50  H   UNL     1      14.001  29.066  17.740  1.00  0.00     0.163 HD
ATOM     51  C   UNL     1      15.176  29.167  15.272  1.00  0.00     0.114 C 
ATOM     52  O   UNL     1      16.985  29.743  16.663  1.00  0.00    -0.275 OA
ENDBRANCH   7  48
ENDBRANCH   1   2
BRANCH   1  53
ATOM     53  O   UNL     1      16.379  32.195  18.496  1.00  0.00    -0.388 OA
ATOM     54  H   UNL     1      16.313  32.768  17.710  1.00  0.00     0.211 HD
ENDBRANCH   1  53
BRANCH   1  55
ATOM     55  C   UNL     1      14.849  33.289  19.957  1.00  0.00     0.165 C 
BRANCH  55  56
ATOM     56  O   UNL     1      13.853  32.860  20.900  1.00  0.00    -0.388 OA
ATOM     57  H   UNL     1      14.232  32.127  21.450  1.00  0.00     0.211 HD
ENDBRANCH  55  56
BRANCH  55  58
ATOM     58  C   UNL     1      14.121  34.363  19.159  1.00  0.00     0.154 C 
BRANCH  58  59
ATOM     59  N   UNL     1      12.945  34.717  19.909  1.00  0.00    -0.319 N 
ATOM     60  C   UNL     1      12.770  35.974  20.546  1.00  0.00     0.407 C 
ATOM     61  H   UNL     1      12.135  34.022  20.015  1.00  0.00     0.167 HD
ATOM     62  O   UNL     1      13.638  36.851  20.465  1.00  0.00    -0.225 OA
BRANCH  60  63
ATOM     63  O   UNL     1      11.625  36.260  21.280  1.00  0.00    -0.443 OA
BRANCH  63  64
ATOM     64  C   UNL     1      10.544  35.395  21.493  1.00  0.00     0.294 C 
BRANCH  64  65
ATOM     65  C   UNL     1      10.842  34.212  22.317  1.00  0.00     0.121 A 
ATOM     66  C   UNL     1       9.968  33.156  22.595  1.00  0.00     0.144 A 
ATOM     67  N   UNL     1      11.967  33.887  22.952  1.00  0.00    -0.131 NA
ATOM     68  N   UNL     1      10.587  32.238  23.380  1.00  0.00    -0.220 N 
ATOM     69  N   UNL     1      11.803  32.711  23.581  1.00  0.00    -0.062 NA
BRANCH  68  70
ATOM     70  C   UNL     1       9.991  31.019  23.857  1.00  0.00     0.066 A 
ATOM     71  C   UNL     1       8.646  30.890  24.057  1.00  0.00     0.030 A 
ATOM     72  C   UNL     1      10.823  29.948  24.130  1.00  0.00     0.030 A 
ATOM     73  C   UNL     1       8.120  29.691  24.534  1.00  0.00     0.024 A 
ATOM     74  C   UNL     1      10.352  28.746  24.601  1.00  0.00     0.024 A 
ATOM     75  C   UNL     1       8.980  28.650  24.794  1.00  0.00     0.088 A 
BRANCH  75  76
ATOM     76  S   UNL     1       8.351  27.137  25.398  1.00  0.00     0.263 S 
ATOM     77  O   UNL     1       9.456  26.464  26.189  1.00  0.00    -0.201 OA
ATOM     78  O   UNL     1       8.063  26.275  24.201  1.00  0.00    -0.201 OA
BRANCH  76  79
ATOM     79  N   UNL     1       6.960  27.416  26.339  1.00  0.00    -0.255 N 
ATOM     80  H   UNL     1       7.079  27.817  27.285  1.00  0.00     0.182 HD
BRANCH  79  81
ATOM     81  C   UNL     1       5.709  27.106  25.831  1.00  0.00     0.196 A 
ATOM     82  N   UNL     1       4.984  26.087  25.576  1.00  0.00    -0.228 NA
ATOM     83  S   UNL     1       4.547  28.444  25.276  1.00  0.00    -0.105 S 
ATOM     84  C   UNL     1       3.803  26.104  25.078  1.00  0.00     0.125 A 
ATOM     85  C   UNL     1       3.215  27.301  24.772  1.00  0.00     0.089 A 
ENDBRANCH  79  81
ENDBRANCH  76  79
ENDBRANCH  75  76
ENDBRANCH  68  70
ENDBRANCH  64  65
ENDBRANCH  63  64
ENDBRANCH  60  63
ENDBRANCH  58  59
ENDBRANCH  55  58
ENDBRANCH   1  55
TORSDOF 33
