REMARK VINA RESULT:    -4.841      3.273      9.548
REMARK INTER + INTRA:         -21.665
REMARK INTER:                 -13.928
REMARK INTRA:                  -7.737
REMARK UNBOUND:                -8.334
REMARK SMILES CC[N+](C)(CC)CCCn1cc(COC(=O)NC[C@@H](O)C(O)[C@@H]2O[C@@](OC[C@H]3O[C@@H](O[C@H]4[C@H](O)[C@@H](O)[C@H](OCCN=[N+]=[N-])O[C@@H]4CO)[C@H](O)[C@@H](O)[C@H]3O)(C(=O)O)C[C@H](O)[C@H]2NC(C)=O)nn1
REMARK SMILES IDX 21 1 23 2 25 3 57 4 24 5 58 6 60 7 26 8 27 9 28 10 30 11
REMARK SMILES IDX 29 12 48 13 50 14 52 15 31 16 32 17 45 18 44 19 37 20 33 21
REMARK SMILES IDX 35 22 46 23 47 24 38 26 39 27 40 28 41 29 42 30 43 31 34 32
REMARK SMILES IDX 36 34 49 36 51 38 53 40 54 42 55 43 56 44 59 46 61 48 62 49
REMARK SMILES IDX 63 51 64 52 22 53 19 55 20 56 18 58 17 59 15 60 16 62 14 63
REMARK SMILES IDX 13 64 12 65 11 66 65 67 10 68 66 69 9 70 8 71 7 72 3 73 4 74
REMARK SMILES IDX 2 75 1 76 5 77 6 78
REMARK H PARENT 47 25 34 33 36 35 49 37 51 39 53 41 56 45 59 47 61 50 22 54
REMARK H PARENT 20 57 17 61
REMARK Flexibility Score: inf
ROOT
ATOM      1  C   UNL     1      23.469  28.296  22.539  1.00  0.00     0.176 C 
ENDROOT
BRANCH   1   2
ATOM      2  C   UNL     1      23.534  26.800  22.247  1.00  0.00     0.178 C 
ATOM      3  C   UNL     1      22.973  24.745  23.262  1.00  0.00     0.272 C 
ATOM      4  C   UNL     1      24.158  24.238  22.510  1.00  0.00     0.113 C 
ATOM      5  O   UNL     1      23.182  26.145  23.407  1.00  0.00    -0.332 OA
ATOM      6  C   UNL     1      25.318  25.198  22.541  1.00  0.00     0.145 C 
ATOM      7  C   UNL     1      24.909  26.452  21.774  1.00  0.00     0.142 C 
BRANCH   3   8
ATOM      8  O   UNL     1      22.905  24.309  24.568  1.00  0.00    -0.338 OA
BRANCH   8   9
ATOM      9  C   UNL     1      22.415  25.109  25.529  1.00  0.00     0.199 C 
BRANCH   9  10
ATOM     10  C   UNL     1      23.560  25.787  26.326  1.00  0.00     0.179 C 
ATOM     11  C   UNL     1      22.364  27.184  27.803  1.00  0.00     0.282 C 
ATOM     12  O   UNL     1      23.255  27.021  26.750  1.00  0.00    -0.341 OA
ATOM     13  C   UNL     1      22.406  26.093  28.804  1.00  0.00     0.202 C 
ATOM     14  C   UNL     1      23.864  25.584  28.777  1.00  0.00     0.179 C 
ATOM     15  C   UNL     1      23.977  24.849  27.459  1.00  0.00     0.177 C 
BRANCH  11  16
ATOM     16  O   UNL     1      21.095  27.531  27.319  1.00  0.00    -0.341 OA
BRANCH  16  17
ATOM     17  C   UNL     1      21.067  28.771  26.750  1.00  0.00     0.184 C 
ATOM     18  C   UNL     1      20.505  29.909  27.486  1.00  0.00     0.178 C 
ATOM     19  O   UNL     1      20.839  31.086  26.841  1.00  0.00    -0.341 OA
ATOM     20  C   UNL     1      21.197  31.056  25.542  1.00  0.00     0.281 C 
ATOM     21  C   UNL     1      20.298  28.730  25.410  1.00  0.00     0.180 C 
ATOM     22  C   UNL     1      20.549  30.014  24.665  1.00  0.00     0.202 C 
BRANCH  18  23
ATOM     23  C   UNL     1      20.924  30.048  28.936  1.00  0.00     0.191 C 
BRANCH  23  24
ATOM     24  O   UNL     1      22.253  30.417  29.094  1.00  0.00    -0.394 OA
ATOM     25  H   UNL     1      22.314  31.377  28.781  1.00  0.00     0.210 HD
ENDBRANCH  23  24
ENDBRANCH  18  23
BRANCH  20  26
ATOM     26  O   UNL     1      22.572  31.088  25.397  1.00  0.00    -0.350 OA
BRANCH  26  27
ATOM     27  C   UNL     1      23.046  31.806  24.350  1.00  0.00     0.169 C 
BRANCH  27  28
ATOM     28  C   UNL     1      22.425  33.182  24.219  1.00  0.00     0.119 C 
BRANCH  28  29
ATOM     29  N   UNL     1      22.031  33.403  22.837  1.00  0.00    -0.092 NA
ATOM     30  N   UNL     1      21.150  32.754  22.279  1.00  0.00     0.001 N 
ATOM     31  N   UNL     1      20.253  32.130  21.708  1.00  0.00    -0.003 NA
ENDBRANCH  28  29
ENDBRANCH  27  28
ENDBRANCH  26  27
ENDBRANCH  20  26
BRANCH  21  32
ATOM     32  O   UNL     1      20.695  27.584  24.760  1.00  0.00    -0.387 OA
ATOM     33  H   UNL     1      20.329  27.454  23.871  1.00  0.00     0.211 HD
ENDBRANCH  21  32
BRANCH  22  34
ATOM     34  O   UNL     1      19.358  30.445  24.102  1.00  0.00    -0.385 OA
ATOM     35  H   UNL     1      19.153  31.400  24.276  1.00  0.00     0.211 HD
ENDBRANCH  22  34
ENDBRANCH  16  17
ENDBRANCH  11  16
BRANCH  13  36
ATOM     36  O   UNL     1      22.182  26.525  30.121  1.00  0.00    -0.385 OA
ATOM     37  H   UNL     1      22.654  27.379  30.227  1.00  0.00     0.211 HD
ENDBRANCH  13  36
BRANCH  14  38
ATOM     38  O   UNL     1      24.070  24.710  29.844  1.00  0.00    -0.387 OA
ATOM     39  H   UNL     1      23.719  25.153  30.644  1.00  0.00     0.211 HD
ENDBRANCH  14  38
BRANCH  15  40
ATOM     40  O   UNL     1      23.029  23.829  27.508  1.00  0.00    -0.387 OA
ATOM     41  H   UNL     1      23.209  23.122  28.146  1.00  0.00     0.211 HD
ENDBRANCH  15  40
ENDBRANCH   9  10
ENDBRANCH   8   9
ENDBRANCH   3   8
BRANCH   3  42
ATOM     42  C   UNL     1      21.679  24.519  22.596  1.00  0.00     0.364 C 
ATOM     43  O   UNL     1      21.590  23.885  21.521  1.00  0.00    -0.246 OA
BRANCH  42  44
ATOM     44  O   UNL     1      20.512  25.003  23.137  1.00  0.00    -0.477 OA
ATOM     45  H   UNL     1      19.758  24.404  23.469  1.00  0.00     0.296 HD
ENDBRANCH  42  44
ENDBRANCH   3  42
BRANCH   6  46
ATOM     46  O   UNL     1      25.708  25.548  23.813  1.00  0.00    -0.391 OA
ATOM     47  H   UNL     1      25.695  24.761  24.439  1.00  0.00     0.211 HD
ENDBRANCH   6  46
BRANCH   7  48
ATOM     48  N   UNL     1      24.827  26.016  20.369  1.00  0.00    -0.348 N 
ATOM     49  C   UNL     1      25.904  26.228  19.464  1.00  0.00     0.217 C 
ATOM     50  H   UNL     1      23.993  25.543  19.966  1.00  0.00     0.163 HD
ATOM     51  C   UNL     1      25.867  25.803  18.042  1.00  0.00     0.114 C 
ATOM     52  O   UNL     1      26.926  26.795  19.887  1.00  0.00    -0.275 OA
ENDBRANCH   7  48
ENDBRANCH   1   2
BRANCH   1  53
ATOM     53  O   UNL     1      23.387  28.472  23.963  1.00  0.00    -0.388 OA
ATOM     54  H   UNL     1      23.347  29.452  24.117  1.00  0.00     0.211 HD
ENDBRANCH   1  53
BRANCH   1  55
ATOM     55  C   UNL     1      22.227  28.900  21.971  1.00  0.00     0.165 C 
BRANCH  55  56
ATOM     56  O   UNL     1      21.290  27.785  21.986  1.00  0.00    -0.388 OA
ATOM     57  H   UNL     1      20.865  27.755  21.074  1.00  0.00     0.211 HD
ENDBRANCH  55  56
BRANCH  55  58
ATOM     58  C   UNL     1      22.279  29.412  20.579  1.00  0.00     0.154 C 
BRANCH  58  59
ATOM     59  N   UNL     1      21.138  29.734  19.849  1.00  0.00    -0.319 N 
ATOM     60  C   UNL     1      20.316  28.880  19.077  1.00  0.00     0.407 C 
ATOM     61  H   UNL     1      20.820  30.789  19.860  1.00  0.00     0.167 HD
ATOM     62  O   UNL     1      20.518  27.663  18.945  1.00  0.00    -0.225 OA
BRANCH  60  63
ATOM     63  O   UNL     1      19.196  29.412  18.392  1.00  0.00    -0.443 OA
BRANCH  63  64
ATOM     64  C   UNL     1      18.246  28.463  17.872  1.00  0.00     0.294 C 
BRANCH  64  65
ATOM     65  C   UNL     1      17.149  28.482  18.910  1.00  0.00     0.120 A 
ATOM     66  C   UNL     1      15.887  29.007  18.766  1.00  0.00     0.138 A 
ATOM     67  N   UNL     1      17.161  27.959  20.141  1.00  0.00    -0.132 NA
ATOM     68  N   UNL     1      15.178  28.779  19.918  1.00  0.00    -0.252 N 
ATOM     69  N   UNL     1      15.997  28.138  20.731  1.00  0.00    -0.067 NA
BRANCH  68  70
ATOM     70  C   UNL     1      13.790  29.141  20.143  1.00  0.00     0.152 C 
BRANCH  70  71
ATOM     71  C   UNL     1      13.383  28.997  21.546  1.00  0.00     0.085 C 
BRANCH  71  72
ATOM     72  C   UNL     1      12.978  30.173  22.334  1.00  0.00     0.265 C 
BRANCH  72  73
ATOM     73  N   UNL     1      13.854  30.662  23.346  1.00  0.00    -0.326 N 
ATOM     74  C   UNL     1      14.670  29.595  23.858  1.00  0.00     0.334 C 
BRANCH  73  75
ATOM     75  C   UNL     1      13.228  31.391  24.412  1.00  0.00     0.260 C 
ATOM     76  C   UNL     1      13.509  30.804  25.775  1.00  0.00     0.071 C 
ENDBRANCH  73  75
BRANCH  73  77
ATOM     77  C   UNL     1      14.790  31.571  22.664  1.00  0.00     0.260 C 
ATOM     78  C   UNL     1      16.130  31.653  23.306  1.00  0.00     0.071 C 
ENDBRANCH  73  77
ENDBRANCH  72  73
ENDBRANCH  71  72
ENDBRANCH  70  71
ENDBRANCH  68  70
ENDBRANCH  64  65
ENDBRANCH  63  64
ENDBRANCH  60  63
ENDBRANCH  58  59
ENDBRANCH  55  58
ENDBRANCH   1  55
TORSDOF 35
