REMARK VINA RESULT:    -4.921      2.639      8.939
REMARK INTER + INTRA:         -23.153
REMARK INTER:                 -14.988
REMARK INTRA:                  -8.165
REMARK UNBOUND:                -9.744
REMARK SMILES CC(=O)N[C@@H]1[C@@H](O)C[C@](OC[C@H]2O[C@@H](O[C@H]3[C@H](O)[C@@H](O)[C@H](OCCN=[N+]=[N-])O[C@@H]3CO)[C@H](O)[C@@H](O)[C@H]2O)(C(=O)O)O[C@H]1C(O)[C@H](O)CNC(=O)OCc1cn(CC(O)Cn2ccnc2[N+](=O)[O-])nn1
REMARK SMILES IDX 43 1 42 2 9 3 8 4 41 5 6 6 5 7 10 8 11 9 12 10 14 11 13 12
REMARK SMILES IDX 32 13 34 14 36 15 15 16 16 17 29 18 28 19 21 20 17 21 19 22
REMARK SMILES IDX 30 23 31 24 22 26 23 27 24 28 25 29 26 30 27 31 18 32 20 34
REMARK SMILES IDX 33 36 35 38 37 40 38 42 39 43 40 44 7 46 4 48 2 49 1 51 3 52
REMARK SMILES IDX 44 53 45 55 46 56 47 58 48 59 49 60 50 62 51 63 52 64 53 65
REMARK SMILES IDX 54 66 69 67 55 68 68 69 56 70 57 71 58 72 59 74 60 75 61 76
REMARK SMILES IDX 64 77 62 78 63 79 65 80 66 81 67 82
REMARK H PARENT 31 25 18 33 20 35 33 37 35 39 37 41 40 45 7 47 4 50 44 54
REMARK H PARENT 46 57 48 61 58 73
REMARK Flexibility Score: inf
ROOT
ATOM      1  C   UNL     1      15.716  29.578  22.047  1.00  0.00     0.176 C 
ENDROOT
BRANCH   1   2
ATOM      2  C   UNL     1      16.313  30.971  22.412  1.00  0.00     0.178 C 
ATOM      3  C   UNL     1      18.395  31.726  23.079  1.00  0.00     0.272 C 
ATOM      4  C   UNL     1      17.755  32.633  24.089  1.00  0.00     0.113 C 
ATOM      5  O   UNL     1      17.591  30.615  22.847  1.00  0.00    -0.332 OA
ATOM      6  C   UNL     1      16.489  32.015  24.668  1.00  0.00     0.145 C 
ATOM      7  C   UNL     1      15.571  31.543  23.548  1.00  0.00     0.142 C 
BRANCH   3   8
ATOM      8  O   UNL     1      19.591  31.175  23.522  1.00  0.00    -0.338 OA
BRANCH   8   9
ATOM      9  C   UNL     1      19.607  29.907  23.966  1.00  0.00     0.199 C 
BRANCH   9  10
ATOM     10  C   UNL     1      20.801  29.108  23.481  1.00  0.00     0.179 C 
ATOM     11  C   UNL     1      22.079  27.332  23.927  1.00  0.00     0.282 C 
ATOM     12  O   UNL     1      20.727  27.756  23.911  1.00  0.00    -0.341 OA
ATOM     13  C   UNL     1      22.685  27.439  22.549  1.00  0.00     0.202 C 
ATOM     14  C   UNL     1      21.531  27.667  21.574  1.00  0.00     0.179 C 
ATOM     15  C   UNL     1      20.884  28.996  21.975  1.00  0.00     0.177 C 
BRANCH  11  16
ATOM     16  O   UNL     1      22.207  26.040  24.395  1.00  0.00    -0.341 OA
BRANCH  16  17
ATOM     17  C   UNL     1      22.958  26.089  25.548  1.00  0.00     0.184 C 
ATOM     18  C   UNL     1      24.044  25.026  25.620  1.00  0.00     0.178 C 
ATOM     19  O   UNL     1      24.912  25.484  26.616  1.00  0.00    -0.341 OA
ATOM     20  C   UNL     1      24.380  25.478  27.876  1.00  0.00     0.281 C 
ATOM     21  C   UNL     1      22.114  25.861  26.794  1.00  0.00     0.180 C 
ATOM     22  C   UNL     1      22.948  25.843  28.018  1.00  0.00     0.202 C 
BRANCH  18  23
ATOM     23  C   UNL     1      24.763  24.801  24.339  1.00  0.00     0.191 C 
BRANCH  23  24
ATOM     24  O   UNL     1      23.920  24.107  23.480  1.00  0.00    -0.394 OA
ATOM     25  H   UNL     1      24.320  23.950  22.588  1.00  0.00     0.210 HD
ENDBRANCH  23  24
ENDBRANCH  18  23
BRANCH  20  26
ATOM     26  O   UNL     1      25.122  26.437  28.616  1.00  0.00    -0.350 OA
BRANCH  26  27
ATOM     27  C   UNL     1      25.872  25.872  29.616  1.00  0.00     0.169 C 
BRANCH  27  28
ATOM     28  C   UNL     1      27.331  25.946  29.145  1.00  0.00     0.119 C 
BRANCH  28  29
ATOM     29  N   UNL     1      28.225  25.288  30.046  1.00  0.00    -0.092 NA
ATOM     30  N   UNL     1      28.072  25.354  31.288  1.00  0.00     0.001 N 
ATOM     31  N   UNL     1      27.885  24.972  32.431  1.00  0.00    -0.003 NA
ENDBRANCH  28  29
ENDBRANCH  27  28
ENDBRANCH  26  27
ENDBRANCH  20  26
BRANCH  21  32
ATOM     32  O   UNL     1      21.168  26.901  26.902  1.00  0.00    -0.387 OA
ATOM     33  H   UNL     1      20.461  26.565  27.482  1.00  0.00     0.211 HD
ENDBRANCH  21  32
BRANCH  22  34
ATOM     34  O   UNL     1      22.367  24.874  28.875  1.00  0.00    -0.385 OA
ATOM     35  H   UNL     1      22.886  24.029  28.854  1.00  0.00     0.211 HD
ENDBRANCH  22  34
ENDBRANCH  16  17
ENDBRANCH  11  16
BRANCH  13  36
ATOM     36  O   UNL     1      23.567  28.519  22.535  1.00  0.00    -0.385 OA
ATOM     37  H   UNL     1      23.189  29.291  22.028  1.00  0.00     0.211 HD
ENDBRANCH  13  36
BRANCH  14  38
ATOM     38  O   UNL     1      20.584  26.691  21.822  1.00  0.00    -0.387 OA
ATOM     39  H   UNL     1      20.328  26.699  22.760  1.00  0.00     0.211 HD
ENDBRANCH  14  38
BRANCH  15  40
ATOM     40  O   UNL     1      19.647  29.004  21.370  1.00  0.00    -0.387 OA
ATOM     41  H   UNL     1      19.499  29.816  20.823  1.00  0.00     0.211 HD
ENDBRANCH  15  40
ENDBRANCH   9  10
ENDBRANCH   8   9
ENDBRANCH   3   8
BRANCH   3  42
ATOM     42  C   UNL     1      18.621  32.425  21.807  1.00  0.00     0.364 C 
ATOM     43  O   UNL     1      19.226  31.868  20.826  1.00  0.00    -0.246 OA
BRANCH  42  44
ATOM     44  O   UNL     1      18.215  33.721  21.558  1.00  0.00    -0.477 OA
ATOM     45  H   UNL     1      17.302  33.960  21.161  1.00  0.00     0.296 HD
ENDBRANCH  42  44
ENDBRANCH   3  42
BRANCH   6  46
ATOM     46  O   UNL     1      16.771  31.002  25.564  1.00  0.00    -0.391 OA
ATOM     47  H   UNL     1      17.093  31.357  26.430  1.00  0.00     0.211 HD
ENDBRANCH   6  46
BRANCH   7  48
ATOM     48  N   UNL     1      14.562  32.518  23.278  1.00  0.00    -0.348 N 
ATOM     49  C   UNL     1      13.180  32.376  23.331  1.00  0.00     0.217 C 
ATOM     50  H   UNL     1      14.901  33.534  22.998  1.00  0.00     0.163 HD
ATOM     51  C   UNL     1      12.257  33.548  23.041  1.00  0.00     0.114 C 
ATOM     52  O   UNL     1      12.605  31.322  23.612  1.00  0.00    -0.275 OA
ENDBRANCH   7  48
ENDBRANCH   1   2
BRANCH   1  53
ATOM     53  O   UNL     1      16.770  28.826  21.472  1.00  0.00    -0.388 OA
ATOM     54  H   UNL     1      16.587  28.571  20.555  1.00  0.00     0.211 HD
ENDBRANCH   1  53
BRANCH   1  55
ATOM     55  C   UNL     1      14.562  29.606  21.158  1.00  0.00     0.165 C 
BRANCH  55  56
ATOM     56  O   UNL     1      14.027  28.404  20.769  1.00  0.00    -0.388 OA
ATOM     57  H   UNL     1      13.310  28.073  21.354  1.00  0.00     0.211 HD
ENDBRANCH  55  56
BRANCH  55  58
ATOM     58  C   UNL     1      14.788  30.479  19.901  1.00  0.00     0.154 C 
BRANCH  58  59
ATOM     59  N   UNL     1      15.682  29.709  19.044  1.00  0.00    -0.319 N 
ATOM     60  C   UNL     1      15.404  29.511  17.652  1.00  0.00     0.407 C 
ATOM     61  H   UNL     1      16.552  29.283  19.435  1.00  0.00     0.167 HD
ATOM     62  O   UNL     1      14.374  30.010  17.151  1.00  0.00    -0.225 OA
BRANCH  60  63
ATOM     63  O   UNL     1      16.251  28.776  16.849  1.00  0.00    -0.443 OA
BRANCH  63  64
ATOM     64  C   UNL     1      17.447  29.202  16.272  1.00  0.00     0.294 C 
BRANCH  64  65
ATOM     65  C   UNL     1      18.590  28.832  17.142  1.00  0.00     0.120 A 
ATOM     66  C   UNL     1      19.917  29.170  16.952  1.00  0.00     0.138 A 
ATOM     67  N   UNL     1      18.584  28.114  18.275  1.00  0.00    -0.132 NA
ATOM     68  N   UNL     1      20.650  28.649  17.968  1.00  0.00    -0.249 N 
ATOM     69  N   UNL     1      19.816  28.015  18.752  1.00  0.00    -0.067 NA
BRANCH  68  70
ATOM     70  C   UNL     1      22.089  28.852  18.098  1.00  0.00     0.181 C 
BRANCH  70  71
ATOM     71  C   UNL     1      22.717  27.506  17.746  1.00  0.00     0.170 C 
BRANCH  71  72
ATOM     72  O   UNL     1      22.917  27.458  16.387  1.00  0.00    -0.388 OA
ATOM     73  H   UNL     1      23.539  28.172  16.107  1.00  0.00     0.211 HD
ENDBRANCH  71  72
BRANCH  71  74
ATOM     74  C   UNL     1      23.969  27.290  18.540  1.00  0.00     0.239 C 
BRANCH  74  75
ATOM     75  N   UNL     1      23.837  26.084  19.342  1.00  0.00    -0.227 N 
ATOM     76  C   UNL     1      22.742  25.262  19.242  1.00  0.00     0.204 A 
ATOM     77  C   UNL     1      24.690  25.578  20.233  1.00  0.00     0.434 A 
ATOM     78  C   UNL     1      22.945  24.214  20.111  1.00  0.00     0.245 A 
ATOM     79  N   UNL     1      24.137  24.425  20.703  1.00  0.00    -0.074 NA
BRANCH  77  80
ATOM     80  N   UNL     1      25.931  26.133  20.632  1.00  0.00    -0.047 N 
ATOM     81  O   UNL     1      25.995  26.959  21.596  1.00  0.00    -0.390 OA
ATOM     82  O   UNL     1      27.122  25.839  20.027  1.00  0.00    -0.390 OA
ENDBRANCH  77  80
ENDBRANCH  74  75
ENDBRANCH  71  74
ENDBRANCH  70  71
ENDBRANCH  68  70
ENDBRANCH  64  65
ENDBRANCH  63  64
ENDBRANCH  60  63
ENDBRANCH  58  59
ENDBRANCH  55  58
ENDBRANCH   1  55
TORSDOF 35
