REMARK VINA RESULT:    -5.594      1.800      2.591
REMARK INTER + INTRA:         -21.728
REMARK INTER:                 -14.326
REMARK INTRA:                  -7.402
REMARK UNBOUND:                -7.468
REMARK SMILES CC(=O)N[C@@H]1[C@@H](O)C[C@](OC[C@H]2O[C@@H](O[C@H]3[C@H](O)[C@@H](O)[C@H](OCCN=[N+]=[N-])O[C@@H]3CO)[C@H](O)[C@@H](O)[C@H]2O)(C(=O)O)O[C@H]1C(O)[C@H](O)CNC(=O)OCc1cn(CC(=O)O)nn1
REMARK SMILES IDX 9 1 8 2 6 3 5 4 42 5 41 6 10 7 11 8 12 9 14 10 13 11 32 12
REMARK SMILES IDX 34 13 36 14 15 15 16 16 29 17 28 18 21 19 17 20 19 21 30 22
REMARK SMILES IDX 31 23 22 25 23 26 24 27 25 28 26 29 27 30 18 31 20 33 33 35
REMARK SMILES IDX 35 37 37 39 38 41 39 42 40 43 7 45 43 47 44 48 45 50 46 51
REMARK SMILES IDX 47 53 48 54 49 55 50 57 51 58 52 59 53 60 54 61 61 62 55 63
REMARK SMILES IDX 60 64 56 65 57 66 58 67 59 68 4 70 2 71 1 73 3 74
REMARK H PARENT 31 24 18 32 20 34 33 36 35 38 37 40 40 44 7 46 44 49 46 52
REMARK H PARENT 48 56 59 69 4 72
REMARK Flexibility Score: inf
ROOT
ATOM      1  C   UNL     1       2.866  21.643  30.938  1.00  0.00     0.272 C 
ATOM      2  C   UNL     1       1.724  21.451  31.894  1.00  0.00     0.113 C 
ATOM      3  C   UNL     1       1.648  22.381  33.031  1.00  0.00     0.145 C 
ATOM      4  C   UNL     1       2.918  23.163  33.345  1.00  0.00     0.142 C 
ATOM      5  C   UNL     1       4.052  22.368  32.774  1.00  0.00     0.178 C 
ATOM      6  O   UNL     1       3.839  22.486  31.374  1.00  0.00    -0.332 OA
ENDROOT
BRANCH   1   7
ATOM      7  O   UNL     1       2.418  22.093  29.677  1.00  0.00    -0.338 OA
BRANCH   7   8
ATOM      8  C   UNL     1       1.202  22.704  29.687  1.00  0.00     0.199 C 
BRANCH   8   9
ATOM      9  C   UNL     1       1.239  23.932  28.762  1.00  0.00     0.179 C 
ATOM     10  C   UNL     1       2.994  24.976  27.688  1.00  0.00     0.282 C 
ATOM     11  O   UNL     1       2.365  24.695  28.942  1.00  0.00    -0.341 OA
ATOM     12  C   UNL     1       3.466  23.654  27.203  1.00  0.00     0.202 C 
ATOM     13  C   UNL     1       2.220  22.932  26.666  1.00  0.00     0.179 C 
ATOM     14  C   UNL     1       0.996  23.505  27.328  1.00  0.00     0.177 C 
BRANCH  10  15
ATOM     15  O   UNL     1       3.931  25.942  27.905  1.00  0.00    -0.341 OA
BRANCH  15  16
ATOM     16  C   UNL     1       3.813  27.045  27.059  1.00  0.00     0.184 C 
ATOM     17  C   UNL     1       2.356  27.276  26.786  1.00  0.00     0.178 C 
ATOM     18  O   UNL     1       2.165  27.838  25.553  1.00  0.00    -0.341 OA
ATOM     19  C   UNL     1       3.095  28.755  25.134  1.00  0.00     0.281 C 
ATOM     20  C   UNL     1       4.513  26.802  25.739  1.00  0.00     0.180 C 
ATOM     21  C   UNL     1       4.469  28.126  24.972  1.00  0.00     0.202 C 
BRANCH  17  22
ATOM     22  C   UNL     1       1.785  28.189  27.855  1.00  0.00     0.191 C 
BRANCH  22  23
ATOM     23  O   UNL     1       2.881  28.669  28.578  1.00  0.00    -0.394 OA
ATOM     24  H   UNL     1       2.664  29.519  29.020  1.00  0.00     0.210 HD
ENDBRANCH  22  23
ENDBRANCH  17  22
BRANCH  19  25
ATOM     25  O   UNL     1       3.111  29.851  25.952  1.00  0.00    -0.350 OA
BRANCH  25  26
ATOM     26  C   UNL     1       2.614  30.996  25.382  1.00  0.00     0.169 C 
BRANCH  26  27
ATOM     27  C   UNL     1       2.626  31.006  23.876  1.00  0.00     0.119 C 
BRANCH  27  28
ATOM     28  N   UNL     1       3.742  31.804  23.363  1.00  0.00    -0.092 NA
ATOM     29  N   UNL     1       4.826  31.198  23.245  1.00  0.00     0.001 N 
ATOM     30  N   UNL     1       6.057  31.038  23.345  1.00  0.00    -0.003 NA
ENDBRANCH  27  28
ENDBRANCH  26  27
ENDBRANCH  25  26
ENDBRANCH  19  25
BRANCH  20  31
ATOM     31  O   UNL     1       5.835  26.456  25.873  1.00  0.00    -0.387 OA
ATOM     32  H   UNL     1       6.396  27.103  26.329  1.00  0.00     0.211 HD
ENDBRANCH  20  31
BRANCH  21  33
ATOM     33  O   UNL     1       4.736  27.936  23.630  1.00  0.00    -0.385 OA
ATOM     34  H   UNL     1       5.704  28.026  23.431  1.00  0.00     0.211 HD
ENDBRANCH  21  33
ENDBRANCH  15  16
ENDBRANCH  10  15
BRANCH  12  35
ATOM     35  O   UNL     1       4.502  23.646  26.313  1.00  0.00    -0.385 OA
ATOM     36  H   UNL     1       4.425  22.893  25.706  1.00  0.00     0.211 HD
ENDBRANCH  12  35
BRANCH  13  37
ATOM     37  O   UNL     1       2.368  21.589  26.975  1.00  0.00    -0.387 OA
ATOM     38  H   UNL     1       2.739  21.442  27.889  1.00  0.00     0.211 HD
ENDBRANCH  13  37
BRANCH  14  39
ATOM     39  O   UNL     1       0.043  22.487  27.341  1.00  0.00    -0.387 OA
ATOM     40  H   UNL     1      -0.058  22.054  26.462  1.00  0.00     0.211 HD
ENDBRANCH  14  39
ENDBRANCH   8   9
ENDBRANCH   7   8
ENDBRANCH   1   7
BRANCH   1  41
ATOM     41  C   UNL     1       3.472  20.318  30.676  1.00  0.00     0.364 C 
ATOM     42  O   UNL     1       2.823  19.263  30.808  1.00  0.00    -0.246 OA
BRANCH  41  43
ATOM     43  O   UNL     1       4.790  20.188  30.269  1.00  0.00    -0.477 OA
ATOM     44  H   UNL     1       5.078  20.250  29.285  1.00  0.00     0.296 HD
ENDBRANCH  41  43
ENDBRANCH   1  41
BRANCH   3  45
ATOM     45  O   UNL     1       0.520  23.209  33.025  1.00  0.00    -0.391 OA
ATOM     46  H   UNL     1      -0.305  22.751  32.794  1.00  0.00     0.211 HD
ENDBRANCH   3  45
BRANCH   5  47
ATOM     47  C   UNL     1       5.436  22.823  33.087  1.00  0.00     0.176 C 
BRANCH  47  48
ATOM     48  O   UNL     1       5.639  23.958  32.233  1.00  0.00    -0.388 OA
ATOM     49  H   UNL     1       5.110  23.834  31.394  1.00  0.00     0.211 HD
ENDBRANCH  47  48
BRANCH  47  50
ATOM     50  C   UNL     1       6.513  21.809  32.768  1.00  0.00     0.165 C 
BRANCH  50  51
ATOM     51  O   UNL     1       6.083  20.533  33.217  1.00  0.00    -0.388 OA
ATOM     52  H   UNL     1       6.754  20.214  33.859  1.00  0.00     0.211 HD
ENDBRANCH  50  51
BRANCH  50  53
ATOM     53  C   UNL     1       7.822  22.126  33.377  1.00  0.00     0.154 C 
BRANCH  53  54
ATOM     54  N   UNL     1       7.740  23.164  34.363  1.00  0.00    -0.319 N 
ATOM     55  C   UNL     1       8.679  24.190  34.606  1.00  0.00     0.407 C 
ATOM     56  H   UNL     1       6.882  23.220  35.023  1.00  0.00     0.167 HD
ATOM     57  O   UNL     1       9.723  24.279  33.955  1.00  0.00    -0.225 OA
BRANCH  55  58
ATOM     58  O   UNL     1       8.482  25.160  35.595  1.00  0.00    -0.443 OA
BRANCH  58  59
ATOM     59  C   UNL     1       8.106  26.483  35.255  1.00  0.00     0.294 C 
BRANCH  59  60
ATOM     60  C   UNL     1       6.737  26.502  34.654  1.00  0.00     0.120 A 
ATOM     61  C   UNL     1       6.307  27.293  33.597  1.00  0.00     0.139 A 
ATOM     62  N   UNL     1       5.670  25.771  35.011  1.00  0.00    -0.132 NA
ATOM     63  N   UNL     1       5.013  27.010  33.362  1.00  0.00    -0.241 N 
ATOM     64  N   UNL     1       4.648  26.083  34.234  1.00  0.00    -0.066 NA
BRANCH  63  65
ATOM     65  C   UNL     1       4.140  27.595  32.340  1.00  0.00     0.268 C 
BRANCH  65  66
ATOM     66  C   UNL     1       4.665  27.213  31.017  1.00  0.00     0.325 C 
ATOM     67  O   UNL     1       5.145  28.071  30.262  1.00  0.00    -0.250 OA
BRANCH  66  68
ATOM     68  O   UNL     1       4.621  25.892  30.620  1.00  0.00    -0.480 OA
ATOM     69  H   UNL     1       5.439  25.343  30.456  1.00  0.00     0.296 HD
ENDBRANCH  66  68
ENDBRANCH  65  66
ENDBRANCH  63  65
ENDBRANCH  59  60
ENDBRANCH  58  59
ENDBRANCH  55  58
ENDBRANCH  53  54
ENDBRANCH  50  53
ENDBRANCH  47  50
ENDBRANCH   5  47
BRANCH   4  70
ATOM     70  N   UNL     1       2.982  23.516  34.721  1.00  0.00    -0.348 N 
ATOM     71  C   UNL     1       3.084  22.533  35.765  1.00  0.00     0.217 C 
ATOM     72  H   UNL     1       2.973  24.511  35.021  1.00  0.00     0.163 HD
ATOM     73  C   UNL     1       3.147  22.992  37.172  1.00  0.00     0.114 C 
ATOM     74  O   UNL     1       3.121  21.309  35.499  1.00  0.00    -0.275 OA
ENDBRANCH   4  70
TORSDOF 32
