REMARK VINA RESULT:    -4.929      0.000      0.000
REMARK INTER + INTRA:         -22.539
REMARK INTER:                 -14.421
REMARK INTRA:                  -8.118
REMARK UNBOUND:                -8.679
REMARK SMILES CCOC(CCn1cc(COC(=O)NC[C@@H](O)C(O)[C@@H]2O[C@@](OC[C@H]3O[C@@H](O[C@H]4[C@H](O)[C@@H](O)[C@H](OCCN=[N+]=[N-])O[C@@H]4CO)[C@H](O)[C@@H](O)[C@H]3O)(C(=O)O)C[C@H](O)[C@H]2NC(C)=O)nn1)OCC
REMARK SMILES IDX 18 1 20 2 22 3 54 4 21 5 55 6 57 7 23 8 24 9 25 10 27 11
REMARK SMILES IDX 26 12 45 13 47 14 49 15 28 16 29 17 42 18 41 19 34 20 30 21
REMARK SMILES IDX 32 22 43 23 44 24 35 26 36 27 37 28 38 29 39 30 40 31 31 32
REMARK SMILES IDX 33 34 46 36 48 38 50 40 51 42 52 43 53 44 56 46 58 48 59 49
REMARK SMILES IDX 60 51 61 52 19 53 16 55 17 56 15 58 14 59 12 60 13 62 11 63
REMARK SMILES IDX 10 64 9 65 8 66 62 67 7 68 63 69 6 70 5 71 4 72 3 73 2 74
REMARK SMILES IDX 1 75 64 76 65 77 66 78
REMARK H PARENT 44 25 31 33 33 35 46 37 48 39 50 41 53 45 56 47 58 50 19 54
REMARK H PARENT 17 57 14 61
REMARK Flexibility Score: inf
ROOT
ATOM      1  C   UNL     1      19.313  29.898  21.876  1.00  0.00     0.176 C 
ENDROOT
BRANCH   1   2
ATOM      2  C   UNL     1      17.959  29.931  22.519  1.00  0.00     0.178 C 
ATOM      3  C   UNL     1      15.688  30.087  22.105  1.00  0.00     0.272 C 
ATOM      4  C   UNL     1      15.678  29.856  23.574  1.00  0.00     0.113 C 
ATOM      5  O   UNL     1      16.988  30.137  21.552  1.00  0.00    -0.332 OA
ATOM      6  C   UNL     1      16.641  30.663  24.373  1.00  0.00     0.145 C 
ATOM      7  C   UNL     1      17.807  31.113  23.483  1.00  0.00     0.142 C 
BRANCH   3   8
ATOM      8  O   UNL     1      14.994  31.118  21.613  1.00  0.00    -0.338 OA
BRANCH   8   9
ATOM      9  C   UNL     1      15.479  31.905  20.636  1.00  0.00     0.199 C 
BRANCH   9  10
ATOM     10  C   UNL     1      14.619  31.832  19.395  1.00  0.00     0.179 C 
ATOM     11  C   UNL     1      14.234  30.812  17.431  1.00  0.00     0.282 C 
ATOM     12  O   UNL     1      14.637  30.595  18.776  1.00  0.00    -0.341 OA
ATOM     13  C   UNL     1      12.785  31.128  17.431  1.00  0.00     0.202 C 
ATOM     14  C   UNL     1      12.525  32.328  18.310  1.00  0.00     0.179 C 
ATOM     15  C   UNL     1      13.177  32.250  19.665  1.00  0.00     0.177 C 
BRANCH  11  16
ATOM     16  O   UNL     1      14.602  29.699  16.667  1.00  0.00    -0.341 OA
BRANCH  16  17
ATOM     17  C   UNL     1      15.925  29.786  16.367  1.00  0.00     0.184 C 
ATOM     18  C   UNL     1      16.330  29.910  14.949  1.00  0.00     0.178 C 
ATOM     19  O   UNL     1      17.653  30.372  14.916  1.00  0.00    -0.341 OA
ATOM     20  C   UNL     1      18.524  29.390  15.412  1.00  0.00     0.281 C 
ATOM     21  C   UNL     1      16.684  28.517  16.871  1.00  0.00     0.180 C 
ATOM     22  C   UNL     1      18.156  28.948  16.812  1.00  0.00     0.202 C 
BRANCH  18  23
ATOM     23  C   UNL     1      15.472  30.897  14.215  1.00  0.00     0.191 C 
BRANCH  23  24
ATOM     24  O   UNL     1      14.189  30.407  13.972  1.00  0.00    -0.394 OA
ATOM     25  H   UNL     1      13.569  31.096  13.674  1.00  0.00     0.210 HD
ENDBRANCH  23  24
ENDBRANCH  18  23
BRANCH  20  26
ATOM     26  O   UNL     1      19.780  29.968  15.464  1.00  0.00    -0.350 OA
BRANCH  26  27
ATOM     27  C   UNL     1      20.722  29.462  14.620  1.00  0.00     0.169 C 
BRANCH  27  28
ATOM     28  C   UNL     1      22.050  29.350  15.321  1.00  0.00     0.119 C 
BRANCH  28  29
ATOM     29  N   UNL     1      21.955  28.335  16.368  1.00  0.00    -0.092 NA
ATOM     30  N   UNL     1      21.993  27.158  15.955  1.00  0.00     0.001 N 
ATOM     31  N   UNL     1      21.631  25.996  15.754  1.00  0.00    -0.003 NA
ENDBRANCH  28  29
ENDBRANCH  27  28
ENDBRANCH  26  27
ENDBRANCH  20  26
BRANCH  21  32
ATOM     32  O   UNL     1      16.323  28.199  18.153  1.00  0.00    -0.387 OA
ATOM     33  H   UNL     1      16.953  28.545  18.831  1.00  0.00     0.211 HD
ENDBRANCH  21  32
BRANCH  22  34
ATOM     34  O   UNL     1      18.987  27.931  17.197  1.00  0.00    -0.385 OA
ATOM     35  H   UNL     1      18.549  27.477  17.983  1.00  0.00     0.211 HD
ENDBRANCH  22  34
ENDBRANCH  16  17
ENDBRANCH  11  16
BRANCH  13  36
ATOM     36  O   UNL     1      12.340  31.491  16.150  1.00  0.00    -0.385 OA
ATOM     37  H   UNL     1      12.873  31.062  15.444  1.00  0.00     0.211 HD
ENDBRANCH  13  36
BRANCH  14  38
ATOM     38  O   UNL     1      11.170  32.630  18.390  1.00  0.00    -0.387 OA
ATOM     39  H   UNL     1      10.707  32.039  19.043  1.00  0.00     0.211 HD
ENDBRANCH  14  38
BRANCH  15  40
ATOM     40  O   UNL     1      12.575  31.316  20.494  1.00  0.00    -0.387 OA
ATOM     41  H   UNL     1      13.190  30.577  20.699  1.00  0.00     0.211 HD
ENDBRANCH  15  40
ENDBRANCH   9  10
ENDBRANCH   8   9
ENDBRANCH   3   8
BRANCH   3  42
ATOM     42  C   UNL     1      15.108  28.854  21.483  1.00  0.00     0.364 C 
ATOM     43  O   UNL     1      15.807  28.060  20.827  1.00  0.00    -0.246 OA
BRANCH  42  44
ATOM     44  O   UNL     1      13.758  28.545  21.613  1.00  0.00    -0.477 OA
ATOM     45  H   UNL     1      13.354  27.877  20.966  1.00  0.00     0.296 HD
ENDBRANCH  42  44
ENDBRANCH   3  42
BRANCH   6  46
ATOM     46  O   UNL     1      16.091  31.731  25.038  1.00  0.00    -0.391 OA
ATOM     47  H   UNL     1      15.936  32.528  24.472  1.00  0.00     0.211 HD
ENDBRANCH   6  46
BRANCH   7  48
ATOM     48  N   UNL     1      18.988  31.391  24.231  1.00  0.00    -0.348 N 
ATOM     49  C   UNL     1      19.425  32.743  24.322  1.00  0.00     0.217 C 
ATOM     50  H   UNL     1      19.545  30.660  24.715  1.00  0.00     0.163 HD
ATOM     51  C   UNL     1      20.653  33.065  25.094  1.00  0.00     0.114 C 
ATOM     52  O   UNL     1      18.782  33.687  23.752  1.00  0.00    -0.275 OA
ENDBRANCH   7  48
ENDBRANCH   1   2
BRANCH   1  53
ATOM     53  O   UNL     1      20.061  28.929  22.569  1.00  0.00    -0.388 OA
ATOM     54  H   UNL     1      21.039  29.129  22.501  1.00  0.00     0.211 HD
ENDBRANCH   1  53
BRANCH   1  55
ATOM     55  C   UNL     1      19.143  29.385  20.459  1.00  0.00     0.165 C 
BRANCH  55  56
ATOM     56  O   UNL     1      18.474  28.196  20.440  1.00  0.00    -0.388 OA
ATOM     57  H   UNL     1      17.576  28.219  20.857  1.00  0.00     0.211 HD
ENDBRANCH  55  56
BRANCH  55  58
ATOM     58  C   UNL     1      20.480  29.255  19.785  1.00  0.00     0.154 C 
BRANCH  58  59
ATOM     59  N   UNL     1      20.908  27.915  19.507  1.00  0.00    -0.319 N 
ATOM     60  C   UNL     1      22.230  27.451  19.600  1.00  0.00     0.407 C 
ATOM     61  H   UNL     1      20.138  27.241  19.207  1.00  0.00     0.167 HD
ATOM     62  O   UNL     1      23.180  28.171  19.949  1.00  0.00    -0.225 OA
BRANCH  60  63
ATOM     63  O   UNL     1      22.539  26.107  19.291  1.00  0.00    -0.443 OA
BRANCH  63  64
ATOM     64  C   UNL     1      23.299  25.337  20.233  1.00  0.00     0.294 C 
BRANCH  64  65
ATOM     65  C   UNL     1      22.489  25.173  21.468  1.00  0.00     0.120 A 
ATOM     66  C   UNL     1      22.946  24.940  22.743  1.00  0.00     0.138 A 
ATOM     67  N   UNL     1      21.157  25.219  21.544  1.00  0.00    -0.132 NA
ATOM     68  N   UNL     1      21.860  24.853  23.539  1.00  0.00    -0.252 N 
ATOM     69  N   UNL     1      20.793  25.028  22.781  1.00  0.00    -0.067 NA
BRANCH  68  70
ATOM     70  C   UNL     1      21.914  24.616  24.952  1.00  0.00     0.151 C 
BRANCH  70  71
ATOM     71  C   UNL     1      23.297  24.627  25.539  1.00  0.00     0.086 C 
BRANCH  71  72
ATOM     72  C   UNL     1      23.321  25.572  26.739  1.00  0.00     0.251 C 
BRANCH  72  73
ATOM     73  O   UNL     1      22.024  26.016  26.917  1.00  0.00    -0.353 OA
BRANCH  73  74
ATOM     74  C   UNL     1      21.887  26.812  28.047  1.00  0.00     0.160 C 
ATOM     75  C   UNL     1      21.968  25.990  29.319  1.00  0.00     0.035 C 
ENDBRANCH  73  74
ENDBRANCH  72  73
BRANCH  72  76
ATOM     76  O   UNL     1      24.274  26.539  26.616  1.00  0.00    -0.353 OA
BRANCH  76  77
ATOM     77  C   UNL     1      25.570  26.181  26.870  1.00  0.00     0.160 C 
ATOM     78  C   UNL     1      25.762  26.032  28.362  1.00  0.00     0.035 C 
ENDBRANCH  76  77
ENDBRANCH  72  76
ENDBRANCH  71  72
ENDBRANCH  70  71
ENDBRANCH  68  70
ENDBRANCH  64  65
ENDBRANCH  63  64
ENDBRANCH  60  63
ENDBRANCH  58  59
ENDBRANCH  55  58
ENDBRANCH   1  55
TORSDOF 36
