REMARK VINA RESULT:    -4.562     10.399     14.850
REMARK INTER + INTRA:         -22.335
REMARK INTER:                 -13.759
REMARK INTRA:                  -8.576
REMARK UNBOUND:               -10.839
REMARK SMILES CC(=O)N[C@@H]1[C@@H](O)C[C@](OC[C@H]2O[C@@H](O[C@H]3[C@H](O)[C@@H](O)[C@H](OCCN=[N+]=[N-])O[C@@H]3CO)[C@H](O)[C@@H](O)[C@H]2O)(C(=O)O)O[C@H]1C(O)[C@H](O)CNC(=O)OCc1cn(-c2ccccc2C(C)C)nn1
REMARK SMILES IDX 9 1 8 2 6 3 5 4 42 5 41 6 10 7 11 8 12 9 14 10 13 11 32 12
REMARK SMILES IDX 34 13 36 14 15 15 16 16 29 17 28 18 21 19 17 20 19 21 30 22
REMARK SMILES IDX 31 23 22 25 23 26 24 27 25 28 26 29 27 30 18 31 20 33 33 35
REMARK SMILES IDX 35 37 37 39 38 41 39 42 40 43 7 45 43 47 44 48 45 50 46 51
REMARK SMILES IDX 47 53 48 54 49 55 50 57 51 58 52 59 53 60 54 61 66 62 55 63
REMARK SMILES IDX 65 64 56 65 61 66 57 67 60 68 58 69 59 70 62 71 63 72 64 73
REMARK SMILES IDX 4 74 2 75 1 77 3 78
REMARK H PARENT 31 24 18 32 20 34 33 36 35 38 37 40 40 44 7 46 44 49 46 52
REMARK H PARENT 48 56 4 76
REMARK Flexibility Score: inf
ROOT
ATOM      1  C   UNL     1      16.532  32.320  25.749  1.00  0.00     0.272 C 
ATOM      2  C   UNL     1      16.185  33.769  25.497  1.00  0.00     0.113 C 
ATOM      3  C   UNL     1      16.414  34.045  24.019  1.00  0.00     0.145 C 
ATOM      4  C   UNL     1      17.934  33.975  23.786  1.00  0.00     0.142 C 
ATOM      5  C   UNL     1      18.416  32.706  24.380  1.00  0.00     0.178 C 
ATOM      6  O   UNL     1      17.337  31.879  24.656  1.00  0.00    -0.332 OA
ENDROOT
BRANCH   1   7
ATOM      7  O   UNL     1      15.454  31.515  25.688  1.00  0.00    -0.338 OA
BRANCH   7   8
ATOM      8  C   UNL     1      14.196  31.747  25.834  1.00  0.00     0.199 C 
BRANCH   8   9
ATOM      9  C   UNL     1      13.136  31.347  24.859  1.00  0.00     0.179 C 
ATOM     10  C   UNL     1      12.726  30.746  22.706  1.00  0.00     0.282 C 
ATOM     11  O   UNL     1      13.549  31.382  23.551  1.00  0.00    -0.341 OA
ATOM     12  C   UNL     1      11.326  30.441  23.219  1.00  0.00     0.202 C 
ATOM     13  C   UNL     1      11.363  29.692  24.524  1.00  0.00     0.179 C 
ATOM     14  C   UNL     1      12.709  29.890  25.157  1.00  0.00     0.177 C 
BRANCH  10  15
ATOM     15  O   UNL     1      13.187  29.630  22.075  1.00  0.00    -0.341 OA
BRANCH  15  16
ATOM     16  C   UNL     1      14.279  29.723  21.249  1.00  0.00     0.184 C 
ATOM     17  C   UNL     1      14.068  29.111  19.904  1.00  0.00     0.178 C 
ATOM     18  O   UNL     1      14.948  28.132  19.603  1.00  0.00    -0.341 OA
ATOM     19  C   UNL     1      16.286  28.368  19.671  1.00  0.00     0.281 C 
ATOM     20  C   UNL     1      15.563  29.306  21.842  1.00  0.00     0.180 C 
ATOM     21  C   UNL     1      16.628  29.384  20.761  1.00  0.00     0.202 C 
BRANCH  17  22
ATOM     22  C   UNL     1      14.087  30.136  18.758  1.00  0.00     0.191 C 
BRANCH  22  23
ATOM     23  O   UNL     1      13.376  31.272  19.207  1.00  0.00    -0.394 OA
ATOM     24  H   UNL     1      14.015  32.047  19.112  1.00  0.00     0.210 HD
ENDBRANCH  22  23
ENDBRANCH  17  22
BRANCH  19  25
ATOM     25  O   UNL     1      16.753  28.861  18.482  1.00  0.00    -0.350 OA
BRANCH  25  26
ATOM     26  C   UNL     1      17.686  28.141  17.805  1.00  0.00     0.169 C 
BRANCH  26  27
ATOM     27  C   UNL     1      18.930  28.826  17.378  1.00  0.00     0.119 C 
BRANCH  27  28
ATOM     28  N   UNL     1      18.992  30.169  17.845  1.00  0.00    -0.092 NA
ATOM     29  N   UNL     1      19.478  30.564  18.887  1.00  0.00     0.001 N 
ATOM     30  N   UNL     1      20.136  30.813  19.889  1.00  0.00    -0.003 NA
ENDBRANCH  27  28
ENDBRANCH  26  27
ENDBRANCH  25  26
ENDBRANCH  19  25
BRANCH  20  31
ATOM     31  O   UNL     1      16.010  30.116  22.884  1.00  0.00    -0.387 OA
ATOM     32  H   UNL     1      16.198  29.542  23.659  1.00  0.00     0.211 HD
ENDBRANCH  20  31
BRANCH  21  33
ATOM     33  O   UNL     1      17.881  29.051  21.279  1.00  0.00    -0.385 OA
ATOM     34  H   UNL     1      17.981  28.070  21.177  1.00  0.00     0.211 HD
ENDBRANCH  21  33
ENDBRANCH  15  16
ENDBRANCH  10  15
BRANCH  12  35
ATOM     35  O   UNL     1      10.652  31.643  23.355  1.00  0.00    -0.385 OA
ATOM     36  H   UNL     1       9.724  31.559  22.969  1.00  0.00     0.211 HD
ENDBRANCH  12  35
BRANCH  13  37
ATOM     37  O   UNL     1      11.106  28.336  24.282  1.00  0.00    -0.387 OA
ATOM     38  H   UNL     1      10.182  28.285  23.932  1.00  0.00     0.211 HD
ENDBRANCH  13  37
BRANCH  14  39
ATOM     39  O   UNL     1      13.636  29.065  24.556  1.00  0.00    -0.387 OA
ATOM     40  H   UNL     1      13.463  28.140  24.863  1.00  0.00     0.211 HD
ENDBRANCH  14  39
ENDBRANCH   8   9
ENDBRANCH   7   8
ENDBRANCH   1   7
BRANCH   1  41
ATOM     41  C   UNL     1      17.314  32.152  26.979  1.00  0.00     0.364 C 
ATOM     42  O   UNL     1      17.523  33.213  27.670  1.00  0.00    -0.246 OA
BRANCH  41  43
ATOM     43  O   UNL     1      17.864  31.010  27.498  1.00  0.00    -0.477 OA
ATOM     44  H   UNL     1      18.343  30.917  28.375  1.00  0.00     0.296 HD
ENDBRANCH  41  43
ENDBRANCH   1  41
BRANCH   3  45
ATOM     45  O   UNL     1      15.887  32.996  23.257  1.00  0.00    -0.391 OA
ATOM     46  H   UNL     1      15.428  33.403  22.481  1.00  0.00     0.211 HD
ENDBRANCH   3  45
BRANCH   5  47
ATOM     47  C   UNL     1      19.351  31.871  23.559  1.00  0.00     0.176 C 
BRANCH  47  48
ATOM     48  O   UNL     1      18.576  31.570  22.384  1.00  0.00    -0.388 OA
ATOM     49  H   UNL     1      17.850  32.268  22.441  1.00  0.00     0.211 HD
ENDBRANCH  47  48
BRANCH  47  50
ATOM     50  C   UNL     1      19.743  30.543  24.122  1.00  0.00     0.165 C 
BRANCH  50  51
ATOM     51  O   UNL     1      18.748  29.603  24.089  1.00  0.00    -0.388 OA
ATOM     52  H   UNL     1      17.993  29.968  24.620  1.00  0.00     0.211 HD
ENDBRANCH  50  51
BRANCH  50  53
ATOM     53  C   UNL     1      20.580  30.630  25.342  1.00  0.00     0.154 C 
BRANCH  53  54
ATOM     54  N   UNL     1      20.896  29.362  25.973  1.00  0.00    -0.319 N 
ATOM     55  C   UNL     1      20.909  29.218  27.381  1.00  0.00     0.407 C 
ATOM     56  H   UNL     1      21.124  28.507  25.422  1.00  0.00     0.167 HD
ATOM     57  O   UNL     1      20.660  30.150  28.179  1.00  0.00    -0.225 OA
BRANCH  55  58
ATOM     58  O   UNL     1      21.207  27.990  28.020  1.00  0.00    -0.443 OA
BRANCH  58  59
ATOM     59  C   UNL     1      22.534  27.581  28.160  1.00  0.00     0.294 C 
BRANCH  59  60
ATOM     60  C   UNL     1      22.798  26.487  27.184  1.00  0.00     0.121 A 
ATOM     61  C   UNL     1      23.284  26.535  25.896  1.00  0.00     0.144 A 
ATOM     62  N   UNL     1      22.594  25.150  27.409  1.00  0.00    -0.131 NA
ATOM     63  N   UNL     1      23.372  25.304  25.366  1.00  0.00    -0.220 N 
ATOM     64  N   UNL     1      22.938  24.479  26.329  1.00  0.00    -0.062 NA
BRANCH  63  65
ATOM     65  C   UNL     1      23.825  24.900  24.078  1.00  0.00     0.070 A 
ATOM     66  C   UNL     1      22.975  25.004  23.000  1.00  0.00    -0.020 A 
ATOM     67  C   UNL     1      25.083  24.391  23.844  1.00  0.00     0.029 A 
ATOM     68  C   UNL     1      23.372  24.610  21.737  1.00  0.00     0.006 A 
ATOM     69  C   UNL     1      25.497  23.993  22.586  1.00  0.00     0.002 A 
ATOM     70  C   UNL     1      24.631  24.103  21.517  1.00  0.00     0.000 A 
BRANCH  66  71
ATOM     71  C   UNL     1      21.620  25.554  23.206  1.00  0.00     0.015 C 
ATOM     72  C   UNL     1      20.658  24.389  23.377  1.00  0.00     0.012 C 
ATOM     73  C   UNL     1      21.191  26.332  21.951  1.00  0.00     0.012 C 
ENDBRANCH  66  71
ENDBRANCH  63  65
ENDBRANCH  59  60
ENDBRANCH  58  59
ENDBRANCH  55  58
ENDBRANCH  53  54
ENDBRANCH  50  53
ENDBRANCH  47  50
ENDBRANCH   5  47
BRANCH   4  74
ATOM     74  N   UNL     1      18.508  35.146  24.408  1.00  0.00    -0.348 N 
ATOM     75  C   UNL     1      19.322  36.089  23.761  1.00  0.00     0.217 C 
ATOM     76  H   UNL     1      18.304  35.306  25.440  1.00  0.00     0.163 HD
ATOM     77  C   UNL     1      19.847  37.253  24.551  1.00  0.00     0.114 C 
ATOM     78  O   UNL     1      19.607  35.968  22.562  1.00  0.00    -0.275 OA
ENDBRANCH   4  74
TORSDOF 31
