REMARK VINA RESULT:    -7.329      3.685     11.547
REMARK INTER + INTRA:         -23.632
REMARK INTER:                 -16.402
REMARK INTRA:                  -7.230
REMARK UNBOUND:                -5.593
REMARK SMILES CC(=O)N[C@@H]1[C@@H](O)C[C@](OC[C@H]2O[C@@H](O[C@H]3[C@H](O)[C@@H](O)[C@H](OCCN=[N+]=[N-])O[C@@H]3CO)[C@H](O)[C@@H](O)[C@H]2O)(C(=O)O)O[C@H]1C(O)[C@H](O)CNC(=O)OCc1cn(C2c3ccccc3-c3ccccc32)nn1
REMARK SMILES IDX 9 1 8 2 6 3 5 4 42 5 41 6 10 7 11 8 12 9 14 10 13 11 32 12
REMARK SMILES IDX 34 13 36 14 15 15 16 16 29 17 28 18 21 19 17 20 19 21 30 22
REMARK SMILES IDX 31 23 22 25 23 26 24 27 25 28 26 29 27 30 18 31 20 33 33 35
REMARK SMILES IDX 35 37 37 39 38 41 39 42 40 43 7 45 43 47 44 48 45 50 46 51
REMARK SMILES IDX 47 53 48 54 49 55 50 57 51 58 52 59 53 60 54 61 70 62 55 63
REMARK SMILES IDX 69 64 56 65 57 66 68 67 58 68 62 69 63 70 67 71 59 72 61 73
REMARK SMILES IDX 64 74 66 75 60 76 65 77 4 78 2 79 1 81 3 82
REMARK H PARENT 31 24 18 32 20 34 33 36 35 38 37 40 40 44 7 46 44 49 46 52
REMARK H PARENT 48 56 4 80
REMARK Flexibility Score: inf
ROOT
ATOM      1  C   UNL     1      15.884  29.351  20.607  1.00  0.00     0.272 C 
ATOM      2  C   UNL     1      14.492  28.873  20.698  1.00  0.00     0.113 C 
ATOM      3  C   UNL     1      13.584  29.845  21.350  1.00  0.00     0.145 C 
ATOM      4  C   UNL     1      14.285  30.856  22.214  1.00  0.00     0.142 C 
ATOM      5  C   UNL     1      15.540  30.252  22.742  1.00  0.00     0.178 C 
ATOM      6  O   UNL     1      16.425  29.761  21.835  1.00  0.00    -0.332 OA
ENDROOT
BRANCH   1   7
ATOM      7  O   UNL     1      16.054  30.369  19.706  1.00  0.00    -0.338 OA
BRANCH   7   8
ATOM      8  C   UNL     1      15.761  30.094  18.399  1.00  0.00     0.199 C 
BRANCH   8   9
ATOM      9  C   UNL     1      15.559  31.383  17.632  1.00  0.00     0.179 C 
ATOM     10  C   UNL     1      16.191  30.425  15.587  1.00  0.00     0.282 C 
ATOM     11  O   UNL     1      16.407  31.372  16.548  1.00  0.00    -0.341 OA
ATOM     12  C   UNL     1      14.755  30.325  15.241  1.00  0.00     0.202 C 
ATOM     13  C   UNL     1      14.132  31.670  15.659  1.00  0.00     0.179 C 
ATOM     14  C   UNL     1      14.132  31.585  17.201  1.00  0.00     0.177 C 
BRANCH  10  15
ATOM     15  O   UNL     1      16.872  29.266  15.843  1.00  0.00    -0.341 OA
BRANCH  15  16
ATOM     16  C   UNL     1      18.183  29.218  15.453  1.00  0.00     0.184 C 
ATOM     17  C   UNL     1      19.018  30.124  16.278  1.00  0.00     0.178 C 
ATOM     18  O   UNL     1      19.998  30.791  15.550  1.00  0.00    -0.341 OA
ATOM     19  C   UNL     1      20.502  30.074  14.515  1.00  0.00     0.281 C 
ATOM     20  C   UNL     1      18.159  29.619  13.980  1.00  0.00     0.180 C 
ATOM     21  C   UNL     1      19.449  30.042  13.412  1.00  0.00     0.202 C 
BRANCH  17  22
ATOM     22  C   UNL     1      19.723  29.387  17.396  1.00  0.00     0.191 C 
BRANCH  22  23
ATOM     23  O   UNL     1      19.359  28.018  17.392  1.00  0.00    -0.394 OA
ATOM     24  H   UNL     1      18.390  27.930  17.641  1.00  0.00     0.210 HD
ENDBRANCH  22  23
ENDBRANCH  17  22
BRANCH  19  25
ATOM     25  O   UNL     1      20.840  28.760  14.775  1.00  0.00    -0.350 OA
BRANCH  25  26
ATOM     26  C   UNL     1      22.182  28.510  14.777  1.00  0.00     0.169 C 
BRANCH  26  27
ATOM     27  C   UNL     1      22.622  27.209  15.356  1.00  0.00     0.119 C 
BRANCH  27  28
ATOM     28  N   UNL     1      23.039  27.310  16.739  1.00  0.00    -0.092 NA
ATOM     29  N   UNL     1      22.758  26.350  17.469  1.00  0.00     0.001 N 
ATOM     30  N   UNL     1      22.424  25.480  18.281  1.00  0.00    -0.003 NA
ENDBRANCH  27  28
ENDBRANCH  26  27
ENDBRANCH  25  26
ENDBRANCH  19  25
BRANCH  20  31
ATOM     31  O   UNL     1      17.685  28.520  13.214  1.00  0.00    -0.387 OA
ATOM     32  H   UNL     1      18.342  28.284  12.512  1.00  0.00     0.211 HD
ENDBRANCH  20  31
BRANCH  21  33
ATOM     33  O   UNL     1      19.357  31.347  12.908  1.00  0.00    -0.385 OA
ATOM     34  H   UNL     1      19.334  31.371  11.917  1.00  0.00     0.211 HD
ENDBRANCH  21  33
ENDBRANCH  15  16
ENDBRANCH  10  15
BRANCH  12  35
ATOM     35  O   UNL     1      14.516  30.231  13.871  1.00  0.00    -0.385 OA
ATOM     36  H   UNL     1      14.422  29.278  13.635  1.00  0.00     0.211 HD
ENDBRANCH  12  35
BRANCH  13  37
ATOM     37  O   UNL     1      12.819  31.767  15.264  1.00  0.00    -0.387 OA
ATOM     38  H   UNL     1      12.330  30.978  15.603  1.00  0.00     0.211 HD
ENDBRANCH  13  37
BRANCH  14  39
ATOM     39  O   UNL     1      13.397  30.456  17.509  1.00  0.00    -0.387 OA
ATOM     40  H   UNL     1      13.789  29.627  17.141  1.00  0.00     0.211 HD
ENDBRANCH  14  39
ENDBRANCH   8   9
ENDBRANCH   7   8
ENDBRANCH   1   7
BRANCH   1  41
ATOM     41  C   UNL     1      16.810  28.194  20.234  1.00  0.00     0.364 C 
ATOM     42  O   UNL     1      16.288  27.156  19.816  1.00  0.00    -0.246 OA
BRANCH  41  43
ATOM     43  O   UNL     1      18.174  28.295  20.354  1.00  0.00    -0.477 OA
ATOM     44  H   UNL     1      18.775  28.444  19.534  1.00  0.00     0.296 HD
ENDBRANCH  41  43
ENDBRANCH   1  41
BRANCH   3  45
ATOM     45  O   UNL     1      12.719  30.515  20.483  1.00  0.00    -0.391 OA
ATOM     46  H   UNL     1      13.134  31.258  20.023  1.00  0.00     0.211 HD
ENDBRANCH   3  45
BRANCH   5  47
ATOM     47  C   UNL     1      16.253  31.290  23.606  1.00  0.00     0.176 C 
BRANCH  47  48
ATOM     48  O   UNL     1      16.232  32.505  22.970  1.00  0.00    -0.388 OA
ATOM     49  H   UNL     1      17.160  32.867  22.843  1.00  0.00     0.211 HD
ENDBRANCH  47  48
BRANCH  47  50
ATOM     50  C   UNL     1      17.649  30.808  23.862  1.00  0.00     0.165 C 
BRANCH  50  51
ATOM     51  O   UNL     1      17.966  30.987  25.220  1.00  0.00    -0.388 OA
ATOM     52  H   UNL     1      18.940  31.023  25.347  1.00  0.00     0.211 HD
ENDBRANCH  50  51
BRANCH  50  53
ATOM     53  C   UNL     1      18.589  31.756  23.108  1.00  0.00     0.154 C 
BRANCH  53  54
ATOM     54  N   UNL     1      19.039  31.083  21.927  1.00  0.00    -0.319 N 
ATOM     55  C   UNL     1      20.342  30.551  21.853  1.00  0.00     0.407 C 
ATOM     56  H   UNL     1      18.392  30.983  21.108  1.00  0.00     0.167 HD
ATOM     57  O   UNL     1      21.149  30.660  22.812  1.00  0.00    -0.225 OA
BRANCH  55  58
ATOM     58  O   UNL     1      20.796  29.885  20.732  1.00  0.00    -0.443 OA
BRANCH  58  59
ATOM     59  C   UNL     1      22.047  29.215  20.684  1.00  0.00     0.294 C 
BRANCH  59  60
ATOM     60  C   UNL     1      21.813  27.811  21.107  1.00  0.00     0.120 A 
ATOM     61  C   UNL     1      22.747  26.876  21.533  1.00  0.00     0.139 A 
ATOM     62  N   UNL     1      20.630  27.178  21.159  1.00  0.00    -0.132 NA
ATOM     63  N   UNL     1      22.117  25.728  21.825  1.00  0.00    -0.240 N 
ATOM     64  N   UNL     1      20.832  25.944  21.588  1.00  0.00    -0.066 NA
BRANCH  63  65
ATOM     65  C   UNL     1      22.729  24.489  22.310  1.00  0.00     0.170 C 
ATOM     66  C   UNL     1      22.892  24.598  23.762  1.00  0.00    -0.011 A 
ATOM     67  C   UNL     1      24.108  24.364  21.804  1.00  0.00    -0.011 A 
ATOM     68  C   UNL     1      21.970  24.736  24.793  1.00  0.00     0.007 A 
ATOM     69  C   UNL     1      24.215  24.549  24.110  1.00  0.00    -0.012 A 
ATOM     70  C   UNL     1      24.974  24.402  22.870  1.00  0.00    -0.012 A 
ATOM     71  C   UNL     1      24.632  24.223  20.533  1.00  0.00     0.007 A 
ATOM     72  C   UNL     1      22.385  24.817  26.103  1.00  0.00     0.000 A 
ATOM     73  C   UNL     1      24.631  24.633  25.431  1.00  0.00     0.009 A 
ATOM     74  C   UNL     1      26.335  24.302  22.685  1.00  0.00     0.009 A 
ATOM     75  C   UNL     1      25.988  24.122  20.325  1.00  0.00     0.000 A 
ATOM     76  C   UNL     1      23.725  24.768  26.456  1.00  0.00     0.001 A 
ATOM     77  C   UNL     1      26.843  24.161  21.406  1.00  0.00     0.001 A 
ENDBRANCH  63  65
ENDBRANCH  59  60
ENDBRANCH  58  59
ENDBRANCH  55  58
ENDBRANCH  53  54
ENDBRANCH  50  53
ENDBRANCH  47  50
ENDBRANCH   5  47
BRANCH   4  78
ATOM     78  N   UNL     1      13.412  31.073  23.383  1.00  0.00    -0.348 N 
ATOM     79  C   UNL     1      12.520  32.174  23.452  1.00  0.00     0.217 C 
ATOM     80  H   UNL     1      13.473  30.397  24.156  1.00  0.00     0.163 HD
ATOM     81  C   UNL     1      11.641  32.381  24.645  1.00  0.00     0.114 C 
ATOM     82  O   UNL     1      12.490  32.973  22.475  1.00  0.00    -0.275 OA
ENDBRANCH   4  78
TORSDOF 30
