REMARK VINA RESULT:    -5.996      0.000      0.000
REMARK INTER + INTRA:         -23.112
REMARK INTER:                 -14.495
REMARK INTRA:                  -8.617
REMARK UNBOUND:                -8.354
REMARK SMILES CC(=O)N[C@@H]1[C@@H](O)C[C@](OC[C@H]2O[C@@H](O[C@H]3[C@H](O)[C@@H](O)[C@H](OCCN=[N+]=[N-])O[C@@H]3CO)[C@H](O)[C@@H](O)[C@H]2O)(C(=O)O)O[C@H]1C(O)[C@H](O)CNC(=O)OCc1cn(-c2cccc(Cl)c2)nn1
REMARK SMILES IDX 9 1 8 2 6 3 5 4 42 5 41 6 10 7 11 8 12 9 14 10 13 11 32 12
REMARK SMILES IDX 34 13 36 14 15 15 16 16 29 17 28 18 21 19 17 20 19 21 30 22
REMARK SMILES IDX 31 23 22 25 23 26 24 27 25 28 26 29 27 30 18 31 20 33 33 35
REMARK SMILES IDX 35 37 37 39 38 41 39 42 40 43 7 45 43 47 44 48 45 50 46 51
REMARK SMILES IDX 47 53 48 54 49 55 50 57 51 58 52 59 53 60 54 61 64 62 55 63
REMARK SMILES IDX 63 64 56 65 57 66 62 67 58 68 60 69 59 70 61 71 4 72 2 73
REMARK SMILES IDX 1 75 3 76
REMARK H PARENT 31 24 18 32 20 34 33 36 35 38 37 40 40 44 7 46 44 49 46 52
REMARK H PARENT 48 56 4 74
REMARK Flexibility Score: inf
ROOT
ATOM      1  C   UNL     1      23.439  24.789  22.532  1.00  0.00     0.272 C 
ATOM      2  C   UNL     1      24.414  24.003  21.776  1.00  0.00     0.113 C 
ATOM      3  C   UNL     1      25.396  24.716  20.906  1.00  0.00     0.145 C 
ATOM      4  C   UNL     1      25.201  26.211  20.883  1.00  0.00     0.142 C 
ATOM      5  C   UNL     1      23.679  26.411  20.970  1.00  0.00     0.178 C 
ATOM      6  O   UNL     1      23.375  26.160  22.275  1.00  0.00    -0.332 OA
ENDROOT
BRANCH   1   7
ATOM      7  O   UNL     1      23.361  24.665  23.886  1.00  0.00    -0.338 OA
BRANCH   7   8
ATOM      8  C   UNL     1      24.413  24.606  24.700  1.00  0.00     0.199 C 
BRANCH   8   9
ATOM      9  C   UNL     1      24.422  25.374  25.980  1.00  0.00     0.179 C 
ATOM     10  C   UNL     1      23.833  27.411  26.894  1.00  0.00     0.282 C 
ATOM     11  O   UNL     1      23.719  26.578  25.767  1.00  0.00    -0.341 OA
ATOM     12  C   UNL     1      23.220  26.724  28.076  1.00  0.00     0.202 C 
ATOM     13  C   UNL     1      23.633  25.308  28.326  1.00  0.00     0.179 C 
ATOM     14  C   UNL     1      23.599  24.564  27.009  1.00  0.00     0.177 C 
BRANCH  10  15
ATOM     15  O   UNL     1      23.050  28.497  26.604  1.00  0.00    -0.341 OA
BRANCH  15  16
ATOM     16  C   UNL     1      22.797  28.775  25.261  1.00  0.00     0.184 C 
ATOM     17  C   UNL     1      23.323  30.047  24.784  1.00  0.00     0.178 C 
ATOM     18  O   UNL     1      22.434  30.790  24.046  1.00  0.00    -0.341 OA
ATOM     19  C   UNL     1      21.105  30.692  24.450  1.00  0.00     0.281 C 
ATOM     20  C   UNL     1      21.376  28.394  25.030  1.00  0.00     0.180 C 
ATOM     21  C   UNL     1      20.705  29.282  24.030  1.00  0.00     0.202 C 
BRANCH  17  22
ATOM     22  C   UNL     1      24.519  29.825  23.843  1.00  0.00     0.191 C 
BRANCH  22  23
ATOM     23  O   UNL     1      24.679  28.422  23.711  1.00  0.00    -0.394 OA
ATOM     24  H   UNL     1      25.524  28.161  24.120  1.00  0.00     0.210 HD
ENDBRANCH  22  23
ENDBRANCH  17  22
BRANCH  19  25
ATOM     25  O   UNL     1      20.372  31.614  23.759  1.00  0.00    -0.350 OA
BRANCH  25  26
ATOM     26  C   UNL     1      20.763  31.866  22.469  1.00  0.00     0.169 C 
BRANCH  26  27
ATOM     27  C   UNL     1      19.658  32.278  21.533  1.00  0.00     0.119 C 
BRANCH  27  28
ATOM     28  N   UNL     1      18.432  31.613  21.998  1.00  0.00    -0.092 NA
ATOM     29  N   UNL     1      18.196  30.488  21.507  1.00  0.00     0.001 N 
ATOM     30  N   UNL     1      18.108  29.252  21.401  1.00  0.00    -0.003 NA
ENDBRANCH  27  28
ENDBRANCH  26  27
ENDBRANCH  25  26
ENDBRANCH  19  25
BRANCH  20  31
ATOM     31  O   UNL     1      21.287  27.040  24.651  1.00  0.00    -0.387 OA
ATOM     32  H   UNL     1      21.668  26.995  23.738  1.00  0.00     0.211 HD
ENDBRANCH  20  31
BRANCH  21  33
ATOM     33  O   UNL     1      19.322  29.128  24.173  1.00  0.00    -0.385 OA
ATOM     34  H   UNL     1      18.880  28.969  23.324  1.00  0.00     0.211 HD
ENDBRANCH  21  33
ENDBRANCH  15  16
ENDBRANCH  10  15
BRANCH  12  35
ATOM     35  O   UNL     1      23.500  27.411  29.268  1.00  0.00    -0.385 OA
ATOM     36  H   UNL     1      22.721  27.438  29.866  1.00  0.00     0.211 HD
ENDBRANCH  12  35
BRANCH  13  37
ATOM     37  O   UNL     1      22.685  24.715  29.161  1.00  0.00    -0.387 OA
ATOM     38  H   UNL     1      22.184  23.991  28.749  1.00  0.00     0.211 HD
ENDBRANCH  13  37
BRANCH  14  39
ATOM     39  O   UNL     1      22.273  24.690  26.535  1.00  0.00    -0.387 OA
ATOM     40  H   UNL     1      21.825  25.482  26.870  1.00  0.00     0.211 HD
ENDBRANCH  14  39
ENDBRANCH   8   9
ENDBRANCH   7   8
ENDBRANCH   1   7
BRANCH   1  41
ATOM     41  C   UNL     1      22.058  24.309  22.060  1.00  0.00     0.364 C 
ATOM     42  O   UNL     1      21.003  24.611  22.645  1.00  0.00    -0.246 OA
BRANCH  41  43
ATOM     43  O   UNL     1      21.979  23.497  20.923  1.00  0.00    -0.477 OA
ATOM     44  H   UNL     1      22.694  23.619  20.196  1.00  0.00     0.296 HD
ENDBRANCH  41  43
ENDBRANCH   1  41
BRANCH   3  45
ATOM     45  O   UNL     1      26.717  24.448  21.217  1.00  0.00    -0.391 OA
ATOM     46  H   UNL     1      27.313  25.202  21.002  1.00  0.00     0.211 HD
ENDBRANCH   3  45
BRANCH   5  47
ATOM     47  C   UNL     1      23.271  27.784  20.462  1.00  0.00     0.176 C 
BRANCH  47  48
ATOM     48  O   UNL     1      23.183  27.603  19.056  1.00  0.00    -0.388 OA
ATOM     49  H   UNL     1      22.774  26.700  18.905  1.00  0.00     0.211 HD
ENDBRANCH  47  48
BRANCH  47  50
ATOM     50  C   UNL     1      21.859  28.075  20.925  1.00  0.00     0.165 C 
BRANCH  50  51
ATOM     51  O   UNL     1      21.090  26.927  20.830  1.00  0.00    -0.388 OA
ATOM     52  H   UNL     1      20.506  26.781  21.608  1.00  0.00     0.211 HD
ENDBRANCH  50  51
BRANCH  50  53
ATOM     53  C   UNL     1      21.236  29.115  19.988  1.00  0.00     0.154 C 
BRANCH  53  54
ATOM     54  N   UNL     1      20.216  28.545  19.153  1.00  0.00    -0.319 N 
ATOM     55  C   UNL     1      20.199  28.550  17.750  1.00  0.00     0.407 C 
ATOM     56  H   UNL     1      19.390  28.072  19.641  1.00  0.00     0.167 HD
ATOM     57  O   UNL     1      21.147  29.067  17.113  1.00  0.00    -0.225 OA
BRANCH  55  58
ATOM     58  O   UNL     1      19.124  27.978  17.012  1.00  0.00    -0.443 OA
BRANCH  58  59
ATOM     59  C   UNL     1      17.913  28.676  16.895  1.00  0.00     0.294 C 
BRANCH  59  60
ATOM     60  C   UNL     1      16.956  28.418  18.003  1.00  0.00     0.121 A 
ATOM     61  C   UNL     1      16.039  29.316  18.558  1.00  0.00     0.144 A 
ATOM     62  N   UNL     1      16.769  27.296  18.717  1.00  0.00    -0.131 NA
ATOM     63  N   UNL     1      15.360  28.716  19.551  1.00  0.00    -0.220 N 
ATOM     64  N   UNL     1      15.811  27.492  19.638  1.00  0.00    -0.062 NA
BRANCH  63  65
ATOM     65  C   UNL     1      14.361  29.376  20.318  1.00  0.00     0.068 A 
ATOM     66  C   UNL     1      13.887  28.907  21.521  1.00  0.00     0.028 A 
ATOM     67  C   UNL     1      13.798  30.579  19.860  1.00  0.00     0.049 A 
ATOM     68  C   UNL     1      12.907  29.591  22.235  1.00  0.00     0.004 A 
ATOM     69  C   UNL     1      12.831  31.252  20.566  1.00  0.00     0.043 A 
ATOM     70  C   UNL     1      12.367  30.770  21.769  1.00  0.00     0.020 A 
ATOM     71  Cl  UNL     1      12.139  32.758  19.979  1.00  0.00    -0.084 Cl
ENDBRANCH  63  65
ENDBRANCH  59  60
ENDBRANCH  58  59
ENDBRANCH  55  58
ENDBRANCH  53  54
ENDBRANCH  50  53
ENDBRANCH  47  50
ENDBRANCH   5  47
BRANCH   4  72
ATOM     72  N   UNL     1      25.792  26.839  19.748  1.00  0.00    -0.348 N 
ATOM     73  C   UNL     1      27.084  27.469  19.826  1.00  0.00     0.217 C 
ATOM     74  H   UNL     1      25.357  26.890  18.796  1.00  0.00     0.163 HD
ATOM     75  C   UNL     1      27.715  28.122  18.670  1.00  0.00     0.114 C 
ATOM     76  O   UNL     1      27.680  27.453  20.924  1.00  0.00    -0.275 OA
ENDBRANCH   4  72
TORSDOF 30
