REMARK VINA RESULT:    -5.424      6.219      9.793
REMARK INTER + INTRA:         -22.548
REMARK INTER:                 -15.047
REMARK INTRA:                  -7.501
REMARK UNBOUND:                -8.562
REMARK SMILES CC(=O)N[C@@H]1[C@@H](O)C[C@](OC[C@H]2O[C@@H](O[C@H]3[C@H](O)[C@@H](O)[C@H](OCCN=[N+]=[N-])O[C@@H]3CO)[C@H](O)[C@@H](O)[C@H]2O)(C(=O)O)O[C@H]1C(O)[C@H](O)CNC(=O)OCc1cn(Cc2ccc(C#N)cc2)nn1
REMARK SMILES IDX 9 1 8 2 6 3 5 4 42 5 41 6 10 7 11 8 12 9 14 10 13 11 32 12
REMARK SMILES IDX 34 13 36 14 15 15 16 16 29 17 28 18 21 19 17 20 19 21 30 22
REMARK SMILES IDX 31 23 22 25 23 26 24 27 25 28 26 29 27 30 18 31 20 33 33 35
REMARK SMILES IDX 35 37 37 39 38 41 39 42 40 43 7 45 43 47 44 48 45 50 46 51
REMARK SMILES IDX 47 53 48 54 49 55 50 57 51 58 52 59 53 60 54 61 66 62 55 63
REMARK SMILES IDX 65 64 56 65 57 66 58 67 64 68 59 69 63 70 60 71 61 72 62 73
REMARK SMILES IDX 4 74 2 75 1 77 3 78
REMARK H PARENT 31 24 18 32 20 34 33 36 35 38 37 40 40 44 7 46 44 49 46 52
REMARK H PARENT 48 56 4 76
REMARK Flexibility Score: inf
ROOT
ATOM      1  C   UNL     1      17.324  29.138  17.650  1.00  0.00     0.272 C 
ATOM      2  C   UNL     1      16.755  27.909  18.268  1.00  0.00     0.113 C 
ATOM      3  C   UNL     1      16.057  28.114  19.566  1.00  0.00     0.145 C 
ATOM      4  C   UNL     1      16.729  29.299  20.279  1.00  0.00     0.142 C 
ATOM      5  C   UNL     1      18.143  29.336  19.784  1.00  0.00     0.178 C 
ATOM      6  O   UNL     1      18.184  29.834  18.513  1.00  0.00    -0.332 OA
ENDROOT
BRANCH   1   7
ATOM      7  O   UNL     1      16.419  30.006  17.079  1.00  0.00    -0.338 OA
BRANCH   7   8
ATOM      8  C   UNL     1      16.657  31.319  17.309  1.00  0.00     0.199 C 
BRANCH   8   9
ATOM      9  C   UNL     1      15.472  32.205  16.885  1.00  0.00     0.179 C 
ATOM     10  C   UNL     1      13.648  32.138  15.473  1.00  0.00     0.282 C 
ATOM     11  O   UNL     1      14.859  31.541  15.822  1.00  0.00    -0.341 OA
ATOM     12  C   UNL     1      12.641  32.113  16.575  1.00  0.00     0.202 C 
ATOM     13  C   UNL     1      13.260  31.495  17.806  1.00  0.00     0.179 C 
ATOM     14  C   UNL     1      14.538  32.280  18.064  1.00  0.00     0.177 C 
BRANCH  10  15
ATOM     15  O   UNL     1      13.136  31.412  14.400  1.00  0.00    -0.341 OA
BRANCH  15  16
ATOM     16  C   UNL     1      13.998  30.415  13.948  1.00  0.00     0.184 C 
ATOM     17  C   UNL     1      14.052  30.435  12.463  1.00  0.00     0.178 C 
ATOM     18  O   UNL     1      13.238  29.553  11.813  1.00  0.00    -0.341 OA
ATOM     19  C   UNL     1      12.307  28.896  12.577  1.00  0.00     0.281 C 
ATOM     20  C   UNL     1      13.711  29.083  14.563  1.00  0.00     0.180 C 
ATOM     21  C   UNL     1      13.026  28.105  13.647  1.00  0.00     0.202 C 
BRANCH  17  22
ATOM     22  C   UNL     1      15.506  30.317  12.012  1.00  0.00     0.191 C 
BRANCH  22  23
ATOM     23  O   UNL     1      16.310  30.423  13.147  1.00  0.00    -0.394 OA
ATOM     24  H   UNL     1      15.781  30.757  13.934  1.00  0.00     0.210 HD
ENDBRANCH  22  23
ENDBRANCH  17  22
BRANCH  19  25
ATOM     25  O   UNL     1      11.672  27.974  11.720  1.00  0.00    -0.350 OA
BRANCH  25  26
ATOM     26  C   UNL     1      12.249  27.997  10.458  1.00  0.00     0.169 C 
BRANCH  26  27
ATOM     27  C   UNL     1      11.327  27.370   9.431  1.00  0.00     0.119 C 
BRANCH  27  28
ATOM     28  N   UNL     1      12.055  26.826   8.300  1.00  0.00    -0.092 NA
ATOM     29  N   UNL     1      12.563  27.573   7.480  1.00  0.00     0.001 N 
ATOM     30  N   UNL     1      13.458  28.119   6.817  1.00  0.00    -0.003 NA
ENDBRANCH  27  28
ENDBRANCH  26  27
ENDBRANCH  25  26
ENDBRANCH  19  25
BRANCH  20  31
ATOM     31  O   UNL     1      14.838  28.502  15.159  1.00  0.00    -0.387 OA
ATOM     32  H   UNL     1      15.669  28.815  14.695  1.00  0.00     0.211 HD
ENDBRANCH  20  31
BRANCH  21  33
ATOM     33  O   UNL     1      12.136  27.280  14.337  1.00  0.00    -0.385 OA
ATOM     34  H   UNL     1      12.325  26.350  14.044  1.00  0.00     0.211 HD
ENDBRANCH  21  33
ENDBRANCH  15  16
ENDBRANCH  10  15
BRANCH  12  35
ATOM     35  O   UNL     1      12.128  33.345  16.916  1.00  0.00    -0.385 OA
ATOM     36  H   UNL     1      11.383  33.230  17.570  1.00  0.00     0.211 HD
ENDBRANCH  12  35
BRANCH  13  37
ATOM     37  O   UNL     1      13.505  30.157  17.543  1.00  0.00    -0.387 OA
ATOM     38  H   UNL     1      12.702  29.594  17.485  1.00  0.00     0.211 HD
ENDBRANCH  13  37
BRANCH  14  39
ATOM     39  O   UNL     1      15.143  31.961  19.255  1.00  0.00    -0.387 OA
ATOM     40  H   UNL     1      15.837  32.622  19.466  1.00  0.00     0.211 HD
ENDBRANCH  14  39
ENDBRANCH   8   9
ENDBRANCH   7   8
ENDBRANCH   1   7
BRANCH   1  41
ATOM     41  C   UNL     1      18.249  28.670  16.562  1.00  0.00     0.364 C 
ATOM     42  O   UNL     1      19.298  28.084  16.848  1.00  0.00    -0.246 OA
BRANCH  41  43
ATOM     43  O   UNL     1      17.901  28.908  15.254  1.00  0.00    -0.477 OA
ATOM     44  H   UNL     1      18.458  29.457  14.611  1.00  0.00     0.296 HD
ENDBRANCH  41  43
ENDBRANCH   1  41
BRANCH   3  45
ATOM     45  O   UNL     1      14.697  28.224  19.518  1.00  0.00    -0.391 OA
ATOM     46  H   UNL     1      14.397  28.596  18.663  1.00  0.00     0.211 HD
ENDBRANCH   3  45
BRANCH   5  47
ATOM     47  C   UNL     1      19.087  30.107  20.717  1.00  0.00     0.176 C 
BRANCH  47  48
ATOM     48  O   UNL     1      19.470  29.159  21.695  1.00  0.00    -0.388 OA
ATOM     49  H   UNL     1      20.456  29.187  21.774  1.00  0.00     0.211 HD
ENDBRANCH  47  48
BRANCH  47  50
ATOM     50  C   UNL     1      20.280  30.584  20.017  1.00  0.00     0.165 C 
BRANCH  50  51
ATOM     51  O   UNL     1      20.650  29.691  18.967  1.00  0.00    -0.388 OA
ATOM     52  H   UNL     1      21.107  28.934  19.452  1.00  0.00     0.211 HD
ENDBRANCH  50  51
BRANCH  50  53
ATOM     53  C   UNL     1      21.472  30.902  20.830  1.00  0.00     0.154 C 
BRANCH  53  54
ATOM     54  N   UNL     1      22.468  29.964  21.111  1.00  0.00    -0.319 N 
ATOM     55  C   UNL     1      23.526  29.496  20.310  1.00  0.00     0.407 C 
ATOM     56  H   UNL     1      22.445  29.512  22.091  1.00  0.00     0.167 HD
ATOM     57  O   UNL     1      23.746  29.906  19.161  1.00  0.00    -0.225 OA
BRANCH  55  58
ATOM     58  O   UNL     1      24.413  28.517  20.786  1.00  0.00    -0.443 OA
BRANCH  58  59
ATOM     59  C   UNL     1      24.227  27.158  20.428  1.00  0.00     0.294 C 
BRANCH  59  60
ATOM     60  C   UNL     1      22.905  26.704  20.990  1.00  0.00     0.120 A 
ATOM     61  C   UNL     1      22.773  25.766  21.992  1.00  0.00     0.138 A 
ATOM     62  N   UNL     1      21.657  27.078  20.654  1.00  0.00    -0.132 NA
ATOM     63  N   UNL     1      21.446  25.599  22.234  1.00  0.00    -0.248 N 
ATOM     64  N   UNL     1      20.836  26.395  21.419  1.00  0.00    -0.067 NA
BRANCH  63  65
ATOM     65  C   UNL     1      20.946  24.661  23.226  1.00  0.00     0.181 C 
BRANCH  65  66
ATOM     66  C   UNL     1      21.387  25.233  24.551  1.00  0.00    -0.026 A 
ATOM     67  C   UNL     1      22.283  24.514  25.303  1.00  0.00     0.007 A 
ATOM     68  C   UNL     1      20.884  26.462  24.983  1.00  0.00     0.007 A 
ATOM     69  C   UNL     1      22.738  24.955  26.525  1.00  0.00     0.020 A 
ATOM     70  C   UNL     1      21.338  26.901  26.201  1.00  0.00     0.020 A 
ATOM     71  C   UNL     1      22.223  26.187  26.941  1.00  0.00     0.052 A 
BRANCH  71  72
ATOM     72  C   UNL     1      22.674  26.666  28.242  1.00  0.00     0.099 C 
ATOM     73  N   UNL     1      23.053  27.051  29.273  1.00  0.00    -0.192 NA
ENDBRANCH  71  72
ENDBRANCH  65  66
ENDBRANCH  63  65
ENDBRANCH  59  60
ENDBRANCH  58  59
ENDBRANCH  55  58
ENDBRANCH  53  54
ENDBRANCH  50  53
ENDBRANCH  47  50
ENDBRANCH   5  47
BRANCH   4  74
ATOM     74  N   UNL     1      16.591  29.160  21.707  1.00  0.00    -0.348 N 
ATOM     75  C   UNL     1      15.479  29.767  22.346  1.00  0.00     0.217 C 
ATOM     76  H   UNL     1      17.267  28.634  22.283  1.00  0.00     0.163 HD
ATOM     77  C   UNL     1      15.271  29.667  23.802  1.00  0.00     0.114 C 
ATOM     78  O   UNL     1      14.616  30.425  21.674  1.00  0.00    -0.275 OA
ENDBRANCH   4  74
TORSDOF 32
