REMARK VINA RESULT:    -7.147      3.702     11.166
REMARK INTER + INTRA:         -23.184
REMARK INTER:                 -15.464
REMARK INTRA:                  -7.720
REMARK UNBOUND:                -5.593
REMARK SMILES CC(=O)N[C@@H]1[C@@H](O)C[C@](OC[C@H]2O[C@@H](O[C@H]3[C@H](O)[C@@H](O)[C@H](OCCN=[N+]=[N-])O[C@@H]3CO)[C@H](O)[C@@H](O)[C@H]2O)(C(=O)O)O[C@H]1C(O)[C@H](O)CNC(=O)OCc1cn(C2c3ccccc3-c3ccccc32)nn1
REMARK SMILES IDX 9 1 8 2 6 3 5 4 42 5 41 6 10 7 11 8 12 9 14 10 13 11 32 12
REMARK SMILES IDX 34 13 36 14 15 15 16 16 29 17 28 18 21 19 17 20 19 21 30 22
REMARK SMILES IDX 31 23 22 25 23 26 24 27 25 28 26 29 27 30 18 31 20 33 33 35
REMARK SMILES IDX 35 37 37 39 38 41 39 42 40 43 7 45 43 47 44 48 45 50 46 51
REMARK SMILES IDX 47 53 48 54 49 55 50 57 51 58 52 59 53 60 54 61 70 62 55 63
REMARK SMILES IDX 69 64 56 65 57 66 68 67 58 68 62 69 63 70 67 71 59 72 61 73
REMARK SMILES IDX 64 74 66 75 60 76 65 77 4 78 2 79 1 81 3 82
REMARK H PARENT 31 24 18 32 20 34 33 36 35 38 37 40 40 44 7 46 44 49 46 52
REMARK H PARENT 48 56 4 80
REMARK Flexibility Score: inf
ROOT
ATOM      1  C   UNL     1      14.638  30.433  21.036  1.00  0.00     0.272 C 
ATOM      2  C   UNL     1      13.251  30.917  21.161  1.00  0.00     0.113 C 
ATOM      3  C   UNL     1      13.155  32.393  21.247  1.00  0.00     0.145 C 
ATOM      4  C   UNL     1      14.426  33.066  21.687  1.00  0.00     0.142 C 
ATOM      5  C   UNL     1      15.192  32.128  22.554  1.00  0.00     0.178 C 
ATOM      6  O   UNL     1      15.498  30.910  22.037  1.00  0.00    -0.332 OA
ENDROOT
BRANCH   1   7
ATOM      7  O   UNL     1      15.206  30.708  19.820  1.00  0.00    -0.338 OA
BRANCH   7   8
ATOM      8  C   UNL     1      14.646  30.108  18.726  1.00  0.00     0.199 C 
BRANCH   8   9
ATOM      9  C   UNL     1      14.765  31.015  17.521  1.00  0.00     0.179 C 
ATOM     10  C   UNL     1      16.573  29.820  16.626  1.00  0.00     0.282 C 
ATOM     11  O   UNL     1      16.075  31.000  17.102  1.00  0.00    -0.341 OA
ATOM     12  C   UNL     1      15.625  29.171  15.692  1.00  0.00     0.202 C 
ATOM     13  C   UNL     1      14.712  30.300  15.177  1.00  0.00     0.179 C 
ATOM     14  C   UNL     1      13.835  30.622  16.406  1.00  0.00     0.177 C 
BRANCH  10  15
ATOM     15  O   UNL     1      17.119  29.053  17.620  1.00  0.00    -0.341 OA
BRANCH  15  16
ATOM     16  C   UNL     1      18.436  29.277  17.920  1.00  0.00     0.184 C 
ATOM     17  C   UNL     1      19.320  28.366  17.154  1.00  0.00     0.178 C 
ATOM     18  O   UNL     1      20.400  27.891  17.891  1.00  0.00    -0.341 OA
ATOM     19  C   UNL     1      20.877  28.774  18.804  1.00  0.00     0.281 C 
ATOM     20  C   UNL     1      18.529  29.057  19.428  1.00  0.00     0.180 C 
ATOM     21  C   UNL     1      19.884  28.835  19.959  1.00  0.00     0.202 C 
BRANCH  17  22
ATOM     22  C   UNL     1      19.886  29.028  15.917  1.00  0.00     0.191 C 
BRANCH  22  23
ATOM     23  O   UNL     1      20.814  28.171  15.278  1.00  0.00    -0.394 OA
ATOM     24  H   UNL     1      21.228  28.650  14.498  1.00  0.00     0.210 HD
ENDBRANCH  22  23
ENDBRANCH  17  22
BRANCH  19  25
ATOM     25  O   UNL     1      21.061  30.075  18.374  1.00  0.00    -0.350 OA
BRANCH  25  26
ATOM     26  C   UNL     1      22.064  30.746  19.013  1.00  0.00     0.169 C 
BRANCH  26  27
ATOM     27  C   UNL     1      22.241  32.182  18.660  1.00  0.00     0.119 C 
BRANCH  27  28
ATOM     28  N   UNL     1      21.231  32.677  17.747  1.00  0.00    -0.092 NA
ATOM     29  N   UNL     1      20.302  33.320  18.253  1.00  0.00     0.001 N 
ATOM     30  N   UNL     1      19.292  33.881  18.693  1.00  0.00    -0.003 NA
ENDBRANCH  27  28
ENDBRANCH  26  27
ENDBRANCH  25  26
ENDBRANCH  19  25
BRANCH  20  31
ATOM     31  O   UNL     1      17.981  30.188  20.090  1.00  0.00    -0.387 OA
ATOM     32  H   UNL     1      17.162  30.493  19.625  1.00  0.00     0.211 HD
ENDBRANCH  20  31
BRANCH  21  33
ATOM     33  O   UNL     1      19.955  27.598  20.614  1.00  0.00    -0.385 OA
ATOM     34  H   UNL     1      19.234  26.976  20.335  1.00  0.00     0.211 HD
ENDBRANCH  21  33
ENDBRANCH  15  16
ENDBRANCH  10  15
BRANCH  12  35
ATOM     35  O   UNL     1      16.233  28.653  14.550  1.00  0.00    -0.385 OA
ATOM     36  H   UNL     1      17.160  28.405  14.775  1.00  0.00     0.211 HD
ENDBRANCH  12  35
BRANCH  13  37
ATOM     37  O   UNL     1      13.867  29.858  14.187  1.00  0.00    -0.387 OA
ATOM     38  H   UNL     1      14.406  29.419  13.485  1.00  0.00     0.211 HD
ENDBRANCH  13  37
BRANCH  14  39
ATOM     39  O   UNL     1      13.204  29.436  16.731  1.00  0.00    -0.387 OA
ATOM     40  H   UNL     1      13.102  29.308  17.706  1.00  0.00     0.211 HD
ENDBRANCH  14  39
ENDBRANCH   8   9
ENDBRANCH   7   8
ENDBRANCH   1   7
BRANCH   1  41
ATOM     41  C   UNL     1      14.688  28.925  21.281  1.00  0.00     0.364 C 
ATOM     42  O   UNL     1      15.789  28.370  21.214  1.00  0.00    -0.246 OA
BRANCH  41  43
ATOM     43  O   UNL     1      13.555  28.203  21.565  1.00  0.00    -0.477 OA
ATOM     44  H   UNL     1      12.724  28.649  21.971  1.00  0.00     0.296 HD
ENDBRANCH  41  43
ENDBRANCH   1  41
BRANCH   3  45
ATOM     45  O   UNL     1      12.690  33.021  20.090  1.00  0.00    -0.391 OA
ATOM     46  H   UNL     1      13.217  32.819  19.304  1.00  0.00     0.211 HD
ENDBRANCH   3  45
BRANCH   5  47
ATOM     47  C   UNL     1      16.487  32.814  22.985  1.00  0.00     0.176 C 
BRANCH  47  48
ATOM     48  O   UNL     1      16.242  33.611  24.073  1.00  0.00    -0.388 OA
ATOM     49  H   UNL     1      16.920  34.348  24.148  1.00  0.00     0.211 HD
ENDBRANCH  47  48
BRANCH  47  50
ATOM     50  C   UNL     1      17.015  33.595  21.819  1.00  0.00     0.165 C 
BRANCH  50  51
ATOM     51  O   UNL     1      17.259  32.724  20.743  1.00  0.00    -0.388 OA
ATOM     52  H   UNL     1      17.179  33.200  19.886  1.00  0.00     0.211 HD
ENDBRANCH  50  51
BRANCH  50  53
ATOM     53  C   UNL     1      18.397  34.119  22.226  1.00  0.00     0.154 C 
BRANCH  53  54
ATOM     54  N   UNL     1      18.983  33.168  23.121  1.00  0.00    -0.319 N 
ATOM     55  C   UNL     1      19.831  32.150  22.636  1.00  0.00     0.407 C 
ATOM     56  H   UNL     1      18.783  33.228  24.148  1.00  0.00     0.167 HD
ATOM     57  O   UNL     1      20.087  32.042  21.410  1.00  0.00    -0.225 OA
BRANCH  55  58
ATOM     58  O   UNL     1      20.421  31.229  23.478  1.00  0.00    -0.443 OA
BRANCH  58  59
ATOM     59  C   UNL     1      21.341  30.247  23.027  1.00  0.00     0.294 C 
BRANCH  59  60
ATOM     60  C   UNL     1      20.993  28.971  23.701  1.00  0.00     0.120 A 
ATOM     61  C   UNL     1      21.646  27.748  23.612  1.00  0.00     0.139 A 
ATOM     62  N   UNL     1      19.966  28.763  24.539  1.00  0.00    -0.132 NA
ATOM     63  N   UNL     1      21.009  26.854  24.384  1.00  0.00    -0.240 N 
ATOM     64  N   UNL     1      19.993  27.502  24.934  1.00  0.00    -0.066 NA
BRANCH  63  65
ATOM     65  C   UNL     1      21.368  25.448  24.578  1.00  0.00     0.170 C 
ATOM     66  C   UNL     1      22.351  25.373  25.662  1.00  0.00    -0.011 A 
ATOM     67  C   UNL     1      22.093  24.935  23.402  1.00  0.00    -0.011 A 
ATOM     68  C   UNL     1      22.276  25.706  27.009  1.00  0.00     0.007 A 
ATOM     69  C   UNL     1      23.543  24.875  25.207  1.00  0.00    -0.012 A 
ATOM     70  C   UNL     1      23.372  24.602  23.782  1.00  0.00    -0.012 A 
ATOM     71  C   UNL     1      21.727  24.745  22.083  1.00  0.00     0.007 A 
ATOM     72  C   UNL     1      23.361  25.538  27.838  1.00  0.00     0.000 A 
ATOM     73  C   UNL     1      24.636  24.707  26.045  1.00  0.00     0.009 A 
ATOM     74  C   UNL     1      24.273  24.091  22.876  1.00  0.00     0.009 A 
ATOM     75  C   UNL     1      22.612  24.236  21.160  1.00  0.00     0.000 A 
ATOM     76  C   UNL     1      24.569  25.034  27.378  1.00  0.00     0.001 A 
ATOM     77  C   UNL     1      23.891  23.907  21.559  1.00  0.00     0.001 A 
ENDBRANCH  63  65
ENDBRANCH  59  60
ENDBRANCH  58  59
ENDBRANCH  55  58
ENDBRANCH  53  54
ENDBRANCH  50  53
ENDBRANCH  47  50
ENDBRANCH   5  47
BRANCH   4  78
ATOM     78  N   UNL     1      14.018  34.186  22.557  1.00  0.00    -0.348 N 
ATOM     79  C   UNL     1      13.879  35.505  22.055  1.00  0.00     0.217 C 
ATOM     80  H   UNL     1      13.837  33.979  23.549  1.00  0.00     0.163 HD
ATOM     81  C   UNL     1      13.464  36.631  22.950  1.00  0.00     0.114 C 
ATOM     82  O   UNL     1      14.115  35.701  20.830  1.00  0.00    -0.275 OA
ENDBRANCH   4  78
TORSDOF 30
