REMARK VINA RESULT:    -5.983      1.728      2.024
REMARK INTER + INTRA:         -21.828
REMARK INTER:                 -15.044
REMARK INTRA:                  -6.784
REMARK UNBOUND:                -6.052
REMARK SMILES CC(=O)N[C@@H]1[C@@H](O)C[C@](OC[C@H]2O[C@@H](O[C@H]3[C@H](O)[C@@H](O)[C@H](OCCN=[N+]=[N-])O[C@@H]3CO)[C@H](O)[C@@H](O)[C@H]2O)(C(=O)O)O[C@H]1C(O)[C@H](O)CNC(=O)OCc1cn(CC(O)CO)nn1
REMARK SMILES IDX 43 1 42 2 9 3 8 4 41 5 6 6 5 7 10 8 11 9 12 10 14 11 13 12
REMARK SMILES IDX 32 13 34 14 36 15 15 16 16 17 29 18 28 19 21 20 17 21 19 22
REMARK SMILES IDX 30 23 31 24 22 26 23 27 24 28 25 29 26 30 27 31 18 32 20 34
REMARK SMILES IDX 33 36 35 38 37 40 38 42 39 43 40 44 7 46 4 48 2 49 1 51 3 52
REMARK SMILES IDX 44 53 45 55 46 56 47 58 48 59 49 60 50 62 51 63 52 64 53 65
REMARK SMILES IDX 54 66 62 67 55 68 61 69 56 70 57 71 58 72 59 74 60 75
REMARK H PARENT 31 25 18 33 20 35 33 37 35 39 37 41 40 45 7 47 4 50 44 54
REMARK H PARENT 46 57 48 61 58 73 60 76
REMARK Flexibility Score: inf
ROOT
ATOM      1  C   UNL     1       4.070  21.296  31.966  1.00  0.00     0.176 C 
ENDROOT
BRANCH   1   2
ATOM      2  C   UNL     1       2.649  21.676  32.422  1.00  0.00     0.178 C 
ATOM      3  C   UNL     1       1.046  23.408  32.322  1.00  0.00     0.272 C 
ATOM      4  C   UNL     1       0.858  23.346  33.812  1.00  0.00     0.113 C 
ATOM      5  O   UNL     1       2.310  22.891  32.000  1.00  0.00    -0.332 OA
ATOM      6  C   UNL     1       1.867  22.592  34.592  1.00  0.00     0.145 C 
ATOM      7  C   UNL     1       2.557  21.483  33.889  1.00  0.00     0.142 C 
BRANCH   3   8
ATOM      8  O   UNL     1       1.003  24.653  31.893  1.00  0.00    -0.338 OA
BRANCH   8   9
ATOM      9  C   UNL     1       1.328  25.850  32.141  1.00  0.00     0.199 C 
BRANCH   9  10
ATOM     10  C   UNL     1       2.660  26.460  31.848  1.00  0.00     0.179 C 
ATOM     11  C   UNL     1       4.684  26.871  32.832  1.00  0.00     0.282 C 
ATOM     12  O   UNL     1       3.612  25.986  32.831  1.00  0.00    -0.341 OA
ATOM     13  C   UNL     1       4.897  27.614  31.558  1.00  0.00     0.202 C 
ATOM     14  C   UNL     1       4.481  26.893  30.312  1.00  0.00     0.179 C 
ATOM     15  C   UNL     1       3.315  25.951  30.563  1.00  0.00     0.177 C 
BRANCH  11  16
ATOM     16  O   UNL     1       5.880  26.322  33.246  1.00  0.00    -0.341 OA
BRANCH  16  17
ATOM     17  C   UNL     1       5.767  25.490  34.358  1.00  0.00     0.184 C 
ATOM     18  C   UNL     1       6.283  26.204  35.570  1.00  0.00     0.178 C 
ATOM     19  O   UNL     1       7.403  25.606  36.126  1.00  0.00    -0.341 OA
ATOM     20  C   UNL     1       8.312  25.215  35.129  1.00  0.00     0.281 C 
ATOM     21  C   UNL     1       6.370  24.178  34.076  1.00  0.00     0.180 C 
ATOM     22  C   UNL     1       7.755  23.930  34.566  1.00  0.00     0.202 C 
BRANCH  18  23
ATOM     23  C   UNL     1       5.234  26.312  36.658  1.00  0.00     0.191 C 
BRANCH  23  24
ATOM     24  O   UNL     1       4.340  25.252  36.619  1.00  0.00    -0.394 OA
ATOM     25  H   UNL     1       4.228  24.933  37.571  1.00  0.00     0.210 HD
ENDBRANCH  23  24
ENDBRANCH  18  23
BRANCH  20  26
ATOM     26  O   UNL     1       9.521  24.999  35.772  1.00  0.00    -0.350 OA
BRANCH  26  27
ATOM     27  C   UNL     1       9.448  25.046  37.155  1.00  0.00     0.169 C 
BRANCH  27  28
ATOM     28  C   UNL     1       8.918  23.766  37.762  1.00  0.00     0.119 C 
BRANCH  28  29
ATOM     29  N   UNL     1       9.954  22.799  38.002  1.00  0.00    -0.092 NA
ATOM     30  N   UNL     1       9.866  21.831  38.748  1.00  0.00     0.001 N 
ATOM     31  N   UNL     1       9.676  20.961  39.598  1.00  0.00    -0.003 NA
ENDBRANCH  28  29
ENDBRANCH  27  28
ENDBRANCH  26  27
ENDBRANCH  20  26
BRANCH  21  32
ATOM     32  O   UNL     1       5.556  23.114  34.537  1.00  0.00    -0.387 OA
ATOM     33  H   UNL     1       5.502  22.491  33.743  1.00  0.00     0.211 HD
ENDBRANCH  21  32
BRANCH  22  34
ATOM     34  O   UNL     1       8.598  23.373  33.608  1.00  0.00    -0.385 OA
ATOM     35  H   UNL     1       9.394  22.963  33.986  1.00  0.00     0.211 HD
ENDBRANCH  22  34
ENDBRANCH  16  17
ENDBRANCH  11  16
BRANCH  13  36
ATOM     36  O   UNL     1       4.392  28.934  31.622  1.00  0.00    -0.385 OA
ATOM     37  H   UNL     1       3.636  29.082  31.023  1.00  0.00     0.211 HD
ENDBRANCH  13  36
BRANCH  14  38
ATOM     38  O   UNL     1       5.528  26.230  29.677  1.00  0.00    -0.387 OA
ATOM     39  H   UNL     1       5.163  25.670  28.951  1.00  0.00     0.211 HD
ENDBRANCH  14  38
BRANCH  15  40
ATOM     40  O   UNL     1       3.884  24.691  30.890  1.00  0.00    -0.387 OA
ATOM     41  H   UNL     1       4.833  24.659  30.619  1.00  0.00     0.211 HD
ENDBRANCH  15  40
ENDBRANCH   9  10
ENDBRANCH   8   9
ENDBRANCH   3   8
BRANCH   3  42
ATOM     42  C   UNL     1       0.032  22.560  31.615  1.00  0.00     0.364 C 
ATOM     43  O   UNL     1       0.034  22.620  30.346  1.00  0.00    -0.246 OA
BRANCH  42  44
ATOM     44  O   UNL     1      -0.868  21.752  32.260  1.00  0.00    -0.477 OA
ATOM     45  H   UNL     1      -0.903  21.685  33.283  1.00  0.00     0.296 HD
ENDBRANCH  42  44
ENDBRANCH   3  42
BRANCH   6  46
ATOM     46  O   UNL     1       2.846  23.523  35.014  1.00  0.00    -0.391 OA
ATOM     47  H   UNL     1       2.545  24.428  34.802  1.00  0.00     0.211 HD
ENDBRANCH   6  46
BRANCH   7  48
ATOM     48  N   UNL     1       1.942  20.215  34.273  1.00  0.00    -0.348 N 
ATOM     49  C   UNL     1       2.665  19.205  34.956  1.00  0.00     0.217 C 
ATOM     50  H   UNL     1       0.947  20.006  34.057  1.00  0.00     0.163 HD
ATOM     51  C   UNL     1       2.044  17.913  35.349  1.00  0.00     0.114 C 
ATOM     52  O   UNL     1       3.870  19.435  35.228  1.00  0.00    -0.275 OA
ENDBRANCH   7  48
ENDBRANCH   1   2
BRANCH   1  53
ATOM     53  O   UNL     1       4.750  20.727  33.024  1.00  0.00    -0.388 OA
ATOM     54  H   UNL     1       4.345  19.860  33.275  1.00  0.00     0.211 HD
ENDBRANCH   1  53
BRANCH   1  55
ATOM     55  C   UNL     1       3.997  20.309  30.812  1.00  0.00     0.165 C 
BRANCH  55  56
ATOM     56  O   UNL     1       5.256  20.413  30.171  1.00  0.00    -0.388 OA
ATOM     57  H   UNL     1       5.120  20.573  29.205  1.00  0.00     0.211 HD
ENDBRANCH  55  56
BRANCH  55  58
ATOM     58  C   UNL     1       2.934  20.620  29.815  1.00  0.00     0.154 C 
BRANCH  58  59
ATOM     59  N   UNL     1       3.102  21.931  29.225  1.00  0.00    -0.319 N 
ATOM     60  C   UNL     1       2.463  22.264  28.009  1.00  0.00     0.407 C 
ATOM     61  H   UNL     1       3.700  22.677  29.678  1.00  0.00     0.167 HD
ATOM     62  O   UNL     1       1.744  21.446  27.390  1.00  0.00    -0.225 OA
BRANCH  60  63
ATOM     63  O   UNL     1       2.602  23.518  27.450  1.00  0.00    -0.443 OA
BRANCH  63  64
ATOM     64  C   UNL     1       3.596  23.960  26.594  1.00  0.00     0.294 C 
BRANCH  64  65
ATOM     65  C   UNL     1       3.833  25.421  26.585  1.00  0.00     0.120 A 
ATOM     66  C   UNL     1       4.985  26.024  26.165  1.00  0.00     0.138 A 
ATOM     67  N   UNL     1       2.958  26.386  27.001  1.00  0.00    -0.132 NA
ATOM     68  N   UNL     1       4.791  27.346  26.332  1.00  0.00    -0.249 N 
ATOM     69  N   UNL     1       3.592  27.538  26.826  1.00  0.00    -0.067 NA
BRANCH  68  70
ATOM     70  C   UNL     1       5.734  28.402  26.037  1.00  0.00     0.180 C 
BRANCH  70  71
ATOM     71  C   UNL     1       6.115  28.257  24.557  1.00  0.00     0.161 C 
BRANCH  71  72
ATOM     72  O   UNL     1       5.790  29.438  23.936  1.00  0.00    -0.389 OA
ATOM     73  H   UNL     1       5.288  29.298  23.096  1.00  0.00     0.211 HD
ENDBRANCH  71  72
BRANCH  71  74
ATOM     74  C   UNL     1       7.589  27.949  24.441  1.00  0.00     0.189 C 
BRANCH  74  75
ATOM     75  O   UNL     1       7.773  26.756  23.778  1.00  0.00    -0.394 OA
ATOM     76  H   UNL     1       7.508  26.005  24.369  1.00  0.00     0.210 HD
ENDBRANCH  74  75
ENDBRANCH  71  74
ENDBRANCH  70  71
ENDBRANCH  68  70
ENDBRANCH  64  65
ENDBRANCH  63  64
ENDBRANCH  60  63
ENDBRANCH  58  59
ENDBRANCH  55  58
ENDBRANCH   1  55
TORSDOF 34
