REMARK VINA RESULT:    -5.981      2.866      8.909
REMARK INTER + INTRA:         -21.619
REMARK INTER:                 -13.261
REMARK INTRA:                  -8.359
REMARK UNBOUND:                -6.197
REMARK SMILES CC(=O)N[C@@H]1[C@@H](O)C[C@](OC[C@H]2O[C@@H](O[C@H]3[C@H](O)[C@@H](O)[C@H](OCCN=[N+]=[N-])O[C@@H]3CO)[C@H](O)[C@@H](O)[C@H]2O)(C(=O)O)O[C@H]1C(O)[C@H](O)CNC(=O)OCc1cn(Cc2cccc(C#N)c2)nn1
REMARK SMILES IDX 9 1 8 2 6 3 5 4 42 5 41 6 10 7 11 8 12 9 14 10 13 11 32 12
REMARK SMILES IDX 34 13 36 14 15 15 16 16 29 17 28 18 21 19 17 20 19 21 30 22
REMARK SMILES IDX 31 23 22 25 23 26 24 27 25 28 26 29 27 30 18 31 20 33 33 35
REMARK SMILES IDX 35 37 37 39 38 41 39 42 40 43 7 45 43 47 44 48 45 50 46 51
REMARK SMILES IDX 47 53 48 54 49 55 50 57 51 58 52 59 53 60 54 61 66 62 55 63
REMARK SMILES IDX 65 64 56 65 57 66 58 67 64 68 59 69 61 70 60 71 62 72 63 73
REMARK SMILES IDX 4 74 2 75 1 77 3 78
REMARK H PARENT 31 24 18 32 20 34 33 36 35 38 37 40 40 44 7 46 44 49 46 52
REMARK H PARENT 48 56 4 76
REMARK Flexibility Score: inf
ROOT
ATOM      1  C   UNL     1      18.983  32.075  24.483  1.00  0.00     0.272 C 
ATOM      2  C   UNL     1      19.967  33.217  24.382  1.00  0.00     0.113 C 
ATOM      3  C   UNL     1      21.363  32.882  24.066  1.00  0.00     0.145 C 
ATOM      4  C   UNL     1      21.765  31.512  24.623  1.00  0.00     0.142 C 
ATOM      5  C   UNL     1      20.772  30.471  24.360  1.00  0.00     0.178 C 
ATOM      6  O   UNL     1      19.467  30.827  24.262  1.00  0.00    -0.332 OA
ENDROOT
BRANCH   1   7
ATOM      7  O   UNL     1      17.992  32.295  23.638  1.00  0.00    -0.338 OA
BRANCH   7   8
ATOM      8  C   UNL     1      17.405  32.013  22.576  1.00  0.00     0.199 C 
BRANCH   8   9
ATOM      9  C   UNL     1      16.110  31.271  22.400  1.00  0.00     0.179 C 
ATOM     10  C   UNL     1      15.118  29.723  21.098  1.00  0.00     0.282 C 
ATOM     11  O   UNL     1      16.377  30.120  21.566  1.00  0.00    -0.341 OA
ATOM     12  C   UNL     1      14.285  29.136  22.185  1.00  0.00     0.202 C 
ATOM     13  C   UNL     1      14.384  29.919  23.481  1.00  0.00     0.179 C 
ATOM     14  C   UNL     1      15.715  30.553  23.705  1.00  0.00     0.177 C 
BRANCH  10  15
ATOM     15  O   UNL     1      15.288  28.793  20.075  1.00  0.00    -0.341 OA
BRANCH  15  16
ATOM     16  C   UNL     1      15.982  29.297  19.007  1.00  0.00     0.184 C 
ATOM     17  C   UNL     1      15.174  29.349  17.763  1.00  0.00     0.178 C 
ATOM     18  O   UNL     1      15.877  29.775  16.659  1.00  0.00    -0.341 OA
ATOM     19  C   UNL     1      17.071  29.131  16.418  1.00  0.00     0.281 C 
ATOM     20  C   UNL     1      17.084  28.230  18.705  1.00  0.00     0.180 C 
ATOM     21  C   UNL     1      17.921  28.880  17.622  1.00  0.00     0.202 C 
BRANCH  17  22
ATOM     22  C   UNL     1      14.005  30.293  17.926  1.00  0.00     0.191 C 
BRANCH  22  23
ATOM     23  O   UNL     1      13.417  30.537  16.681  1.00  0.00    -0.394 OA
ATOM     24  H   UNL     1      12.447  30.579  16.716  1.00  0.00     0.210 HD
ENDBRANCH  22  23
ENDBRANCH  17  22
BRANCH  19  25
ATOM     25  O   UNL     1      17.821  29.983  15.580  1.00  0.00    -0.350 OA
BRANCH  25  26
ATOM     26  C   UNL     1      17.030  30.454  14.565  1.00  0.00     0.169 C 
BRANCH  26  27
ATOM     27  C   UNL     1      16.519  29.360  13.670  1.00  0.00     0.119 C 
BRANCH  27  28
ATOM     28  N   UNL     1      15.153  29.560  13.250  1.00  0.00    -0.092 NA
ATOM     29  N   UNL     1      14.275  28.819  13.714  1.00  0.00     0.001 N 
ATOM     30  N   UNL     1      13.314  28.084  14.036  1.00  0.00    -0.003 NA
ENDBRANCH  27  28
ENDBRANCH  26  27
ENDBRANCH  25  26
ENDBRANCH  19  25
BRANCH  20  31
ATOM     31  O   UNL     1      17.763  27.995  19.870  1.00  0.00    -0.387 OA
ATOM     32  H   UNL     1      18.030  28.844  20.327  1.00  0.00     0.211 HD
ENDBRANCH  20  31
BRANCH  21  33
ATOM     33  O   UNL     1      18.928  27.981  17.279  1.00  0.00    -0.385 OA
ATOM     34  H   UNL     1      18.484  27.093  17.143  1.00  0.00     0.211 HD
ENDBRANCH  21  33
ENDBRANCH  15  16
ENDBRANCH  10  15
BRANCH  12  35
ATOM     35  O   UNL     1      12.929  29.250  21.801  1.00  0.00    -0.385 OA
ATOM     36  H   UNL     1      12.940  29.540  20.856  1.00  0.00     0.211 HD
ENDBRANCH  12  35
BRANCH  13  37
ATOM     37  O   UNL     1      14.190  28.983  24.509  1.00  0.00    -0.387 OA
ATOM     38  H   UNL     1      14.880  29.019  25.199  1.00  0.00     0.211 HD
ENDBRANCH  13  37
BRANCH  14  39
ATOM     39  O   UNL     1      16.636  29.512  23.903  1.00  0.00    -0.387 OA
ATOM     40  H   UNL     1      16.285  28.647  23.617  1.00  0.00     0.211 HD
ENDBRANCH  14  39
ENDBRANCH   8   9
ENDBRANCH   7   8
ENDBRANCH   1   7
BRANCH   1  41
ATOM     41  C   UNL     1      18.516  32.064  25.915  1.00  0.00     0.364 C 
ATOM     42  O   UNL     1      17.273  31.970  26.194  1.00  0.00    -0.246 OA
BRANCH  41  43
ATOM     43  O   UNL     1      19.393  32.154  26.962  1.00  0.00    -0.477 OA
ATOM     44  H   UNL     1      19.002  32.046  27.912  1.00  0.00     0.296 HD
ENDBRANCH  41  43
ENDBRANCH   1  41
BRANCH   3  45
ATOM     45  O   UNL     1      21.557  32.881  22.693  1.00  0.00    -0.391 OA
ATOM     46  H   UNL     1      22.500  33.005  22.431  1.00  0.00     0.211 HD
ENDBRANCH   3  45
BRANCH   5  47
ATOM     47  C   UNL     1      20.999  29.666  23.097  1.00  0.00     0.176 C 
BRANCH  47  48
ATOM     48  O   UNL     1      20.540  28.351  23.441  1.00  0.00    -0.388 OA
ATOM     49  H   UNL     1      20.239  28.392  24.378  1.00  0.00     0.211 HD
ENDBRANCH  47  48
BRANCH  47  50
ATOM     50  C   UNL     1      20.253  30.025  21.881  1.00  0.00     0.165 C 
BRANCH  50  51
ATOM     51  O   UNL     1      19.086  29.147  21.965  1.00  0.00    -0.388 OA
ATOM     52  H   UNL     1      18.342  29.694  22.359  1.00  0.00     0.211 HD
ENDBRANCH  50  51
BRANCH  50  53
ATOM     53  C   UNL     1      20.836  29.681  20.560  1.00  0.00     0.154 C 
BRANCH  53  54
ATOM     54  N   UNL     1      21.329  28.353  20.390  1.00  0.00    -0.319 N 
ATOM     55  C   UNL     1      22.743  28.111  20.404  1.00  0.00     0.407 C 
ATOM     56  H   UNL     1      20.722  27.534  20.261  1.00  0.00     0.167 HD
ATOM     57  O   UNL     1      23.489  29.103  20.570  1.00  0.00    -0.225 OA
BRANCH  55  58
ATOM     58  O   UNL     1      23.293  26.871  20.251  1.00  0.00    -0.443 OA
BRANCH  58  59
ATOM     59  C   UNL     1      22.489  25.674  20.282  1.00  0.00     0.294 C 
BRANCH  59  60
ATOM     60  C   UNL     1      22.002  25.455  21.673  1.00  0.00     0.120 A 
ATOM     61  C   UNL     1      22.730  24.981  22.741  1.00  0.00     0.138 A 
ATOM     62  N   UNL     1      20.768  25.672  22.140  1.00  0.00    -0.132 NA
ATOM     63  N   UNL     1      21.927  24.919  23.840  1.00  0.00    -0.248 N 
ATOM     64  N   UNL     1      20.739  25.347  23.440  1.00  0.00    -0.067 NA
BRANCH  63  65
ATOM     65  C   UNL     1      22.310  24.468  25.147  1.00  0.00     0.181 C 
BRANCH  65  66
ATOM     66  C   UNL     1      22.740  25.628  25.960  1.00  0.00    -0.025 A 
ATOM     67  C   UNL     1      24.029  25.812  26.385  1.00  0.00     0.006 A 
ATOM     68  C   UNL     1      21.800  26.586  26.324  1.00  0.00     0.025 A 
ATOM     69  C   UNL     1      24.417  26.886  27.142  1.00  0.00     0.002 A 
ATOM     70  C   UNL     1      22.188  27.663  27.082  1.00  0.00     0.052 A 
ATOM     71  C   UNL     1      23.499  27.856  27.519  1.00  0.00     0.019 A 
BRANCH  70  72
ATOM     72  C   UNL     1      21.209  28.652  27.450  1.00  0.00     0.099 C 
ATOM     73  N   UNL     1      20.416  29.452  27.763  1.00  0.00    -0.192 NA
ENDBRANCH  70  72
ENDBRANCH  65  66
ENDBRANCH  63  65
ENDBRANCH  59  60
ENDBRANCH  58  59
ENDBRANCH  55  58
ENDBRANCH  53  54
ENDBRANCH  50  53
ENDBRANCH  47  50
ENDBRANCH   5  47
BRANCH   4  74
ATOM     74  N   UNL     1      22.172  31.681  26.017  1.00  0.00    -0.348 N 
ATOM     75  C   UNL     1      23.501  31.391  26.388  1.00  0.00     0.217 C 
ATOM     76  H   UNL     1      21.543  32.009  26.776  1.00  0.00     0.163 HD
ATOM     77  C   UNL     1      24.003  31.533  27.784  1.00  0.00     0.114 C 
ATOM     78  O   UNL     1      24.292  30.998  25.515  1.00  0.00    -0.275 OA
ENDBRANCH   4  74
TORSDOF 32
