REMARK VINA RESULT:    -5.978      0.000      0.000
REMARK INTER + INTRA:         -22.315
REMARK INTER:                 -15.261
REMARK INTRA:                  -7.054
REMARK UNBOUND:                -7.600
REMARK SMILES CC(=O)N[C@@H]1[C@@H](O)C[C@](OC[C@H]2O[C@@H](O[C@H]3[C@H](O)[C@@H](O)[C@H](OCCN=[N+]=[N-])O[C@@H]3CO)[C@H](O)[C@@H](O)[C@H]2O)(C(=O)O)O[C@H]1C(O)[C@H](O)CNC(=O)OCc1cn(-c2ccc(Cl)cc2)nn1
REMARK SMILES IDX 9 1 8 2 6 3 5 4 42 5 41 6 10 7 11 8 12 9 14 10 13 11 32 12
REMARK SMILES IDX 34 13 36 14 15 15 16 16 29 17 28 18 21 19 17 20 19 21 30 22
REMARK SMILES IDX 31 23 22 25 23 26 24 27 25 28 26 29 27 30 18 31 20 33 33 35
REMARK SMILES IDX 35 37 37 39 38 41 39 42 40 43 7 45 43 47 44 48 45 50 46 51
REMARK SMILES IDX 47 53 48 54 49 55 50 57 51 58 52 59 53 60 54 61 64 62 55 63
REMARK SMILES IDX 63 64 56 65 57 66 62 67 58 68 61 69 59 70 60 71 4 72 2 73
REMARK SMILES IDX 1 75 3 76
REMARK H PARENT 31 24 18 32 20 34 33 36 35 38 37 40 40 44 7 46 44 49 46 52
REMARK H PARENT 48 56 4 74
REMARK Flexibility Score: inf
ROOT
ATOM      1  C   UNL     1      22.458  25.972  23.965  1.00  0.00     0.272 C 
ATOM      2  C   UNL     1      23.188  24.696  24.062  1.00  0.00     0.113 C 
ATOM      3  C   UNL     1      24.024  24.244  22.936  1.00  0.00     0.145 C 
ATOM      4  C   UNL     1      24.132  25.332  21.889  1.00  0.00     0.142 C 
ATOM      5  C   UNL     1      22.685  25.838  21.704  1.00  0.00     0.178 C 
ATOM      6  O   UNL     1      22.580  26.719  22.823  1.00  0.00    -0.332 OA
ENDROOT
BRANCH   1   7
ATOM      7  O   UNL     1      22.867  26.771  25.070  1.00  0.00    -0.338 OA
BRANCH   7   8
ATOM      8  C   UNL     1      24.168  26.563  25.439  1.00  0.00     0.199 C 
BRANCH   8   9
ATOM      9  C   UNL     1      24.430  27.006  26.875  1.00  0.00     0.179 C 
ATOM     10  C   UNL     1      22.976  27.931  28.477  1.00  0.00     0.282 C 
ATOM     11  O   UNL     1      23.629  28.038  27.249  1.00  0.00    -0.341 OA
ATOM     12  C   UNL     1      22.123  26.733  28.442  1.00  0.00     0.202 C 
ATOM     13  C   UNL     1      22.991  25.499  28.238  1.00  0.00     0.179 C 
ATOM     14  C   UNL     1      24.391  25.836  27.832  1.00  0.00     0.177 C 
BRANCH  10  15
ATOM     15  O   UNL     1      22.339  29.163  28.609  1.00  0.00    -0.341 OA
BRANCH  15  16
ATOM     16  C   UNL     1      22.172  29.893  27.510  1.00  0.00     0.184 C 
ATOM     17  C   UNL     1      22.546  31.324  27.661  1.00  0.00     0.178 C 
ATOM     18  O   UNL     1      22.649  31.951  26.424  1.00  0.00    -0.341 OA
ATOM     19  C   UNL     1      21.524  31.946  25.666  1.00  0.00     0.281 C 
ATOM     20  C   UNL     1      20.732  29.900  26.957  1.00  0.00     0.180 C 
ATOM     21  C   UNL     1      20.411  31.196  26.303  1.00  0.00     0.202 C 
BRANCH  17  22
ATOM     22  C   UNL     1      23.780  31.624  28.454  1.00  0.00     0.191 C 
BRANCH  22  23
ATOM     23  O   UNL     1      24.825  30.749  28.158  1.00  0.00    -0.394 OA
ATOM     24  H   UNL     1      25.646  31.271  27.994  1.00  0.00     0.210 HD
ENDBRANCH  22  23
ENDBRANCH  17  22
BRANCH  19  25
ATOM     25  O   UNL     1      21.779  31.358  24.421  1.00  0.00    -0.350 OA
BRANCH  25  26
ATOM     26  C   UNL     1      20.810  31.694  23.488  1.00  0.00     0.169 C 
BRANCH  26  27
ATOM     27  C   UNL     1      20.573  30.638  22.453  1.00  0.00     0.119 C 
BRANCH  27  28
ATOM     28  N   UNL     1      19.854  29.550  23.112  1.00  0.00    -0.092 NA
ATOM     29  N   UNL     1      18.708  29.832  23.508  1.00  0.00     0.001 N 
ATOM     30  N   UNL     1      17.468  29.960  23.594  1.00  0.00    -0.003 NA
ENDBRANCH  27  28
ENDBRANCH  26  27
ENDBRANCH  25  26
ENDBRANCH  19  25
BRANCH  20  31
ATOM     31  O   UNL     1      20.665  28.878  26.026  1.00  0.00    -0.387 OA
ATOM     32  H   UNL     1      20.636  28.018  26.554  1.00  0.00     0.211 HD
ENDBRANCH  20  31
BRANCH  21  33
ATOM     33  O   UNL     1      19.684  32.060  27.146  1.00  0.00    -0.385 OA
ATOM     34  H   UNL     1      20.215  32.121  27.971  1.00  0.00     0.211 HD
ENDBRANCH  21  33
ENDBRANCH  15  16
ENDBRANCH  10  15
BRANCH  12  35
ATOM     35  O   UNL     1      21.338  26.519  29.576  1.00  0.00    -0.385 OA
ATOM     36  H   UNL     1      21.772  26.911  30.400  1.00  0.00     0.211 HD
ENDBRANCH  12  35
BRANCH  13  37
ATOM     37  O   UNL     1      22.339  24.655  27.342  1.00  0.00    -0.387 OA
ATOM     38  H   UNL     1      21.818  23.948  27.753  1.00  0.00     0.211 HD
ENDBRANCH  13  37
BRANCH  14  39
ATOM     39  O   UNL     1      24.947  24.751  27.110  1.00  0.00    -0.387 OA
ATOM     40  H   UNL     1      24.994  25.032  26.179  1.00  0.00     0.211 HD
ENDBRANCH  14  39
ENDBRANCH   8   9
ENDBRANCH   7   8
ENDBRANCH   1   7
BRANCH   1  41
ATOM     41  C   UNL     1      20.993  25.706  24.201  1.00  0.00     0.364 C 
ATOM     42  O   UNL     1      20.278  26.488  24.865  1.00  0.00    -0.246 OA
BRANCH  41  43
ATOM     43  O   UNL     1      20.425  24.573  23.674  1.00  0.00    -0.477 OA
ATOM     44  H   UNL     1      20.163  24.473  22.696  1.00  0.00     0.296 HD
ENDBRANCH  41  43
ENDBRANCH   1  41
BRANCH   3  45
ATOM     45  O   UNL     1      25.324  23.957  23.352  1.00  0.00    -0.391 OA
ATOM     46  H   UNL     1      25.273  23.496  24.210  1.00  0.00     0.211 HD
ENDBRANCH   3  45
BRANCH   5  47
ATOM     47  C   UNL     1      22.498  26.632  20.462  1.00  0.00     0.176 C 
BRANCH  47  48
ATOM     48  O   UNL     1      22.322  25.744  19.410  1.00  0.00    -0.388 OA
ATOM     49  H   UNL     1      21.380  25.506  19.229  1.00  0.00     0.211 HD
ENDBRANCH  47  48
BRANCH  47  50
ATOM     50  C   UNL     1      21.505  27.714  20.429  1.00  0.00     0.165 C 
BRANCH  50  51
ATOM     51  O   UNL     1      20.339  27.163  21.076  1.00  0.00    -0.388 OA
ATOM     52  H   UNL     1      20.066  26.334  20.618  1.00  0.00     0.211 HD
ENDBRANCH  50  51
BRANCH  50  53
ATOM     53  C   UNL     1      20.977  28.010  19.033  1.00  0.00     0.154 C 
BRANCH  53  54
ATOM     54  N   UNL     1      19.624  28.492  19.004  1.00  0.00    -0.319 N 
ATOM     55  C   UNL     1      19.030  28.785  17.749  1.00  0.00     0.407 C 
ATOM     56  H   UNL     1      19.047  28.644  19.865  1.00  0.00     0.167 HD
ATOM     57  O   UNL     1      19.663  28.649  16.659  1.00  0.00    -0.225 OA
BRANCH  55  58
ATOM     58  O   UNL     1      17.725  29.235  17.672  1.00  0.00    -0.443 OA
BRANCH  58  59
ATOM     59  C   UNL     1      16.608  28.350  17.796  1.00  0.00     0.294 C 
BRANCH  59  60
ATOM     60  C   UNL     1      16.011  28.464  19.158  1.00  0.00     0.121 A 
ATOM     61  C   UNL     1      14.908  29.239  19.486  1.00  0.00     0.144 A 
ATOM     62  N   UNL     1      16.410  27.863  20.287  1.00  0.00    -0.131 NA
ATOM     63  N   UNL     1      14.673  29.085  20.796  1.00  0.00    -0.220 N 
ATOM     64  N   UNL     1      15.579  28.264  21.245  1.00  0.00    -0.062 NA
BRANCH  63  65
ATOM     65  C   UNL     1      13.601  29.747  21.469  1.00  0.00     0.066 A 
ATOM     66  C   UNL     1      13.079  30.924  20.995  1.00  0.00     0.030 A 
ATOM     67  C   UNL     1      13.068  29.216  22.611  1.00  0.00     0.030 A 
ATOM     68  C   UNL     1      12.031  31.595  21.630  1.00  0.00     0.023 A 
ATOM     69  C   UNL     1      12.026  29.860  23.263  1.00  0.00     0.023 A 
ATOM     70  C   UNL     1      11.502  31.057  22.773  1.00  0.00     0.041 A 
ATOM     71  Cl  UNL     1      10.178  31.868  23.614  1.00  0.00    -0.084 Cl
ENDBRANCH  63  65
ENDBRANCH  59  60
ENDBRANCH  58  59
ENDBRANCH  55  58
ENDBRANCH  53  54
ENDBRANCH  50  53
ENDBRANCH  47  50
ENDBRANCH   5  47
BRANCH   4  72
ATOM     72  N   UNL     1      24.752  24.862  20.709  1.00  0.00    -0.348 N 
ATOM     73  C   UNL     1      26.001  25.438  20.282  1.00  0.00     0.217 C 
ATOM     74  H   UNL     1      24.388  24.106  20.107  1.00  0.00     0.163 HD
ATOM     75  C   UNL     1      26.681  24.965  19.043  1.00  0.00     0.114 C 
ATOM     76  O   UNL     1      26.505  26.352  20.983  1.00  0.00    -0.275 OA
ENDBRANCH   4  72
TORSDOF 30
