REMARK VINA RESULT:    -5.405      2.740      7.123
REMARK INTER + INTRA:         -20.339
REMARK INTER:                 -13.674
REMARK INTRA:                  -6.664
REMARK UNBOUND:                -7.035
REMARK SMILES CC(=O)N[C@@H]1[C@@H](O)C[C@](OC[C@H]2O[C@@H](O[C@H]3[C@H](O)[C@@H](O)[C@H](OCCN=[N+]=[N-])O[C@@H]3CO)[C@H](O)[C@@H](O)[C@H]2O)(C(=O)O)O[C@H]1C(O)[C@H](O)CNC(=O)OCc1cn([C@@H]2C[C@H]3CC[C@@H](C2)N3C)nn1
REMARK SMILES IDX 9 1 8 2 6 3 5 4 42 5 41 6 10 7 11 8 12 9 14 10 13 11 32 12
REMARK SMILES IDX 34 13 36 14 15 15 16 16 29 17 28 18 21 19 17 20 19 21 30 22
REMARK SMILES IDX 31 23 22 25 23 26 24 27 25 28 26 29 27 30 18 31 20 33 33 35
REMARK SMILES IDX 35 37 37 39 38 41 39 42 40 43 7 45 43 47 44 48 45 50 46 51
REMARK SMILES IDX 47 53 48 54 49 55 50 57 51 58 52 59 53 60 54 61 66 62 55 63
REMARK SMILES IDX 65 64 56 65 62 66 57 67 61 68 58 69 63 70 60 71 59 72 64 73
REMARK SMILES IDX 4 74 2 75 1 77 3 78
REMARK H PARENT 31 24 18 32 20 34 33 36 35 38 37 40 40 44 7 46 44 49 46 52
REMARK H PARENT 48 56 4 76
REMARK Flexibility Score: inf
ROOT
ATOM      1  C   UNL     1      22.810  24.832  23.218  1.00  0.00     0.272 C 
ATOM      2  C   UNL     1      24.086  24.266  22.740  1.00  0.00     0.113 C 
ATOM      3  C   UNL     1      25.168  25.329  22.617  1.00  0.00     0.145 C 
ATOM      4  C   UNL     1      24.640  26.493  21.745  1.00  0.00     0.142 C 
ATOM      5  C   UNL     1      23.241  26.827  22.080  1.00  0.00     0.178 C 
ATOM      6  O   UNL     1      22.929  26.247  23.293  1.00  0.00    -0.332 OA
ENDROOT
BRANCH   1   7
ATOM      7  O   UNL     1      22.208  24.395  24.343  1.00  0.00    -0.338 OA
BRANCH   7   8
ATOM      8  C   UNL     1      22.136  24.904  25.530  1.00  0.00     0.199 C 
BRANCH   8   9
ATOM      9  C   UNL     1      23.415  24.955  26.352  1.00  0.00     0.179 C 
ATOM     10  C   UNL     1      24.123  26.983  27.309  1.00  0.00     0.282 C 
ATOM     11  O   UNL     1      23.963  26.234  26.179  1.00  0.00    -0.341 OA
ATOM     12  C   UNL     1      24.922  26.314  28.377  1.00  0.00     0.202 C 
ATOM     13  C   UNL     1      24.321  24.979  28.648  1.00  0.00     0.179 C 
ATOM     14  C   UNL     1      23.149  24.651  27.792  1.00  0.00     0.177 C 
BRANCH  10  15
ATOM     15  O   UNL     1      22.953  27.568  27.759  1.00  0.00    -0.341 OA
BRANCH  15  16
ATOM     16  C   UNL     1      22.619  28.743  27.119  1.00  0.00     0.184 C 
ATOM     17  C   UNL     1      22.563  29.891  28.046  1.00  0.00     0.178 C 
ATOM     18  O   UNL     1      22.389  31.106  27.375  1.00  0.00    -0.341 OA
ATOM     19  C   UNL     1      21.974  30.950  26.052  1.00  0.00     0.281 C 
ATOM     20  C   UNL     1      21.152  28.611  26.585  1.00  0.00     0.180 C 
ATOM     21  C   UNL     1      20.900  29.897  25.868  1.00  0.00     0.202 C 
BRANCH  17  22
ATOM     22  C   UNL     1      23.657  30.020  29.047  1.00  0.00     0.191 C 
BRANCH  22  23
ATOM     23  O   UNL     1      24.900  30.001  28.419  1.00  0.00    -0.394 OA
ATOM     24  H   UNL     1      24.902  30.674  27.694  1.00  0.00     0.210 HD
ENDBRANCH  22  23
ENDBRANCH  17  22
BRANCH  19  25
ATOM     25  O   UNL     1      23.024  30.849  25.183  1.00  0.00    -0.350 OA
BRANCH  25  26
ATOM     26  C   UNL     1      24.159  31.544  25.410  1.00  0.00     0.169 C 
BRANCH  26  27
ATOM     27  C   UNL     1      25.188  31.459  24.345  1.00  0.00     0.119 C 
BRANCH  27  28
ATOM     28  N   UNL     1      25.985  30.281  24.347  1.00  0.00    -0.092 NA
ATOM     29  N   UNL     1      26.105  29.534  25.323  1.00  0.00     0.001 N 
ATOM     30  N   UNL     1      26.725  28.914  26.193  1.00  0.00    -0.003 NA
ENDBRANCH  27  28
ENDBRANCH  26  27
ENDBRANCH  25  26
ENDBRANCH  19  25
BRANCH  20  31
ATOM     31  O   UNL     1      21.037  27.557  25.715  1.00  0.00    -0.387 OA
ATOM     32  H   UNL     1      21.430  26.733  26.109  1.00  0.00     0.211 HD
ENDBRANCH  20  31
BRANCH  21  33
ATOM     33  O   UNL     1      19.672  30.445  26.255  1.00  0.00    -0.385 OA
ATOM     34  H   UNL     1      19.836  31.310  26.658  1.00  0.00     0.211 HD
ENDBRANCH  21  33
ENDBRANCH  15  16
ENDBRANCH  10  15
BRANCH  12  35
ATOM     35  O   UNL     1      26.252  26.158  27.932  1.00  0.00    -0.385 OA
ATOM     36  H   UNL     1      26.593  25.308  28.318  1.00  0.00     0.211 HD
ENDBRANCH  12  35
BRANCH  13  37
ATOM     37  O   UNL     1      23.923  24.872  30.002  1.00  0.00    -0.387 OA
ATOM     38  H   UNL     1      23.956  23.930  30.293  1.00  0.00     0.211 HD
ENDBRANCH  13  37
BRANCH  14  39
ATOM     39  O   UNL     1      21.997  25.265  28.299  1.00  0.00    -0.387 OA
ATOM     40  H   UNL     1      21.739  25.955  27.622  1.00  0.00     0.211 HD
ENDBRANCH  14  39
ENDBRANCH   8   9
ENDBRANCH   7   8
ENDBRANCH   1   7
BRANCH   1  41
ATOM     41  C   UNL     1      21.777  24.573  22.139  1.00  0.00     0.364 C 
ATOM     42  O   UNL     1      21.989  23.942  21.091  1.00  0.00    -0.246 OA
BRANCH  41  43
ATOM     43  O   UNL     1      20.478  25.065  22.299  1.00  0.00    -0.477 OA
ATOM     44  H   UNL     1      19.938  24.830  23.141  1.00  0.00     0.296 HD
ENDBRANCH  41  43
ENDBRANCH   1  41
BRANCH   3  45
ATOM     45  O   UNL     1      25.668  25.773  23.821  1.00  0.00    -0.391 OA
ATOM     46  H   UNL     1      24.966  26.341  24.260  1.00  0.00     0.211 HD
ENDBRANCH   3  45
BRANCH   5  47
ATOM     47  C   UNL     1      23.102  28.355  22.433  1.00  0.00     0.176 C 
BRANCH  47  48
ATOM     48  O   UNL     1      23.316  28.363  23.879  1.00  0.00    -0.388 OA
ATOM     49  H   UNL     1      22.809  27.562  24.212  1.00  0.00     0.211 HD
ENDBRANCH  47  48
BRANCH  47  50
ATOM     50  C   UNL     1      21.695  28.837  22.324  1.00  0.00     0.165 C 
BRANCH  50  51
ATOM     51  O   UNL     1      20.825  27.936  22.895  1.00  0.00    -0.388 OA
ATOM     52  H   UNL     1      21.028  27.665  23.805  1.00  0.00     0.211 HD
ENDBRANCH  50  51
BRANCH  50  53
ATOM     53  C   UNL     1      21.280  29.333  20.990  1.00  0.00     0.154 C 
BRANCH  53  54
ATOM     54  N   UNL     1      19.823  29.433  20.906  1.00  0.00    -0.319 N 
ATOM     55  C   UNL     1      19.101  28.713  19.948  1.00  0.00     0.407 C 
ATOM     56  H   UNL     1      19.343  30.049  21.579  1.00  0.00     0.167 HD
ATOM     57  O   UNL     1      19.736  27.967  19.145  1.00  0.00    -0.225 OA
BRANCH  55  58
ATOM     58  O   UNL     1      17.717  28.778  19.834  1.00  0.00    -0.443 OA
BRANCH  58  59
ATOM     59  C   UNL     1      17.014  29.962  20.193  1.00  0.00     0.294 C 
BRANCH  59  60
ATOM     60  C   UNL     1      16.001  29.644  21.246  1.00  0.00     0.120 A 
ATOM     61  C   UNL     1      15.811  30.297  22.446  1.00  0.00     0.138 A 
ATOM     62  N   UNL     1      15.099  28.669  21.223  1.00  0.00    -0.132 NA
ATOM     63  N   UNL     1      14.809  29.711  23.116  1.00  0.00    -0.249 N 
ATOM     64  N   UNL     1      14.394  28.704  22.325  1.00  0.00    -0.067 NA
BRANCH  63  65
ATOM     65  C   UNL     1      14.234  30.018  24.404  1.00  0.00     0.112 C 
ATOM     66  C   UNL     1      14.152  31.487  24.695  1.00  0.00     0.046 C 
ATOM     67  C   UNL     1      12.789  29.497  24.406  1.00  0.00     0.046 C 
ATOM     68  C   UNL     1      13.114  32.147  23.826  1.00  0.00     0.058 C 
ATOM     69  C   UNL     1      11.979  30.237  23.359  1.00  0.00     0.058 C 
ATOM     70  N   UNL     1      12.830  31.231  22.729  1.00  0.00    -0.300 NA
ATOM     71  C   UNL     1      11.786  32.277  24.524  1.00  0.00     0.021 C 
ATOM     72  C   UNL     1      10.953  31.124  24.037  1.00  0.00     0.021 C 
ATOM     73  C   UNL     1      12.150  31.966  21.706  1.00  0.00     0.105 C 
ENDBRANCH  63  65
ENDBRANCH  59  60
ENDBRANCH  58  59
ENDBRANCH  55  58
ENDBRANCH  53  54
ENDBRANCH  50  53
ENDBRANCH  47  50
ENDBRANCH   5  47
BRANCH   4  74
ATOM     74  N   UNL     1      24.886  26.119  20.346  1.00  0.00    -0.348 N 
ATOM     75  C   UNL     1      25.440  27.077  19.415  1.00  0.00     0.217 C 
ATOM     76  H   UNL     1      24.689  25.183  19.945  1.00  0.00     0.163 HD
ATOM     77  C   UNL     1      25.715  26.784  18.006  1.00  0.00     0.114 C 
ATOM     78  O   UNL     1      25.688  28.213  19.871  1.00  0.00    -0.275 OA
ENDBRANCH   4  74
TORSDOF 30
