REMARK VINA RESULT:    -6.297     21.125     27.105
REMARK INTER + INTRA:         -22.087
REMARK INTER:                 -15.906
REMARK INTRA:                  -6.180
REMARK UNBOUND:                -6.033
REMARK SMILES CC(=O)N[C@@H]1[C@@H](O)C[C@](OC[C@H]2O[C@@H](O[C@H]3[C@H](O)[C@@H](O)[C@H](OCCN=[N+]=[N-])O[C@@H]3CO)[C@H](O)[C@@H](O)[C@H]2O)(C(=O)O)O[C@H]1C(O)[C@H](O)CNC(=O)OCc1cn(-c2cccc(S(N)(=O)=O)c2)nn1
REMARK SMILES IDX 9 1 8 2 6 3 5 4 42 5 41 6 10 7 11 8 12 9 14 10 13 11 32 12
REMARK SMILES IDX 34 13 36 14 15 15 16 16 29 17 28 18 21 19 17 20 19 21 30 22
REMARK SMILES IDX 31 23 22 25 23 26 24 27 25 28 26 29 27 30 18 31 20 33 33 35
REMARK SMILES IDX 35 37 37 39 38 41 39 42 40 43 7 45 43 47 44 48 45 50 46 51
REMARK SMILES IDX 47 53 48 54 49 55 50 57 51 58 52 59 53 60 54 61 67 62 55 63
REMARK SMILES IDX 66 64 56 65 65 66 57 67 60 68 58 69 59 70 61 71 63 72 64 73
REMARK SMILES IDX 62 74 4 77 2 78 1 80 3 81
REMARK H PARENT 31 24 18 32 20 34 33 36 35 38 37 40 40 44 7 46 44 49 46 52
REMARK H PARENT 48 56 62 75 62 76 4 79
REMARK Flexibility Score: inf
ROOT
ATOM      1  C   UNL     1      22.020  21.981  12.284  1.00  0.00     0.272 C 
ATOM      2  C   UNL     1      20.516  21.770  12.547  1.00  0.00     0.113 C 
ATOM      3  C   UNL     1      19.974  20.919  11.452  1.00  0.00     0.145 C 
ATOM      4  C   UNL     1      20.680  19.611  11.394  1.00  0.00     0.142 C 
ATOM      5  C   UNL     1      22.109  19.698  11.797  1.00  0.00     0.178 C 
ATOM      6  O   UNL     1      22.632  20.802  12.340  1.00  0.00    -0.332 OA
ENDROOT
BRANCH   1   7
ATOM      7  O   UNL     1      22.408  22.824  13.360  1.00  0.00    -0.338 OA
BRANCH   7   8
ATOM      8  C   UNL     1      23.118  22.088  14.258  1.00  0.00     0.199 C 
BRANCH   8   9
ATOM      9  C   UNL     1      24.404  22.760  14.686  1.00  0.00     0.179 C 
ATOM     10  C   UNL     1      25.274  23.850  16.435  1.00  0.00     0.282 C 
ATOM     11  O   UNL     1      24.608  22.656  16.061  1.00  0.00    -0.341 OA
ATOM     12  C   UNL     1      26.411  24.157  15.530  1.00  0.00     0.202 C 
ATOM     13  C   UNL     1      26.811  23.035  14.604  1.00  0.00     0.179 C 
ATOM     14  C   UNL     1      25.629  22.309  13.990  1.00  0.00     0.177 C 
BRANCH  10  15
ATOM     15  O   UNL     1      25.538  23.874  17.781  1.00  0.00    -0.341 OA
BRANCH  15  16
ATOM     16  C   UNL     1      25.248  25.058  18.417  1.00  0.00     0.184 C 
ATOM     17  C   UNL     1      25.009  24.787  19.883  1.00  0.00     0.178 C 
ATOM     18  O   UNL     1      23.913  25.521  20.353  1.00  0.00    -0.341 OA
ATOM     19  C   UNL     1      22.770  24.936  19.861  1.00  0.00     0.281 C 
ATOM     20  C   UNL     1      24.009  25.620  17.757  1.00  0.00     0.180 C 
ATOM     21  C   UNL     1      22.737  25.141  18.381  1.00  0.00     0.202 C 
BRANCH  17  22
ATOM     22  C   UNL     1      26.168  25.134  20.761  1.00  0.00     0.191 C 
BRANCH  22  23
ATOM     23  O   UNL     1      26.718  23.982  21.357  1.00  0.00    -0.394 OA
ATOM     24  H   UNL     1      26.226  23.736  22.176  1.00  0.00     0.210 HD
ENDBRANCH  22  23
ENDBRANCH  17  22
BRANCH  19  25
ATOM     25  O   UNL     1      21.610  25.481  20.412  1.00  0.00    -0.350 OA
BRANCH  25  26
ATOM     26  C   UNL     1      21.693  25.798  21.740  1.00  0.00     0.169 C 
BRANCH  26  27
ATOM     27  C   UNL     1      21.318  24.673  22.681  1.00  0.00     0.119 C 
BRANCH  27  28
ATOM     28  N   UNL     1      22.191  24.637  23.838  1.00  0.00    -0.092 NA
ATOM     29  N   UNL     1      23.407  24.493  23.743  1.00  0.00     0.001 N 
ATOM     30  N   UNL     1      24.616  24.344  23.761  1.00  0.00    -0.003 NA
ENDBRANCH  27  28
ENDBRANCH  26  27
ENDBRANCH  25  26
ENDBRANCH  19  25
BRANCH  20  31
ATOM     31  O   UNL     1      24.038  27.021  17.877  1.00  0.00    -0.387 OA
ATOM     32  H   UNL     1      23.765  27.324  18.778  1.00  0.00     0.211 HD
ENDBRANCH  20  31
BRANCH  21  33
ATOM     33  O   UNL     1      22.341  23.916  17.794  1.00  0.00    -0.385 OA
ATOM     34  H   UNL     1      22.138  23.295  18.532  1.00  0.00     0.211 HD
ENDBRANCH  21  33
ENDBRANCH  15  16
ENDBRANCH  10  15
BRANCH  12  35
ATOM     35  O   UNL     1      26.236  25.360  14.803  1.00  0.00    -0.385 OA
ATOM     36  H   UNL     1      25.346  25.704  15.135  1.00  0.00     0.211 HD
ENDBRANCH  12  35
BRANCH  13  37
ATOM     37  O   UNL     1      27.739  22.191  15.184  1.00  0.00    -0.387 OA
ATOM     38  H   UNL     1      28.403  22.787  15.656  1.00  0.00     0.211 HD
ENDBRANCH  13  37
BRANCH  14  39
ATOM     39  O   UNL     1      25.815  20.944  14.238  1.00  0.00    -0.387 OA
ATOM     40  H   UNL     1      26.009  20.764  15.191  1.00  0.00     0.211 HD
ENDBRANCH  14  39
ENDBRANCH   8   9
ENDBRANCH   7   8
ENDBRANCH   1   7
BRANCH   1  41
ATOM     41  C   UNL     1      22.101  22.737  11.010  1.00  0.00     0.364 C 
ATOM     42  O   UNL     1      22.945  22.341  10.127  1.00  0.00    -0.246 OA
BRANCH  41  43
ATOM     43  O   UNL     1      21.363  23.829  10.658  1.00  0.00    -0.477 OA
ATOM     44  H   UNL     1      21.756  24.629  10.146  1.00  0.00     0.296 HD
ENDBRANCH  41  43
ENDBRANCH   1  41
BRANCH   3  45
ATOM     45  O   UNL     1      18.595  20.738  11.757  1.00  0.00    -0.391 OA
ATOM     46  H   UNL     1      18.269  21.673  11.949  1.00  0.00     0.211 HD
ENDBRANCH   3  45
BRANCH   5  47
ATOM     47  C   UNL     1      22.405  18.481  12.707  1.00  0.00     0.176 C 
BRANCH  47  48
ATOM     48  O   UNL     1      21.799  18.692  13.931  1.00  0.00    -0.388 OA
ATOM     49  H   UNL     1      22.345  19.132  14.605  1.00  0.00     0.211 HD
ENDBRANCH  47  48
BRANCH  47  50
ATOM     50  C   UNL     1      23.856  18.193  12.734  1.00  0.00     0.165 C 
BRANCH  50  51
ATOM     51  O   UNL     1      24.393  18.667  13.929  1.00  0.00    -0.388 OA
ATOM     52  H   UNL     1      25.327  18.311  13.946  1.00  0.00     0.211 HD
ENDBRANCH  50  51
BRANCH  50  53
ATOM     53  C   UNL     1      24.606  18.871  11.600  1.00  0.00     0.154 C 
BRANCH  53  54
ATOM     54  N   UNL     1      26.010  18.881  11.936  1.00  0.00    -0.319 N 
ATOM     55  C   UNL     1      26.818  17.718  11.646  1.00  0.00     0.407 C 
ATOM     56  H   UNL     1      26.475  19.699  12.391  1.00  0.00     0.167 HD
ATOM     57  O   UNL     1      26.317  16.698  11.106  1.00  0.00    -0.225 OA
BRANCH  55  58
ATOM     58  O   UNL     1      28.152  17.798  11.990  1.00  0.00    -0.443 OA
BRANCH  58  59
ATOM     59  C   UNL     1      28.693  18.963  12.537  1.00  0.00     0.294 C 
BRANCH  59  60
ATOM     60  C   UNL     1      28.530  19.011  13.998  1.00  0.00     0.121 A 
ATOM     61  C   UNL     1      29.580  19.266  14.892  1.00  0.00     0.144 A 
ATOM     62  N   UNL     1      27.441  18.841  14.738  1.00  0.00    -0.131 NA
ATOM     63  N   UNL     1      29.068  19.235  16.117  1.00  0.00    -0.220 N 
ATOM     64  N   UNL     1      27.795  18.981  16.002  1.00  0.00    -0.062 NA
BRANCH  63  65
ATOM     65  C   UNL     1      29.835  19.461  17.308  1.00  0.00     0.068 A 
ATOM     66  C   UNL     1      29.160  19.723  18.503  1.00  0.00     0.050 A 
ATOM     67  C   UNL     1      31.196  19.422  17.284  1.00  0.00     0.028 A 
ATOM     68  C   UNL     1      29.848  19.945  19.670  1.00  0.00     0.084 A 
ATOM     69  C   UNL     1      31.887  19.640  18.432  1.00  0.00     0.004 A 
ATOM     70  C   UNL     1      31.235  19.904  19.639  1.00  0.00     0.022 A 
BRANCH  68  71
ATOM     71  S   UNL     1      29.073  20.275  21.193  1.00  0.00     0.238 S 
ATOM     72  O   UNL     1      28.393  19.022  21.669  1.00  0.00    -0.207 OA
ATOM     73  O   UNL     1      28.046  21.349  21.034  1.00  0.00    -0.207 OA
BRANCH  71  74
ATOM     74  N   UNL     1      30.288  20.766  22.338  1.00  0.00    -0.225 NA
ATOM     75  H   UNL     1      29.810  21.044  23.224  1.00  0.00     0.137 HD
ATOM     76  H   UNL     1      30.917  21.496  21.945  1.00  0.00     0.137 HD
ENDBRANCH  71  74
ENDBRANCH  68  71
ENDBRANCH  63  65
ENDBRANCH  59  60
ENDBRANCH  58  59
ENDBRANCH  55  58
ENDBRANCH  53  54
ENDBRANCH  50  53
ENDBRANCH  47  50
ENDBRANCH   5  47
BRANCH   4  77
ATOM     77  N   UNL     1      20.615  19.153   9.997  1.00  0.00    -0.348 N 
ATOM     78  C   UNL     1      19.493  18.461   9.467  1.00  0.00     0.217 C 
ATOM     79  H   UNL     1      21.421  19.339   9.366  1.00  0.00     0.163 HD
ATOM     80  C   UNL     1      19.486  18.025   8.047  1.00  0.00     0.114 C 
ATOM     81  O   UNL     1      18.517  18.234  10.239  1.00  0.00    -0.275 OA
ENDBRANCH   4  77
TORSDOF 32
