REMARK VINA RESULT:    -6.436      2.683      4.612
REMARK INTER + INTRA:         -21.682
REMARK INTER:                 -14.644
REMARK INTRA:                  -7.037
REMARK UNBOUND:                -5.087
REMARK SMILES CC(=O)N[C@@H]1[C@@H](O)C[C@](OC[C@H]2O[C@@H](O[C@H]3[C@H](O)[C@@H](O)[C@H](OCCN=[N+]=[N-])O[C@@H]3CO)[C@H](O)[C@@H](O)[C@H]2O)(C(=O)O)O[C@H]1C(O)[C@H](O)CNC(=O)OCc1cn(CS(=O)(=O)c2ccccc2)nn1
REMARK SMILES IDX 9 1 8 2 6 3 5 4 42 5 41 6 10 7 11 8 12 9 14 10 13 11 32 12
REMARK SMILES IDX 34 13 36 14 15 15 16 16 29 17 28 18 21 19 17 20 19 21 30 22
REMARK SMILES IDX 31 23 22 25 23 26 24 27 25 28 26 29 27 30 18 31 20 33 33 35
REMARK SMILES IDX 35 37 37 39 38 41 39 42 40 43 7 45 43 47 44 48 45 50 46 51
REMARK SMILES IDX 47 53 48 54 49 55 50 57 51 58 52 59 53 60 54 61 67 62 55 63
REMARK SMILES IDX 66 64 56 65 57 66 58 67 59 68 60 69 61 70 65 71 62 72 64 73
REMARK SMILES IDX 63 74 4 75 2 76 1 78 3 79
REMARK H PARENT 31 24 18 32 20 34 33 36 35 38 37 40 40 44 7 46 44 49 46 52
REMARK H PARENT 48 56 4 77
REMARK Flexibility Score: inf
ROOT
ATOM      1  C   UNL     1      14.875  32.307  24.106  1.00  0.00     0.272 C 
ATOM      2  C   UNL     1      13.425  32.567  24.062  1.00  0.00     0.113 C 
ATOM      3  C   UNL     1      12.642  31.679  23.116  1.00  0.00     0.145 C 
ATOM      4  C   UNL     1      13.346  31.723  21.806  1.00  0.00     0.142 C 
ATOM      5  C   UNL     1      14.823  31.465  21.912  1.00  0.00     0.178 C 
ATOM      6  O   UNL     1      15.499  32.106  22.886  1.00  0.00    -0.332 OA
ENDROOT
BRANCH   1   7
ATOM      7  O   UNL     1      15.242  31.371  25.051  1.00  0.00    -0.338 OA
BRANCH   7   8
ATOM      8  C   UNL     1      14.589  31.396  26.240  1.00  0.00     0.199 C 
BRANCH   8   9
ATOM      9  C   UNL     1      15.540  31.017  27.395  1.00  0.00     0.179 C 
ATOM     10  C   UNL     1      17.623  32.140  27.426  1.00  0.00     0.282 C 
ATOM     11  O   UNL     1      16.794  31.165  26.949  1.00  0.00    -0.341 OA
ATOM     12  C   UNL     1      16.877  33.350  27.842  1.00  0.00     0.202 C 
ATOM     13  C   UNL     1      15.760  33.028  28.789  1.00  0.00     0.179 C 
ATOM     14  C   UNL     1      15.222  31.660  28.681  1.00  0.00     0.177 C 
BRANCH  10  15
ATOM     15  O   UNL     1      18.524  32.393  26.378  1.00  0.00    -0.341 OA
BRANCH  15  16
ATOM     16  C   UNL     1      19.291  31.354  25.976  1.00  0.00     0.184 C 
ATOM     17  C   UNL     1      20.752  31.692  25.931  1.00  0.00     0.178 C 
ATOM     18  O   UNL     1      21.453  30.490  25.943  1.00  0.00    -0.341 OA
ATOM     19  C   UNL     1      21.002  29.543  25.066  1.00  0.00     0.281 C 
ATOM     20  C   UNL     1      18.976  30.956  24.513  1.00  0.00     0.180 C 
ATOM     21  C   UNL     1      20.011  29.999  24.067  1.00  0.00     0.202 C 
BRANCH  17  22
ATOM     22  C   UNL     1      21.258  32.553  27.034  1.00  0.00     0.191 C 
BRANCH  22  23
ATOM     23  O   UNL     1      20.913  33.876  26.780  1.00  0.00    -0.394 OA
ATOM     24  H   UNL     1      21.647  34.329  26.303  1.00  0.00     0.210 HD
ENDBRANCH  22  23
ENDBRANCH  17  22
BRANCH  19  25
ATOM     25  O   UNL     1      20.439  28.525  25.832  1.00  0.00    -0.350 OA
BRANCH  25  26
ATOM     26  C   UNL     1      21.435  27.721  26.433  1.00  0.00     0.169 C 
BRANCH  26  27
ATOM     27  C   UNL     1      21.195  27.672  27.926  1.00  0.00     0.119 C 
BRANCH  27  28
ATOM     28  N   UNL     1      21.758  26.419  28.422  1.00  0.00    -0.092 NA
ATOM     29  N   UNL     1      22.844  26.477  29.034  1.00  0.00     0.001 N 
ATOM     30  N   UNL     1      24.032  26.568  29.394  1.00  0.00    -0.003 NA
ENDBRANCH  27  28
ENDBRANCH  26  27
ENDBRANCH  25  26
ENDBRANCH  19  25
BRANCH  20  31
ATOM     31  O   UNL     1      17.716  30.388  24.431  1.00  0.00    -0.387 OA
ATOM     32  H   UNL     1      17.816  29.406  24.527  1.00  0.00     0.211 HD
ENDBRANCH  20  31
BRANCH  21  33
ATOM     33  O   UNL     1      20.738  30.612  23.017  1.00  0.00    -0.385 OA
ATOM     34  H   UNL     1      20.213  31.294  22.547  1.00  0.00     0.211 HD
ENDBRANCH  21  33
ENDBRANCH  15  16
ENDBRANCH  10  15
BRANCH  12  35
ATOM     35  O   UNL     1      17.716  34.239  28.587  1.00  0.00    -0.385 OA
ATOM     36  H   UNL     1      18.548  34.301  28.059  1.00  0.00     0.211 HD
ENDBRANCH  12  35
BRANCH  13  37
ATOM     37  O   UNL     1      14.726  33.991  28.687  1.00  0.00    -0.387 OA
ATOM     38  H   UNL     1      14.998  34.819  29.178  1.00  0.00     0.211 HD
ENDBRANCH  13  37
BRANCH  14  39
ATOM     39  O   UNL     1      13.840  31.683  28.947  1.00  0.00    -0.387 OA
ATOM     40  H   UNL     1      13.629  32.561  29.357  1.00  0.00     0.211 HD
ENDBRANCH  14  39
ENDBRANCH   8   9
ENDBRANCH   7   8
ENDBRANCH   1   7
BRANCH   1  41
ATOM     41  C   UNL     1      15.499  33.621  24.550  1.00  0.00     0.364 C 
ATOM     42  O   UNL     1      16.694  33.819  24.277  1.00  0.00    -0.246 OA
BRANCH  41  43
ATOM     43  O   UNL     1      14.744  34.559  25.234  1.00  0.00    -0.477 OA
ATOM     44  H   UNL     1      15.205  35.358  25.695  1.00  0.00     0.296 HD
ENDBRANCH  41  43
ENDBRANCH   1  41
BRANCH   3  45
ATOM     45  O   UNL     1      12.520  30.435  23.670  1.00  0.00    -0.391 OA
ATOM     46  H   UNL     1      13.320  29.903  23.402  1.00  0.00     0.211 HD
ENDBRANCH   3  45
BRANCH   5  47
ATOM     47  C   UNL     1      15.170  29.999  21.787  1.00  0.00     0.176 C 
BRANCH  47  48
ATOM     48  O   UNL     1      15.403  29.373  23.009  1.00  0.00    -0.388 OA
ATOM     49  H   UNL     1      16.279  28.971  23.099  1.00  0.00     0.211 HD
ENDBRANCH  47  48
BRANCH  47  50
ATOM     50  C   UNL     1      14.126  29.211  21.009  1.00  0.00     0.165 C 
BRANCH  50  51
ATOM     51  O   UNL     1      13.475  28.277  21.781  1.00  0.00    -0.388 OA
ATOM     52  H   UNL     1      13.256  27.443  21.337  1.00  0.00     0.211 HD
ENDBRANCH  50  51
BRANCH  50  53
ATOM     53  C   UNL     1      14.613  28.641  19.732  1.00  0.00     0.154 C 
BRANCH  53  54
ATOM     54  N   UNL     1      15.992  28.263  19.661  1.00  0.00    -0.319 N 
ATOM     55  C   UNL     1      16.804  28.264  18.504  1.00  0.00     0.407 C 
ATOM     56  H   UNL     1      16.457  27.947  20.567  1.00  0.00     0.167 HD
ATOM     57  O   UNL     1      16.355  28.627  17.401  1.00  0.00    -0.225 OA
BRANCH  55  58
ATOM     58  O   UNL     1      18.122  27.851  18.618  1.00  0.00    -0.443 OA
BRANCH  58  59
ATOM     59  C   UNL     1      19.214  28.711  18.756  1.00  0.00     0.294 C 
BRANCH  59  60
ATOM     60  C   UNL     1      20.088  28.233  19.844  1.00  0.00     0.120 A 
ATOM     61  C   UNL     1      21.382  27.777  19.654  1.00  0.00     0.139 A 
ATOM     62  N   UNL     1      19.869  28.135  21.164  1.00  0.00    -0.132 NA
ATOM     63  N   UNL     1      21.904  27.423  20.843  1.00  0.00    -0.237 N 
ATOM     64  N   UNL     1      20.951  27.655  21.740  1.00  0.00    -0.066 NA
BRANCH  63  65
ATOM     65  C   UNL     1      23.221  26.908  21.088  1.00  0.00     0.287 C 
BRANCH  65  66
ATOM     66  S   UNL     1      23.035  25.154  21.409  1.00  0.00     0.198 S 
ATOM     67  O   UNL     1      24.035  24.371  20.647  1.00  0.00    -0.222 OA
ATOM     68  O   UNL     1      21.615  24.786  21.011  1.00  0.00    -0.222 OA
BRANCH  66  69
ATOM     69  C   UNL     1      23.234  24.917  23.125  1.00  0.00     0.069 A 
ATOM     70  C   UNL     1      24.477  24.877  23.720  1.00  0.00     0.020 A 
ATOM     71  C   UNL     1      22.142  24.760  23.950  1.00  0.00     0.020 A 
ATOM     72  C   UNL     1      24.634  24.690  25.068  1.00  0.00     0.001 A 
ATOM     73  C   UNL     1      22.282  24.572  25.301  1.00  0.00     0.001 A 
ATOM     74  C   UNL     1      23.535  24.537  25.859  1.00  0.00     0.000 A 
ENDBRANCH  66  69
ENDBRANCH  65  66
ENDBRANCH  63  65
ENDBRANCH  59  60
ENDBRANCH  58  59
ENDBRANCH  55  58
ENDBRANCH  53  54
ENDBRANCH  50  53
ENDBRANCH  47  50
ENDBRANCH   5  47
BRANCH   4  75
ATOM     75  N   UNL     1      13.187  33.058  21.240  1.00  0.00    -0.348 N 
ATOM     76  C   UNL     1      12.949  33.258  19.851  1.00  0.00     0.217 C 
ATOM     77  H   UNL     1      13.245  33.938  21.837  1.00  0.00     0.163 HD
ATOM     78  C   UNL     1      12.793  34.658  19.318  1.00  0.00     0.114 C 
ATOM     79  O   UNL     1      12.867  32.274  19.060  1.00  0.00    -0.275 OA
ENDBRANCH   4  75
TORSDOF 32
