REMARK VINA RESULT:    -6.025      7.216     13.597
REMARK INTER + INTRA:         -24.291
REMARK INTER:                 -14.989
REMARK INTRA:                  -9.303
REMARK UNBOUND:                -7.877
REMARK SMILES CC(=O)N[C@@H]1[C@@H](O)C[C@](OC[C@H]2O[C@@H](O[C@H]3[C@H](O)[C@@H](O)[C@H](OCCN=[N+]=[N-])O[C@@H]3CO)[C@H](O)[C@@H](O)[C@H]2O)(C(=O)O)O[C@H]1C(O)[C@H](O)CNC(=O)OCc1cn(CC(O)CCc2ccccc2)nn1
REMARK SMILES IDX 43 1 42 2 9 3 8 4 41 5 6 6 5 7 10 8 11 9 12 10 14 11 13 12
REMARK SMILES IDX 32 13 34 14 36 15 15 16 16 17 29 18 28 19 21 20 17 21 19 22
REMARK SMILES IDX 30 23 31 24 22 26 23 27 24 28 25 29 26 30 27 31 18 32 20 34
REMARK SMILES IDX 33 36 35 38 37 40 38 42 39 43 40 44 7 46 4 48 2 49 1 51 3 52
REMARK SMILES IDX 44 53 45 55 46 56 47 58 48 59 49 60 50 62 51 63 52 64 53 65
REMARK SMILES IDX 54 66 68 67 55 68 67 69 56 70 57 71 58 72 59 74 60 75 61 76
REMARK SMILES IDX 62 77 66 78 63 79 65 80 64 81
REMARK H PARENT 31 25 18 33 20 35 33 37 35 39 37 41 40 45 7 47 4 50 44 54
REMARK H PARENT 46 57 48 61 58 73
REMARK Flexibility Score: inf
ROOT
ATOM      1  C   UNL     1      17.698  31.536  19.071  1.00  0.00     0.176 C 
ENDROOT
BRANCH   1   2
ATOM      2  C   UNL     1      16.355  30.802  19.251  1.00  0.00     0.178 C 
ATOM      3  C   UNL     1      15.712  29.431  21.076  1.00  0.00     0.272 C 
ATOM      4  C   UNL     1      16.407  28.312  20.375  1.00  0.00     0.113 C 
ATOM      5  O   UNL     1      16.137  30.623  20.554  1.00  0.00    -0.332 OA
ATOM      6  C   UNL     1      16.119  28.327  18.916  1.00  0.00     0.145 C 
ATOM      7  C   UNL     1      16.305  29.676  18.290  1.00  0.00     0.142 C 
BRANCH   3   8
ATOM      8  O   UNL     1      15.932  29.361  22.466  1.00  0.00    -0.338 OA
BRANCH   8   9
ATOM      9  C   UNL     1      16.155  30.527  23.106  1.00  0.00     0.199 C 
BRANCH   9  10
ATOM     10  C   UNL     1      17.474  30.481  23.912  1.00  0.00     0.179 C 
ATOM     11  C   UNL     1      19.685  29.974  23.853  1.00  0.00     0.282 C 
ATOM     12  O   UNL     1      18.463  29.854  23.242  1.00  0.00    -0.341 OA
ATOM     13  C   UNL     1      19.985  31.499  23.843  1.00  0.00     0.202 C 
ATOM     14  C   UNL     1      19.091  32.008  24.979  1.00  0.00     0.179 C 
ATOM     15  C   UNL     1      17.693  31.848  24.447  1.00  0.00     0.177 C 
BRANCH  11  16
ATOM     16  O   UNL     1      20.658  29.368  23.140  1.00  0.00    -0.341 OA
BRANCH  16  17
ATOM     17  C   UNL     1      21.499  28.474  23.762  1.00  0.00     0.184 C 
ATOM     18  C   UNL     1      21.165  28.235  25.196  1.00  0.00     0.178 C 
ATOM     19  O   UNL     1      22.142  28.467  26.112  1.00  0.00    -0.341 OA
ATOM     20  C   UNL     1      23.439  28.269  25.742  1.00  0.00     0.281 C 
ATOM     21  C   UNL     1      22.904  28.915  23.468  1.00  0.00     0.180 C 
ATOM     22  C   UNL     1      23.753  29.251  24.640  1.00  0.00     0.202 C 
BRANCH  18  23
ATOM     23  C   UNL     1      20.709  26.802  25.369  1.00  0.00     0.191 C 
BRANCH  23  24
ATOM     24  O   UNL     1      20.534  26.171  24.139  1.00  0.00    -0.394 OA
ATOM     25  H   UNL     1      21.347  26.403  23.596  1.00  0.00     0.210 HD
ENDBRANCH  23  24
ENDBRANCH  18  23
BRANCH  20  26
ATOM     26  O   UNL     1      23.737  26.962  25.394  1.00  0.00    -0.350 OA
BRANCH  26  27
ATOM     27  C   UNL     1      24.586  26.406  26.353  1.00  0.00     0.169 C 
BRANCH  27  28
ATOM     28  C   UNL     1      23.750  25.414  27.158  1.00  0.00     0.119 C 
BRANCH  28  29
ATOM     29  N   UNL     1      23.877  25.647  28.571  1.00  0.00    -0.092 NA
ATOM     30  N   UNL     1      25.009  25.862  29.052  1.00  0.00     0.001 N 
ATOM     31  N   UNL     1      26.145  25.787  29.556  1.00  0.00    -0.003 NA
ENDBRANCH  28  29
ENDBRANCH  27  28
ENDBRANCH  26  27
ENDBRANCH  20  26
BRANCH  21  32
ATOM     32  O   UNL     1      23.614  27.914  22.750  1.00  0.00    -0.387 OA
ATOM     33  H   UNL     1      24.574  27.918  22.965  1.00  0.00     0.211 HD
ENDBRANCH  21  32
BRANCH  22  34
ATOM     34  O   UNL     1      23.464  30.532  25.118  1.00  0.00    -0.385 OA
ATOM     35  H   UNL     1      22.504  30.673  25.249  1.00  0.00     0.211 HD
ENDBRANCH  22  34
ENDBRANCH  16  17
ENDBRANCH  11  16
BRANCH  13  36
ATOM     36  O   UNL     1      21.297  31.798  24.001  1.00  0.00    -0.385 OA
ATOM     37  H   UNL     1      21.633  32.614  23.596  1.00  0.00     0.211 HD
ENDBRANCH  13  36
BRANCH  14  38
ATOM     38  O   UNL     1      19.390  33.330  25.296  1.00  0.00    -0.387 OA
ATOM     39  H   UNL     1      18.590  33.791  25.635  1.00  0.00     0.211 HD
ENDBRANCH  14  38
BRANCH  15  40
ATOM     40  O   UNL     1      17.552  32.792  23.424  1.00  0.00    -0.387 OA
ATOM     41  H   UNL     1      18.173  33.547  23.545  1.00  0.00     0.211 HD
ENDBRANCH  15  40
ENDBRANCH   9  10
ENDBRANCH   8   9
ENDBRANCH   3   8
BRANCH   3  42
ATOM     42  C   UNL     1      14.245  29.240  20.953  1.00  0.00     0.364 C 
ATOM     43  O   UNL     1      13.724  28.200  21.446  1.00  0.00    -0.246 OA
BRANCH  42  44
ATOM     44  O   UNL     1      13.417  30.133  20.333  1.00  0.00    -0.477 OA
ATOM     45  H   UNL     1      12.961  29.876  19.470  1.00  0.00     0.296 HD
ENDBRANCH  42  44
ENDBRANCH   3  42
BRANCH   6  46
ATOM     46  O   UNL     1      16.994  27.362  18.344  1.00  0.00    -0.391 OA
ATOM     47  H   UNL     1      16.893  27.308  17.372  1.00  0.00     0.211 HD
ENDBRANCH   6  46
BRANCH   7  48
ATOM     48  N   UNL     1      15.398  29.924  17.198  1.00  0.00    -0.348 N 
ATOM     49  C   UNL     1      15.629  29.490  15.864  1.00  0.00     0.217 C 
ATOM     50  H   UNL     1      14.496  30.463  17.360  1.00  0.00     0.163 HD
ATOM     51  C   UNL     1      14.618  29.802  14.832  1.00  0.00     0.114 C 
ATOM     52  O   UNL     1      16.654  28.864  15.571  1.00  0.00    -0.275 OA
ENDBRANCH   7  48
ENDBRANCH   1   2
BRANCH   1  53
ATOM     53  O   UNL     1      18.247  31.220  17.844  1.00  0.00    -0.388 OA
ATOM     54  H   UNL     1      17.604  31.303  17.099  1.00  0.00     0.211 HD
ENDBRANCH   1  53
BRANCH   1  55
ATOM     55  C   UNL     1      18.610  31.468  20.236  1.00  0.00     0.165 C 
BRANCH  55  56
ATOM     56  O   UNL     1      18.631  32.672  20.893  1.00  0.00    -0.388 OA
ATOM     57  H   UNL     1      18.405  33.434  20.324  1.00  0.00     0.211 HD
ENDBRANCH  55  56
BRANCH  55  58
ATOM     58  C   UNL     1      19.981  31.101  19.715  1.00  0.00     0.154 C 
BRANCH  58  59
ATOM     59  N   UNL     1      20.408  29.769  19.920  1.00  0.00    -0.319 N 
ATOM     60  C   UNL     1      20.212  28.652  19.065  1.00  0.00     0.407 C 
ATOM     61  H   UNL     1      20.954  29.517  20.816  1.00  0.00     0.167 HD
ATOM     62  O   UNL     1      19.620  28.785  17.987  1.00  0.00    -0.225 OA
BRANCH  60  63
ATOM     63  O   UNL     1      20.676  27.394  19.416  1.00  0.00    -0.443 OA
BRANCH  63  64
ATOM     64  C   UNL     1      21.970  26.920  19.353  1.00  0.00     0.294 C 
BRANCH  64  65
ATOM     65  C   UNL     1      22.416  26.032  20.438  1.00  0.00     0.120 A 
ATOM     66  C   UNL     1      23.542  25.217  20.447  1.00  0.00     0.138 A 
ATOM     67  N   UNL     1      21.784  25.827  21.612  1.00  0.00    -0.132 NA
ATOM     68  N   UNL     1      23.530  24.568  21.608  1.00  0.00    -0.250 N 
ATOM     69  N   UNL     1      22.479  24.941  22.295  1.00  0.00    -0.067 NA
BRANCH  68  70
ATOM     70  C   UNL     1      24.566  23.574  21.994  1.00  0.00     0.177 C 
BRANCH  70  71
ATOM     71  C   UNL     1      25.670  24.348  22.632  1.00  0.00     0.136 C 
BRANCH  71  72
ATOM     72  O   UNL     1      25.241  25.622  23.046  1.00  0.00    -0.391 OA
ATOM     73  H   UNL     1      24.536  25.572  23.725  1.00  0.00     0.211 HD
ENDBRANCH  71  72
BRANCH  71  74
ATOM     74  C   UNL     1      26.913  24.445  21.840  1.00  0.00     0.038 C 
BRANCH  74  75
ATOM     75  C   UNL     1      27.056  23.818  20.531  1.00  0.00     0.038 C 
BRANCH  75  76
ATOM     76  C   UNL     1      27.654  22.505  20.411  1.00  0.00    -0.048 A 
ATOM     77  C   UNL     1      27.788  21.893  19.168  1.00  0.00     0.004 A 
ATOM     78  C   UNL     1      28.044  21.774  21.533  1.00  0.00     0.004 A 
ATOM     79  C   UNL     1      28.283  20.626  19.065  1.00  0.00     0.000 A 
ATOM     80  C   UNL     1      28.538  20.500  21.395  1.00  0.00     0.000 A 
ATOM     81  C   UNL     1      28.672  19.887  20.156  1.00  0.00     0.000 A 
ENDBRANCH  75  76
ENDBRANCH  74  75
ENDBRANCH  71  74
ENDBRANCH  70  71
ENDBRANCH  68  70
ENDBRANCH  64  65
ENDBRANCH  63  64
ENDBRANCH  60  63
ENDBRANCH  58  59
ENDBRANCH  55  58
ENDBRANCH   1  55
TORSDOF 35
