REMARK VINA RESULT:    -6.019      4.205     15.046
REMARK INTER + INTRA:         -21.114
REMARK INTER:                 -17.354
REMARK INTRA:                  -3.759
REMARK UNBOUND:                -6.298
REMARK SMILES CC(=O)N[C@@H]1[C@@H](O)C[C@](OC[C@H]2O[C@@H](O[C@H]3[C@H](O)[C@@H](O)[C@H](OCCN=[N+]=[N-])O[C@@H]3CO)[C@H](O)[C@@H](O)[C@H]2O)(C(=O)O)O[C@H]1C(O)[C@H](O)CNC(=O)OCc1cn(-c2c(C)cc(C)cc2C)nn1
REMARK SMILES IDX 9 1 8 2 6 3 5 4 42 5 41 6 10 7 11 8 12 9 14 10 13 11 32 12
REMARK SMILES IDX 34 13 36 14 15 15 16 16 29 17 28 18 21 19 17 20 19 21 30 22
REMARK SMILES IDX 31 23 22 25 23 26 24 27 25 28 26 29 27 30 18 31 20 33 33 35
REMARK SMILES IDX 35 37 37 39 38 41 39 42 40 43 7 45 43 47 44 48 45 50 46 51
REMARK SMILES IDX 47 53 48 54 49 55 50 57 51 58 52 59 53 60 54 61 66 62 55 63
REMARK SMILES IDX 65 64 56 65 57 66 63 67 58 68 59 69 62 70 64 71 60 72 61 73
REMARK SMILES IDX 4 74 2 75 1 77 3 78
REMARK H PARENT 31 24 18 32 20 34 33 36 35 38 37 40 40 44 7 46 44 49 46 52
REMARK H PARENT 48 56 4 76
REMARK Flexibility Score: inf
ROOT
ATOM      1  C   UNL     1      20.228  28.289  20.698  1.00  0.00     0.272 C 
ATOM      2  C   UNL     1      20.508  29.538  21.439  1.00  0.00     0.113 C 
ATOM      3  C   UNL     1      19.439  30.008  22.394  1.00  0.00     0.145 C 
ATOM      4  C   UNL     1      18.086  29.666  21.854  1.00  0.00     0.142 C 
ATOM      5  C   UNL     1      18.272  29.539  20.337  1.00  0.00     0.178 C 
ATOM      6  O   UNL     1      18.945  28.304  20.132  1.00  0.00    -0.332 OA
ENDROOT
BRANCH   1   7
ATOM      7  O   UNL     1      20.433  27.107  21.344  1.00  0.00    -0.338 OA
BRANCH   7   8
ATOM      8  C   UNL     1      21.639  26.510  21.314  1.00  0.00     0.199 C 
BRANCH   8   9
ATOM      9  C   UNL     1      22.290  26.714  22.690  1.00  0.00     0.179 C 
ATOM     10  C   UNL     1      22.865  25.402  24.492  1.00  0.00     0.282 C 
ATOM     11  O   UNL     1      21.880  25.733  23.573  1.00  0.00    -0.341 OA
ATOM     12  C   UNL     1      23.934  24.679  23.715  1.00  0.00     0.202 C 
ATOM     13  C   UNL     1      24.553  25.716  22.788  1.00  0.00     0.179 C 
ATOM     14  C   UNL     1      23.752  26.960  22.630  1.00  0.00     0.177 C 
BRANCH  10  15
ATOM     15  O   UNL     1      22.407  24.780  25.591  1.00  0.00    -0.341 OA
BRANCH  15  16
ATOM     16  C   UNL     1      22.375  25.441  26.765  1.00  0.00     0.184 C 
ATOM     17  C   UNL     1      23.103  26.766  26.619  1.00  0.00     0.178 C 
ATOM     18  O   UNL     1      24.351  26.756  27.167  1.00  0.00    -0.341 OA
ATOM     19  C   UNL     1      24.381  26.548  28.537  1.00  0.00     0.281 C 
ATOM     20  C   UNL     1      23.083  24.595  27.826  1.00  0.00     0.180 C 
ATOM     21  C   UNL     1      23.481  25.464  29.006  1.00  0.00     0.202 C 
BRANCH  17  22
ATOM     22  C   UNL     1      22.241  27.917  27.108  1.00  0.00     0.191 C 
BRANCH  22  23
ATOM     23  O   UNL     1      20.893  27.572  27.071  1.00  0.00    -0.394 OA
ATOM     24  H   UNL     1      20.285  28.337  27.189  1.00  0.00     0.210 HD
ENDBRANCH  22  23
ENDBRANCH  17  22
BRANCH  19  25
ATOM     25  O   UNL     1      24.086  27.730  29.233  1.00  0.00    -0.350 OA
BRANCH  25  26
ATOM     26  C   UNL     1      25.146  28.229  29.947  1.00  0.00     0.169 C 
BRANCH  26  27
ATOM     27  C   UNL     1      26.399  27.411  29.888  1.00  0.00     0.119 C 
BRANCH  27  28
ATOM     28  N   UNL     1      26.994  27.221  31.198  1.00  0.00    -0.092 NA
ATOM     29  N   UNL     1      27.374  26.093  31.570  1.00  0.00     0.001 N 
ATOM     30  N   UNL     1      27.739  24.921  31.722  1.00  0.00    -0.003 NA
ENDBRANCH  27  28
ENDBRANCH  26  27
ENDBRANCH  25  26
ENDBRANCH  19  25
BRANCH  20  31
ATOM     31  O   UNL     1      22.310  23.565  28.300  1.00  0.00    -0.387 OA
ATOM     32  H   UNL     1      22.376  23.408  29.277  1.00  0.00     0.211 HD
ENDBRANCH  20  31
BRANCH  21  33
ATOM     33  O   UNL     1      24.177  24.647  29.894  1.00  0.00    -0.385 OA
ATOM     34  H   UNL     1      25.014  24.297  29.479  1.00  0.00     0.211 HD
ENDBRANCH  21  33
ENDBRANCH  15  16
ENDBRANCH  10  15
BRANCH  12  35
ATOM     35  O   UNL     1      24.954  24.195  24.529  1.00  0.00    -0.385 OA
ATOM     36  H   UNL     1      24.964  24.770  25.354  1.00  0.00     0.211 HD
ENDBRANCH  12  35
BRANCH  13  37
ATOM     37  O   UNL     1      24.807  25.179  21.527  1.00  0.00    -0.387 OA
ATOM     38  H   UNL     1      24.157  25.474  20.838  1.00  0.00     0.211 HD
ENDBRANCH  13  37
BRANCH  14  39
ATOM     39  O   UNL     1      24.090  27.520  21.374  1.00  0.00    -0.387 OA
ATOM     40  H   UNL     1      23.918  28.490  21.369  1.00  0.00     0.211 HD
ENDBRANCH  14  39
ENDBRANCH   8   9
ENDBRANCH   7   8
ENDBRANCH   1   7
BRANCH   1  41
ATOM     41  C   UNL     1      21.119  28.320  19.476  1.00  0.00     0.364 C 
ATOM     42  O   UNL     1      22.171  28.966  19.522  1.00  0.00    -0.246 OA
BRANCH  41  43
ATOM     43  O   UNL     1      20.782  27.643  18.320  1.00  0.00    -0.477 OA
ATOM     44  H   UNL     1      20.752  28.052  17.403  1.00  0.00     0.296 HD
ENDBRANCH  41  43
ENDBRANCH   1  41
BRANCH   3  45
ATOM     45  O   UNL     1      19.715  29.433  23.633  1.00  0.00    -0.391 OA
ATOM     46  H   UNL     1      18.838  29.194  24.076  1.00  0.00     0.211 HD
ENDBRANCH   3  45
BRANCH   5  47
ATOM     47  C   UNL     1      17.021  29.407  19.564  1.00  0.00     0.176 C 
BRANCH  47  48
ATOM     48  O   UNL     1      16.331  30.667  19.695  1.00  0.00    -0.388 OA
ATOM     49  H   UNL     1      15.403  30.485  19.995  1.00  0.00     0.211 HD
ENDBRANCH  47  48
BRANCH  47  50
ATOM     50  C   UNL     1      15.979  28.433  20.076  1.00  0.00     0.165 C 
BRANCH  50  51
ATOM     51  O   UNL     1      16.290  27.243  19.312  1.00  0.00    -0.388 OA
ATOM     52  H   UNL     1      15.698  26.520  19.596  1.00  0.00     0.211 HD
ENDBRANCH  50  51
BRANCH  50  53
ATOM     53  C   UNL     1      14.595  28.784  19.586  1.00  0.00     0.154 C 
BRANCH  53  54
ATOM     54  N   UNL     1      14.486  29.137  18.203  1.00  0.00    -0.319 N 
ATOM     55  C   UNL     1      13.810  30.340  17.834  1.00  0.00     0.407 C 
ATOM     56  H   UNL     1      14.895  28.516  17.449  1.00  0.00     0.167 HD
ATOM     57  O   UNL     1      13.330  31.029  18.776  1.00  0.00    -0.225 OA
BRANCH  55  58
ATOM     58  O   UNL     1      13.678  30.748  16.512  1.00  0.00    -0.443 OA
BRANCH  58  59
ATOM     59  C   UNL     1      14.015  29.913  15.431  1.00  0.00     0.294 C 
BRANCH  59  60
ATOM     60  C   UNL     1      13.029  29.944  14.317  1.00  0.00     0.121 A 
ATOM     61  C   UNL     1      11.997  29.069  14.063  1.00  0.00     0.144 A 
ATOM     62  N   UNL     1      12.965  30.869  13.316  1.00  0.00    -0.131 NA
ATOM     63  N   UNL     1      11.351  29.464  12.954  1.00  0.00    -0.220 N 
ATOM     64  N   UNL     1      11.977  30.564  12.537  1.00  0.00    -0.062 NA
BRANCH  63  65
ATOM     65  C   UNL     1      10.217  28.854  12.307  1.00  0.00     0.072 A 
ATOM     66  C   UNL     1      10.485  27.971  11.291  1.00  0.00    -0.025 A 
ATOM     67  C   UNL     1       8.963  29.162  12.704  1.00  0.00    -0.025 A 
ATOM     68  C   UNL     1      11.896  27.656  10.879  1.00  0.00     0.047 C 
ATOM     69  C   UNL     1       9.411  27.378  10.656  1.00  0.00     0.009 A 
ATOM     70  C   UNL     1       7.908  28.537  12.030  1.00  0.00     0.009 A 
ATOM     71  C   UNL     1       8.636  30.110  13.800  1.00  0.00     0.047 C 
ATOM     72  C   UNL     1       8.112  27.644  11.007  1.00  0.00    -0.050 A 
ATOM     73  C   UNL     1       7.003  26.972  10.286  1.00  0.00     0.044 C 
ENDBRANCH  63  65
ENDBRANCH  59  60
ENDBRANCH  58  59
ENDBRANCH  55  58
ENDBRANCH  53  54
ENDBRANCH  50  53
ENDBRANCH  47  50
ENDBRANCH   5  47
BRANCH   4  74
ATOM     74  N   UNL     1      17.029  30.502  22.228  1.00  0.00    -0.348 N 
ATOM     75  C   UNL     1      16.264  30.319  23.416  1.00  0.00     0.217 C 
ATOM     76  H   UNL     1      16.780  31.318  21.640  1.00  0.00     0.163 HD
ATOM     77  C   UNL     1      15.141  31.233  23.787  1.00  0.00     0.114 C 
ATOM     78  O   UNL     1      16.565  29.362  24.149  1.00  0.00    -0.275 OA
ENDBRANCH   4  74
TORSDOF 30
