REMARK VINA RESULT:    -6.012      3.505     10.271
REMARK INTER + INTRA:         -22.187
REMARK INTER:                 -13.585
REMARK INTRA:                  -8.602
REMARK UNBOUND:                -7.387
REMARK SMILES CC(=O)N[C@@H]1[C@@H](O)C[C@](OC[C@H]2O[C@@H](O[C@H]3[C@H](O)[C@@H](O)[C@H](OCCN=[N+]=[N-])O[C@@H]3CO)[C@H](O)[C@@H](O)[C@H]2O)(C(=O)O)O[C@H]1C(O)[C@H](O)CNC(=O)OCc1cn(C23CC4CC(CC(C4)C2)C3)nn1
REMARK SMILES IDX 9 1 8 2 6 3 5 4 42 5 41 6 10 7 11 8 12 9 14 10 13 11 32 12
REMARK SMILES IDX 34 13 36 14 15 15 16 16 29 17 28 18 21 19 17 20 19 21 30 22
REMARK SMILES IDX 31 23 22 25 23 26 24 27 25 28 26 29 27 30 18 31 20 33 33 35
REMARK SMILES IDX 35 37 37 39 38 41 39 42 40 43 7 45 43 47 44 48 45 50 46 51
REMARK SMILES IDX 47 53 48 54 49 55 50 57 51 58 52 59 53 60 54 61 67 62 55 63
REMARK SMILES IDX 66 64 56 65 65 66 64 67 57 68 60 69 62 70 58 71 59 72 61 73
REMARK SMILES IDX 63 74 4 75 2 76 1 78 3 79
REMARK H PARENT 31 24 18 32 20 34 33 36 35 38 37 40 40 44 7 46 44 49 46 52
REMARK H PARENT 48 56 4 77
REMARK Flexibility Score: inf
ROOT
ATOM      1  C   UNL     1      13.385  31.121  24.297  1.00  0.00     0.272 C 
ATOM      2  C   UNL     1      12.584  31.983  25.211  1.00  0.00     0.113 C 
ATOM      3  C   UNL     1      13.425  33.125  25.744  1.00  0.00     0.145 C 
ATOM      4  C   UNL     1      14.368  32.480  26.769  1.00  0.00     0.142 C 
ATOM      5  C   UNL     1      14.906  31.252  26.098  1.00  0.00     0.178 C 
ATOM      6  O   UNL     1      14.756  31.209  24.735  1.00  0.00    -0.332 OA
ENDROOT
BRANCH   1   7
ATOM      7  O   UNL     1      13.435  31.457  23.015  1.00  0.00    -0.338 OA
BRANCH   7   8
ATOM      8  C   UNL     1      14.410  31.973  22.312  1.00  0.00     0.199 C 
BRANCH   8   9
ATOM      9  C   UNL     1      15.163  31.232  21.258  1.00  0.00     0.179 C 
ATOM     10  C   UNL     1      16.502  29.492  20.781  1.00  0.00     0.282 C 
ATOM     11  O   UNL     1      15.823  30.099  21.857  1.00  0.00    -0.341 OA
ATOM     12  C   UNL     1      15.531  28.526  20.185  1.00  0.00     0.202 C 
ATOM     13  C   UNL     1      14.157  29.166  20.249  1.00  0.00     0.179 C 
ATOM     14  C   UNL     1      14.240  30.672  20.180  1.00  0.00     0.177 C 
BRANCH  10  15
ATOM     15  O   UNL     1      17.699  28.925  21.203  1.00  0.00    -0.341 OA
BRANCH  15  16
ATOM     16  C   UNL     1      18.663  29.888  21.269  1.00  0.00     0.184 C 
ATOM     17  C   UNL     1      19.737  29.853  20.244  1.00  0.00     0.178 C 
ATOM     18  O   UNL     1      20.321  31.140  20.247  1.00  0.00    -0.341 OA
ATOM     19  C   UNL     1      21.083  31.342  21.422  1.00  0.00     0.281 C 
ATOM     20  C   UNL     1      19.394  29.879  22.616  1.00  0.00     0.180 C 
ATOM     21  C   UNL     1      20.284  31.073  22.653  1.00  0.00     0.202 C 
BRANCH  17  22
ATOM     22  C   UNL     1      19.345  29.437  18.876  1.00  0.00     0.191 C 
BRANCH  22  23
ATOM     23  O   UNL     1      19.055  28.064  18.917  1.00  0.00    -0.394 OA
ATOM     24  H   UNL     1      18.353  27.820  18.260  1.00  0.00     0.210 HD
ENDBRANCH  22  23
ENDBRANCH  17  22
BRANCH  19  25
ATOM     25  O   UNL     1      21.420  32.676  21.398  1.00  0.00    -0.350 OA
BRANCH  25  26
ATOM     26  C   UNL     1      20.677  33.481  20.615  1.00  0.00     0.169 C 
BRANCH  26  27
ATOM     27  C   UNL     1      19.890  34.488  21.392  1.00  0.00     0.119 C 
BRANCH  27  28
ATOM     28  N   UNL     1      18.652  34.828  20.681  1.00  0.00    -0.092 NA
ATOM     29  N   UNL     1      18.140  35.912  20.929  1.00  0.00     0.001 N 
ATOM     30  N   UNL     1      17.349  36.830  21.233  1.00  0.00    -0.003 NA
ENDBRANCH  27  28
ENDBRANCH  26  27
ENDBRANCH  25  26
ENDBRANCH  19  25
BRANCH  20  31
ATOM     31  O   UNL     1      18.498  29.955  23.681  1.00  0.00    -0.387 OA
ATOM     32  H   UNL     1      17.581  29.921  23.328  1.00  0.00     0.211 HD
ENDBRANCH  20  31
BRANCH  21  33
ATOM     33  O   UNL     1      21.153  30.901  23.729  1.00  0.00    -0.385 OA
ATOM     34  H   UNL     1      20.660  30.673  24.541  1.00  0.00     0.211 HD
ENDBRANCH  21  33
ENDBRANCH  15  16
ENDBRANCH  10  15
BRANCH  12  35
ATOM     35  O   UNL     1      15.834  28.079  18.924  1.00  0.00    -0.385 OA
ATOM     36  H   UNL     1      15.009  27.933  18.403  1.00  0.00     0.211 HD
ENDBRANCH  12  35
BRANCH  13  37
ATOM     37  O   UNL     1      13.424  28.747  21.352  1.00  0.00    -0.387 OA
ATOM     38  H   UNL     1      13.965  28.063  21.862  1.00  0.00     0.211 HD
ENDBRANCH  13  37
BRANCH  14  39
ATOM     39  O   UNL     1      12.969  31.180  20.409  1.00  0.00    -0.387 OA
ATOM     40  H   UNL     1      12.438  30.588  21.004  1.00  0.00     0.211 HD
ENDBRANCH  14  39
ENDBRANCH   8   9
ENDBRANCH   7   8
ENDBRANCH   1   7
BRANCH   1  41
ATOM     41  C   UNL     1      13.077  29.702  24.544  1.00  0.00     0.364 C 
ATOM     42  O   UNL     1      12.087  29.259  25.139  1.00  0.00    -0.246 OA
BRANCH  41  43
ATOM     43  O   UNL     1      14.038  28.781  24.034  1.00  0.00    -0.477 OA
ATOM     44  H   UNL     1      14.875  28.635  24.556  1.00  0.00     0.296 HD
ENDBRANCH  41  43
ENDBRANCH   1  41
BRANCH   3  45
ATOM     45  O   UNL     1      14.215  33.633  24.722  1.00  0.00    -0.391 OA
ATOM     46  H   UNL     1      14.445  32.875  24.126  1.00  0.00     0.211 HD
ENDBRANCH   3  45
BRANCH   5  47
ATOM     47  C   UNL     1      16.468  31.156  26.289  1.00  0.00     0.176 C 
BRANCH  47  48
ATOM     48  O   UNL     1      16.551  31.007  27.690  1.00  0.00    -0.388 OA
ATOM     49  H   UNL     1      17.487  31.230  27.919  1.00  0.00     0.211 HD
ENDBRANCH  47  48
BRANCH  47  50
ATOM     50  C   UNL     1      17.105  32.406  25.881  1.00  0.00     0.165 C 
BRANCH  50  51
ATOM     51  O   UNL     1      17.133  32.649  24.495  1.00  0.00    -0.388 OA
ATOM     52  H   UNL     1      16.741  33.555  24.317  1.00  0.00     0.211 HD
ENDBRANCH  50  51
BRANCH  50  53
ATOM     53  C   UNL     1      18.437  32.724  26.444  1.00  0.00     0.154 C 
BRANCH  53  54
ATOM     54  N   UNL     1      19.462  31.803  26.114  1.00  0.00    -0.319 N 
ATOM     55  C   UNL     1      19.938  30.727  26.876  1.00  0.00     0.407 C 
ATOM     56  H   UNL     1      19.935  31.966  25.138  1.00  0.00     0.167 HD
ATOM     57  O   UNL     1      19.475  30.483  28.001  1.00  0.00    -0.225 OA
BRANCH  55  58
ATOM     58  O   UNL     1      20.966  29.917  26.333  1.00  0.00    -0.443 OA
BRANCH  58  59
ATOM     59  C   UNL     1      21.105  28.611  26.833  1.00  0.00     0.294 C 
BRANCH  59  60
ATOM     60  C   UNL     1      21.206  27.662  25.714  1.00  0.00     0.120 A 
ATOM     61  C   UNL     1      22.366  27.304  25.077  1.00  0.00     0.138 A 
ATOM     62  N   UNL     1      20.217  26.976  25.111  1.00  0.00    -0.132 NA
ATOM     63  N   UNL     1      22.048  26.425  24.123  1.00  0.00    -0.246 N 
ATOM     64  N   UNL     1      20.743  26.246  24.167  1.00  0.00    -0.066 NA
BRANCH  63  65
ATOM     65  C   UNL     1      23.025  25.821  23.239  1.00  0.00     0.065 C 
ATOM     66  C   UNL     1      23.460  26.842  22.235  1.00  0.00     0.034 C 
ATOM     67  C   UNL     1      24.174  25.250  24.046  1.00  0.00     0.034 C 
ATOM     68  C   UNL     1      22.389  24.664  22.490  1.00  0.00     0.034 C 
ATOM     69  C   UNL     1      24.505  26.265  21.314  1.00  0.00    -0.008 C 
ATOM     70  C   UNL     1      25.229  24.741  23.109  1.00  0.00    -0.008 C 
ATOM     71  C   UNL     1      23.447  24.070  21.590  1.00  0.00    -0.008 C 
ATOM     72  C   UNL     1      23.912  25.085  20.584  1.00  0.00     0.007 C 
ATOM     73  C   UNL     1      25.671  25.814  22.162  1.00  0.00     0.007 C 
ATOM     74  C   UNL     1      24.642  23.563  22.346  1.00  0.00     0.007 C 
ENDBRANCH  63  65
ENDBRANCH  59  60
ENDBRANCH  58  59
ENDBRANCH  55  58
ENDBRANCH  53  54
ENDBRANCH  50  53
ENDBRANCH  47  50
ENDBRANCH   5  47
BRANCH   4  75
ATOM     75  N   UNL     1      13.566  32.104  27.939  1.00  0.00    -0.348 N 
ATOM     76  C   UNL     1      13.993  32.420  29.258  1.00  0.00     0.217 C 
ATOM     77  H   UNL     1      12.660  31.587  27.813  1.00  0.00     0.163 HD
ATOM     78  C   UNL     1      13.158  32.018  30.448  1.00  0.00     0.114 C 
ATOM     79  O   UNL     1      15.072  33.035  29.400  1.00  0.00    -0.275 OA
ENDBRANCH   4  75
TORSDOF 30
