REMARK VINA RESULT:    -5.346      6.213     10.941
REMARK INTER + INTRA:         -21.419
REMARK INTER:                 -14.433
REMARK INTRA:                  -6.986
REMARK UNBOUND:                -7.010
REMARK SMILES CC(=O)N[C@@H]1[C@@H](O)C[C@](OC[C@H]2O[C@@H](O[C@H]3[C@H](O)[C@@H](O)[C@H](OCCN=[N+]=[N-])O[C@@H]3CO)[C@H](O)[C@@H](O)[C@H]2O)(C(=O)O)O[C@H]1C(O)[C@H](O)CNC(=O)OCc1cn([C@@H](CC(=O)O)C(=O)O)nn1
REMARK SMILES IDX 43 1 42 2 9 3 8 4 41 5 6 6 5 7 10 8 11 9 12 10 14 11 13 12
REMARK SMILES IDX 32 13 34 14 36 15 15 16 16 17 29 18 28 19 21 20 17 21 19 22
REMARK SMILES IDX 30 23 31 24 22 26 23 27 24 28 25 29 26 30 27 31 18 32 20 34
REMARK SMILES IDX 33 36 35 38 37 40 38 42 39 43 40 44 7 46 4 48 2 49 1 51 3 52
REMARK SMILES IDX 44 53 45 55 46 56 47 58 48 59 49 60 50 62 51 63 52 64 53 65
REMARK SMILES IDX 54 66 65 67 55 68 64 69 56 70 57 71 58 72 59 73 60 74 61 76
REMARK SMILES IDX 62 77 63 78
REMARK H PARENT 31 25 18 33 20 35 33 37 35 39 37 41 40 45 7 47 4 50 44 54
REMARK H PARENT 46 57 48 61 60 75 63 79
REMARK Flexibility Score: inf
ROOT
ATOM      1  C   UNL     1      22.946  19.948  13.521  1.00  0.00     0.176 C 
ENDROOT
BRANCH   1   2
ATOM      2  C   UNL     1      23.563  21.332  13.433  1.00  0.00     0.178 C 
ATOM      3  C   UNL     1      25.058  22.735  14.585  1.00  0.00     0.272 C 
ATOM      4  C   UNL     1      24.294  23.701  13.670  1.00  0.00     0.113 C 
ATOM      5  O   UNL     1      24.335  21.522  14.538  1.00  0.00    -0.332 OA
ATOM      6  C   UNL     1      22.828  23.542  14.049  1.00  0.00     0.145 C 
ATOM      7  C   UNL     1      22.399  22.291  13.264  1.00  0.00     0.142 C 
BRANCH   3   8
ATOM      8  O   UNL     1      25.155  23.182  15.750  1.00  0.00    -0.338 OA
BRANCH   8   9
ATOM      9  C   UNL     1      25.247  23.637  16.905  1.00  0.00     0.199 C 
BRANCH   9  10
ATOM     10  C   UNL     1      26.086  24.898  17.108  1.00  0.00     0.179 C 
ATOM     11  C   UNL     1      26.227  25.046  19.400  1.00  0.00     0.282 C 
ATOM     12  O   UNL     1      25.815  25.609  18.227  1.00  0.00    -0.341 OA
ATOM     13  C   UNL     1      27.671  24.727  19.411  1.00  0.00     0.202 C 
ATOM     14  C   UNL     1      28.257  25.353  18.136  1.00  0.00     0.179 C 
ATOM     15  C   UNL     1      27.568  24.626  16.997  1.00  0.00     0.177 C 
BRANCH  11  16
ATOM     16  O   UNL     1      25.378  24.099  19.950  1.00  0.00    -0.341 OA
BRANCH  16  17
ATOM     17  C   UNL     1      24.673  24.554  21.041  1.00  0.00     0.184 C 
ATOM     18  C   UNL     1      23.865  25.761  20.724  1.00  0.00     0.178 C 
ATOM     19  O   UNL     1      23.116  26.172  21.820  1.00  0.00    -0.341 OA
ATOM     20  C   UNL     1      23.777  26.029  23.044  1.00  0.00     0.281 C 
ATOM     21  C   UNL     1      25.716  24.902  22.099  1.00  0.00     0.180 C 
ATOM     22  C   UNL     1      25.284  26.130  22.834  1.00  0.00     0.202 C 
BRANCH  18  23
ATOM     23  C   UNL     1      22.846  25.364  19.657  1.00  0.00     0.191 C 
BRANCH  23  24
ATOM     24  O   UNL     1      22.413  24.048  19.920  1.00  0.00    -0.394 OA
ATOM     25  H   UNL     1      23.076  23.693  20.584  1.00  0.00     0.210 HD
ENDBRANCH  23  24
ENDBRANCH  18  23
BRANCH  20  26
ATOM     26  O   UNL     1      23.507  24.757  23.516  1.00  0.00    -0.350 OA
BRANCH  26  27
ATOM     27  C   UNL     1      22.323  24.580  24.163  1.00  0.00     0.169 C 
BRANCH  27  28
ATOM     28  C   UNL     1      22.432  24.990  25.600  1.00  0.00     0.119 C 
BRANCH  28  29
ATOM     29  N   UNL     1      23.685  24.452  26.133  1.00  0.00    -0.092 NA
ATOM     30  N   UNL     1      24.381  25.204  26.844  1.00  0.00     0.001 N 
ATOM     31  N   UNL     1      25.425  25.776  27.210  1.00  0.00    -0.003 NA
ENDBRANCH  28  29
ENDBRANCH  27  28
ENDBRANCH  26  27
ENDBRANCH  20  26
BRANCH  21  32
ATOM     32  O   UNL     1      25.854  23.844  22.990  1.00  0.00    -0.387 OA
ATOM     33  H   UNL     1      26.269  24.163  23.843  1.00  0.00     0.211 HD
ENDBRANCH  21  32
BRANCH  22  34
ATOM     34  O   UNL     1      25.613  27.323  22.189  1.00  0.00    -0.385 OA
ATOM     35  H   UNL     1      25.257  28.045  22.798  1.00  0.00     0.211 HD
ENDBRANCH  22  34
ENDBRANCH  16  17
ENDBRANCH  11  16
BRANCH  13  36
ATOM     36  O   UNL     1      28.370  25.315  20.467  1.00  0.00    -0.385 OA
ATOM     37  H   UNL     1      28.423  24.638  21.203  1.00  0.00     0.211 HD
ENDBRANCH  13  36
BRANCH  14  38
ATOM     38  O   UNL     1      29.623  25.242  18.064  1.00  0.00    -0.387 OA
ATOM     39  H   UNL     1      29.964  25.379  17.136  1.00  0.00     0.211 HD
ENDBRANCH  14  38
BRANCH  15  40
ATOM     40  O   UNL     1      27.864  23.283  17.070  1.00  0.00    -0.387 OA
ATOM     41  H   UNL     1      28.766  23.084  17.372  1.00  0.00     0.211 HD
ENDBRANCH  15  40
ENDBRANCH   9  10
ENDBRANCH   8   9
ENDBRANCH   3   8
BRANCH   3  42
ATOM     42  C   UNL     1      26.371  22.501  13.842  1.00  0.00     0.364 C 
ATOM     43  O   UNL     1      26.439  22.727  12.625  1.00  0.00    -0.246 OA
BRANCH  42  44
ATOM     44  O   UNL     1      27.493  22.038  14.502  1.00  0.00    -0.477 OA
ATOM     45  H   UNL     1      27.830  21.071  14.404  1.00  0.00     0.296 HD
ENDBRANCH  42  44
ENDBRANCH   3  42
BRANCH   6  46
ATOM     46  O   UNL     1      22.725  23.126  15.394  1.00  0.00    -0.391 OA
ATOM     47  H   UNL     1      21.917  23.448  15.827  1.00  0.00     0.211 HD
ENDBRANCH   6  46
BRANCH   7  48
ATOM     48  N   UNL     1      22.203  22.724  11.901  1.00  0.00    -0.348 N 
ATOM     49  C   UNL     1      21.115  22.207  11.133  1.00  0.00     0.217 C 
ATOM     50  H   UNL     1      22.831  23.413  11.427  1.00  0.00     0.163 HD
ATOM     51  C   UNL     1      20.968  22.694   9.720  1.00  0.00     0.114 C 
ATOM     52  O   UNL     1      20.301  21.372  11.610  1.00  0.00    -0.275 OA
ENDBRANCH   7  48
ENDBRANCH   1   2
BRANCH   1  53
ATOM     53  O   UNL     1      23.065  19.413  14.799  1.00  0.00    -0.388 OA
ATOM     54  H   UNL     1      22.190  19.406  15.282  1.00  0.00     0.211 HD
ENDBRANCH   1  53
BRANCH   1  55
ATOM     55  C   UNL     1      23.395  18.974  12.498  1.00  0.00     0.165 C 
BRANCH  55  56
ATOM     56  O   UNL     1      22.733  17.767  12.474  1.00  0.00    -0.388 OA
ATOM     57  H   UNL     1      21.936  17.747  11.881  1.00  0.00     0.211 HD
ENDBRANCH  55  56
BRANCH  55  58
ATOM     58  C   UNL     1      24.881  18.859  12.468  1.00  0.00     0.154 C 
BRANCH  58  59
ATOM     59  N   UNL     1      25.505  18.383  13.663  1.00  0.00    -0.319 N 
ATOM     60  C   UNL     1      26.868  18.681  13.903  1.00  0.00     0.407 C 
ATOM     61  H   UNL     1      24.986  17.830  14.357  1.00  0.00     0.167 HD
ATOM     62  O   UNL     1      27.488  19.386  13.033  1.00  0.00    -0.225 OA
BRANCH  60  63
ATOM     63  O   UNL     1      27.610  18.275  14.998  1.00  0.00    -0.443 OA
BRANCH  63  64
ATOM     64  C   UNL     1      28.845  18.943  15.304  1.00  0.00     0.294 C 
BRANCH  64  65
ATOM     65  C   UNL     1      28.737  19.538  16.657  1.00  0.00     0.120 A 
ATOM     66  C   UNL     1      29.549  19.387  17.759  1.00  0.00     0.139 A 
ATOM     67  N   UNL     1      27.735  20.379  17.078  1.00  0.00    -0.132 NA
ATOM     68  N   UNL     1      29.033  20.118  18.790  1.00  0.00    -0.237 N 
ATOM     69  N   UNL     1      27.958  20.685  18.327  1.00  0.00    -0.066 NA
BRANCH  68  70
ATOM     70  C   UNL     1      29.576  20.218  20.126  1.00  0.00     0.229 C 
BRANCH  70  71
ATOM     71  C   UNL     1      29.501  21.671  20.559  1.00  0.00     0.161 C 
BRANCH  71  72
ATOM     72  C   UNL     1      30.787  22.365  20.355  1.00  0.00     0.306 C 
ATOM     73  O   UNL     1      30.832  23.608  20.171  1.00  0.00    -0.252 OA
BRANCH  72  74
ATOM     74  O   UNL     1      31.969  21.659  20.361  1.00  0.00    -0.481 OA
ATOM     75  H   UNL     1      32.140  20.991  21.122  1.00  0.00     0.296 HD
ENDBRANCH  72  74
ENDBRANCH  71  72
ENDBRANCH  70  71
BRANCH  70  76
ATOM     76  C   UNL     1      28.766  19.390  21.037  1.00  0.00     0.329 C 
ATOM     77  O   UNL     1      28.702  18.155  20.840  1.00  0.00    -0.250 OA
BRANCH  76  78
ATOM     78  O   UNL     1      28.064  19.915  22.114  1.00  0.00    -0.480 OA
ATOM     79  H   UNL     1      27.998  20.925  22.199  1.00  0.00     0.296 HD
ENDBRANCH  76  78
ENDBRANCH  70  76
ENDBRANCH  68  70
ENDBRANCH  64  65
ENDBRANCH  63  64
ENDBRANCH  60  63
ENDBRANCH  58  59
ENDBRANCH  55  58
ENDBRANCH   1  55
TORSDOF 35
