REMARK VINA RESULT:    -4.553      4.019      9.160
REMARK INTER + INTRA:         -20.597
REMARK INTER:                 -13.441
REMARK INTRA:                  -7.156
REMARK UNBOUND:                -9.390
REMARK SMILES CC(=O)N[C@@H]1[C@@H](O)C[C@](OC[C@H]2O[C@@H](O[C@H]3[C@H](O)[C@@H](O)[C@H](OCCN=[N+]=[N-])O[C@@H]3CO)[C@H](O)[C@@H](O)[C@H]2O)(C(=O)O)O[C@H]1C(O)[C@H](O)CNC(=O)OCc1cn(-c2ccncc2)nn1
REMARK SMILES IDX 9 1 8 2 6 3 5 4 42 5 41 6 10 7 11 8 12 9 14 10 13 11 32 12
REMARK SMILES IDX 34 13 36 14 15 15 16 16 29 17 28 18 21 19 17 20 19 21 30 22
REMARK SMILES IDX 31 23 22 25 23 26 24 27 25 28 26 29 27 30 18 31 20 33 33 35
REMARK SMILES IDX 35 37 37 39 38 41 39 42 40 43 7 45 43 47 44 48 45 50 46 51
REMARK SMILES IDX 47 53 48 54 49 55 50 57 51 58 52 59 53 60 54 61 63 62 55 63
REMARK SMILES IDX 62 64 56 65 57 66 61 67 58 68 60 69 59 70 4 71 2 72 1 74
REMARK SMILES IDX 3 75
REMARK H PARENT 31 24 18 32 20 34 33 36 35 38 37 40 40 44 7 46 44 49 46 52
REMARK H PARENT 48 56 4 73
REMARK Flexibility Score: inf
ROOT
ATOM      1  C   UNL     1      23.331  24.548  22.255  1.00  0.00     0.272 C 
ATOM      2  C   UNL     1      24.425  23.507  21.937  1.00  0.00     0.113 C 
ATOM      3  C   UNL     1      25.813  24.117  22.158  1.00  0.00     0.145 C 
ATOM      4  C   UNL     1      25.988  25.192  21.031  1.00  0.00     0.142 C 
ATOM      5  C   UNL     1      24.771  26.066  21.113  1.00  0.00     0.178 C 
ATOM      6  O   UNL     1      24.068  25.748  22.267  1.00  0.00    -0.332 OA
ENDROOT
BRANCH   1   7
ATOM      7  O   UNL     1      22.891  24.398  23.488  1.00  0.00    -0.338 OA
BRANCH   7   8
ATOM      8  C   UNL     1      23.124  24.688  24.691  1.00  0.00     0.199 C 
BRANCH   8   9
ATOM      9  C   UNL     1      22.157  25.488  25.510  1.00  0.00     0.179 C 
ATOM     10  C   UNL     1      22.302  27.031  27.275  1.00  0.00     0.282 C 
ATOM     11  O   UNL     1      22.996  26.218  26.410  1.00  0.00    -0.341 OA
ATOM     12  C   UNL     1      21.566  28.103  26.534  1.00  0.00     0.202 C 
ATOM     13  C   UNL     1      20.675  27.466  25.465  1.00  0.00     0.179 C 
ATOM     14  C   UNL     1      21.531  26.569  24.622  1.00  0.00     0.177 C 
BRANCH  10  15
ATOM     15  O   UNL     1      23.321  27.615  28.072  1.00  0.00    -0.341 OA
BRANCH  15  16
ATOM     16  C   UNL     1      24.515  26.987  27.965  1.00  0.00     0.184 C 
ATOM     17  C   UNL     1      25.130  26.615  29.254  1.00  0.00     0.178 C 
ATOM     18  O   UNL     1      26.307  25.869  29.037  1.00  0.00    -0.341 OA
ATOM     19  C   UNL     1      27.257  26.907  28.703  1.00  0.00     0.281 C 
ATOM     20  C   UNL     1      25.492  27.954  27.226  1.00  0.00     0.180 C 
ATOM     21  C   UNL     1      26.894  27.385  27.347  1.00  0.00     0.202 C 
BRANCH  17  22
ATOM     22  C   UNL     1      24.225  25.861  30.152  1.00  0.00     0.191 C 
BRANCH  22  23
ATOM     23  O   UNL     1      24.834  24.717  30.692  1.00  0.00    -0.394 OA
ATOM     24  H   UNL     1      24.205  24.365  31.389  1.00  0.00     0.210 HD
ENDBRANCH  22  23
ENDBRANCH  17  22
BRANCH  19  25
ATOM     25  O   UNL     1      28.472  26.278  28.713  1.00  0.00    -0.350 OA
BRANCH  25  26
ATOM     26  C   UNL     1      28.621  25.415  29.755  1.00  0.00     0.169 C 
BRANCH  26  27
ATOM     27  C   UNL     1      29.704  25.730  30.735  1.00  0.00     0.119 C 
BRANCH  27  28
ATOM     28  N   UNL     1      29.195  26.195  32.010  1.00  0.00    -0.092 NA
ATOM     29  N   UNL     1      28.080  25.937  32.441  1.00  0.00     0.001 N 
ATOM     30  N   UNL     1      26.868  25.850  32.663  1.00  0.00    -0.003 NA
ENDBRANCH  27  28
ENDBRANCH  26  27
ENDBRANCH  25  26
ENDBRANCH  19  25
BRANCH  20  31
ATOM     31  O   UNL     1      25.125  27.932  25.902  1.00  0.00    -0.387 OA
ATOM     32  H   UNL     1      24.135  28.098  25.792  1.00  0.00     0.211 HD
ENDBRANCH  20  31
BRANCH  21  33
ATOM     33  O   UNL     1      27.825  28.310  26.901  1.00  0.00    -0.385 OA
ATOM     34  H   UNL     1      27.438  29.220  26.981  1.00  0.00     0.211 HD
ENDBRANCH  21  33
ENDBRANCH  15  16
ENDBRANCH  10  15
BRANCH  12  35
ATOM     35  O   UNL     1      20.704  28.816  27.401  1.00  0.00    -0.385 OA
ATOM     36  H   UNL     1      21.272  29.109  28.152  1.00  0.00     0.211 HD
ENDBRANCH  12  35
BRANCH  13  37
ATOM     37  O   UNL     1      20.045  28.395  24.672  1.00  0.00    -0.387 OA
ATOM     38  H   UNL     1      20.461  29.306  24.792  1.00  0.00     0.211 HD
ENDBRANCH  13  37
BRANCH  14  39
ATOM     39  O   UNL     1      22.612  27.274  24.070  1.00  0.00    -0.387 OA
ATOM     40  H   UNL     1      22.932  27.960  24.733  1.00  0.00     0.211 HD
ENDBRANCH  14  39
ENDBRANCH   8   9
ENDBRANCH   7   8
ENDBRANCH   1   7
BRANCH   1  41
ATOM     41  C   UNL     1      22.292  24.547  21.220  1.00  0.00     0.364 C 
ATOM     42  O   UNL     1      21.205  25.197  21.357  1.00  0.00    -0.246 OA
BRANCH  41  43
ATOM     43  O   UNL     1      22.405  23.855  20.038  1.00  0.00    -0.477 OA
ATOM     44  H   UNL     1      22.620  24.235  19.142  1.00  0.00     0.296 HD
ENDBRANCH  41  43
ENDBRANCH   1  41
BRANCH   3  45
ATOM     45  O   UNL     1      25.841  24.779  23.355  1.00  0.00    -0.391 OA
ATOM     46  H   UNL     1      25.601  25.722  23.267  1.00  0.00     0.211 HD
ENDBRANCH   3  45
BRANCH   5  47
ATOM     47  C   UNL     1      25.100  27.548  21.336  1.00  0.00     0.176 C 
BRANCH  47  48
ATOM     48  O   UNL     1      25.244  27.569  22.792  1.00  0.00    -0.388 OA
ATOM     49  H   UNL     1      26.149  27.182  22.989  1.00  0.00     0.211 HD
ENDBRANCH  47  48
BRANCH  47  50
ATOM     50  C   UNL     1      24.063  28.527  20.996  1.00  0.00     0.165 C 
BRANCH  50  51
ATOM     51  O   UNL     1      22.842  28.428  21.619  1.00  0.00    -0.388 OA
ATOM     52  H   UNL     1      22.318  29.267  21.527  1.00  0.00     0.211 HD
ENDBRANCH  50  51
BRANCH  50  53
ATOM     53  C   UNL     1      24.070  29.030  19.605  1.00  0.00     0.154 C 
BRANCH  53  54
ATOM     54  N   UNL     1      23.492  28.159  18.615  1.00  0.00    -0.319 N 
ATOM     55  C   UNL     1      22.114  28.228  18.297  1.00  0.00     0.407 C 
ATOM     56  H   UNL     1      24.119  27.472  18.160  1.00  0.00     0.167 HD
ATOM     57  O   UNL     1      21.429  29.078  18.908  1.00  0.00    -0.225 OA
BRANCH  55  58
ATOM     58  O   UNL     1      21.498  27.432  17.373  1.00  0.00    -0.443 OA
BRANCH  58  59
ATOM     59  C   UNL     1      22.045  26.999  16.147  1.00  0.00     0.294 C 
BRANCH  59  60
ATOM     60  C   UNL     1      22.780  25.700  16.293  1.00  0.00     0.121 A 
ATOM     61  C   UNL     1      23.086  24.753  15.341  1.00  0.00     0.144 A 
ATOM     62  N   UNL     1      23.288  25.217  17.452  1.00  0.00    -0.131 NA
ATOM     63  N   UNL     1      23.755  23.745  15.930  1.00  0.00    -0.220 N 
ATOM     64  N   UNL     1      23.867  24.052  17.223  1.00  0.00    -0.062 NA
BRANCH  63  65
ATOM     65  C   UNL     1      24.238  22.583  15.271  1.00  0.00     0.069 A 
ATOM     66  C   UNL     1      25.573  22.268  15.135  1.00  0.00     0.048 A 
ATOM     67  C   UNL     1      23.314  21.712  14.738  1.00  0.00     0.048 A 
ATOM     68  C   UNL     1      26.000  21.120  14.488  1.00  0.00     0.113 A 
ATOM     69  C   UNL     1      23.750  20.566  14.093  1.00  0.00     0.113 A 
ATOM     70  N   UNL     1      25.056  20.293  13.981  1.00  0.00    -0.265 NA
ENDBRANCH  63  65
ENDBRANCH  59  60
ENDBRANCH  58  59
ENDBRANCH  55  58
ENDBRANCH  53  54
ENDBRANCH  50  53
ENDBRANCH  47  50
ENDBRANCH   5  47
BRANCH   4  71
ATOM     71  N   UNL     1      26.053  24.387  19.836  1.00  0.00    -0.348 N 
ATOM     72  C   UNL     1      27.225  23.783  19.333  1.00  0.00     0.217 C 
ATOM     73  H   UNL     1      25.183  24.231  19.293  1.00  0.00     0.163 HD
ATOM     74  C   UNL     1      27.169  22.982  18.100  1.00  0.00     0.114 C 
ATOM     75  O   UNL     1      28.310  23.925  19.931  1.00  0.00    -0.275 OA
ENDBRANCH   4  71
TORSDOF 30
