REMARK VINA RESULT:    -6.357      0.000      0.000
REMARK INTER + INTRA:         -24.167
REMARK INTER:                 -15.131
REMARK INTRA:                  -9.037
REMARK UNBOUND:                -8.149
REMARK SMILES CC(=O)N[C@@H]1[C@@H](O)C[C@](OC[C@H]2O[C@@H](O[C@H]3[C@H](O)[C@@H](O)[C@H](OCCN=[N+]=[N-])O[C@@H]3CO)[C@H](O)[C@@H](O)[C@H]2O)(C(=O)O)O[C@H]1C(O)[C@H](O)CNC(=O)OCc1cn(Cc2ccc3c(c2)OCO3)nn1
REMARK SMILES IDX 9 1 8 2 6 3 5 4 42 5 41 6 10 7 11 8 12 9 14 10 13 11 32 12
REMARK SMILES IDX 34 13 36 14 15 15 16 16 29 17 28 18 21 19 17 20 19 21 30 22
REMARK SMILES IDX 31 23 22 25 23 26 24 27 25 28 26 29 27 30 18 31 20 33 33 35
REMARK SMILES IDX 35 37 37 39 38 41 39 42 40 43 7 45 43 47 44 48 45 50 46 51
REMARK SMILES IDX 47 53 48 54 49 55 50 57 51 58 52 59 53 60 54 61 67 62 55 63
REMARK SMILES IDX 66 64 56 65 57 66 58 67 62 68 59 69 61 70 60 71 63 72 65 73
REMARK SMILES IDX 64 74 4 75 2 76 1 78 3 79
REMARK H PARENT 31 24 18 32 20 34 33 36 35 38 37 40 40 44 7 46 44 49 46 52
REMARK H PARENT 48 56 4 77
REMARK Flexibility Score: inf
ROOT
ATOM      1  C   UNL     1      14.951  30.269  20.429  1.00  0.00     0.272 C 
ATOM      2  C   UNL     1      13.570  30.893  20.471  1.00  0.00     0.113 C 
ATOM      3  C   UNL     1      13.525  31.931  21.552  1.00  0.00     0.145 C 
ATOM      4  C   UNL     1      13.770  31.176  22.885  1.00  0.00     0.142 C 
ATOM      5  C   UNL     1      15.042  30.422  22.737  1.00  0.00     0.178 C 
ATOM      6  O   UNL     1      15.697  30.628  21.525  1.00  0.00    -0.332 OA
ENDROOT
BRANCH   1   7
ATOM      7  O   UNL     1      15.604  30.598  19.231  1.00  0.00    -0.338 OA
BRANCH   7   8
ATOM      8  C   UNL     1      16.643  31.462  19.316  1.00  0.00     0.199 C 
BRANCH   8   9
ATOM      9  C   UNL     1      17.890  30.786  18.725  1.00  0.00     0.179 C 
ATOM     10  C   UNL     1      19.232  28.928  18.922  1.00  0.00     0.282 C 
ATOM     11  O   UNL     1      18.249  29.724  19.510  1.00  0.00    -0.341 OA
ATOM     12  C   UNL     1      18.627  28.260  17.684  1.00  0.00     0.202 C 
ATOM     13  C   UNL     1      17.561  29.059  17.027  1.00  0.00     0.179 C 
ATOM     14  C   UNL     1      17.748  30.518  17.270  1.00  0.00     0.177 C 
BRANCH  10  15
ATOM     15  O   UNL     1      19.575  27.949  19.767  1.00  0.00    -0.341 OA
BRANCH  15  16
ATOM     16  C   UNL     1      20.803  27.916  20.355  1.00  0.00     0.184 C 
ATOM     17  C   UNL     1      21.025  28.984  21.390  1.00  0.00     0.178 C 
ATOM     18  O   UNL     1      21.980  29.879  21.040  1.00  0.00    -0.341 OA
ATOM     19  C   UNL     1      23.274  29.355  20.840  1.00  0.00     0.281 C 
ATOM     20  C   UNL     1      21.862  27.992  19.287  1.00  0.00     0.180 C 
ATOM     21  C   UNL     1      23.209  28.119  19.971  1.00  0.00     0.202 C 
BRANCH  17  22
ATOM     22  C   UNL     1      21.382  28.330  22.701  1.00  0.00     0.191 C 
BRANCH  22  23
ATOM     23  O   UNL     1      20.266  28.339  23.579  1.00  0.00    -0.394 OA
ATOM     24  H   UNL     1      19.922  27.434  23.755  1.00  0.00     0.210 HD
ENDBRANCH  22  23
ENDBRANCH  17  22
BRANCH  19  25
ATOM     25  O   UNL     1      23.935  29.193  22.016  1.00  0.00    -0.350 OA
BRANCH  25  26
ATOM     26  C   UNL     1      25.210  29.528  22.199  1.00  0.00     0.169 C 
BRANCH  26  27
ATOM     27  C   UNL     1      26.120  28.459  22.717  1.00  0.00     0.119 C 
BRANCH  27  28
ATOM     28  N   UNL     1      25.960  27.167  22.151  1.00  0.00    -0.092 NA
ATOM     29  N   UNL     1      26.478  26.800  21.100  1.00  0.00     0.001 N 
ATOM     30  N   UNL     1      26.720  26.740  19.882  1.00  0.00    -0.003 NA
ENDBRANCH  27  28
ENDBRANCH  26  27
ENDBRANCH  25  26
ENDBRANCH  19  25
BRANCH  20  31
ATOM     31  O   UNL     1      21.836  26.799  18.570  1.00  0.00    -0.387 OA
ATOM     32  H   UNL     1      21.785  26.962  17.592  1.00  0.00     0.211 HD
ENDBRANCH  20  31
BRANCH  21  33
ATOM     33  O   UNL     1      24.154  28.190  18.952  1.00  0.00    -0.385 OA
ATOM     34  H   UNL     1      24.167  29.103  18.560  1.00  0.00     0.211 HD
ENDBRANCH  21  33
ENDBRANCH  15  16
ENDBRANCH  10  15
BRANCH  12  35
ATOM     35  O   UNL     1      19.633  27.930  16.776  1.00  0.00    -0.385 OA
ATOM     36  H   UNL     1      19.336  28.077  15.864  1.00  0.00     0.211 HD
ENDBRANCH  12  35
BRANCH  13  37
ATOM     37  O   UNL     1      16.278  28.639  17.340  1.00  0.00    -0.387 OA
ATOM     38  H   UNL     1      16.141  28.737  18.317  1.00  0.00     0.211 HD
ENDBRANCH  13  37
BRANCH  14  39
ATOM     39  O   UNL     1      16.638  31.186  16.731  1.00  0.00    -0.387 OA
ATOM     40  H   UNL     1      16.951  32.010  16.311  1.00  0.00     0.211 HD
ENDBRANCH  14  39
ENDBRANCH   8   9
ENDBRANCH   7   8
ENDBRANCH   1   7
BRANCH   1  41
ATOM     41  C   UNL     1      14.814  28.802  20.384  1.00  0.00     0.364 C 
ATOM     42  O   UNL     1      13.770  28.207  20.679  1.00  0.00    -0.246 OA
BRANCH  41  43
ATOM     43  O   UNL     1      15.883  27.989  19.995  1.00  0.00    -0.477 OA
ATOM     44  H   UNL     1      16.795  28.412  19.753  1.00  0.00     0.296 HD
ENDBRANCH  41  43
ENDBRANCH   1  41
BRANCH   3  45
ATOM     45  O   UNL     1      14.475  32.909  21.502  1.00  0.00    -0.391 OA
ATOM     46  H   UNL     1      14.460  33.450  20.673  1.00  0.00     0.211 HD
ENDBRANCH   3  45
BRANCH   5  47
ATOM     47  C   UNL     1      16.078  30.912  23.778  1.00  0.00     0.176 C 
BRANCH  47  48
ATOM     48  O   UNL     1      15.987  30.250  24.965  1.00  0.00    -0.388 OA
ATOM     49  H   UNL     1      15.393  30.740  25.582  1.00  0.00     0.211 HD
ENDBRANCH  47  48
BRANCH  47  50
ATOM     50  C   UNL     1      17.445  31.087  23.280  1.00  0.00     0.165 C 
BRANCH  50  51
ATOM     51  O   UNL     1      18.024  29.949  22.704  1.00  0.00    -0.388 OA
ATOM     52  H   UNL     1      17.353  29.444  22.176  1.00  0.00     0.211 HD
ENDBRANCH  50  51
BRANCH  50  53
ATOM     53  C   UNL     1      18.449  31.661  24.242  1.00  0.00     0.154 C 
BRANCH  53  54
ATOM     54  N   UNL     1      19.063  30.529  24.959  1.00  0.00    -0.319 N 
ATOM     55  C   UNL     1      19.944  30.728  26.060  1.00  0.00     0.407 C 
ATOM     56  H   UNL     1      18.837  29.581  24.641  1.00  0.00     0.167 HD
ATOM     57  O   UNL     1      20.179  31.918  26.400  1.00  0.00    -0.225 OA
BRANCH  55  58
ATOM     58  O   UNL     1      20.532  29.694  26.748  1.00  0.00    -0.443 OA
BRANCH  58  59
ATOM     59  C   UNL     1      21.900  29.724  27.078  1.00  0.00     0.294 C 
BRANCH  59  60
ATOM     60  C   UNL     1      22.449  28.355  26.941  1.00  0.00     0.120 A 
ATOM     61  C   UNL     1      21.826  27.227  26.418  1.00  0.00     0.138 A 
ATOM     62  N   UNL     1      23.673  27.925  27.311  1.00  0.00    -0.132 NA
ATOM     63  N   UNL     1      22.676  26.185  26.488  1.00  0.00    -0.248 N 
ATOM     64  N   UNL     1      23.779  26.633  27.030  1.00  0.00    -0.067 NA
BRANCH  63  65
ATOM     65  C   UNL     1      22.401  24.852  26.043  1.00  0.00     0.181 C 
BRANCH  65  66
ATOM     66  C   UNL     1      22.303  24.710  24.571  1.00  0.00    -0.023 A 
ATOM     67  C   UNL     1      21.088  24.738  23.961  1.00  0.00     0.010 A 
ATOM     68  C   UNL     1      23.461  24.543  23.803  1.00  0.00     0.056 A 
ATOM     69  C   UNL     1      21.020  24.601  22.598  1.00  0.00     0.051 A 
ATOM     70  C   UNL     1      23.408  24.405  22.443  1.00  0.00     0.166 A 
ATOM     71  C   UNL     1      22.157  24.437  21.853  1.00  0.00     0.165 A 
ATOM     72  O   UNL     1      24.319  24.230  21.420  1.00  0.00    -0.454 OA
ATOM     73  O   UNL     1      22.304  24.282  20.469  1.00  0.00    -0.454 OA
ATOM     74  C   UNL     1      23.666  24.525  20.188  1.00  0.00     0.468 C 
ENDBRANCH  65  66
ENDBRANCH  63  65
ENDBRANCH  59  60
ENDBRANCH  58  59
ENDBRANCH  55  58
ENDBRANCH  53  54
ENDBRANCH  50  53
ENDBRANCH  47  50
ENDBRANCH   5  47
BRANCH   4  75
ATOM     75  N   UNL     1      12.588  30.383  23.066  1.00  0.00    -0.348 N 
ATOM     76  C   UNL     1      12.263  29.943  24.393  1.00  0.00     0.217 C 
ATOM     77  H   UNL     1      11.917  30.081  22.337  1.00  0.00     0.163 HD
ATOM     78  C   UNL     1      11.033  29.107  24.611  1.00  0.00     0.114 C 
ATOM     79  O   UNL     1      12.999  30.252  25.360  1.00  0.00    -0.275 OA
ENDBRANCH   4  75
TORSDOF 31
