REMARK VINA RESULT:    -4.850      2.313      4.349
REMARK INTER + INTRA:         -22.318
REMARK INTER:                 -13.426
REMARK INTRA:                  -8.892
REMARK UNBOUND:                -8.679
REMARK SMILES CCOC(CCn1cc(COC(=O)NC[C@@H](O)C(O)[C@@H]2O[C@@](OC[C@H]3O[C@@H](O[C@H]4[C@H](O)[C@@H](O)[C@H](OCCN=[N+]=[N-])O[C@@H]4CO)[C@H](O)[C@@H](O)[C@H]3O)(C(=O)O)C[C@H](O)[C@H]2NC(C)=O)nn1)OCC
REMARK SMILES IDX 18 1 20 2 22 3 54 4 21 5 55 6 57 7 23 8 24 9 25 10 27 11
REMARK SMILES IDX 26 12 45 13 47 14 49 15 28 16 29 17 42 18 41 19 34 20 30 21
REMARK SMILES IDX 32 22 43 23 44 24 35 26 36 27 37 28 38 29 39 30 40 31 31 32
REMARK SMILES IDX 33 34 46 36 48 38 50 40 51 42 52 43 53 44 56 46 58 48 59 49
REMARK SMILES IDX 60 51 61 52 19 53 16 55 17 56 15 58 14 59 12 60 13 62 11 63
REMARK SMILES IDX 10 64 9 65 8 66 62 67 7 68 63 69 6 70 5 71 4 72 3 73 2 74
REMARK SMILES IDX 1 75 64 76 65 77 66 78
REMARK H PARENT 44 25 31 33 33 35 46 37 48 39 50 41 53 45 56 47 58 50 19 54
REMARK H PARENT 17 57 14 61
REMARK Flexibility Score: inf
ROOT
ATOM      1  C   UNL     1      17.321  30.659  23.142  1.00  0.00     0.176 C 
ENDROOT
BRANCH   1   2
ATOM      2  C   UNL     1      16.152  29.980  22.493  1.00  0.00     0.178 C 
ATOM      3  C   UNL     1      15.238  29.347  20.464  1.00  0.00     0.272 C 
ATOM      4  C   UNL     1      14.264  28.727  21.403  1.00  0.00     0.113 C 
ATOM      5  O   UNL     1      16.276  30.053  21.115  1.00  0.00    -0.332 OA
ATOM      6  C   UNL     1      13.795  29.587  22.525  1.00  0.00     0.145 C 
ATOM      7  C   UNL     1      14.828  30.685  22.805  1.00  0.00     0.142 C 
BRANCH   3   8
ATOM      8  O   UNL     1      14.776  30.118  19.476  1.00  0.00    -0.338 OA
BRANCH   8   9
ATOM      9  C   UNL     1      15.448  31.196  19.036  1.00  0.00     0.199 C 
BRANCH   9  10
ATOM     10  C   UNL     1      15.771  31.078  17.563  1.00  0.00     0.179 C 
ATOM     11  C   UNL     1      17.271  30.457  16.011  1.00  0.00     0.282 C 
ATOM     12  O   UNL     1      16.723  30.117  17.277  1.00  0.00    -0.341 OA
ATOM     13  C   UNL     1      16.244  30.182  14.977  1.00  0.00     0.202 C 
ATOM     14  C   UNL     1      14.987  30.959  15.287  1.00  0.00     0.179 C 
ATOM     15  C   UNL     1      14.526  30.837  16.716  1.00  0.00     0.177 C 
BRANCH  11  16
ATOM     16  O   UNL     1      18.481  29.774  15.847  1.00  0.00    -0.341 OA
BRANCH  16  17
ATOM     17  C   UNL     1      19.208  29.880  16.990  1.00  0.00     0.184 C 
ATOM     18  C   UNL     1      20.565  30.466  16.924  1.00  0.00     0.178 C 
ATOM     19  O   UNL     1      20.944  30.829  18.223  1.00  0.00    -0.341 OA
ATOM     20  C   UNL     1      21.129  29.686  19.015  1.00  0.00     0.281 C 
ATOM     21  C   UNL     1      19.431  28.471  17.628  1.00  0.00     0.180 C 
ATOM     22  C   UNL     1      19.897  28.806  19.052  1.00  0.00     0.202 C 
BRANCH  18  23
ATOM     23  C   UNL     1      20.592  31.696  16.068  1.00  0.00     0.191 C 
BRANCH  23  24
ATOM     24  O   UNL     1      19.739  32.692  16.543  1.00  0.00    -0.394 OA
ATOM     25  H   UNL     1      18.977  32.337  17.035  1.00  0.00     0.210 HD
ENDBRANCH  23  24
ENDBRANCH  18  23
BRANCH  20  26
ATOM     26  O   UNL     1      21.372  30.132  20.302  1.00  0.00    -0.350 OA
BRANCH  26  27
ATOM     27  C   UNL     1      22.677  30.273  20.663  1.00  0.00     0.169 C 
BRANCH  27  28
ATOM     28  C   UNL     1      23.415  28.972  20.489  1.00  0.00     0.119 C 
BRANCH  28  29
ATOM     29  N   UNL     1      24.851  29.237  20.449  1.00  0.00    -0.092 NA
ATOM     30  N   UNL     1      25.293  29.541  19.321  1.00  0.00     0.001 N 
ATOM     31  N   UNL     1      25.975  29.474  18.296  1.00  0.00    -0.003 NA
ENDBRANCH  28  29
ENDBRANCH  27  28
ENDBRANCH  26  27
ENDBRANCH  20  26
BRANCH  21  32
ATOM     32  O   UNL     1      18.268  27.749  17.656  1.00  0.00    -0.387 OA
ATOM     33  H   UNL     1      17.776  27.774  16.799  1.00  0.00     0.211 HD
ENDBRANCH  21  32
BRANCH  22  34
ATOM     34  O   UNL     1      20.175  27.670  19.763  1.00  0.00    -0.385 OA
ATOM     35  H   UNL     1      20.123  27.915  20.739  1.00  0.00     0.211 HD
ENDBRANCH  22  34
ENDBRANCH  16  17
ENDBRANCH  11  16
BRANCH  13  36
ATOM     36  O   UNL     1      16.660  30.622  13.711  1.00  0.00    -0.385 OA
ATOM     37  H   UNL     1      15.985  30.438  13.021  1.00  0.00     0.211 HD
ENDBRANCH  13  36
BRANCH  14  38
ATOM     38  O   UNL     1      13.971  30.689  14.377  1.00  0.00    -0.387 OA
ATOM     39  H   UNL     1      14.087  31.213  13.540  1.00  0.00     0.211 HD
ENDBRANCH  14  38
BRANCH  15  40
ATOM     40  O   UNL     1      14.010  29.583  17.004  1.00  0.00    -0.387 OA
ATOM     41  H   UNL     1      14.689  28.883  16.881  1.00  0.00     0.211 HD
ENDBRANCH  15  40
ENDBRANCH   9  10
ENDBRANCH   8   9
ENDBRANCH   3   8
BRANCH   3  42
ATOM     42  C   UNL     1      15.967  28.215  19.808  1.00  0.00     0.364 C 
ATOM     43  O   UNL     1      16.895  27.613  20.380  1.00  0.00    -0.246 OA
BRANCH  42  44
ATOM     44  O   UNL     1      15.634  27.786  18.527  1.00  0.00    -0.477 OA
ATOM     45  H   UNL     1      14.653  27.749  18.273  1.00  0.00     0.296 HD
ENDBRANCH  42  44
ENDBRANCH   3  42
BRANCH   6  46
ATOM     46  O   UNL     1      12.541  30.122  22.360  1.00  0.00    -0.391 OA
ATOM     47  H   UNL     1      11.885  29.505  21.951  1.00  0.00     0.211 HD
ENDBRANCH   6  46
BRANCH   7  48
ATOM     48  N   UNL     1      14.748  31.180  24.140  1.00  0.00    -0.348 N 
ATOM     49  C   UNL     1      13.956  32.337  24.384  1.00  0.00     0.217 C 
ATOM     50  H   UNL     1      15.236  30.739  24.944  1.00  0.00     0.163 HD
ATOM     51  C   UNL     1      13.853  32.878  25.764  1.00  0.00     0.114 C 
ATOM     52  O   UNL     1      13.329  32.923  23.437  1.00  0.00    -0.275 OA
ENDBRANCH   7  48
ENDBRANCH   1   2
BRANCH   1  53
ATOM     53  O   UNL     1      17.736  29.822  24.194  1.00  0.00    -0.388 OA
ATOM     54  H   UNL     1      18.646  29.449  24.003  1.00  0.00     0.211 HD
ENDBRANCH   1  53
BRANCH   1  55
ATOM     55  C   UNL     1      18.455  30.693  22.137  1.00  0.00     0.165 C 
BRANCH  55  56
ATOM     56  O   UNL     1      19.195  29.548  22.188  1.00  0.00    -0.388 OA
ATOM     57  H   UNL     1      20.169  29.678  22.064  1.00  0.00     0.211 HD
ENDBRANCH  55  56
BRANCH  55  58
ATOM     58  C   UNL     1      19.324  31.898  22.370  1.00  0.00     0.154 C 
BRANCH  58  59
ATOM     59  N   UNL     1      20.540  31.659  23.091  1.00  0.00    -0.319 N 
ATOM     60  C   UNL     1      20.761  31.988  24.437  1.00  0.00     0.407 C 
ATOM     61  H   UNL     1      21.319  31.193  22.532  1.00  0.00     0.167 HD
ATOM     62  O   UNL     1      19.902  32.525  25.156  1.00  0.00    -0.225 OA
BRANCH  60  63
ATOM     63  O   UNL     1      22.007  31.714  25.045  1.00  0.00    -0.443 OA
BRANCH  63  64
ATOM     64  C   UNL     1      22.131  30.551  25.877  1.00  0.00     0.294 C 
BRANCH  64  65
ATOM     65  C   UNL     1      21.596  29.382  25.133  1.00  0.00     0.120 A 
ATOM     66  C   UNL     1      22.259  28.596  24.221  1.00  0.00     0.138 A 
ATOM     67  N   UNL     1      20.356  28.896  25.223  1.00  0.00    -0.132 NA
ATOM     68  N   UNL     1      21.381  27.663  23.796  1.00  0.00    -0.252 N 
ATOM     69  N   UNL     1      20.238  27.873  24.424  1.00  0.00    -0.067 NA
BRANCH  68  70
ATOM     70  C   UNL     1      21.690  26.646  22.835  1.00  0.00     0.151 C 
BRANCH  70  71
ATOM     71  C   UNL     1      21.198  25.273  23.191  1.00  0.00     0.086 C 
BRANCH  71  72
ATOM     72  C   UNL     1      22.284  24.543  23.981  1.00  0.00     0.251 C 
BRANCH  72  73
ATOM     73  O   UNL     1      21.846  24.484  25.290  1.00  0.00    -0.353 OA
BRANCH  73  74
ATOM     74  C   UNL     1      22.693  25.155  26.162  1.00  0.00     0.160 C 
ATOM     75  C   UNL     1      22.862  24.399  27.465  1.00  0.00     0.035 C 
ENDBRANCH  73  74
ENDBRANCH  72  73
BRANCH  72  76
ATOM     76  O   UNL     1      23.518  25.087  23.786  1.00  0.00    -0.353 OA
BRANCH  76  77
ATOM     77  C   UNL     1      24.516  24.248  23.369  1.00  0.00     0.160 C 
ATOM     78  C   UNL     1      24.294  23.894  21.917  1.00  0.00     0.035 C 
ENDBRANCH  76  77
ENDBRANCH  72  76
ENDBRANCH  71  72
ENDBRANCH  70  71
ENDBRANCH  68  70
ENDBRANCH  64  65
ENDBRANCH  63  64
ENDBRANCH  60  63
ENDBRANCH  58  59
ENDBRANCH  55  58
ENDBRANCH   1  55
TORSDOF 36
