REMARK VINA RESULT:    -5.183      6.301      9.878
REMARK INTER + INTRA:         -22.447
REMARK INTER:                 -15.066
REMARK INTRA:                  -7.381
REMARK UNBOUND:                -8.780
REMARK SMILES COc1ccc(Cn2cc(COC(=O)NC[C@@H](O)C(O)[C@@H]3O[C@@](OC[C@H]4O[C@@H](O[C@H]5[C@H](O)[C@@H](O)[C@H](OCCN=[N+]=[N-])O[C@@H]5CO)[C@H](O)[C@@H](O)[C@H]4O)(C(=O)O)C[C@H](O)[C@H]3NC(C)=O)nn2)cc1OC
REMARK SMILES IDX 23 1 55 2 56 3 58 4 21 5 22 6 24 7 25 8 26 9 28 10 27 11
REMARK SMILES IDX 46 12 48 13 50 14 29 15 30 16 43 17 42 18 35 19 31 20 33 21
REMARK SMILES IDX 44 22 45 23 36 25 37 26 38 27 39 28 40 29 41 30 32 31 34 33
REMARK SMILES IDX 47 35 49 37 51 39 52 41 53 42 54 43 57 45 19 47 20 48 17 50
REMARK SMILES IDX 18 51 16 53 15 54 13 55 14 57 12 58 11 59 10 60 9 61 63 62
REMARK SMILES IDX 8 63 64 64 7 65 6 66 65 67 5 68 66 69 4 70 3 71 67 72 68 73
REMARK SMILES IDX 2 74 1 75 59 76 60 77 61 79 62 80
REMARK H PARENT 45 24 32 32 34 34 47 36 49 38 51 40 54 44 57 46 20 49 18 52
REMARK H PARENT 15 56 59 78
REMARK Flexibility Score: inf
ROOT
ATOM      1  C   UNL     1      15.574  29.443  20.508  1.00  0.00     0.272 C 
ATOM      2  C   UNL     1      14.530  28.785  21.391  1.00  0.00     0.113 C 
ATOM      3  C   UNL     1      13.820  29.618  22.395  1.00  0.00     0.145 C 
ATOM      4  C   UNL     1      14.647  30.863  22.706  1.00  0.00     0.142 C 
ATOM      5  C   UNL     1      16.054  30.447  22.544  1.00  0.00     0.178 C 
ATOM      6  O   UNL     1      16.363  30.385  21.198  1.00  0.00    -0.332 OA
ENDROOT
BRANCH   1   7
ATOM      7  O   UNL     1      14.835  30.126  19.551  1.00  0.00    -0.338 OA
BRANCH   7   8
ATOM      8  C   UNL     1      15.496  31.019  18.764  1.00  0.00     0.199 C 
BRANCH   8   9
ATOM      9  C   UNL     1      15.337  30.680  17.307  1.00  0.00     0.179 C 
ATOM     10  C   UNL     1      16.175  29.547  15.524  1.00  0.00     0.282 C 
ATOM     11  O   UNL     1      16.081  29.535  16.969  1.00  0.00    -0.341 OA
ATOM     12  C   UNL     1      14.883  29.193  14.947  1.00  0.00     0.202 C 
ATOM     13  C   UNL     1      13.725  29.919  15.610  1.00  0.00     0.179 C 
ATOM     14  C   UNL     1      13.892  30.231  17.046  1.00  0.00     0.177 C 
BRANCH  10  15
ATOM     15  O   UNL     1      17.219  28.705  15.203  1.00  0.00    -0.341 OA
BRANCH  15  16
ATOM     16  C   UNL     1      18.429  29.246  15.639  1.00  0.00     0.184 C 
ATOM     17  C   UNL     1      19.263  29.787  14.547  1.00  0.00     0.178 C 
ATOM     18  O   UNL     1      20.288  30.536  15.119  1.00  0.00    -0.341 OA
ATOM     19  C   UNL     1      20.776  30.000  16.256  1.00  0.00     0.281 C 
ATOM     20  C   UNL     1      19.184  28.123  16.361  1.00  0.00     0.180 C 
ATOM     21  C   UNL     1      20.672  28.497  16.377  1.00  0.00     0.202 C 
BRANCH  17  22
ATOM     22  C   UNL     1      18.477  30.598  13.543  1.00  0.00     0.191 C 
BRANCH  22  23
ATOM     23  O   UNL     1      18.557  31.926  13.960  1.00  0.00    -0.394 OA
ATOM     24  H   UNL     1      18.221  32.517  13.222  1.00  0.00     0.210 HD
ENDBRANCH  22  23
ENDBRANCH  17  22
BRANCH  19  25
ATOM     25  O   UNL     1      20.012  30.526  17.359  1.00  0.00    -0.350 OA
BRANCH  25  26
ATOM     26  C   UNL     1      20.939  30.876  18.361  1.00  0.00     0.169 C 
BRANCH  26  27
ATOM     27  C   UNL     1      20.612  30.258  19.708  1.00  0.00     0.119 C 
BRANCH  27  28
ATOM     28  N   UNL     1      21.448  29.107  19.907  1.00  0.00    -0.092 NA
ATOM     29  N   UNL     1      21.054  28.101  20.503  1.00  0.00     0.001 N 
ATOM     30  N   UNL     1      20.447  27.335  21.278  1.00  0.00    -0.003 NA
ENDBRANCH  27  28
ENDBRANCH  26  27
ENDBRANCH  25  26
ENDBRANCH  19  25
BRANCH  20  31
ATOM     31  O   UNL     1      18.751  28.115  17.677  1.00  0.00    -0.387 OA
ATOM     32  H   UNL     1      18.263  28.977  17.847  1.00  0.00     0.211 HD
ENDBRANCH  20  31
BRANCH  21  33
ATOM     33  O   UNL     1      21.276  27.900  15.296  1.00  0.00    -0.385 OA
ATOM     34  H   UNL     1      20.665  27.824  14.513  1.00  0.00     0.211 HD
ENDBRANCH  21  33
ENDBRANCH  15  16
ENDBRANCH  10  15
BRANCH  12  35
ATOM     35  O   UNL     1      14.814  29.515  13.602  1.00  0.00    -0.385 OA
ATOM     36  H   UNL     1      13.994  30.045  13.384  1.00  0.00     0.211 HD
ENDBRANCH  12  35
BRANCH  13  37
ATOM     37  O   UNL     1      12.557  29.143  15.387  1.00  0.00    -0.387 OA
ATOM     38  H   UNL     1      12.011  29.641  14.725  1.00  0.00     0.211 HD
ENDBRANCH  13  37
BRANCH  14  39
ATOM     39  O   UNL     1      13.710  29.083  17.849  1.00  0.00    -0.387 OA
ATOM     40  H   UNL     1      14.016  28.247  17.356  1.00  0.00     0.211 HD
ENDBRANCH  14  39
ENDBRANCH   8   9
ENDBRANCH   7   8
ENDBRANCH   1   7
BRANCH   1  41
ATOM     41  C   UNL     1      16.470  28.381  19.983  1.00  0.00     0.364 C 
ATOM     42  O   UNL     1      17.603  28.206  20.438  1.00  0.00    -0.246 OA
BRANCH  41  43
ATOM     43  O   UNL     1      16.105  27.500  18.931  1.00  0.00    -0.477 OA
ATOM     44  H   UNL     1      15.206  27.732  18.448  1.00  0.00     0.296 HD
ENDBRANCH  41  43
ENDBRANCH   1  41
BRANCH   3  45
ATOM     45  O   UNL     1      12.585  30.020  21.945  1.00  0.00    -0.391 OA
ATOM     46  H   UNL     1      12.660  30.896  21.465  1.00  0.00     0.211 HD
ENDBRANCH   3  45
BRANCH   5  47
ATOM     47  C   UNL     1      16.997  31.141  23.415  1.00  0.00     0.176 C 
BRANCH  47  48
ATOM     48  O   UNL     1      17.171  30.611  24.688  1.00  0.00    -0.388 OA
ATOM     49  H   UNL     1      16.470  30.803  25.320  1.00  0.00     0.211 HD
ENDBRANCH  47  48
BRANCH  47  50
ATOM     50  C   UNL     1      18.489  30.833  22.854  1.00  0.00     0.165 C 
BRANCH  50  51
ATOM     51  O   UNL     1      18.543  29.524  22.573  1.00  0.00    -0.388 OA
ATOM     52  H   UNL     1      18.961  29.324  21.685  1.00  0.00     0.211 HD
ENDBRANCH  50  51
BRANCH  50  53
ATOM     53  C   UNL     1      19.474  31.519  23.656  1.00  0.00     0.154 C 
BRANCH  53  54
ATOM     54  N   UNL     1      20.647  30.918  24.196  1.00  0.00    -0.319 N 
ATOM     55  C   UNL     1      20.559  30.455  25.532  1.00  0.00     0.407 C 
ATOM     56  H   UNL     1      21.543  30.801  23.729  1.00  0.00     0.167 HD
ATOM     57  O   UNL     1      19.479  30.592  26.195  1.00  0.00    -0.225 OA
BRANCH  55  58
ATOM     58  O   UNL     1      21.583  29.832  26.237  1.00  0.00    -0.443 OA
BRANCH  58  59
ATOM     59  C   UNL     1      21.201  28.652  27.024  1.00  0.00     0.294 C 
BRANCH  59  60
ATOM     60  C   UNL     1      21.200  27.568  25.999  1.00  0.00     0.120 A 
ATOM     61  C   UNL     1      22.266  26.664  25.780  1.00  0.00     0.138 A 
ATOM     62  N   UNL     1      20.210  27.214  25.188  1.00  0.00    -0.132 NA
ATOM     63  N   UNL     1      21.821  25.807  24.830  1.00  0.00    -0.248 N 
ATOM     64  N   UNL     1      20.624  26.135  24.490  1.00  0.00    -0.067 NA
BRANCH  63  65
ATOM     65  C   UNL     1      22.599  24.640  24.334  1.00  0.00     0.181 C 
BRANCH  65  66
ATOM     66  C   UNL     1      22.848  24.999  22.869  1.00  0.00    -0.023 A 
ATOM     67  C   UNL     1      23.756  25.966  22.495  1.00  0.00     0.056 A 
ATOM     68  C   UNL     1      22.229  24.238  21.930  1.00  0.00     0.010 A 
ATOM     69  C   UNL     1      23.978  26.083  21.093  1.00  0.00     0.161 A 
ATOM     70  C   UNL     1      22.466  24.372  20.528  1.00  0.00     0.051 A 
ATOM     71  C   UNL     1      23.375  25.332  20.168  1.00  0.00     0.160 A 
BRANCH  69  72
ATOM     72  O   UNL     1      24.881  27.050  20.647  1.00  0.00    -0.493 OA
ATOM     73  C   UNL     1      25.749  27.746  21.549  1.00  0.00     0.278 C 
ENDBRANCH  69  72
BRANCH  71  74
ATOM     74  O   UNL     1      23.700  25.522  18.795  1.00  0.00    -0.493 OA
ATOM     75  C   UNL     1      23.363  24.469  17.867  1.00  0.00     0.278 C 
ENDBRANCH  71  74
ENDBRANCH  65  66
ENDBRANCH  63  65
ENDBRANCH  59  60
ENDBRANCH  58  59
ENDBRANCH  55  58
ENDBRANCH  53  54
ENDBRANCH  50  53
ENDBRANCH  47  50
ENDBRANCH   5  47
BRANCH   4  76
ATOM     76  N   UNL     1      14.293  31.329  24.020  1.00  0.00    -0.348 N 
ATOM     77  C   UNL     1      13.336  32.340  24.157  1.00  0.00     0.217 C 
ATOM     78  H   UNL     1      14.704  30.933  24.910  1.00  0.00     0.163 HD
ATOM     79  C   UNL     1      12.878  32.951  25.443  1.00  0.00     0.114 C 
ATOM     80  O   UNL     1      12.732  32.870  23.139  1.00  0.00    -0.275 OA
ENDBRANCH   4  76
TORSDOF 33
