REMARK VINA RESULT:    -6.241      8.916     14.682
REMARK INTER + INTRA:         -21.078
REMARK INTER:                 -13.271
REMARK INTRA:                  -7.808
REMARK UNBOUND:                -5.351
REMARK SMILES CC(=O)N[C@@H]1[C@@H](O)C[C@](OC[C@H]2O[C@@H](O[C@H]3[C@H](O)[C@@H](O)[C@H](OCCN=[N+]=[N-])O[C@@H]3CO)[C@H](O)[C@@H](O)[C@H]2O)(C(=O)O)O[C@H]1C(O)[C@H](O)CNC(=O)OCc1cn(-c2ccc([N+](=O)[O-])cc2)nn1
REMARK SMILES IDX 9 1 8 2 6 3 5 4 42 5 41 6 10 7 11 8 12 9 14 10 13 11 32 12
REMARK SMILES IDX 34 13 36 14 15 15 16 16 29 17 28 18 21 19 17 20 19 21 30 22
REMARK SMILES IDX 31 23 22 25 23 26 24 27 25 28 26 29 27 30 18 31 20 33 33 35
REMARK SMILES IDX 35 37 37 39 38 41 39 42 40 43 7 45 43 47 44 48 45 50 46 51
REMARK SMILES IDX 47 53 48 54 49 55 50 57 51 58 52 59 53 60 54 61 66 62 55 63
REMARK SMILES IDX 65 64 56 65 57 66 64 67 58 68 63 69 59 70 60 71 61 72 62 73
REMARK SMILES IDX 4 74 2 75 1 77 3 78
REMARK H PARENT 31 24 18 32 20 34 33 36 35 38 37 40 40 44 7 46 44 49 46 52
REMARK H PARENT 48 56 4 76
REMARK Flexibility Score: inf
ROOT
ATOM      1  C   UNL     1      23.592  30.257  24.707  1.00  0.00     0.272 C 
ATOM      2  C   UNL     1      23.283  31.718  24.723  1.00  0.00     0.113 C 
ATOM      3  C   UNL     1      21.851  31.939  24.488  1.00  0.00     0.145 C 
ATOM      4  C   UNL     1      21.062  30.722  23.971  1.00  0.00     0.142 C 
ATOM      5  C   UNL     1      21.914  29.949  23.078  1.00  0.00     0.178 C 
ATOM      6  O   UNL     1      23.236  29.754  23.467  1.00  0.00    -0.332 OA
ENDROOT
BRANCH   1   7
ATOM      7  O   UNL     1      23.111  29.539  25.757  1.00  0.00    -0.338 OA
BRANCH   7   8
ATOM      8  C   UNL     1      23.315  28.197  25.731  1.00  0.00     0.199 C 
BRANCH   8   9
ATOM      9  C   UNL     1      22.052  27.426  26.093  1.00  0.00     0.179 C 
ATOM     10  C   UNL     1      22.453  25.144  25.768  1.00  0.00     0.282 C 
ATOM     11  O   UNL     1      21.872  26.296  25.339  1.00  0.00    -0.341 OA
ATOM     12  C   UNL     1      23.192  25.156  27.044  1.00  0.00     0.202 C 
ATOM     13  C   UNL     1      22.499  26.004  28.077  1.00  0.00     0.179 C 
ATOM     14  C   UNL     1      21.837  27.227  27.550  1.00  0.00     0.177 C 
BRANCH  10  15
ATOM     15  O   UNL     1      23.167  24.613  24.699  1.00  0.00    -0.341 OA
BRANCH  15  16
ATOM     16  C   UNL     1      23.218  25.346  23.561  1.00  0.00     0.184 C 
ATOM     17  C   UNL     1      22.751  24.609  22.325  1.00  0.00     0.178 C 
ATOM     18  O   UNL     1      22.915  25.463  21.215  1.00  0.00    -0.341 OA
ATOM     19  C   UNL     1      24.274  25.562  20.917  1.00  0.00     0.281 C 
ATOM     20  C   UNL     1      24.712  25.618  23.292  1.00  0.00     0.180 C 
ATOM     21  C   UNL     1      24.849  26.447  22.031  1.00  0.00     0.202 C 
BRANCH  17  22
ATOM     22  C   UNL     1      21.293  24.230  22.344  1.00  0.00     0.191 C 
BRANCH  22  23
ATOM     23  O   UNL     1      20.631  25.340  22.925  1.00  0.00    -0.394 OA
ATOM     24  H   UNL     1      19.766  25.057  23.326  1.00  0.00     0.210 HD
ENDBRANCH  22  23
ENDBRANCH  17  22
BRANCH  19  25
ATOM     25  O   UNL     1      24.457  26.201  19.719  1.00  0.00    -0.350 OA
BRANCH  25  26
ATOM     26  C   UNL     1      24.165  25.471  18.595  1.00  0.00     0.169 C 
BRANCH  26  27
ATOM     27  C   UNL     1      23.815  26.283  17.380  1.00  0.00     0.119 C 
BRANCH  27  28
ATOM     28  N   UNL     1      22.434  26.748  17.522  1.00  0.00    -0.092 NA
ATOM     29  N   UNL     1      21.891  27.317  16.586  1.00  0.00     0.001 N 
ATOM     30  N   UNL     1      21.306  27.661  15.572  1.00  0.00    -0.003 NA
ENDBRANCH  27  28
ENDBRANCH  26  27
ENDBRANCH  25  26
ENDBRANCH  19  25
BRANCH  20  31
ATOM     31  O   UNL     1      25.337  26.171  24.374  1.00  0.00    -0.387 OA
ATOM     32  H   UNL     1      25.431  25.589  25.153  1.00  0.00     0.211 HD
ENDBRANCH  20  31
BRANCH  21  33
ATOM     33  O   UNL     1      26.164  26.763  21.819  1.00  0.00    -0.385 OA
ATOM     34  H   UNL     1      26.249  27.742  21.724  1.00  0.00     0.211 HD
ENDBRANCH  21  33
ENDBRANCH  15  16
ENDBRANCH  10  15
BRANCH  12  35
ATOM     35  O   UNL     1      23.176  23.856  27.588  1.00  0.00    -0.385 OA
ATOM     36  H   UNL     1      22.292  23.611  27.920  1.00  0.00     0.211 HD
ENDBRANCH  12  35
BRANCH  13  37
ATOM     37  O   UNL     1      23.424  26.314  29.104  1.00  0.00    -0.387 OA
ATOM     38  H   UNL     1      23.847  27.156  28.867  1.00  0.00     0.211 HD
ENDBRANCH  13  37
BRANCH  14  39
ATOM     39  O   UNL     1      22.137  28.395  28.236  1.00  0.00    -0.387 OA
ATOM     40  H   UNL     1      21.295  28.702  28.671  1.00  0.00     0.211 HD
ENDBRANCH  14  39
ENDBRANCH   8   9
ENDBRANCH   7   8
ENDBRANCH   1   7
BRANCH   1  41
ATOM     41  C   UNL     1      25.099  30.110  24.686  1.00  0.00     0.364 C 
ATOM     42  O   UNL     1      25.801  30.730  25.509  1.00  0.00    -0.246 OA
BRANCH  41  43
ATOM     43  O   UNL     1      25.686  29.298  23.757  1.00  0.00    -0.477 OA
ATOM     44  H   UNL     1      25.308  29.098  22.835  1.00  0.00     0.296 HD
ENDBRANCH  41  43
ENDBRANCH   1  41
BRANCH   3  45
ATOM     45  O   UNL     1      21.205  32.345  25.654  1.00  0.00    -0.391 OA
ATOM     46  H   UNL     1      20.511  33.006  25.461  1.00  0.00     0.211 HD
ENDBRANCH   3  45
BRANCH   5  47
ATOM     47  C   UNL     1      21.512  28.656  22.520  1.00  0.00     0.176 C 
BRANCH  47  48
ATOM     48  O   UNL     1      20.415  28.032  23.123  1.00  0.00    -0.388 OA
ATOM     49  H   UNL     1      20.414  28.053  24.095  1.00  0.00     0.211 HD
ENDBRANCH  47  48
BRANCH  47  50
ATOM     50  C   UNL     1      21.316  28.484  21.049  1.00  0.00     0.165 C 
BRANCH  50  51
ATOM     51  O   UNL     1      22.435  28.300  20.297  1.00  0.00    -0.388 OA
ATOM     52  H   UNL     1      23.070  29.062  20.357  1.00  0.00     0.211 HD
ENDBRANCH  50  51
BRANCH  50  53
ATOM     53  C   UNL     1      20.246  29.380  20.483  1.00  0.00     0.154 C 
BRANCH  53  54
ATOM     54  N   UNL     1      18.938  28.786  20.397  1.00  0.00    -0.319 N 
ATOM     55  C   UNL     1      18.402  28.194  19.230  1.00  0.00     0.407 C 
ATOM     56  H   UNL     1      18.305  28.771  21.241  1.00  0.00     0.167 HD
ATOM     57  O   UNL     1      19.068  28.173  18.190  1.00  0.00    -0.225 OA
BRANCH  55  58
ATOM     58  O   UNL     1      17.126  27.627  19.212  1.00  0.00    -0.443 OA
BRANCH  58  59
ATOM     59  C   UNL     1      15.945  28.346  18.976  1.00  0.00     0.294 C 
BRANCH  59  60
ATOM     60  C   UNL     1      15.331  28.772  20.251  1.00  0.00     0.121 A 
ATOM     61  C   UNL     1      14.075  29.339  20.459  1.00  0.00     0.144 A 
ATOM     62  N   UNL     1      15.867  28.683  21.504  1.00  0.00    -0.131 NA
ATOM     63  N   UNL     1      13.896  29.564  21.775  1.00  0.00    -0.220 N 
ATOM     64  N   UNL     1      14.993  29.158  22.373  1.00  0.00    -0.062 NA
BRANCH  63  65
ATOM     65  C   UNL     1      12.739  30.120  22.409  1.00  0.00     0.067 A 
ATOM     66  C   UNL     1      12.152  31.302  22.025  1.00  0.00     0.035 A 
ATOM     67  C   UNL     1      12.166  29.451  23.481  1.00  0.00     0.035 A 
ATOM     68  C   UNL     1      11.032  31.805  22.684  1.00  0.00     0.088 A 
ATOM     69  C   UNL     1      11.058  29.945  24.136  1.00  0.00     0.088 A 
ATOM     70  C   UNL     1      10.468  31.131  23.752  1.00  0.00     0.269 A 
BRANCH  70  71
ATOM     71  N   UNL     1       9.326  31.655  24.420  1.00  0.00     0.062 N 
ATOM     72  O   UNL     1       9.207  32.840  24.771  1.00  0.00    -0.258 OA
ATOM     73  O   UNL     1       8.294  30.794  24.694  1.00  0.00    -0.258 OA
ENDBRANCH  70  71
ENDBRANCH  63  65
ENDBRANCH  59  60
ENDBRANCH  58  59
ENDBRANCH  55  58
ENDBRANCH  53  54
ENDBRANCH  50  53
ENDBRANCH  47  50
ENDBRANCH   5  47
BRANCH   4  74
ATOM     74  N   UNL     1      20.011  31.396  23.191  1.00  0.00    -0.348 N 
ATOM     75  C   UNL     1      18.676  30.958  23.182  1.00  0.00     0.217 C 
ATOM     76  H   UNL     1      20.287  32.230  22.643  1.00  0.00     0.163 HD
ATOM     77  C   UNL     1      17.688  31.712  22.352  1.00  0.00     0.114 C 
ATOM     78  O   UNL     1      18.289  29.975  23.832  1.00  0.00    -0.275 OA
ENDBRANCH   4  74
TORSDOF 31
