REMARK VINA RESULT:    -5.719      3.415      6.413
REMARK INTER + INTRA:         -22.170
REMARK INTER:                 -13.175
REMARK INTRA:                  -8.996
REMARK UNBOUND:                -7.759
REMARK SMILES CC(=O)N[C@@H]1[C@@H](O)C[C@](OC[C@H]2O[C@@H](O[C@H]3[C@H](O)[C@@H](O)[C@H](OCCN=[N+]=[N-])O[C@@H]3CO)[C@H](O)[C@@H](O)[C@H]2O)(C(=O)O)O[C@H]1C(O)[C@H](O)CNC(=O)OCc1cn(-c2cc(Cl)ccc2C(=O)N(C)C)nn1
REMARK SMILES IDX 9 1 8 2 6 3 5 4 42 5 41 6 10 7 11 8 12 9 14 10 13 11 32 12
REMARK SMILES IDX 34 13 36 14 15 15 16 16 29 17 28 18 21 19 17 20 19 21 30 22
REMARK SMILES IDX 31 23 22 25 23 26 24 27 25 28 26 29 27 30 18 31 20 33 33 35
REMARK SMILES IDX 35 37 37 39 38 41 39 42 40 43 7 45 43 47 44 48 45 50 46 51
REMARK SMILES IDX 47 53 48 54 49 55 50 57 51 58 52 59 53 60 54 61 69 62 55 63
REMARK SMILES IDX 68 64 56 65 57 66 62 67 58 68 61 69 59 70 60 71 63 72 64 73
REMARK SMILES IDX 65 74 66 75 67 76 4 77 2 78 1 80 3 81
REMARK H PARENT 31 24 18 32 20 34 33 36 35 38 37 40 40 44 7 46 44 49 46 52
REMARK H PARENT 48 56 4 79
REMARK Flexibility Score: inf
ROOT
ATOM      1  C   UNL     1      15.468  33.116  25.117  1.00  0.00     0.272 C 
ATOM      2  C   UNL     1      14.781  32.498  26.276  1.00  0.00     0.113 C 
ATOM      3  C   UNL     1      14.994  31.006  26.272  1.00  0.00     0.145 C 
ATOM      4  C   UNL     1      14.424  30.491  24.972  1.00  0.00     0.142 C 
ATOM      5  C   UNL     1      15.020  31.170  23.811  1.00  0.00     0.178 C 
ATOM      6  O   UNL     1      15.547  32.414  23.956  1.00  0.00    -0.332 OA
ENDROOT
BRANCH   1   7
ATOM      7  O   UNL     1      16.757  33.511  25.436  1.00  0.00    -0.338 OA
BRANCH   7   8
ATOM      8  C   UNL     1      17.639  33.722  24.435  1.00  0.00     0.199 C 
BRANCH   8   9
ATOM      9  C   UNL     1      19.071  33.566  24.971  1.00  0.00     0.179 C 
ATOM     10  C   UNL     1      20.067  33.393  27.044  1.00  0.00     0.282 C 
ATOM     11  O   UNL     1      19.126  34.114  26.219  1.00  0.00    -0.341 OA
ATOM     12  C   UNL     1      21.296  33.157  26.196  1.00  0.00     0.202 C 
ATOM     13  C   UNL     1      21.022  32.150  25.098  1.00  0.00     0.179 C 
ATOM     14  C   UNL     1      19.540  32.186  24.771  1.00  0.00     0.177 C 
BRANCH  10  15
ATOM     15  O   UNL     1      19.423  32.307  27.461  1.00  0.00    -0.341 OA
BRANCH  15  16
ATOM     16  C   UNL     1      18.951  32.177  28.755  1.00  0.00     0.184 C 
ATOM     17  C   UNL     1      18.807  30.710  29.003  1.00  0.00     0.178 C 
ATOM     18  O   UNL     1      18.309  30.486  30.299  1.00  0.00    -0.341 OA
ATOM     19  C   UNL     1      16.921  30.817  30.128  1.00  0.00     0.281 C 
ATOM     20  C   UNL     1      17.622  32.870  28.904  1.00  0.00     0.180 C 
ATOM     21  C   UNL     1      16.813  32.294  30.026  1.00  0.00     0.202 C 
BRANCH  17  22
ATOM     22  C   UNL     1      20.128  29.990  28.833  1.00  0.00     0.191 C 
BRANCH  22  23
ATOM     23  O   UNL     1      20.233  29.567  27.525  1.00  0.00    -0.394 OA
ATOM     24  H   UNL     1      20.504  30.322  26.945  1.00  0.00     0.210 HD
ENDBRANCH  22  23
ENDBRANCH  17  22
BRANCH  19  25
ATOM     25  O   UNL     1      16.239  30.276  31.147  1.00  0.00    -0.350 OA
BRANCH  25  26
ATOM     26  C   UNL     1      15.348  29.273  30.807  1.00  0.00     0.169 C 
BRANCH  26  27
ATOM     27  C   UNL     1      13.895  29.668  30.975  1.00  0.00     0.119 C 
BRANCH  27  28
ATOM     28  N   UNL     1      13.489  29.561  32.360  1.00  0.00    -0.092 NA
ATOM     29  N   UNL     1      12.301  29.545  32.662  1.00  0.00     0.001 N 
ATOM     30  N   UNL     1      11.060  29.453  32.767  1.00  0.00    -0.003 NA
ENDBRANCH  27  28
ENDBRANCH  26  27
ENDBRANCH  25  26
ENDBRANCH  19  25
BRANCH  20  31
ATOM     31  O   UNL     1      17.781  34.234  29.177  1.00  0.00    -0.387 OA
ATOM     32  H   UNL     1      18.743  34.499  29.086  1.00  0.00     0.211 HD
ENDBRANCH  20  31
BRANCH  21  33
ATOM     33  O   UNL     1      15.481  32.659  29.852  1.00  0.00    -0.385 OA
ATOM     34  H   UNL     1      15.166  33.322  30.503  1.00  0.00     0.211 HD
ENDBRANCH  21  33
ENDBRANCH  15  16
ENDBRANCH  10  15
BRANCH  12  35
ATOM     35  O   UNL     1      21.579  34.383  25.560  1.00  0.00    -0.385 OA
ATOM     36  H   UNL     1      21.266  35.163  26.119  1.00  0.00     0.211 HD
ENDBRANCH  12  35
BRANCH  13  37
ATOM     37  O   UNL     1      21.373  30.862  25.404  1.00  0.00    -0.387 OA
ATOM     38  H   UNL     1      21.739  30.358  24.638  1.00  0.00     0.211 HD
ENDBRANCH  13  37
BRANCH  14  39
ATOM     39  O   UNL     1      18.811  31.166  25.313  1.00  0.00    -0.387 OA
ATOM     40  H   UNL     1      18.952  31.017  26.274  1.00  0.00     0.211 HD
ENDBRANCH  14  39
ENDBRANCH   8   9
ENDBRANCH   7   8
ENDBRANCH   1   7
BRANCH   1  41
ATOM     41  C   UNL     1      14.755  34.446  24.802  1.00  0.00     0.364 C 
ATOM     42  O   UNL     1      14.565  35.205  25.779  1.00  0.00    -0.246 OA
BRANCH  41  43
ATOM     43  O   UNL     1      14.344  34.802  23.557  1.00  0.00    -0.477 OA
ATOM     44  H   UNL     1      13.599  35.427  23.346  1.00  0.00     0.296 HD
ENDBRANCH  41  43
ENDBRANCH   1  41
BRANCH   3  45
ATOM     45  O   UNL     1      16.313  30.722  26.479  1.00  0.00    -0.391 OA
ATOM     46  H   UNL     1      16.719  31.021  27.299  1.00  0.00     0.211 HD
ENDBRANCH   3  45
BRANCH   5  47
ATOM     47  C   UNL     1      16.054  30.360  23.040  1.00  0.00     0.176 C 
BRANCH  47  48
ATOM     48  O   UNL     1      16.638  29.350  23.752  1.00  0.00    -0.388 OA
ATOM     49  H   UNL     1      17.315  28.821  23.252  1.00  0.00     0.211 HD
ENDBRANCH  47  48
BRANCH  47  50
ATOM     50  C   UNL     1      15.635  29.883  21.699  1.00  0.00     0.165 C 
BRANCH  50  51
ATOM     51  O   UNL     1      15.584  28.471  21.619  1.00  0.00    -0.388 OA
ATOM     52  H   UNL     1      14.928  28.103  22.257  1.00  0.00     0.211 HD
ENDBRANCH  50  51
BRANCH  50  53
ATOM     53  C   UNL     1      16.797  30.231  20.740  1.00  0.00     0.154 C 
BRANCH  53  54
ATOM     54  N   UNL     1      18.053  30.150  21.433  1.00  0.00    -0.319 N 
ATOM     55  C   UNL     1      19.153  30.945  21.055  1.00  0.00     0.407 C 
ATOM     56  H   UNL     1      18.194  29.488  22.253  1.00  0.00     0.167 HD
ATOM     57  O   UNL     1      19.063  31.766  20.115  1.00  0.00    -0.225 OA
BRANCH  55  58
ATOM     58  O   UNL     1      20.382  30.840  21.718  1.00  0.00    -0.443 OA
BRANCH  58  59
ATOM     59  C   UNL     1      21.104  29.640  21.752  1.00  0.00     0.294 C 
BRANCH  59  60
ATOM     60  C   UNL     1      20.849  28.895  23.022  1.00  0.00     0.121 A 
ATOM     61  C   UNL     1      21.754  27.980  23.597  1.00  0.00     0.144 A 
ATOM     62  N   UNL     1      19.807  28.918  23.839  1.00  0.00    -0.131 NA
ATOM     63  N   UNL     1      21.225  27.502  24.714  1.00  0.00    -0.219 N 
ATOM     64  N   UNL     1      20.030  28.098  24.833  1.00  0.00    -0.062 NA
BRANCH  63  65
ATOM     65  C   UNL     1      21.695  26.574  25.673  1.00  0.00     0.081 A 
ATOM     66  C   UNL     1      21.861  26.987  27.001  1.00  0.00     0.049 A 
ATOM     67  C   UNL     1      22.041  25.281  25.405  1.00  0.00     0.065 A 
ATOM     68  C   UNL     1      22.339  26.146  27.952  1.00  0.00     0.043 A 
ATOM     69  C   UNL     1      22.539  24.408  26.391  1.00  0.00     0.017 A 
ATOM     70  Cl  UNL     1      22.523  26.729  29.601  1.00  0.00    -0.084 Cl
ATOM     71  C   UNL     1      22.688  24.851  27.681  1.00  0.00     0.021 A 
BRANCH  67  72
ATOM     72  C   UNL     1      21.871  24.700  24.070  1.00  0.00     0.255 C 
ATOM     73  O   UNL     1      20.746  24.269  23.745  1.00  0.00    -0.269 OA
ATOM     74  N   UNL     1      22.950  24.635  23.184  1.00  0.00    -0.345 N 
ATOM     75  C   UNL     1      24.261  25.142  23.579  1.00  0.00     0.146 C 
ATOM     76  C   UNL     1      22.805  24.071  21.845  1.00  0.00     0.146 C 
ENDBRANCH  67  72
ENDBRANCH  63  65
ENDBRANCH  59  60
ENDBRANCH  58  59
ENDBRANCH  55  58
ENDBRANCH  53  54
ENDBRANCH  50  53
ENDBRANCH  47  50
ENDBRANCH   5  47
BRANCH   4  77
ATOM     77  N   UNL     1      12.972  30.667  25.061  1.00  0.00    -0.348 N 
ATOM     78  C   UNL     1      12.080  30.098  24.128  1.00  0.00     0.217 C 
ATOM     79  H   UNL     1      12.570  31.233  25.834  1.00  0.00     0.163 HD
ATOM     80  C   UNL     1      10.610  30.274  24.212  1.00  0.00     0.114 C 
ATOM     81  O   UNL     1      12.550  29.411  23.184  1.00  0.00    -0.275 OA
ENDBRANCH   4  77
TORSDOF 31
