REMARK VINA RESULT:    -8.505     13.268     19.032
REMARK INTER + INTRA:         -20.193
REMARK INTER:                 -14.335
REMARK INTRA:                  -5.857
REMARK UNBOUND:                 2.731
REMARK SMILES CC(=O)N[C@@H]1[C@@H](O)C[C@](OC[C@H]2O[C@@H](O[C@H]3[C@H](O)[C@@H](O)[C@H](OCCN=[N+]=[N-])O[C@@H]3CO)[C@H](O)[C@@H](O)[C@H]2O)(C(=O)O)O[C@H]1C(O)[C@H](O)CNC(=O)OCc1cn(C2CCc3ccccc3NC2=O)nn1
REMARK SMILES IDX 43 1 42 2 9 3 8 4 41 5 6 6 5 7 10 8 11 9 12 10 14 11 13 12
REMARK SMILES IDX 32 13 34 14 36 15 15 16 16 17 29 18 28 19 21 20 17 21 19 22
REMARK SMILES IDX 30 23 31 24 22 26 23 27 24 28 25 29 26 30 27 31 18 32 20 34
REMARK SMILES IDX 33 36 35 38 37 40 38 42 39 43 40 44 7 46 4 48 2 49 1 51 3 52
REMARK SMILES IDX 44 53 45 55 46 56 47 58 48 59 49 60 50 62 51 63 52 64 53 65
REMARK SMILES IDX 54 66 69 67 55 68 68 69 56 70 57 71 66 73 65 74 67 75 64 77
REMARK SMILES IDX 59 78 63 79 60 80 62 81 61 82 58 83
REMARK H PARENT 31 25 18 33 20 35 33 37 35 39 37 41 40 45 7 47 4 50 44 54
REMARK H PARENT 46 57 48 61 65 76
REMARK Flexibility Score: 90.00
ROOT
ATOM      1  C   UNL     1       9.116  28.582  35.085  1.00  0.00     0.176 C 
ENDROOT
BRANCH   1   2
ATOM      2  C   UNL     1      10.645  28.684  34.916  1.00  0.00     0.178 C 
ATOM      3  C   UNL     1      12.176  28.061  36.635  1.00  0.00     0.272 C 
ATOM      4  C   UNL     1      12.589  29.467  36.804  1.00  0.00     0.113 C 
ATOM      5  O   UNL     1      11.324  27.761  35.571  1.00  0.00    -0.332 OA
ATOM      6  C   UNL     1      11.504  30.434  36.466  1.00  0.00     0.145 C 
ATOM      7  C   UNL     1      11.049  30.128  35.047  1.00  0.00     0.142 C 
BRANCH   3   8
ATOM      8  O   UNL     1      11.612  27.475  37.713  1.00  0.00    -0.338 OA
BRANCH   8   9
ATOM      9  C   UNL     1      11.757  26.207  38.061  1.00  0.00     0.199 C 
BRANCH   9  10
ATOM     10  C   UNL     1      10.808  25.123  37.791  1.00  0.00     0.179 C 
ATOM     11  C   UNL     1       8.652  24.843  36.999  1.00  0.00     0.282 C 
ATOM     12  O   UNL     1       9.730  25.725  37.058  1.00  0.00    -0.341 OA
ATOM     13  C   UNL     1       8.953  23.425  37.284  1.00  0.00     0.202 C 
ATOM     14  C   UNL     1      10.312  22.926  36.932  1.00  0.00     0.179 C 
ATOM     15  C   UNL     1      11.290  24.067  36.798  1.00  0.00     0.177 C 
BRANCH  11  16
ATOM     16  O   UNL     1       7.975  25.057  35.781  1.00  0.00    -0.341 OA
BRANCH  16  17
ATOM     17  C   UNL     1       6.842  24.295  35.669  1.00  0.00     0.184 C 
ATOM     18  C   UNL     1       6.548  23.768  34.289  1.00  0.00     0.178 C 
ATOM     19  O   UNL     1       5.454  22.912  34.432  1.00  0.00    -0.341 OA
ATOM     20  C   UNL     1       4.267  23.617  34.567  1.00  0.00     0.281 C 
ATOM     21  C   UNL     1       5.609  25.072  36.107  1.00  0.00     0.180 C 
ATOM     22  C   UNL     1       4.461  24.977  35.170  1.00  0.00     0.202 C 
BRANCH  18  23
ATOM     23  C   UNL     1       7.687  22.926  33.749  1.00  0.00     0.191 C 
BRANCH  23  24
ATOM     24  O   UNL     1       8.867  23.658  33.642  1.00  0.00    -0.394 OA
ATOM     25  H   UNL     1       9.643  23.107  33.404  1.00  0.00     0.210 HD
ENDBRANCH  23  24
ENDBRANCH  18  23
BRANCH  20  26
ATOM     26  O   UNL     1       3.375  22.842  35.284  1.00  0.00    -0.350 OA
BRANCH  26  27
ATOM     27  C   UNL     1       2.611  22.036  34.458  1.00  0.00     0.169 C 
BRANCH  27  28
ATOM     28  C   UNL     1       2.871  20.570  34.588  1.00  0.00     0.119 C 
BRANCH  28  29
ATOM     29  N   UNL     1       3.193  20.266  35.972  1.00  0.00    -0.092 NA
ATOM     30  N   UNL     1       3.220  19.097  36.399  1.00  0.00     0.001 N 
ATOM     31  N   UNL     1       3.671  17.951  36.536  1.00  0.00    -0.003 NA
ENDBRANCH  28  29
ENDBRANCH  27  28
ENDBRANCH  26  27
ENDBRANCH  20  26
BRANCH  21  32
ATOM     32  O   UNL     1       5.255  24.764  37.429  1.00  0.00    -0.387 OA
ATOM     33  H   UNL     1       4.751  25.530  37.806  1.00  0.00     0.211 HD
ENDBRANCH  21  32
BRANCH  22  34
ATOM     34  O   UNL     1       4.524  25.938  34.134  1.00  0.00    -0.385 OA
ATOM     35  H   UNL     1       4.796  26.816  34.463  1.00  0.00     0.211 HD
ENDBRANCH  22  34
ENDBRANCH  16  17
ENDBRANCH  11  16
BRANCH  13  36
ATOM     36  O   UNL     1       8.586  23.115  38.597  1.00  0.00    -0.385 OA
ATOM     37  H   UNL     1       8.223  22.193  38.633  1.00  0.00     0.211 HD
ENDBRANCH  13  36
BRANCH  14  38
ATOM     38  O   UNL     1      10.318  22.085  35.821  1.00  0.00    -0.387 OA
ATOM     39  H   UNL     1       9.365  21.945  35.578  1.00  0.00     0.211 HD
ENDBRANCH  14  38
BRANCH  15  40
ATOM     40  O   UNL     1      11.219  24.605  35.489  1.00  0.00    -0.387 OA
ATOM     41  H   UNL     1      10.945  25.541  35.603  1.00  0.00     0.211 HD
ENDBRANCH  15  40
ENDBRANCH   9  10
ENDBRANCH   8   9
ENDBRANCH   3   8
BRANCH   3  42
ATOM     42  C   UNL     1      13.418  27.315  36.198  1.00  0.00     0.364 C 
ATOM     43  O   UNL     1      14.470  27.423  36.784  1.00  0.00    -0.246 OA
BRANCH  42  44
ATOM     44  O   UNL     1      13.359  26.472  35.083  1.00  0.00    -0.477 OA
ATOM     45  H   UNL     1      13.382  25.469  35.163  1.00  0.00     0.296 HD
ENDBRANCH  42  44
ENDBRANCH   3  42
BRANCH   6  46
ATOM     46  O   UNL     1      10.448  30.209  37.365  1.00  0.00    -0.391 OA
ATOM     47  H   UNL     1      10.590  30.624  38.232  1.00  0.00     0.211 HD
ENDBRANCH   6  46
BRANCH   7  48
ATOM     48  N   UNL     1      12.069  30.556  34.150  1.00  0.00    -0.348 N 
ATOM     49  C   UNL     1      11.917  31.753  33.395  1.00  0.00     0.217 C 
ATOM     50  H   UNL     1      12.950  30.004  34.023  1.00  0.00     0.163 HD
ATOM     51  C   UNL     1      12.954  32.240  32.445  1.00  0.00     0.114 C 
ATOM     52  O   UNL     1      10.875  32.401  33.547  1.00  0.00    -0.275 OA
ENDBRANCH   7  48
ENDBRANCH   1   2
BRANCH   1  53
ATOM     53  O   UNL     1       8.541  29.837  34.860  1.00  0.00    -0.388 OA
ATOM     54  H   UNL     1       9.122  30.447  34.354  1.00  0.00     0.211 HD
ENDBRANCH   1  53
BRANCH   1  55
ATOM     55  C   UNL     1       8.488  27.611  34.153  1.00  0.00     0.165 C 
BRANCH  55  56
ATOM     56  O   UNL     1       9.241  26.473  33.892  1.00  0.00    -0.388 OA
ATOM     57  H   UNL     1       9.363  26.413  32.907  1.00  0.00     0.211 HD
ENDBRANCH  55  56
BRANCH  55  58
ATOM     58  C   UNL     1       8.025  28.156  32.841  1.00  0.00     0.154 C 
BRANCH  58  59
ATOM     59  N   UNL     1       6.709  27.764  32.439  1.00  0.00    -0.319 N 
ATOM     60  C   UNL     1       5.657  28.668  32.165  1.00  0.00     0.407 C 
ATOM     61  H   UNL     1       6.510  26.747  32.342  1.00  0.00     0.167 HD
ATOM     62  O   UNL     1       5.826  29.907  32.263  1.00  0.00    -0.225 OA
BRANCH  60  63
ATOM     63  O   UNL     1       4.431  28.173  31.786  1.00  0.00    -0.443 OA
BRANCH  63  64
ATOM     64  C   UNL     1       4.250  26.949  31.163  1.00  0.00     0.294 C 
BRANCH  64  65
ATOM     65  C   UNL     1       3.703  27.126  29.817  1.00  0.00     0.120 A 
ATOM     66  C   UNL     1       4.417  27.202  28.647  1.00  0.00     0.139 A 
ATOM     67  N   UNL     1       2.405  27.255  29.447  1.00  0.00    -0.132 NA
ATOM     68  N   UNL     1       3.561  27.371  27.608  1.00  0.00    -0.240 N 
ATOM     69  N   UNL     1       2.353  27.399  28.133  1.00  0.00    -0.066 NA
BRANCH  68  70
ATOM     70  C   UNL     1       3.914  27.495  26.184  1.00  0.00     0.198 C 
BRANCH  70  71
ATOM     71  C   UNL     1       4.784  28.691  26.072  1.00  0.00     0.042 CG0
ATOM     72  G   UNL     1       5.544  28.857  24.803  1.00  0.00     0.000 G0
ENDBRANCH  70  71
BRANCH  70  73
ATOM     73  C   UNL     1       4.516  26.212  25.810  1.00  0.00     0.249 C 
ATOM     74  N   UNL     1       5.879  25.850  25.652  1.00  0.00    -0.324 N 
ATOM     75  O   UNL     1       3.689  25.285  25.595  1.00  0.00    -0.272 OA
ATOM     76  H   UNL     1       6.147  24.847  25.748  1.00  0.00     0.170 HD
BRANCH  74  77
ATOM     77  C   UNL     1       6.933  26.794  25.365  1.00  0.00     0.044 A 
ATOM     78  C   UNL     1       6.836  28.126  24.980  1.00  0.00    -0.024 A 
ATOM     79  C   UNL     1       8.179  26.225  25.514  1.00  0.00     0.026 A 
ATOM     80  C   UNL     1       7.953  28.893  24.744  1.00  0.00     0.006 A 
ATOM     81  C   UNL     1       9.318  26.972  25.283  1.00  0.00     0.002 A 
ATOM     82  C   UNL     1       9.188  28.310  24.897  1.00  0.00     0.000 A 
BRANCH  78  83
ATOM     83  C   UNL     1       5.537  28.833  24.793  1.00  0.00     0.040 CG0
ATOM     84  G   UNL     1       4.774  28.681  26.062  1.00  0.00     0.000 G0
ENDBRANCH  78  83
ENDBRANCH  74  77
ENDBRANCH  70  73
ENDBRANCH  68  70
ENDBRANCH  64  65
ENDBRANCH  63  64
ENDBRANCH  60  63
ENDBRANCH  58  59
ENDBRANCH  55  58
ENDBRANCH   1  55
TORSDOF 30
