REMARK VINA RESULT:    -6.583      1.886      2.589
REMARK INTER + INTRA:         -24.007
REMARK INTER:                 -18.199
REMARK INTRA:                  -5.808
REMARK UNBOUND:                -7.033
REMARK SMILES CC(=O)N[C@@H]1[C@@H](O)C[C@](OC[C@H]2O[C@@H](O[C@H]3[C@H](O)[C@@H](O)[C@H](OCCN=[N+]=[N-])O[C@@H]3CO)[C@H](O)[C@@H](O)[C@H]2O)(C(=O)O)O[C@H]1C(O)[C@H](O)CNC(=O)OCc1cn(C(C)(C)C(=O)c2c[nH]c3ccccc23)nn1
REMARK SMILES IDX 9 1 8 2 6 3 5 4 42 5 41 6 10 7 11 8 12 9 14 10 13 11 32 12
REMARK SMILES IDX 34 13 36 14 15 15 16 16 29 17 28 18 21 19 17 20 19 21 30 22
REMARK SMILES IDX 31 23 22 25 23 26 24 27 25 28 26 29 27 30 18 31 20 33 33 35
REMARK SMILES IDX 35 37 37 39 38 41 39 42 40 43 7 45 43 47 44 48 45 50 46 51
REMARK SMILES IDX 47 53 48 54 49 55 50 57 51 58 52 59 53 60 54 61 71 62 55 63
REMARK SMILES IDX 70 64 56 65 57 66 58 67 59 68 60 69 61 70 62 71 69 72 63 73
REMARK SMILES IDX 64 74 68 75 65 77 67 78 66 79 4 80 2 81 1 83 3 84
REMARK H PARENT 31 24 18 32 20 34 33 36 35 38 37 40 40 44 7 46 44 49 46 52
REMARK H PARENT 48 56 63 76 4 82
REMARK Flexibility Score: inf
ROOT
ATOM      1  C   UNL     1      14.797  30.266  20.389  1.00  0.00     0.272 C 
ATOM      2  C   UNL     1      13.476  30.951  20.698  1.00  0.00     0.113 C 
ATOM      3  C   UNL     1      13.653  32.431  20.923  1.00  0.00     0.145 C 
ATOM      4  C   UNL     1      14.456  32.634  22.255  1.00  0.00     0.142 C 
ATOM      5  C   UNL     1      15.439  31.510  22.286  1.00  0.00     0.178 C 
ATOM      6  O   UNL     1      15.744  31.083  21.011  1.00  0.00    -0.332 OA
ENDROOT
BRANCH   1   7
ATOM      7  O   UNL     1      15.085  30.038  19.106  1.00  0.00    -0.338 OA
BRANCH   7   8
ATOM      8  C   UNL     1      16.093  30.266  18.331  1.00  0.00     0.199 C 
BRANCH   8   9
ATOM      9  C   UNL     1      16.933  29.035  17.983  1.00  0.00     0.179 C 
ATOM     10  C   UNL     1      16.600  28.932  15.637  1.00  0.00     0.282 C 
ATOM     11  O   UNL     1      16.462  28.415  16.876  1.00  0.00    -0.341 OA
ATOM     12  C   UNL     1      17.964  29.496  15.353  1.00  0.00     0.202 C 
ATOM     13  C   UNL     1      18.920  29.133  16.484  1.00  0.00     0.179 C 
ATOM     14  C   UNL     1      18.366  29.462  17.818  1.00  0.00     0.177 C 
BRANCH  10  15
ATOM     15  O   UNL     1      15.654  29.917  15.411  1.00  0.00    -0.341 OA
BRANCH  15  16
ATOM     16  C   UNL     1      14.546  29.475  14.749  1.00  0.00     0.184 C 
ATOM     17  C   UNL     1      14.321  29.974  13.368  1.00  0.00     0.178 C 
ATOM     18  O   UNL     1      13.425  29.073  12.757  1.00  0.00    -0.341 OA
ATOM     19  C   UNL     1      12.201  29.018  13.359  1.00  0.00     0.281 C 
ATOM     20  C   UNL     1      13.261  29.697  15.522  1.00  0.00     0.180 C 
ATOM     21  C   UNL     1      12.231  28.809  14.858  1.00  0.00     0.202 C 
BRANCH  17  22
ATOM     22  C   UNL     1      15.555  29.972  12.489  1.00  0.00     0.191 C 
BRANCH  22  23
ATOM     23  O   UNL     1      16.300  31.110  12.819  1.00  0.00    -0.394 OA
ATOM     24  H   UNL     1      15.760  31.933  12.818  1.00  0.00     0.210 HD
ENDBRANCH  22  23
ENDBRANCH  17  22
BRANCH  19  25
ATOM     25  O   UNL     1      11.519  27.916  12.835  1.00  0.00    -0.350 OA
BRANCH  25  26
ATOM     26  C   UNL     1      11.004  28.267  11.601  1.00  0.00     0.169 C 
BRANCH  26  27
ATOM     27  C   UNL     1       9.501  28.200  11.561  1.00  0.00     0.119 C 
BRANCH  27  28
ATOM     28  N   UNL     1       8.981  26.856  11.687  1.00  0.00    -0.092 NA
ATOM     29  N   UNL     1       8.184  26.395  10.845  1.00  0.00     0.001 N 
ATOM     30  N   UNL     1       7.828  25.857   9.794  1.00  0.00    -0.003 NA
ENDBRANCH  27  28
ENDBRANCH  26  27
ENDBRANCH  25  26
ENDBRANCH  19  25
BRANCH  20  31
ATOM     31  O   UNL     1      13.369  29.370  16.854  1.00  0.00    -0.387 OA
ATOM     32  H   UNL     1      13.128  28.424  16.959  1.00  0.00     0.211 HD
ENDBRANCH  20  31
BRANCH  21  33
ATOM     33  O   UNL     1      10.978  29.172  15.348  1.00  0.00    -0.385 OA
ATOM     34  H   UNL     1      10.593  29.945  14.852  1.00  0.00     0.211 HD
ENDBRANCH  21  33
ENDBRANCH  15  16
ENDBRANCH  10  15
BRANCH  12  35
ATOM     35  O   UNL     1      18.493  29.101  14.124  1.00  0.00    -0.385 OA
ATOM     36  H   UNL     1      17.809  28.614  13.618  1.00  0.00     0.211 HD
ENDBRANCH  12  35
BRANCH  13  37
ATOM     37  O   UNL     1      20.094  29.875  16.218  1.00  0.00    -0.387 OA
ATOM     38  H   UNL     1      20.373  29.766  15.276  1.00  0.00     0.211 HD
ENDBRANCH  13  37
BRANCH  14  39
ATOM     39  O   UNL     1      18.406  30.862  18.040  1.00  0.00    -0.387 OA
ATOM     40  H   UNL     1      19.114  31.066  18.704  1.00  0.00     0.211 HD
ENDBRANCH  14  39
ENDBRANCH   8   9
ENDBRANCH   7   8
ENDBRANCH   1   7
BRANCH   1  41
ATOM     41  C   UNL     1      14.781  28.947  21.060  1.00  0.00     0.364 C 
ATOM     42  O   UNL     1      15.863  28.317  21.181  1.00  0.00    -0.246 OA
BRANCH  41  43
ATOM     43  O   UNL     1      13.660  28.362  21.556  1.00  0.00    -0.477 OA
ATOM     44  H   UNL     1      13.589  27.779  22.387  1.00  0.00     0.296 HD
ENDBRANCH  41  43
ENDBRANCH   1  41
BRANCH   3  45
ATOM     45  O   UNL     1      14.417  33.089  19.988  1.00  0.00    -0.391 OA
ATOM     46  H   UNL     1      15.163  33.621  20.386  1.00  0.00     0.211 HD
ENDBRANCH   3  45
BRANCH   5  47
ATOM     47  C   UNL     1      16.731  31.748  22.976  1.00  0.00     0.176 C 
BRANCH  47  48
ATOM     48  O   UNL     1      16.596  32.308  24.226  1.00  0.00    -0.388 OA
ATOM     49  H   UNL     1      16.363  33.278  24.228  1.00  0.00     0.211 HD
ENDBRANCH  47  48
BRANCH  47  50
ATOM     50  C   UNL     1      17.759  30.640  22.902  1.00  0.00     0.165 C 
BRANCH  50  51
ATOM     51  O   UNL     1      17.348  29.478  23.470  1.00  0.00    -0.388 OA
ATOM     52  H   UNL     1      17.607  28.694  22.965  1.00  0.00     0.211 HD
ENDBRANCH  50  51
BRANCH  50  53
ATOM     53  C   UNL     1      19.076  31.190  23.344  1.00  0.00     0.154 C 
BRANCH  53  54
ATOM     54  N   UNL     1      19.566  30.783  24.606  1.00  0.00    -0.319 N 
ATOM     55  C   UNL     1      19.610  31.639  25.762  1.00  0.00     0.407 C 
ATOM     56  H   UNL     1      19.933  29.794  24.748  1.00  0.00     0.167 HD
ATOM     57  O   UNL     1      19.227  32.825  25.711  1.00  0.00    -0.225 OA
BRANCH  55  58
ATOM     58  O   UNL     1      20.081  31.168  26.973  1.00  0.00    -0.443 OA
BRANCH  58  59
ATOM     59  C   UNL     1      21.411  30.772  27.152  1.00  0.00     0.294 C 
BRANCH  59  60
ATOM     60  C   UNL     1      21.449  29.276  27.184  1.00  0.00     0.120 A 
ATOM     61  C   UNL     1      22.392  28.506  27.889  1.00  0.00     0.139 A 
ATOM     62  N   UNL     1      20.674  28.368  26.578  1.00  0.00    -0.132 NA
ATOM     63  N   UNL     1      22.154  27.204  27.682  1.00  0.00    -0.239 N 
ATOM     64  N   UNL     1      21.113  27.134  26.888  1.00  0.00    -0.066 NA
BRANCH  63  65
ATOM     65  C   UNL     1      22.925  26.118  28.249  1.00  0.00     0.122 C 
ATOM     66  C   UNL     1      22.178  25.694  29.562  1.00  0.00     0.046 C 
ATOM     67  C   UNL     1      24.288  26.537  28.746  1.00  0.00     0.046 C 
BRANCH  65  68
ATOM     68  C   UNL     1      22.946  24.948  27.393  1.00  0.00     0.192 C 
ATOM     69  O   UNL     1      22.469  23.867  27.953  1.00  0.00    -0.291 OA
BRANCH  68  70
ATOM     70  C   UNL     1      23.398  24.776  26.047  1.00  0.00     0.045 A 
ATOM     71  C   UNL     1      24.750  24.701  25.687  1.00  0.00     0.095 A 
ATOM     72  C   UNL     1      22.677  24.678  24.874  1.00  0.00     0.010 A 
ATOM     73  N   UNL     1      24.814  24.568  24.377  1.00  0.00    -0.360 N 
ATOM     74  C   UNL     1      23.598  24.548  23.830  1.00  0.00     0.046 A 
ATOM     75  C   UNL     1      21.348  24.684  24.553  1.00  0.00     0.011 A 
ATOM     76  H   UNL     1      25.731  24.489  23.853  1.00  0.00     0.166 HD
ATOM     77  C   UNL     1      23.182  24.429  22.516  1.00  0.00     0.027 A 
ATOM     78  C   UNL     1      20.933  24.565  23.227  1.00  0.00     0.001 A 
ATOM     79  C   UNL     1      21.849  24.439  22.225  1.00  0.00     0.002 A 
ENDBRANCH  68  70
ENDBRANCH  65  68
ENDBRANCH  63  65
ENDBRANCH  59  60
ENDBRANCH  58  59
ENDBRANCH  55  58
ENDBRANCH  53  54
ENDBRANCH  50  53
ENDBRANCH  47  50
ENDBRANCH   5  47
BRANCH   4  80
ATOM     80  N   UNL     1      13.426  32.452  23.274  1.00  0.00    -0.348 N 
ATOM     81  C   UNL     1      13.351  33.211  24.469  1.00  0.00     0.217 C 
ATOM     82  H   UNL     1      12.689  31.711  23.123  1.00  0.00     0.163 HD
ATOM     83  C   UNL     1      12.302  33.020  25.506  1.00  0.00     0.114 C 
ATOM     84  O   UNL     1      14.253  34.102  24.630  1.00  0.00    -0.275 OA
ENDBRANCH   4  80
TORSDOF 32
