REMARK VINA RESULT:    -5.552      8.622     13.246
REMARK INTER + INTRA:         -23.458
REMARK INTER:                 -14.476
REMARK INTRA:                  -8.981
REMARK UNBOUND:                -8.981
REMARK SMILES CC(=O)N[C@@H]1[C@@H](O)C[C@](OC[C@H]2O[C@@H](O[C@H]3[C@H](O)[C@@H](O)[C@H](OCCN=[N+]=[N-])O[C@@H]3CO)[C@H](O)[C@@H](O)[C@H]2O)(C(=O)O)O[C@H]1C(O)[C@H](O)CNC(=O)OCc1cn(-c2cc(C(=O)O)nc(-c3ccccc3)c2)nn1
REMARK SMILES IDX 9 1 8 2 6 3 5 4 42 5 41 6 10 7 11 8 12 9 14 10 13 11 32 12
REMARK SMILES IDX 34 13 36 14 15 15 16 16 29 17 28 18 21 19 17 20 19 21 30 22
REMARK SMILES IDX 31 23 22 25 23 26 24 27 25 28 26 29 27 30 18 31 20 33 33 35
REMARK SMILES IDX 35 37 37 39 38 41 39 42 40 43 7 45 43 47 44 48 45 50 46 51
REMARK SMILES IDX 47 53 48 54 49 55 50 57 51 58 52 59 53 60 54 61 72 62 55 63
REMARK SMILES IDX 71 64 56 65 57 66 70 67 58 68 63 69 62 70 59 71 60 72 61 73
REMARK SMILES IDX 64 75 65 76 69 77 66 78 68 79 67 80 4 81 2 82 1 84 3 85
REMARK H PARENT 31 24 18 32 20 34 33 36 35 38 37 40 40 44 7 46 44 49 46 52
REMARK H PARENT 48 56 61 74 4 83
REMARK Flexibility Score: inf
ROOT
ATOM      1  C   UNL     1      19.253  31.207  22.954  1.00  0.00     0.272 C 
ATOM      2  C   UNL     1      20.294  32.318  22.711  1.00  0.00     0.113 C 
ATOM      3  C   UNL     1      20.297  32.855  21.327  1.00  0.00     0.145 C 
ATOM      4  C   UNL     1      20.128  31.778  20.262  1.00  0.00     0.142 C 
ATOM      5  C   UNL     1      20.195  30.462  21.043  1.00  0.00     0.178 C 
ATOM      6  O   UNL     1      19.053  30.433  21.813  1.00  0.00    -0.332 OA
ENDROOT
BRANCH   1   7
ATOM      7  O   UNL     1      18.103  31.858  23.268  1.00  0.00    -0.338 OA
BRANCH   7   8
ATOM      8  C   UNL     1      17.545  31.687  24.493  1.00  0.00     0.199 C 
BRANCH   8   9
ATOM      9  C   UNL     1      16.000  31.648  24.385  1.00  0.00     0.179 C 
ATOM     10  C   UNL     1      14.342  31.812  22.744  1.00  0.00     0.282 C 
ATOM     11  O   UNL     1      15.669  31.867  23.086  1.00  0.00    -0.341 OA
ATOM     12  C   UNL     1      13.565  31.198  23.893  1.00  0.00     0.202 C 
ATOM     13  C   UNL     1      14.205  29.945  24.440  1.00  0.00     0.179 C 
ATOM     14  C   UNL     1      15.628  30.224  24.765  1.00  0.00     0.177 C 
BRANCH  10  15
ATOM     15  O   UNL     1      14.233  31.051  21.594  1.00  0.00    -0.341 OA
BRANCH  15  16
ATOM     16  C   UNL     1      15.317  31.128  20.736  1.00  0.00     0.184 C 
ATOM     17  C   UNL     1      15.117  32.069  19.606  1.00  0.00     0.178 C 
ATOM     18  O   UNL     1      15.168  31.428  18.380  1.00  0.00    -0.341 OA
ATOM     19  C   UNL     1      14.313  30.329  18.321  1.00  0.00     0.281 C 
ATOM     20  C   UNL     1      15.665  29.727  20.324  1.00  0.00     0.180 C 
ATOM     21  C   UNL     1      14.986  29.221  19.101  1.00  0.00     0.202 C 
BRANCH  17  22
ATOM     22  C   UNL     1      16.225  33.102  19.607  1.00  0.00     0.191 C 
BRANCH  22  23
ATOM     23  O   UNL     1      16.857  33.191  20.834  1.00  0.00    -0.394 OA
ATOM     24  H   UNL     1      17.793  32.868  20.747  1.00  0.00     0.210 HD
ENDBRANCH  22  23
ENDBRANCH  17  22
BRANCH  19  25
ATOM     25  O   UNL     1      14.225  29.958  16.988  1.00  0.00    -0.350 OA
BRANCH  25  26
ATOM     26  C   UNL     1      15.383  30.282  16.279  1.00  0.00     0.169 C 
BRANCH  26  27
ATOM     27  C   UNL     1      15.946  29.059  15.599  1.00  0.00     0.119 C 
BRANCH  27  28
ATOM     28  N   UNL     1      17.353  28.944  15.912  1.00  0.00    -0.092 NA
ATOM     29  N   UNL     1      17.674  28.501  17.006  1.00  0.00     0.001 N 
ATOM     30  N   UNL     1      18.287  27.871  17.884  1.00  0.00    -0.003 NA
ENDBRANCH  27  28
ENDBRANCH  26  27
ENDBRANCH  25  26
ENDBRANCH  19  25
BRANCH  20  31
ATOM     31  O   UNL     1      17.054  29.712  20.056  1.00  0.00    -0.387 OA
ATOM     32  H   UNL     1      17.222  29.892  19.098  1.00  0.00     0.211 HD
ENDBRANCH  20  31
BRANCH  21  33
ATOM     33  O   UNL     1      14.060  28.229  19.486  1.00  0.00    -0.385 OA
ATOM     34  H   UNL     1      13.815  28.313  20.448  1.00  0.00     0.211 HD
ENDBRANCH  21  33
ENDBRANCH  15  16
ENDBRANCH  10  15
BRANCH  12  35
ATOM     35  O   UNL     1      13.359  32.076  24.949  1.00  0.00    -0.385 OA
ATOM     36  H   UNL     1      12.470  32.494  24.771  1.00  0.00     0.211 HD
ENDBRANCH  12  35
BRANCH  13  37
ATOM     37  O   UNL     1      14.050  28.958  23.466  1.00  0.00    -0.387 OA
ATOM     38  H   UNL     1      14.645  29.202  22.711  1.00  0.00     0.211 HD
ENDBRANCH  13  37
BRANCH  14  39
ATOM     39  O   UNL     1      16.405  29.349  23.977  1.00  0.00    -0.387 OA
ATOM     40  H   UNL     1      17.204  29.773  23.623  1.00  0.00     0.211 HD
ENDBRANCH  14  39
ENDBRANCH   8   9
ENDBRANCH   7   8
ENDBRANCH   1   7
BRANCH   1  41
ATOM     41  C   UNL     1      19.780  30.299  24.004  1.00  0.00     0.364 C 
ATOM     42  O   UNL     1      20.612  30.680  24.871  1.00  0.00    -0.246 OA
BRANCH  41  43
ATOM     43  O   UNL     1      19.365  28.987  24.064  1.00  0.00    -0.477 OA
ATOM     44  H   UNL     1      19.614  28.345  24.827  1.00  0.00     0.296 HD
ENDBRANCH  41  43
ENDBRANCH   1  41
BRANCH   3  45
ATOM     45  O   UNL     1      19.446  33.922  21.143  1.00  0.00    -0.391 OA
ATOM     46  H   UNL     1      18.864  34.008  21.925  1.00  0.00     0.211 HD
ENDBRANCH   3  45
BRANCH   5  47
ATOM     47  C   UNL     1      20.453  29.273  20.197  1.00  0.00     0.176 C 
BRANCH  47  48
ATOM     48  O   UNL     1      19.532  28.260  20.549  1.00  0.00    -0.388 OA
ATOM     49  H   UNL     1      20.006  27.370  20.584  1.00  0.00     0.211 HD
ENDBRANCH  47  48
BRANCH  47  50
ATOM     50  C   UNL     1      21.854  28.729  20.231  1.00  0.00     0.165 C 
BRANCH  50  51
ATOM     51  O   UNL     1      22.610  29.327  19.243  1.00  0.00    -0.388 OA
ATOM     52  H   UNL     1      22.665  28.775  18.418  1.00  0.00     0.211 HD
ENDBRANCH  50  51
BRANCH  50  53
ATOM     53  C   UNL     1      21.745  27.236  20.038  1.00  0.00     0.154 C 
BRANCH  53  54
ATOM     54  N   UNL     1      21.717  26.450  21.218  1.00  0.00    -0.319 N 
ATOM     55  C   UNL     1      22.027  25.066  21.204  1.00  0.00     0.407 C 
ATOM     56  H   UNL     1      21.465  26.876  22.144  1.00  0.00     0.167 HD
ATOM     57  O   UNL     1      22.313  24.515  20.125  1.00  0.00    -0.225 OA
BRANCH  55  58
ATOM     58  O   UNL     1      22.018  24.310  22.393  1.00  0.00    -0.443 OA
BRANCH  58  59
ATOM     59  C   UNL     1      22.968  24.605  23.385  1.00  0.00     0.294 C 
BRANCH  59  60
ATOM     60  C   UNL     1      22.383  25.442  24.459  1.00  0.00     0.121 A 
ATOM     61  C   UNL     1      22.595  25.415  25.818  1.00  0.00     0.144 A 
ATOM     62  N   UNL     1      21.454  26.429  24.298  1.00  0.00    -0.131 NA
ATOM     63  N   UNL     1      21.830  26.337  26.440  1.00  0.00    -0.220 N 
ATOM     64  N   UNL     1      21.143  26.941  25.470  1.00  0.00    -0.062 NA
BRANCH  63  65
ATOM     65  C   UNL     1      21.757  26.580  27.834  1.00  0.00     0.071 A 
ATOM     66  C   UNL     1      22.748  26.029  28.631  1.00  0.00     0.064 A 
ATOM     67  C   UNL     1      20.787  27.335  28.463  1.00  0.00     0.057 A 
ATOM     68  C   UNL     1      22.722  26.256  29.995  1.00  0.00     0.151 A 
ATOM     69  C   UNL     1      20.769  27.554  29.804  1.00  0.00     0.073 A 
ATOM     70  N   UNL     1      21.747  27.004  30.551  1.00  0.00    -0.241 NA
BRANCH  68  71
ATOM     71  C   UNL     1      23.751  25.694  30.858  1.00  0.00     0.354 C 
ATOM     72  O   UNL     1      24.064  26.329  31.896  1.00  0.00    -0.245 OA
BRANCH  71  73
ATOM     73  O   UNL     1      24.401  24.509  30.606  1.00  0.00    -0.477 OA
ATOM     74  H   UNL     1      25.424  24.417  30.632  1.00  0.00     0.297 HD
ENDBRANCH  71  73
ENDBRANCH  68  71
BRANCH  69  75
ATOM     75  C   UNL     1      19.738  28.360  30.447  1.00  0.00     0.000 A 
ATOM     76  C   UNL     1      18.940  27.749  31.411  1.00  0.00     0.010 A 
ATOM     77  C   UNL     1      19.510  29.675  30.160  1.00  0.00     0.010 A 
ATOM     78  C   UNL     1      17.949  28.430  32.068  1.00  0.00     0.001 A 
ATOM     79  C   UNL     1      18.505  30.352  30.828  1.00  0.00     0.001 A 
ATOM     80  C   UNL     1      17.719  29.763  31.775  1.00  0.00     0.000 A 
ENDBRANCH  69  75
ENDBRANCH  63  65
ENDBRANCH  59  60
ENDBRANCH  58  59
ENDBRANCH  55  58
ENDBRANCH  53  54
ENDBRANCH  50  53
ENDBRANCH  47  50
ENDBRANCH   5  47
BRANCH   4  81
ATOM     81  N   UNL     1      21.111  31.876  19.233  1.00  0.00    -0.348 N 
ATOM     82  C   UNL     1      20.714  32.076  17.886  1.00  0.00     0.217 C 
ATOM     83  H   UNL     1      22.122  31.799  19.490  1.00  0.00     0.163 HD
ATOM     84  C   UNL     1      21.692  32.188  16.773  1.00  0.00     0.114 C 
ATOM     85  O   UNL     1      19.477  32.171  17.580  1.00  0.00    -0.275 OA
ENDBRANCH   4  81
TORSDOF 33
