REMARK VINA RESULT:    -6.382      5.849     10.784
REMARK INTER + INTRA:         -22.292
REMARK INTER:                 -16.250
REMARK INTRA:                  -6.042
REMARK UNBOUND:                -5.463
REMARK SMILES CC(=O)N[C@@H]1[C@@H](O)C[C@](OC[C@H]2O[C@@H](O[C@H]3[C@H](O)[C@@H](O)[C@H](OCCN=[N+]=[N-])O[C@@H]3CO)[C@H](O)[C@@H](O)[C@H]2O)(C(=O)O)O[C@H]1C(O)[C@H](O)CNC(=O)OCc1cn(COCc2ccccc2)nn1
REMARK SMILES IDX 43 1 42 2 9 3 8 4 41 5 6 6 5 7 10 8 11 9 12 10 14 11 13 12
REMARK SMILES IDX 32 13 34 14 36 15 15 16 16 17 29 18 28 19 21 20 17 21 19 22
REMARK SMILES IDX 30 23 31 24 22 26 23 27 24 28 25 29 26 30 27 31 18 32 20 34
REMARK SMILES IDX 33 36 35 38 37 40 38 42 39 43 40 44 7 46 4 48 2 49 1 51 3 52
REMARK SMILES IDX 44 53 45 55 46 56 47 58 48 59 49 60 50 62 51 63 52 64 53 65
REMARK SMILES IDX 54 66 66 67 55 68 65 69 56 70 57 71 58 72 59 73 60 74 64 75
REMARK SMILES IDX 61 76 63 77 62 78
REMARK H PARENT 31 25 18 33 20 35 33 37 35 39 37 41 40 45 7 47 4 50 44 54
REMARK H PARENT 46 57 48 61
REMARK Flexibility Score: inf
ROOT
ATOM      1  C   UNL     1      23.962  27.857  22.122  1.00  0.00     0.176 C 
ENDROOT
BRANCH   1   2
ATOM      2  C   UNL     1      23.961  26.313  22.186  1.00  0.00     0.178 C 
ATOM      3  C   UNL     1      24.487  24.566  20.747  1.00  0.00     0.272 C 
ATOM      4  C   UNL     1      23.265  23.802  21.246  1.00  0.00     0.113 C 
ATOM      5  O   UNL     1      24.178  25.884  20.876  1.00  0.00    -0.332 OA
ATOM      6  C   UNL     1      22.153  24.774  21.563  1.00  0.00     0.145 C 
ATOM      7  C   UNL     1      22.650  25.768  22.657  1.00  0.00     0.142 C 
BRANCH   3   8
ATOM      8  O   UNL     1      24.739  24.234  19.401  1.00  0.00    -0.338 OA
BRANCH   8   9
ATOM      9  C   UNL     1      25.452  25.107  18.673  1.00  0.00     0.199 C 
BRANCH   9  10
ATOM     10  C   UNL     1      24.876  25.235  17.282  1.00  0.00     0.179 C 
ATOM     11  C   UNL     1      23.652  24.276  15.634  1.00  0.00     0.282 C 
ATOM     12  O   UNL     1      24.115  24.093  16.957  1.00  0.00    -0.341 OA
ATOM     13  C   UNL     1      22.512  25.289  15.609  1.00  0.00     0.202 C 
ATOM     14  C   UNL     1      22.597  26.036  16.948  1.00  0.00     0.179 C 
ATOM     15  C   UNL     1      24.047  26.451  17.083  1.00  0.00     0.177 C 
BRANCH  11  16
ATOM     16  O   UNL     1      23.158  23.078  15.195  1.00  0.00    -0.341 OA
BRANCH  16  17
ATOM     17  C   UNL     1      23.939  22.467  14.225  1.00  0.00     0.184 C 
ATOM     18  C   UNL     1      23.417  22.643  12.844  1.00  0.00     0.178 C 
ATOM     19  O   UNL     1      22.302  21.882  12.668  1.00  0.00    -0.341 OA
ATOM     20  C   UNL     1      22.514  20.524  12.673  1.00  0.00     0.281 C 
ATOM     21  C   UNL     1      24.112  21.029  14.575  1.00  0.00     0.180 C 
ATOM     22  C   UNL     1      23.491  20.033  13.668  1.00  0.00     0.202 C 
BRANCH  18  23
ATOM     23  C   UNL     1      24.517  22.371  11.843  1.00  0.00     0.191 C 
BRANCH  23  24
ATOM     24  O   UNL     1      24.141  22.771  10.555  1.00  0.00    -0.394 OA
ATOM     25  H   UNL     1      23.262  23.225  10.595  1.00  0.00     0.210 HD
ENDBRANCH  23  24
ENDBRANCH  18  23
BRANCH  20  26
ATOM     26  O   UNL     1      22.956  20.177  11.391  1.00  0.00    -0.350 OA
BRANCH  26  27
ATOM     27  C   UNL     1      22.528  18.948  10.960  1.00  0.00     0.169 C 
BRANCH  27  28
ATOM     28  C   UNL     1      21.320  19.191  10.072  1.00  0.00     0.119 C 
BRANCH  28  29
ATOM     29  N   UNL     1      20.166  18.435  10.502  1.00  0.00    -0.092 NA
ATOM     30  N   UNL     1      19.172  19.021  10.969  1.00  0.00     0.001 N 
ATOM     31  N   UNL     1      18.500  19.540  11.880  1.00  0.00    -0.003 NA
ENDBRANCH  28  29
ENDBRANCH  27  28
ENDBRANCH  26  27
ENDBRANCH  20  26
BRANCH  21  32
ATOM     32  O   UNL     1      25.498  20.715  14.632  1.00  0.00    -0.387 OA
ATOM     33  H   UNL     1      25.653  19.803  14.925  1.00  0.00     0.211 HD
ENDBRANCH  21  32
BRANCH  22  34
ATOM     34  O   UNL     1      22.802  19.088  14.474  1.00  0.00    -0.385 OA
ATOM     35  H   UNL     1      22.783  19.479  15.386  1.00  0.00     0.211 HD
ENDBRANCH  22  34
ENDBRANCH  16  17
ENDBRANCH  11  16
BRANCH  13  36
ATOM     36  O   UNL     1      22.701  26.261  14.626  1.00  0.00    -0.385 OA
ATOM     37  H   UNL     1      22.331  25.899  13.782  1.00  0.00     0.211 HD
ENDBRANCH  13  36
BRANCH  14  38
ATOM     38  O   UNL     1      22.320  25.080  17.915  1.00  0.00    -0.387 OA
ATOM     39  H   UNL     1      22.814  24.232  17.788  1.00  0.00     0.211 HD
ENDBRANCH  14  38
BRANCH  15  40
ATOM     40  O   UNL     1      24.227  27.425  18.052  1.00  0.00    -0.387 OA
ATOM     41  H   UNL     1      24.443  27.055  18.946  1.00  0.00     0.211 HD
ENDBRANCH  15  40
ENDBRANCH   9  10
ENDBRANCH   8   9
ENDBRANCH   3   8
BRANCH   3  42
ATOM     42  C   UNL     1      25.711  24.220  21.469  1.00  0.00     0.364 C 
ATOM     43  O   UNL     1      26.889  24.562  21.187  1.00  0.00    -0.246 OA
BRANCH  42  44
ATOM     44  O   UNL     1      25.612  23.409  22.625  1.00  0.00    -0.477 OA
ATOM     45  H   UNL     1      26.121  23.654  23.474  1.00  0.00     0.296 HD
ENDBRANCH  42  44
ENDBRANCH   3  42
BRANCH   6  46
ATOM     46  O   UNL     1      21.671  25.518  20.544  1.00  0.00    -0.391 OA
ATOM     47  H   UNL     1      21.364  24.962  19.763  1.00  0.00     0.211 HD
ENDBRANCH   6  46
BRANCH   7  48
ATOM     48  N   UNL     1      22.772  24.946  23.837  1.00  0.00    -0.348 N 
ATOM     49  C   UNL     1      22.480  25.514  25.094  1.00  0.00     0.217 C 
ATOM     50  H   UNL     1      23.068  23.970  23.768  1.00  0.00     0.163 HD
ATOM     51  C   UNL     1      22.585  24.683  26.324  1.00  0.00     0.114 C 
ATOM     52  O   UNL     1      22.122  26.730  25.195  1.00  0.00    -0.275 OA
ENDBRANCH   7  48
ENDBRANCH   1   2
BRANCH   1  53
ATOM     53  O   UNL     1      24.448  28.181  20.798  1.00  0.00    -0.388 OA
ATOM     54  H   UNL     1      24.741  27.306  20.405  1.00  0.00     0.211 HD
ENDBRANCH   1  53
BRANCH   1  55
ATOM     55  C   UNL     1      24.896  28.526  23.068  1.00  0.00     0.165 C 
BRANCH  55  56
ATOM     56  O   UNL     1      25.647  27.730  23.886  1.00  0.00    -0.388 OA
ATOM     57  H   UNL     1      25.934  26.880  23.487  1.00  0.00     0.211 HD
ENDBRANCH  55  56
BRANCH  55  58
ATOM     58  C   UNL     1      24.504  29.796  23.718  1.00  0.00     0.154 C 
BRANCH  58  59
ATOM     59  N   UNL     1      23.115  30.160  23.707  1.00  0.00    -0.319 N 
ATOM     60  C   UNL     1      22.525  31.064  22.785  1.00  0.00     0.407 C 
ATOM     61  H   UNL     1      22.461  29.739  24.404  1.00  0.00     0.167 HD
ATOM     62  O   UNL     1      23.215  31.592  21.906  1.00  0.00    -0.225 OA
BRANCH  60  63
ATOM     63  O   UNL     1      21.170  31.413  22.796  1.00  0.00    -0.443 OA
BRANCH  63  64
ATOM     64  C   UNL     1      20.182  30.415  23.059  1.00  0.00     0.294 C 
BRANCH  64  65
ATOM     65  C   UNL     1      19.986  29.497  21.913  1.00  0.00     0.120 A 
ATOM     66  C   UNL     1      19.308  29.845  20.763  1.00  0.00     0.141 A 
ATOM     67  N   UNL     1      20.380  28.229  21.749  1.00  0.00    -0.132 NA
ATOM     68  N   UNL     1      19.313  28.768  19.940  1.00  0.00    -0.226 N 
ATOM     69  N   UNL     1      19.972  27.806  20.568  1.00  0.00    -0.065 NA
BRANCH  68  70
ATOM     70  C   UNL     1      18.733  28.647  18.621  1.00  0.00     0.307 C 
BRANCH  70  71
ATOM     71  O   UNL     1      17.667  27.790  18.602  1.00  0.00    -0.355 OA
BRANCH  71  72
ATOM     72  C   UNL     1      16.638  28.330  17.847  1.00  0.00     0.198 C 
BRANCH  72  73
ATOM     73  C   UNL     1      15.590  28.879  18.779  1.00  0.00    -0.022 A 
ATOM     74  C   UNL     1      14.761  29.873  18.303  1.00  0.00     0.006 A 
ATOM     75  C   UNL     1      15.470  28.404  20.060  1.00  0.00     0.006 A 
ATOM     76  C   UNL     1      13.790  30.403  19.126  1.00  0.00     0.000 A 
ATOM     77  C   UNL     1      14.503  28.943  20.857  1.00  0.00     0.000 A 
ATOM     78  C   UNL     1      13.649  29.943  20.418  1.00  0.00     0.000 A 
ENDBRANCH  72  73
ENDBRANCH  71  72
ENDBRANCH  70  71
ENDBRANCH  68  70
ENDBRANCH  64  65
ENDBRANCH  63  64
ENDBRANCH  60  63
ENDBRANCH  58  59
ENDBRANCH  55  58
ENDBRANCH   1  55
TORSDOF 33
