REMARK VINA RESULT:    -5.646     22.727     27.894
REMARK INTER + INTRA:         -21.041
REMARK INTER:                 -14.813
REMARK INTRA:                  -6.228
REMARK UNBOUND:                -7.145
REMARK SMILES CC(=O)N[C@@H]1[C@@H](O)C[C@](OC[C@H]2O[C@@H](O[C@H]3[C@H](O)[C@@H](O)[C@H](OCCN=[N+]=[N-])O[C@@H]3CO)[C@H](O)[C@@H](O)[C@H]2O)(C(=O)O)O[C@H]1C(O)[C@H](O)CNC(=O)OCc1cn(-c2ccccc2Br)nn1
REMARK SMILES IDX 9 1 8 2 6 3 5 4 42 5 41 6 10 7 11 8 12 9 14 10 13 11 32 12
REMARK SMILES IDX 34 13 36 14 15 15 16 16 29 17 28 18 21 19 17 20 19 21 30 22
REMARK SMILES IDX 31 23 22 25 23 26 24 27 25 28 26 29 27 30 18 31 20 33 33 35
REMARK SMILES IDX 35 37 37 39 38 41 39 42 40 43 7 45 43 47 44 48 45 50 46 51
REMARK SMILES IDX 47 53 48 54 49 55 50 57 51 58 52 59 53 60 54 61 64 62 55 63
REMARK SMILES IDX 63 64 56 65 57 66 61 67 58 68 60 69 62 70 59 71 4 72 2 73
REMARK SMILES IDX 1 75 3 76
REMARK H PARENT 31 24 18 32 20 34 33 36 35 38 37 40 40 44 7 46 44 49 46 52
REMARK H PARENT 48 56 4 74
REMARK Flexibility Score: inf
ROOT
ATOM      1  C   UNL     1       2.117  22.886  34.201  1.00  0.00     0.272 C 
ATOM      2  C   UNL     1       2.867  22.083  35.196  1.00  0.00     0.113 C 
ATOM      3  C   UNL     1       2.518  20.632  35.122  1.00  0.00     0.145 C 
ATOM      4  C   UNL     1       2.439  20.055  33.753  1.00  0.00     0.142 C 
ATOM      5  C   UNL     1       2.417  21.104  32.698  1.00  0.00     0.178 C 
ATOM      6  O   UNL     1       1.823  22.283  32.997  1.00  0.00    -0.332 OA
ENDROOT
BRANCH   1   7
ATOM      7  O   UNL     1       2.701  24.088  33.843  1.00  0.00    -0.338 OA
BRANCH   7   8
ATOM      8  C   UNL     1       3.391  24.759  34.796  1.00  0.00     0.199 C 
BRANCH   8   9
ATOM      9  C   UNL     1       4.041  25.982  34.104  1.00  0.00     0.179 C 
ATOM     10  C   UNL     1       6.070  27.088  34.146  1.00  0.00     0.282 C 
ATOM     11  O   UNL     1       5.039  26.507  34.834  1.00  0.00    -0.341 OA
ATOM     12  C   UNL     1       5.607  27.859  32.930  1.00  0.00     0.202 C 
ATOM     13  C   UNL     1       4.794  26.976  32.008  1.00  0.00     0.179 C 
ATOM     14  C   UNL     1       4.392  25.688  32.700  1.00  0.00     0.177 C 
BRANCH  10  15
ATOM     15  O   UNL     1       7.094  26.199  33.851  1.00  0.00    -0.341 OA
BRANCH  15  16
ATOM     16  C   UNL     1       7.784  25.738  34.947  1.00  0.00     0.184 C 
ATOM     17  C   UNL     1       9.229  26.169  34.998  1.00  0.00     0.178 C 
ATOM     18  O   UNL     1       9.646  25.993  36.308  1.00  0.00    -0.341 OA
ATOM     19  C   UNL     1       9.533  24.728  36.789  1.00  0.00     0.281 C 
ATOM     20  C   UNL     1       7.843  24.214  34.958  1.00  0.00     0.180 C 
ATOM     21  C   UNL     1       8.756  23.747  36.015  1.00  0.00     0.202 C 
BRANCH  17  22
ATOM     22  C   UNL     1       9.473  27.583  34.585  1.00  0.00     0.191 C 
BRANCH  22  23
ATOM     23  O   UNL     1       9.435  27.663  33.195  1.00  0.00    -0.394 OA
ATOM     24  H   UNL     1       8.541  27.912  32.903  1.00  0.00     0.210 HD
ENDBRANCH  22  23
ENDBRANCH  17  22
BRANCH  19  25
ATOM     25  O   UNL     1       8.951  24.842  38.073  1.00  0.00    -0.350 OA
BRANCH  25  26
ATOM     26  C   UNL     1       8.134  23.796  38.398  1.00  0.00     0.169 C 
BRANCH  26  27
ATOM     27  C   UNL     1       6.834  24.167  39.040  1.00  0.00     0.119 C 
BRANCH  27  28
ATOM     28  N   UNL     1       5.781  23.866  38.082  1.00  0.00    -0.092 NA
ATOM     29  N   UNL     1       5.116  22.847  38.203  1.00  0.00     0.001 N 
ATOM     30  N   UNL     1       4.392  21.869  38.344  1.00  0.00    -0.003 NA
ENDBRANCH  27  28
ENDBRANCH  26  27
ENDBRANCH  25  26
ENDBRANCH  19  25
BRANCH  20  31
ATOM     31  O   UNL     1       6.587  23.658  35.132  1.00  0.00    -0.387 OA
ATOM     32  H   UNL     1       5.875  24.140  34.651  1.00  0.00     0.211 HD
ENDBRANCH  20  31
BRANCH  21  33
ATOM     33  O   UNL     1       9.616  22.794  35.392  1.00  0.00    -0.385 OA
ATOM     34  H   UNL     1       9.443  21.887  35.737  1.00  0.00     0.211 HD
ENDBRANCH  21  33
ENDBRANCH  15  16
ENDBRANCH  10  15
BRANCH  12  35
ATOM     35  O   UNL     1       4.921  29.020  33.291  1.00  0.00    -0.385 OA
ATOM     36  H   UNL     1       4.162  28.822  33.892  1.00  0.00     0.211 HD
ENDBRANCH  12  35
BRANCH  13  37
ATOM     37  O   UNL     1       5.451  26.770  30.811  1.00  0.00    -0.387 OA
ATOM     38  H   UNL     1       4.844  26.401  30.137  1.00  0.00     0.211 HD
ENDBRANCH  13  37
BRANCH  14  39
ATOM     39  O   UNL     1       5.428  24.783  32.548  1.00  0.00    -0.387 OA
ATOM     40  H   UNL     1       5.319  24.201  31.757  1.00  0.00     0.211 HD
ENDBRANCH  14  39
ENDBRANCH   8   9
ENDBRANCH   7   8
ENDBRANCH   1   7
BRANCH   1  41
ATOM     41  C   UNL     1       0.753  23.138  34.819  1.00  0.00     0.364 C 
ATOM     42  O   UNL     1      -0.223  23.126  34.038  1.00  0.00    -0.246 OA
BRANCH  41  43
ATOM     43  O   UNL     1       0.555  23.369  36.147  1.00  0.00    -0.477 OA
ATOM     44  H   UNL     1       1.346  23.639  36.752  1.00  0.00     0.296 HD
ENDBRANCH  41  43
ENDBRANCH   1  41
BRANCH   3  45
ATOM     45  O   UNL     1       3.443  19.919  35.918  1.00  0.00    -0.391 OA
ATOM     46  H   UNL     1       2.944  19.175  36.354  1.00  0.00     0.211 HD
ENDBRANCH   3  45
BRANCH   5  47
ATOM     47  C   UNL     1       3.771  21.226  32.000  1.00  0.00     0.176 C 
BRANCH  47  48
ATOM     48  O   UNL     1       4.106  22.517  31.679  1.00  0.00    -0.388 OA
ATOM     49  H   UNL     1       3.433  22.930  31.062  1.00  0.00     0.211 HD
ENDBRANCH  47  48
BRANCH  47  50
ATOM     50  C   UNL     1       3.804  20.396  30.706  1.00  0.00     0.165 C 
BRANCH  50  51
ATOM     51  O   UNL     1       5.064  20.501  30.176  1.00  0.00    -0.388 OA
ATOM     52  H   UNL     1       5.247  21.279  29.620  1.00  0.00     0.211 HD
ENDBRANCH  50  51
BRANCH  50  53
ATOM     53  C   UNL     1       2.764  20.884  29.751  1.00  0.00     0.154 C 
BRANCH  53  54
ATOM     54  N   UNL     1       3.234  21.952  28.936  1.00  0.00    -0.319 N 
ATOM     55  C   UNL     1       2.481  22.780  28.077  1.00  0.00     0.407 C 
ATOM     56  H   UNL     1       4.280  22.172  28.964  1.00  0.00     0.167 HD
ATOM     57  O   UNL     1       1.259  22.634  27.969  1.00  0.00    -0.225 OA
BRANCH  55  58
ATOM     58  O   UNL     1       3.102  23.780  27.330  1.00  0.00    -0.443 OA
BRANCH  58  59
ATOM     59  C   UNL     1       3.429  25.058  27.819  1.00  0.00     0.294 C 
BRANCH  59  60
ATOM     60  C   UNL     1       3.951  25.936  26.722  1.00  0.00     0.121 A 
ATOM     61  C   UNL     1       5.059  26.775  26.841  1.00  0.00     0.144 A 
ATOM     62  N   UNL     1       3.497  26.104  25.490  1.00  0.00    -0.131 NA
ATOM     63  N   UNL     1       5.210  27.404  25.667  1.00  0.00    -0.219 N 
ATOM     64  N   UNL     1       4.266  26.996  24.855  1.00  0.00    -0.062 NA
BRANCH  63  65
ATOM     65  C   UNL     1       6.210  28.353  25.341  1.00  0.00     0.081 A 
ATOM     66  C   UNL     1       5.973  29.708  25.413  1.00  0.00     0.029 A 
ATOM     67  C   UNL     1       7.452  27.935  24.945  1.00  0.00     0.043 A 
ATOM     68  C   UNL     1       6.981  30.610  25.086  1.00  0.00     0.002 A 
ATOM     69  C   UNL     1       8.452  28.820  24.621  1.00  0.00     0.018 A 
ATOM     70  Br  UNL     1       7.820  26.069  24.829  1.00  0.00    -0.048 Br
ATOM     71  C   UNL     1       8.227  30.175  24.689  1.00  0.00     0.001 A 
ENDBRANCH  63  65
ENDBRANCH  59  60
ENDBRANCH  58  59
ENDBRANCH  55  58
ENDBRANCH  53  54
ENDBRANCH  50  53
ENDBRANCH  47  50
ENDBRANCH   5  47
BRANCH   4  72
ATOM     72  N   UNL     1       1.326  19.148  33.582  1.00  0.00    -0.348 N 
ATOM     73  C   UNL     1       1.441  17.774  33.905  1.00  0.00     0.217 C 
ATOM     74  H   UNL     1       0.420  19.496  33.216  1.00  0.00     0.163 HD
ATOM     75  C   UNL     1       0.242  16.907  33.696  1.00  0.00     0.114 C 
ATOM     76  O   UNL     1       2.495  17.281  34.349  1.00  0.00    -0.275 OA
ENDBRANCH   4  72
TORSDOF 30
