REMARK VINA RESULT:    -5.736      0.000      0.000
REMARK INTER + INTRA:         -23.353
REMARK INTER:                 -17.426
REMARK INTRA:                  -5.927
REMARK UNBOUND:                -8.562
REMARK SMILES CC(=O)N[C@@H]1[C@@H](O)C[C@](OC[C@H]2O[C@@H](O[C@H]3[C@H](O)[C@@H](O)[C@H](OCCN=[N+]=[N-])O[C@@H]3CO)[C@H](O)[C@@H](O)[C@H]2O)(C(=O)O)O[C@H]1C(O)[C@H](O)CNC(=O)OCc1cn(Cc2ccc(C#N)cc2)nn1
REMARK SMILES IDX 9 1 8 2 6 3 5 4 42 5 41 6 10 7 11 8 12 9 14 10 13 11 32 12
REMARK SMILES IDX 34 13 36 14 15 15 16 16 29 17 28 18 21 19 17 20 19 21 30 22
REMARK SMILES IDX 31 23 22 25 23 26 24 27 25 28 26 29 27 30 18 31 20 33 33 35
REMARK SMILES IDX 35 37 37 39 38 41 39 42 40 43 7 45 43 47 44 48 45 50 46 51
REMARK SMILES IDX 47 53 48 54 49 55 50 57 51 58 52 59 53 60 54 61 66 62 55 63
REMARK SMILES IDX 65 64 56 65 57 66 58 67 64 68 59 69 63 70 60 71 61 72 62 73
REMARK SMILES IDX 4 74 2 75 1 77 3 78
REMARK H PARENT 31 24 18 32 20 34 33 36 35 38 37 40 40 44 7 46 44 49 46 52
REMARK H PARENT 48 56 4 76
REMARK Flexibility Score: inf
ROOT
ATOM      1  C   UNL     1      22.561  25.293  20.698  1.00  0.00     0.272 C 
ATOM      2  C   UNL     1      21.961  24.106  21.364  1.00  0.00     0.113 C 
ATOM      3  C   UNL     1      21.688  24.262  22.818  1.00  0.00     0.145 C 
ATOM      4  C   UNL     1      22.734  25.231  23.392  1.00  0.00     0.142 C 
ATOM      5  C   UNL     1      23.945  25.103  22.518  1.00  0.00     0.178 C 
ATOM      6  O   UNL     1      23.735  25.736  21.327  1.00  0.00    -0.332 OA
ENDROOT
BRANCH   1   7
ATOM      7  O   UNL     1      21.714  26.356  20.472  1.00  0.00    -0.338 OA
BRANCH   7   8
ATOM      8  C   UNL     1      22.278  27.423  19.858  1.00  0.00     0.199 C 
BRANCH   8   9
ATOM      9  C   UNL     1      21.623  28.749  20.282  1.00  0.00     0.179 C 
ATOM     10  C   UNL     1      19.590  29.540  21.034  1.00  0.00     0.282 C 
ATOM     11  O   UNL     1      20.267  28.468  20.454  1.00  0.00    -0.341 OA
ATOM     12  C   UNL     1      20.089  29.881  22.400  1.00  0.00     0.202 C 
ATOM     13  C   UNL     1      21.260  28.990  22.743  1.00  0.00     0.179 C 
ATOM     14  C   UNL     1      22.246  29.145  21.595  1.00  0.00     0.177 C 
BRANCH  10  15
ATOM     15  O   UNL     1      18.254  29.161  21.143  1.00  0.00    -0.341 OA
BRANCH  15  16
ATOM     16  C   UNL     1      17.644  28.936  19.910  1.00  0.00     0.184 C 
ATOM     17  C   UNL     1      17.500  30.224  19.181  1.00  0.00     0.178 C 
ATOM     18  O   UNL     1      16.291  30.849  19.283  1.00  0.00    -0.341 OA
ATOM     19  C   UNL     1      15.413  30.344  20.209  1.00  0.00     0.281 C 
ATOM     20  C   UNL     1      16.397  28.119  20.024  1.00  0.00     0.180 C 
ATOM     21  C   UNL     1      15.120  28.901  19.866  1.00  0.00     0.202 C 
BRANCH  17  22
ATOM     22  C   UNL     1      17.927  30.028  17.728  1.00  0.00     0.191 C 
BRANCH  22  23
ATOM     23  O   UNL     1      18.964  29.095  17.715  1.00  0.00    -0.394 OA
ATOM     24  H   UNL     1      19.294  28.935  16.779  1.00  0.00     0.210 HD
ENDBRANCH  22  23
ENDBRANCH  17  22
BRANCH  19  25
ATOM     25  O   UNL     1      14.215  31.070  20.053  1.00  0.00    -0.350 OA
BRANCH  25  26
ATOM     26  C   UNL     1      13.907  31.767  21.213  1.00  0.00     0.169 C 
BRANCH  26  27
ATOM     27  C   UNL     1      12.526  31.395  21.717  1.00  0.00     0.119 C 
BRANCH  27  28
ATOM     28  N   UNL     1      12.521  30.122  22.413  1.00  0.00    -0.092 NA
ATOM     29  N   UNL     1      12.940  30.047  23.557  1.00  0.00     0.001 N 
ATOM     30  N   UNL     1      12.918  29.850  24.781  1.00  0.00    -0.003 NA
ENDBRANCH  27  28
ENDBRANCH  26  27
ENDBRANCH  25  26
ENDBRANCH  19  25
BRANCH  20  31
ATOM     31  O   UNL     1      16.401  26.997  19.187  1.00  0.00    -0.387 OA
ATOM     32  H   UNL     1      17.339  26.783  18.906  1.00  0.00     0.211 HD
ENDBRANCH  20  31
BRANCH  21  33
ATOM     33  O   UNL     1      14.097  28.396  20.671  1.00  0.00    -0.385 OA
ATOM     34  H   UNL     1      13.260  28.844  20.381  1.00  0.00     0.211 HD
ENDBRANCH  21  33
ENDBRANCH  15  16
ENDBRANCH  10  15
BRANCH  12  35
ATOM     35  O   UNL     1      20.477  31.193  22.561  1.00  0.00    -0.385 OA
ATOM     36  H   UNL     1      21.467  31.266  22.455  1.00  0.00     0.211 HD
ENDBRANCH  12  35
BRANCH  13  37
ATOM     37  O   UNL     1      20.794  27.691  22.869  1.00  0.00    -0.387 OA
ATOM     38  H   UNL     1      21.196  27.047  22.246  1.00  0.00     0.211 HD
ENDBRANCH  13  37
BRANCH  14  39
ATOM     39  O   UNL     1      23.454  28.534  21.826  1.00  0.00    -0.387 OA
ATOM     40  H   UNL     1      24.126  29.203  22.077  1.00  0.00     0.211 HD
ENDBRANCH  14  39
ENDBRANCH   8   9
ENDBRANCH   7   8
ENDBRANCH   1   7
BRANCH   1  41
ATOM     41  C   UNL     1      23.057  24.819  19.362  1.00  0.00     0.364 C 
ATOM     42  O   UNL     1      22.321  24.153  18.627  1.00  0.00    -0.246 OA
BRANCH  41  43
ATOM     43  O   UNL     1      24.337  25.144  18.980  1.00  0.00    -0.477 OA
ATOM     44  H   UNL     1      24.747  26.062  19.099  1.00  0.00     0.296 HD
ENDBRANCH  41  43
ENDBRANCH   1  41
BRANCH   3  45
ATOM     45  O   UNL     1      20.410  24.592  23.169  1.00  0.00    -0.391 OA
ATOM     46  H   UNL     1      19.814  23.817  23.120  1.00  0.00     0.211 HD
ENDBRANCH   3  45
BRANCH   5  47
ATOM     47  C   UNL     1      25.231  25.596  23.195  1.00  0.00     0.176 C 
BRANCH  47  48
ATOM     48  O   UNL     1      25.572  24.565  24.102  1.00  0.00    -0.388 OA
ATOM     49  H   UNL     1      26.483  24.252  23.876  1.00  0.00     0.211 HD
ENDBRANCH  47  48
BRANCH  47  50
ATOM     50  C   UNL     1      26.322  25.772  22.237  1.00  0.00     0.165 C 
BRANCH  50  51
ATOM     51  O   UNL     1      26.047  26.847  21.337  1.00  0.00    -0.388 OA
ATOM     52  H   UNL     1      26.516  27.633  21.759  1.00  0.00     0.211 HD
ENDBRANCH  50  51
BRANCH  50  53
ATOM     53  C   UNL     1      26.757  24.589  21.465  1.00  0.00     0.154 C 
BRANCH  53  54
ATOM     54  N   UNL     1      27.102  23.379  22.069  1.00  0.00    -0.319 N 
ATOM     55  C   UNL     1      27.608  22.193  21.504  1.00  0.00     0.407 C 
ATOM     56  H   UNL     1      26.969  23.317  23.139  1.00  0.00     0.167 HD
ATOM     57  O   UNL     1      27.856  22.065  20.297  1.00  0.00    -0.225 OA
BRANCH  55  58
ATOM     58  O   UNL     1      27.868  21.068  22.301  1.00  0.00    -0.443 OA
BRANCH  58  59
ATOM     59  C   UNL     1      28.780  20.078  21.854  1.00  0.00     0.294 C 
BRANCH  59  60
ATOM     60  C   UNL     1      29.879  19.960  22.876  1.00  0.00     0.120 A 
ATOM     61  C   UNL     1      30.787  18.922  22.918  1.00  0.00     0.138 A 
ATOM     62  N   UNL     1      30.188  20.775  23.902  1.00  0.00    -0.132 NA
ATOM     63  N   UNL     1      31.619  19.139  23.971  1.00  0.00    -0.248 N 
ATOM     64  N   UNL     1      31.222  20.242  24.514  1.00  0.00    -0.067 NA
BRANCH  63  65
ATOM     65  C   UNL     1      32.691  18.220  24.320  1.00  0.00     0.181 C 
BRANCH  65  66
ATOM     66  C   UNL     1      32.588  18.062  25.817  1.00  0.00    -0.026 A 
ATOM     67  C   UNL     1      33.404  18.830  26.609  1.00  0.00     0.007 A 
ATOM     68  C   UNL     1      31.680  17.151  26.361  1.00  0.00     0.007 A 
ATOM     69  C   UNL     1      33.382  18.751  27.983  1.00  0.00     0.020 A 
ATOM     70  C   UNL     1      31.658  17.072  27.731  1.00  0.00     0.020 A 
ATOM     71  C   UNL     1      32.468  17.832  28.510  1.00  0.00     0.052 A 
BRANCH  71  72
ATOM     72  C   UNL     1      32.440  17.715  29.963  1.00  0.00     0.099 C 
ATOM     73  N   UNL     1      32.404  17.605  31.121  1.00  0.00    -0.192 NA
ENDBRANCH  71  72
ENDBRANCH  65  66
ENDBRANCH  63  65
ENDBRANCH  59  60
ENDBRANCH  58  59
ENDBRANCH  55  58
ENDBRANCH  53  54
ENDBRANCH  50  53
ENDBRANCH  47  50
ENDBRANCH   5  47
BRANCH   4  74
ATOM     74  N   UNL     1      22.962  24.945  24.787  1.00  0.00    -0.348 N 
ATOM     75  C   UNL     1      22.224  25.669  25.759  1.00  0.00     0.217 C 
ATOM     76  H   UNL     1      23.637  24.234  25.106  1.00  0.00     0.163 HD
ATOM     77  C   UNL     1      22.401  25.431  27.203  1.00  0.00     0.114 C 
ATOM     78  O   UNL     1      21.375  26.557  25.411  1.00  0.00    -0.275 OA
ENDBRANCH   4  74
TORSDOF 32
