REMARK VINA RESULT:    -5.969      2.976      7.999
REMARK INTER + INTRA:         -21.315
REMARK INTER:                 -15.043
REMARK INTRA:                  -6.272
REMARK UNBOUND:                -6.272
REMARK SMILES CC(=O)N[C@@H]1[C@@H](O)C[C@](OC[C@H]2O[C@@H](O[C@H]3[C@H](O)[C@@H](O)[C@H](OCCN=[N+]=[N-])O[C@@H]3CO)[C@H](O)[C@@H](O)[C@H]2O)(C(=O)O)O[C@H]1C(O)[C@H](O)CNC(=O)OCc1cn(Cc2cccc(Br)c2)nn1
REMARK SMILES IDX 9 1 8 2 6 3 5 4 42 5 41 6 10 7 11 8 12 9 14 10 13 11 32 12
REMARK SMILES IDX 34 13 36 14 15 15 16 16 29 17 28 18 21 19 17 20 19 21 30 22
REMARK SMILES IDX 31 23 22 25 23 26 24 27 25 28 26 29 27 30 18 31 20 33 33 35
REMARK SMILES IDX 35 37 37 39 38 41 39 42 40 43 7 45 43 47 44 48 45 50 46 51
REMARK SMILES IDX 47 53 48 54 49 55 50 57 51 58 52 59 53 60 54 61 65 62 55 63
REMARK SMILES IDX 64 64 56 65 57 66 58 67 63 68 59 69 61 70 60 71 62 72 4 73
REMARK SMILES IDX 2 74 1 76 3 77
REMARK H PARENT 31 24 18 32 20 34 33 36 35 38 37 40 40 44 7 46 44 49 46 52
REMARK H PARENT 48 56 4 75
REMARK Flexibility Score: inf
ROOT
ATOM      1  C   UNL     1      15.446  29.500  18.933  1.00  0.00     0.272 C 
ATOM      2  C   UNL     1      14.093  30.020  18.629  1.00  0.00     0.113 C 
ATOM      3  C   UNL     1      13.894  31.474  18.914  1.00  0.00     0.145 C 
ATOM      4  C   UNL     1      14.706  31.960  20.094  1.00  0.00     0.142 C 
ATOM      5  C   UNL     1      15.958  31.235  20.316  1.00  0.00     0.178 C 
ATOM      6  O   UNL     1      16.386  30.414  19.320  1.00  0.00    -0.332 OA
ENDROOT
BRANCH   1   7
ATOM      7  O   UNL     1      15.928  28.780  17.794  1.00  0.00    -0.338 OA
BRANCH   7   8
ATOM      8  C   UNL     1      17.250  29.011  17.547  1.00  0.00     0.199 C 
BRANCH   8   9
ATOM      9  C   UNL     1      17.487  29.239  16.039  1.00  0.00     0.179 C 
ATOM     10  C   UNL     1      16.191  29.229  14.089  1.00  0.00     0.282 C 
ATOM     11  O   UNL     1      16.375  28.776  15.416  1.00  0.00    -0.341 OA
ATOM     12  C   UNL     1      17.409  29.856  13.536  1.00  0.00     0.202 C 
ATOM     13  C   UNL     1      17.949  30.978  14.405  1.00  0.00     0.179 C 
ATOM     14  C   UNL     1      17.585  30.739  15.860  1.00  0.00     0.177 C 
BRANCH  10  15
ATOM     15  O   UNL     1      15.050  29.992  14.154  1.00  0.00    -0.341 OA
BRANCH  15  16
ATOM     16  C   UNL     1      14.127  29.811  13.188  1.00  0.00     0.184 C 
ATOM     17  C   UNL     1      13.431  31.120  12.918  1.00  0.00     0.178 C 
ATOM     18  O   UNL     1      12.607  30.966  11.806  1.00  0.00    -0.341 OA
ATOM     19  C   UNL     1      11.552  30.076  12.017  1.00  0.00     0.281 C 
ATOM     20  C   UNL     1      12.998  28.863  13.580  1.00  0.00     0.180 C 
ATOM     21  C   UNL     1      12.160  28.723  12.300  1.00  0.00     0.202 C 
BRANCH  17  22
ATOM     22  C   UNL     1      14.446  32.163  12.594  1.00  0.00     0.191 C 
BRANCH  22  23
ATOM     23  O   UNL     1      14.914  32.774  13.744  1.00  0.00    -0.394 OA
ATOM     24  H   UNL     1      15.317  33.641  13.482  1.00  0.00     0.210 HD
ENDBRANCH  22  23
ENDBRANCH  17  22
BRANCH  19  25
ATOM     25  O   UNL     1      10.794  30.100  10.866  1.00  0.00    -0.350 OA
BRANCH  25  26
ATOM     26  C   UNL     1      11.474  30.404   9.720  1.00  0.00     0.169 C 
BRANCH  26  27
ATOM     27  C   UNL     1      11.590  29.260   8.738  1.00  0.00     0.119 C 
BRANCH  27  28
ATOM     28  N   UNL     1      12.997  29.077   8.460  1.00  0.00    -0.092 NA
ATOM     29  N   UNL     1      13.434  28.467   7.496  1.00  0.00     0.001 N 
ATOM     30  N   UNL     1      13.772  27.959   6.429  1.00  0.00    -0.003 NA
ENDBRANCH  27  28
ENDBRANCH  26  27
ENDBRANCH  25  26
ENDBRANCH  19  25
BRANCH  20  31
ATOM     31  O   UNL     1      13.418  27.614  13.936  1.00  0.00    -0.387 OA
ATOM     32  H   UNL     1      13.757  27.530  14.855  1.00  0.00     0.211 HD
ENDBRANCH  20  31
BRANCH  21  33
ATOM     33  O   UNL     1      11.247  27.727  12.526  1.00  0.00    -0.385 OA
ATOM     34  H   UNL     1      10.294  28.066  12.523  1.00  0.00     0.211 HD
ENDBRANCH  21  33
ENDBRANCH  15  16
ENDBRANCH  10  15
BRANCH  12  35
ATOM     35  O   UNL     1      18.405  28.848  13.462  1.00  0.00    -0.385 OA
ATOM     36  H   UNL     1      19.096  29.024  14.151  1.00  0.00     0.211 HD
ENDBRANCH  12  35
BRANCH  13  37
ATOM     37  O   UNL     1      17.560  32.235  13.953  1.00  0.00    -0.387 OA
ATOM     38  H   UNL     1      17.809  32.311  12.975  1.00  0.00     0.211 HD
ENDBRANCH  13  37
BRANCH  14  39
ATOM     39  O   UNL     1      16.387  31.301  16.233  1.00  0.00    -0.387 OA
ATOM     40  H   UNL     1      16.065  31.943  15.528  1.00  0.00     0.211 HD
ENDBRANCH  14  39
ENDBRANCH   8   9
ENDBRANCH   7   8
ENDBRANCH   1   7
BRANCH   1  41
ATOM     41  C   UNL     1      15.337  28.448  19.987  1.00  0.00     0.364 C 
ATOM     42  O   UNL     1      14.233  28.322  20.626  1.00  0.00    -0.246 OA
BRANCH  41  43
ATOM     43  O   UNL     1      16.324  27.578  20.358  1.00  0.00    -0.477 OA
ATOM     44  H   UNL     1      16.766  27.013  19.621  1.00  0.00     0.296 HD
ENDBRANCH  41  43
ENDBRANCH   1  41
BRANCH   3  45
ATOM     45  O   UNL     1      14.070  32.249  17.778  1.00  0.00    -0.391 OA
ATOM     46  H   UNL     1      14.965  32.179  17.381  1.00  0.00     0.211 HD
ENDBRANCH   3  45
BRANCH   5  47
ATOM     47  C   UNL     1      17.112  32.160  20.735  1.00  0.00     0.176 C 
BRANCH  47  48
ATOM     48  O   UNL     1      16.508  33.476  20.853  1.00  0.00    -0.388 OA
ATOM     49  H   UNL     1      15.542  33.347  20.677  1.00  0.00     0.211 HD
ENDBRANCH  47  48
BRANCH  47  50
ATOM     50  C   UNL     1      17.712  31.858  22.059  1.00  0.00     0.165 C 
BRANCH  50  51
ATOM     51  O   UNL     1      18.520  33.018  22.360  1.00  0.00    -0.388 OA
ATOM     52  H   UNL     1      18.140  33.437  23.191  1.00  0.00     0.211 HD
ENDBRANCH  50  51
BRANCH  50  53
ATOM     53  C   UNL     1      18.682  30.729  22.147  1.00  0.00     0.154 C 
BRANCH  53  54
ATOM     54  N   UNL     1      19.572  30.626  21.001  1.00  0.00    -0.319 N 
ATOM     55  C   UNL     1      19.649  29.399  20.298  1.00  0.00     0.407 C 
ATOM     56  H   UNL     1      20.149  31.425  20.685  1.00  0.00     0.167 HD
ATOM     57  O   UNL     1      18.956  28.410  20.669  1.00  0.00    -0.225 OA
BRANCH  55  58
ATOM     58  O   UNL     1      20.481  29.252  19.188  1.00  0.00    -0.443 OA
BRANCH  58  59
ATOM     59  C   UNL     1      21.888  29.083  19.414  1.00  0.00     0.294 C 
BRANCH  59  60
ATOM     60  C   UNL     1      22.185  27.632  19.417  1.00  0.00     0.120 A 
ATOM     61  C   UNL     1      22.673  26.862  20.444  1.00  0.00     0.138 A 
ATOM     62  N   UNL     1      22.012  26.821  18.366  1.00  0.00    -0.132 NA
ATOM     63  N   UNL     1      22.779  25.603  19.977  1.00  0.00    -0.248 N 
ATOM     64  N   UNL     1      22.374  25.603  18.716  1.00  0.00    -0.067 NA
BRANCH  63  65
ATOM     65  C   UNL     1      23.260  24.462  20.751  1.00  0.00     0.181 C 
BRANCH  65  66
ATOM     66  C   UNL     1      22.768  24.514  22.152  1.00  0.00    -0.025 A 
ATOM     67  C   UNL     1      21.415  24.531  22.421  1.00  0.00     0.006 A 
ATOM     68  C   UNL     1      23.611  24.551  23.236  1.00  0.00     0.021 A 
ATOM     69  C   UNL     1      20.896  24.582  23.695  1.00  0.00     0.002 A 
ATOM     70  C   UNL     1      23.126  24.602  24.522  1.00  0.00     0.018 A 
ATOM     71  C   UNL     1      21.780  24.619  24.783  1.00  0.00     0.016 A 
ATOM     72  Br  UNL     1      24.297  24.653  26.036  1.00  0.00    -0.051 Br
ENDBRANCH  65  66
ENDBRANCH  63  65
ENDBRANCH  59  60
ENDBRANCH  58  59
ENDBRANCH  55  58
ENDBRANCH  53  54
ENDBRANCH  50  53
ENDBRANCH  47  50
ENDBRANCH   5  47
BRANCH   4  73
ATOM     73  N   UNL     1      13.860  31.919  21.314  1.00  0.00    -0.348 N 
ATOM     74  C   UNL     1      13.364  33.117  21.885  1.00  0.00     0.217 C 
ATOM     75  H   UNL     1      13.617  31.006  21.774  1.00  0.00     0.163 HD
ATOM     76  C   UNL     1      12.505  33.101  23.121  1.00  0.00     0.114 C 
ATOM     77  O   UNL     1      13.654  34.213  21.335  1.00  0.00    -0.275 OA
ENDBRANCH   4  73
TORSDOF 31
