REMARK VINA RESULT:    -5.286     13.157     18.387
REMARK INTER + INTRA:         -20.329
REMARK INTER:                  -9.602
REMARK INTRA:                 -10.726
REMARK UNBOUND:                -6.390
REMARK SMILES CCOC(=O)Cn1cc(COC(=O)NC[C@@H](O)C(O)[C@@H]2O[C@@](OC[C@H]3O[C@@H](O[C@H]4[C@H](O)[C@@H](O)[C@H](OCCN=[N+]=[N-])O[C@@H]4CO)[C@H](O)[C@@H](O)[C@H]3O)(C(=O)O)C[C@H](O)[C@H]2NC(C)=O)nn1
REMARK SMILES IDX 18 1 20 2 22 3 54 4 21 5 55 6 57 7 23 8 24 9 25 10 27 11
REMARK SMILES IDX 26 12 45 13 47 14 49 15 28 16 29 17 42 18 41 19 34 20 30 21
REMARK SMILES IDX 32 22 43 23 44 24 35 26 36 27 37 28 38 29 39 30 40 31 31 32
REMARK SMILES IDX 33 34 46 36 48 38 50 40 51 42 52 43 53 44 56 46 58 48 59 49
REMARK SMILES IDX 60 51 61 52 19 53 16 55 17 56 15 58 14 59 12 60 13 62 11 63
REMARK SMILES IDX 10 64 9 65 8 66 62 67 7 68 63 69 6 70 4 71 5 72 3 73 2 74
REMARK SMILES IDX 1 75
REMARK H PARENT 44 25 31 33 33 35 46 37 48 39 50 41 53 45 56 47 58 50 19 54
REMARK H PARENT 17 57 14 61
REMARK Flexibility Score: inf
ROOT
ATOM      1  C   UNL     1      22.782  20.638  12.774  1.00  0.00     0.176 C 
ENDROOT
BRANCH   1   2
ATOM      2  C   UNL     1      21.687  20.746  11.749  1.00  0.00     0.178 C 
ATOM      3  C   UNL     1      20.371  19.423  10.340  1.00  0.00     0.272 C 
ATOM      4  C   UNL     1      20.050  20.744   9.731  1.00  0.00     0.113 C 
ATOM      5  O   UNL     1      21.024  19.558  11.584  1.00  0.00    -0.332 OA
ATOM      6  C   UNL     1      21.238  21.628   9.527  1.00  0.00     0.145 C 
ATOM      7  C   UNL     1      22.351  21.146  10.443  1.00  0.00     0.142 C 
BRANCH   3   8
ATOM      8  O   UNL     1      21.104  18.565   9.549  1.00  0.00    -0.338 OA
BRANCH   8   9
ATOM      9  C   UNL     1      21.733  17.523  10.138  1.00  0.00     0.199 C 
BRANCH   9  10
ATOM     10  C   UNL     1      22.484  16.735   9.047  1.00  0.00     0.179 C 
ATOM     11  C   UNL     1      23.016  16.749   6.789  1.00  0.00     0.282 C 
ATOM     12  O   UNL     1      22.208  17.211   7.805  1.00  0.00    -0.341 OA
ATOM     13  C   UNL     1      24.482  16.881   7.071  1.00  0.00     0.202 C 
ATOM     14  C   UNL     1      24.771  16.049   8.293  1.00  0.00     0.179 C 
ATOM     15  C   UNL     1      23.933  16.591   9.403  1.00  0.00     0.177 C 
BRANCH  11  16
ATOM     16  O   UNL     1      22.751  17.350   5.570  1.00  0.00    -0.341 OA
BRANCH  16  17
ATOM     17  C   UNL     1      21.731  18.267   5.575  1.00  0.00     0.184 C 
ATOM     18  C   UNL     1      20.608  17.922   4.620  1.00  0.00     0.178 C 
ATOM     19  O   UNL     1      20.566  18.796   3.543  1.00  0.00    -0.341 OA
ATOM     20  C   UNL     1      20.234  20.111   3.941  1.00  0.00     0.281 C 
ATOM     21  C   UNL     1      22.282  19.640   5.192  1.00  0.00     0.180 C 
ATOM     22  C   UNL     1      21.080  20.566   5.087  1.00  0.00     0.202 C 
BRANCH  18  23
ATOM     23  C   UNL     1      19.305  17.819   5.370  1.00  0.00     0.191 C 
BRANCH  23  24
ATOM     24  O   UNL     1      19.507  17.991   6.752  1.00  0.00    -0.394 OA
ATOM     25  H   UNL     1      18.774  18.493   7.159  1.00  0.00     0.210 HD
ENDBRANCH  23  24
ENDBRANCH  18  23
BRANCH  20  26
ATOM     26  O   UNL     1      18.892  20.214   4.200  1.00  0.00    -0.350 OA
BRANCH  26  27
ATOM     27  C   UNL     1      18.116  21.032   3.451  1.00  0.00     0.169 C 
BRANCH  27  28
ATOM     28  C   UNL     1      17.979  22.460   3.827  1.00  0.00     0.119 C 
BRANCH  28  29
ATOM     29  N   UNL     1      17.477  22.754   5.125  1.00  0.00    -0.092 NA
ATOM     30  N   UNL     1      18.223  22.738   6.127  1.00  0.00     0.001 N 
ATOM     31  N   UNL     1      19.158  22.862   6.938  1.00  0.00    -0.003 NA
ENDBRANCH  28  29
ENDBRANCH  27  28
ENDBRANCH  26  27
ENDBRANCH  20  26
BRANCH  21  32
ATOM     32  O   UNL     1      23.138  20.089   6.202  1.00  0.00    -0.387 OA
ATOM     33  H   UNL     1      23.078  19.415   6.948  1.00  0.00     0.211 HD
ENDBRANCH  21  32
BRANCH  22  34
ATOM     34  O   UNL     1      21.524  21.884   4.950  1.00  0.00    -0.385 OA
ATOM     35  H   UNL     1      22.073  22.033   4.141  1.00  0.00     0.211 HD
ENDBRANCH  22  34
ENDBRANCH  16  17
ENDBRANCH  11  16
BRANCH  13  36
ATOM     36  O   UNL     1      25.190  16.396   5.978  1.00  0.00    -0.385 OA
ATOM     37  H   UNL     1      25.718  15.600   6.143  1.00  0.00     0.211 HD
ENDBRANCH  13  36
BRANCH  14  38
ATOM     38  O   UNL     1      26.135  16.221   8.617  1.00  0.00    -0.387 OA
ATOM     39  H   UNL     1      26.281  16.061   9.582  1.00  0.00     0.211 HD
ENDBRANCH  14  38
BRANCH  15  40
ATOM     40  O   UNL     1      24.494  17.831   9.786  1.00  0.00    -0.387 OA
ATOM     41  H   UNL     1      23.859  18.509   9.426  1.00  0.00     0.211 HD
ENDBRANCH  15  40
ENDBRANCH   9  10
ENDBRANCH   8   9
ENDBRANCH   3   8
BRANCH   3  42
ATOM     42  C   UNL     1      19.086  18.773  10.696  1.00  0.00     0.364 C 
ATOM     43  O   UNL     1      18.352  18.320   9.789  1.00  0.00    -0.246 OA
BRANCH  42  44
ATOM     44  O   UNL     1      18.694  18.663  12.000  1.00  0.00    -0.477 OA
ATOM     45  H   UNL     1      19.254  19.021  12.769  1.00  0.00     0.296 HD
ENDBRANCH  42  44
ENDBRANCH   3  42
BRANCH   6  46
ATOM     46  O   UNL     1      21.656  21.752   8.223  1.00  0.00    -0.391 OA
ATOM     47  H   UNL     1      21.265  21.003   7.691  1.00  0.00     0.211 HD
ENDBRANCH   6  46
BRANCH   7  48
ATOM     48  N   UNL     1      23.338  22.196  10.651  1.00  0.00    -0.348 N 
ATOM     49  C   UNL     1      24.693  22.042  10.271  1.00  0.00     0.217 C 
ATOM     50  H   UNL     1      23.036  23.084  11.087  1.00  0.00     0.163 HD
ATOM     51  C   UNL     1      25.715  23.111  10.480  1.00  0.00     0.114 C 
ATOM     52  O   UNL     1      25.038  20.954   9.736  1.00  0.00    -0.275 OA
ENDBRANCH   7  48
ENDBRANCH   1   2
BRANCH   1  53
ATOM     53  O   UNL     1      22.613  21.579  13.770  1.00  0.00    -0.388 OA
ATOM     54  H   UNL     1      21.994  22.322  13.513  1.00  0.00     0.211 HD
ENDBRANCH   1  53
BRANCH   1  55
ATOM     55  C   UNL     1      22.865  19.262  13.412  1.00  0.00     0.165 C 
BRANCH  55  56
ATOM     56  O   UNL     1      22.949  19.309  14.784  1.00  0.00    -0.388 OA
ATOM     57  H   UNL     1      23.854  19.147  15.137  1.00  0.00     0.211 HD
ENDBRANCH  55  56
BRANCH  55  58
ATOM     58  C   UNL     1      24.022  18.533  12.814  1.00  0.00     0.154 C 
BRANCH  58  59
ATOM     59  N   UNL     1      25.108  19.359  12.420  1.00  0.00    -0.319 N 
ATOM     60  C   UNL     1      26.133  19.838  13.278  1.00  0.00     0.407 C 
ATOM     61  H   UNL     1      25.200  19.672  11.390  1.00  0.00     0.167 HD
ATOM     62  O   UNL     1      26.165  19.556  14.487  1.00  0.00    -0.225 OA
BRANCH  60  63
ATOM     63  O   UNL     1      27.147  20.652  12.744  1.00  0.00    -0.443 OA
BRANCH  63  64
ATOM     64  C   UNL     1      28.257  20.094  12.121  1.00  0.00     0.294 C 
BRANCH  64  65
ATOM     65  C   UNL     1      28.033  19.717  10.713  1.00  0.00     0.120 A 
ATOM     66  C   UNL     1      28.380  20.457   9.599  1.00  0.00     0.139 A 
ATOM     67  N   UNL     1      27.450  18.609  10.236  1.00  0.00    -0.132 NA
ATOM     68  N   UNL     1      28.003  19.790   8.483  1.00  0.00    -0.241 N 
ATOM     69  N   UNL     1      27.446  18.677   8.907  1.00  0.00    -0.066 NA
BRANCH  68  70
ATOM     70  C   UNL     1      28.203  20.273   7.122  1.00  0.00     0.268 C 
BRANCH  70  71
ATOM     71  C   UNL     1      26.925  20.018   6.366  1.00  0.00     0.327 C 
ATOM     72  O   UNL     1      26.796  19.053   5.588  1.00  0.00    -0.250 OA
BRANCH  71  73
ATOM     73  O   UNL     1      25.831  20.854   6.509  1.00  0.00    -0.465 OA
BRANCH  73  74
ATOM     74  C   UNL     1      25.898  22.250   6.568  1.00  0.00     0.229 C 
ATOM     75  C   UNL     1      25.189  22.922   5.417  1.00  0.00     0.049 C 
ENDBRANCH  73  74
ENDBRANCH  71  73
ENDBRANCH  70  71
ENDBRANCH  68  70
ENDBRANCH  64  65
ENDBRANCH  63  64
ENDBRANCH  60  63
ENDBRANCH  58  59
ENDBRANCH  55  58
ENDBRANCH   1  55
TORSDOF 33
