REMARK VINA RESULT:    -5.335      4.635     12.914
REMARK INTER + INTRA:         -19.901
REMARK INTER:                 -12.693
REMARK INTRA:                  -7.208
REMARK UNBOUND:                -6.769
REMARK SMILES CC(=O)N[C@@H]1[C@@H](O)C[C@](OC[C@H]2O[C@@H](O[C@H]3[C@H](O)[C@@H](O)[C@H](OCCN=[N+]=[N-])O[C@@H]3CO)[C@H](O)[C@@H](O)[C@H]2O)(C(=O)O)O[C@H]1C(O)[C@H](O)CNC(=O)OCc1cn(-c2cccnc2)nn1
REMARK SMILES IDX 9 1 8 2 6 3 5 4 42 5 41 6 10 7 11 8 12 9 14 10 13 11 32 12
REMARK SMILES IDX 34 13 36 14 15 15 16 16 29 17 28 18 21 19 17 20 19 21 30 22
REMARK SMILES IDX 31 23 22 25 23 26 24 27 25 28 26 29 27 30 18 31 20 33 33 35
REMARK SMILES IDX 35 37 37 39 38 41 39 42 40 43 7 45 43 47 44 48 45 50 46 51
REMARK SMILES IDX 47 53 48 54 49 55 50 57 51 58 52 59 53 60 54 61 63 62 55 63
REMARK SMILES IDX 62 64 56 65 57 66 61 67 58 68 60 69 59 70 4 71 2 72 1 74
REMARK SMILES IDX 3 75
REMARK H PARENT 31 24 18 32 20 34 33 36 35 38 37 40 40 44 7 46 44 49 46 52
REMARK H PARENT 48 56 4 73
REMARK Flexibility Score: inf
ROOT
ATOM      1  C   UNL     1      23.277  25.554  22.369  1.00  0.00     0.272 C 
ATOM      2  C   UNL     1      21.937  24.941  22.432  1.00  0.00     0.113 C 
ATOM      3  C   UNL     1      21.532  24.615  23.827  1.00  0.00     0.145 C 
ATOM      4  C   UNL     1      21.920  25.659  24.843  1.00  0.00     0.142 C 
ATOM      5  C   UNL     1      22.631  26.823  24.253  1.00  0.00     0.178 C 
ATOM      6  O   UNL     1      23.624  26.458  23.356  1.00  0.00    -0.332 OA
ENDROOT
BRANCH   1   7
ATOM      7  O   UNL     1      23.488  26.245  21.177  1.00  0.00    -0.338 OA
BRANCH   7   8
ATOM      8  C   UNL     1      22.406  26.449  20.383  1.00  0.00     0.199 C 
BRANCH   8   9
ATOM      9  C   UNL     1      22.460  27.917  19.916  1.00  0.00     0.179 C 
ATOM     10  C   UNL     1      22.419  27.453  17.620  1.00  0.00     0.282 C 
ATOM     11  O   UNL     1      23.051  28.004  18.715  1.00  0.00    -0.341 OA
ATOM     12  C   UNL     1      20.961  27.758  17.654  1.00  0.00     0.202 C 
ATOM     13  C   UNL     1      20.765  28.980  18.563  1.00  0.00     0.179 C 
ATOM     14  C   UNL     1      21.091  28.569  19.990  1.00  0.00     0.177 C 
BRANCH  10  15
ATOM     15  O   UNL     1      22.725  26.094  17.633  1.00  0.00    -0.341 OA
BRANCH  15  16
ATOM     16  C   UNL     1      23.920  25.778  17.076  1.00  0.00     0.184 C 
ATOM     17  C   UNL     1      23.873  24.862  15.892  1.00  0.00     0.178 C 
ATOM     18  O   UNL     1      25.022  25.100  15.137  1.00  0.00    -0.341 OA
ATOM     19  C   UNL     1      26.179  25.204  15.900  1.00  0.00     0.281 C 
ATOM     20  C   UNL     1      24.878  25.094  18.046  1.00  0.00     0.180 C 
ATOM     21  C   UNL     1      26.064  24.532  17.248  1.00  0.00     0.202 C 
BRANCH  17  22
ATOM     22  C   UNL     1      22.677  24.966  15.019  1.00  0.00     0.191 C 
BRANCH  22  23
ATOM     23  O   UNL     1      21.525  24.577  15.649  1.00  0.00    -0.394 OA
ATOM     24  H   UNL     1      21.542  23.589  15.726  1.00  0.00     0.210 HD
ENDBRANCH  22  23
ENDBRANCH  17  22
BRANCH  19  25
ATOM     25  O   UNL     1      26.604  26.489  16.077  1.00  0.00    -0.350 OA
BRANCH  25  26
ATOM     26  C   UNL     1      26.514  27.376  15.065  1.00  0.00     0.169 C 
BRANCH  26  27
ATOM     27  C   UNL     1      25.729  28.622  15.278  1.00  0.00     0.119 C 
BRANCH  27  28
ATOM     28  N   UNL     1      25.531  29.039  16.623  1.00  0.00    -0.092 NA
ATOM     29  N   UNL     1      26.423  29.602  17.292  1.00  0.00     0.001 N 
ATOM     30  N   UNL     1      27.448  29.632  17.996  1.00  0.00    -0.003 NA
ENDBRANCH  27  28
ENDBRANCH  26  27
ENDBRANCH  25  26
ENDBRANCH  19  25
BRANCH  20  31
ATOM     31  O   UNL     1      25.392  26.036  18.926  1.00  0.00    -0.387 OA
ATOM     32  H   UNL     1      24.889  26.892  18.911  1.00  0.00     0.211 HD
ENDBRANCH  20  31
BRANCH  21  33
ATOM     33  O   UNL     1      25.975  23.149  17.101  1.00  0.00    -0.385 OA
ATOM     34  H   UNL     1      25.397  22.799  17.822  1.00  0.00     0.211 HD
ENDBRANCH  21  33
ENDBRANCH  15  16
ENDBRANCH  10  15
BRANCH  12  35
ATOM     35  O   UNL     1      20.546  28.213  16.388  1.00  0.00    -0.385 OA
ATOM     36  H   UNL     1      19.646  28.647  16.494  1.00  0.00     0.211 HD
ENDBRANCH  12  35
BRANCH  13  37
ATOM     37  O   UNL     1      19.518  29.538  18.443  1.00  0.00    -0.387 OA
ATOM     38  H   UNL     1      19.273  29.614  17.487  1.00  0.00     0.211 HD
ENDBRANCH  13  37
BRANCH  14  39
ATOM     39  O   UNL     1      20.121  27.736  20.509  1.00  0.00    -0.387 OA
ATOM     40  H   UNL     1      20.140  27.833  21.498  1.00  0.00     0.211 HD
ENDBRANCH  14  39
ENDBRANCH   8   9
ENDBRANCH   7   8
ENDBRANCH   1   7
BRANCH   1  41
ATOM     41  C   UNL     1      24.281  24.418  22.392  1.00  0.00     0.364 C 
ATOM     42  O   UNL     1      24.639  23.922  21.311  1.00  0.00    -0.246 OA
BRANCH  41  43
ATOM     43  O   UNL     1      24.809  23.914  23.555  1.00  0.00    -0.477 OA
ATOM     44  H   UNL     1      25.315  24.451  24.248  1.00  0.00     0.296 HD
ENDBRANCH  41  43
ENDBRANCH   1  41
BRANCH   3  45
ATOM     45  O   UNL     1      20.126  24.457  23.804  1.00  0.00    -0.391 OA
ATOM     46  H   UNL     1      19.673  25.237  23.433  1.00  0.00     0.211 HD
ENDBRANCH   3  45
BRANCH   5  47
ATOM     47  C   UNL     1      21.761  27.912  23.719  1.00  0.00     0.176 C 
BRANCH  47  48
ATOM     48  O   UNL     1      22.596  28.823  23.021  1.00  0.00    -0.388 OA
ATOM     49  H   UNL     1      23.526  28.724  23.364  1.00  0.00     0.211 HD
ENDBRANCH  47  48
BRANCH  47  50
ATOM     50  C   UNL     1      21.010  28.731  24.720  1.00  0.00     0.165 C 
BRANCH  50  51
ATOM     51  O   UNL     1      19.715  28.055  24.746  1.00  0.00    -0.388 OA
ATOM     52  H   UNL     1      19.772  27.387  24.020  1.00  0.00     0.211 HD
ENDBRANCH  50  51
BRANCH  50  53
ATOM     53  C   UNL     1      20.635  30.110  24.283  1.00  0.00     0.154 C 
BRANCH  53  54
ATOM     54  N   UNL     1      19.755  30.219  23.164  1.00  0.00    -0.319 N 
ATOM     55  C   UNL     1      18.371  30.539  23.426  1.00  0.00     0.407 C 
ATOM     56  H   UNL     1      19.999  30.112  22.185  1.00  0.00     0.167 HD
ATOM     57  O   UNL     1      18.022  30.706  24.612  1.00  0.00    -0.225 OA
BRANCH  55  58
ATOM     58  O   UNL     1      17.455  30.659  22.411  1.00  0.00    -0.443 OA
BRANCH  58  59
ATOM     59  C   UNL     1      16.518  29.634  22.185  1.00  0.00     0.294 C 
BRANCH  59  60
ATOM     60  C   UNL     1      16.607  29.210  20.771  1.00  0.00     0.121 A 
ATOM     61  C   UNL     1      16.039  29.776  19.654  1.00  0.00     0.144 A 
ATOM     62  N   UNL     1      17.303  28.130  20.305  1.00  0.00    -0.131 NA
ATOM     63  N   UNL     1      16.386  29.062  18.571  1.00  0.00    -0.219 N 
ATOM     64  N   UNL     1      17.150  28.073  18.999  1.00  0.00    -0.062 NA
BRANCH  63  65
ATOM     65  C   UNL     1      16.062  29.236  17.195  1.00  0.00     0.085 A 
ATOM     66  C   UNL     1      16.873  28.784  16.177  1.00  0.00     0.031 A 
ATOM     67  C   UNL     1      14.902  29.885  16.815  1.00  0.00     0.139 A 
ATOM     68  C   UNL     1      16.542  28.971  14.853  1.00  0.00     0.022 A 
ATOM     69  N   UNL     1      14.587  30.063  15.508  1.00  0.00    -0.262 NA
ATOM     70  C   UNL     1      15.379  29.623  14.515  1.00  0.00     0.111 A 
ENDBRANCH  63  65
ENDBRANCH  59  60
ENDBRANCH  58  59
ENDBRANCH  55  58
ENDBRANCH  53  54
ENDBRANCH  50  53
ENDBRANCH  47  50
ENDBRANCH   5  47
BRANCH   4  71
ATOM     71  N   UNL     1      22.732  25.068  25.903  1.00  0.00    -0.348 N 
ATOM     72  C   UNL     1      22.640  25.435  27.268  1.00  0.00     0.217 C 
ATOM     73  H   UNL     1      23.441  24.319  25.675  1.00  0.00     0.163 HD
ATOM     74  C   UNL     1      23.499  24.805  28.319  1.00  0.00     0.114 C 
ATOM     75  O   UNL     1      21.816  26.318  27.632  1.00  0.00    -0.275 OA
ENDBRANCH   4  71
TORSDOF 30
