REMARK VINA RESULT:    -8.937     11.936     17.532
REMARK INTER + INTRA:         -21.358
REMARK INTER:                 -14.510
REMARK INTRA:                  -6.848
REMARK UNBOUND:                 2.731
REMARK SMILES CC(=O)N[C@@H]1[C@@H](O)C[C@](OC[C@H]2O[C@@H](O[C@H]3[C@H](O)[C@@H](O)[C@H](OCCN=[N+]=[N-])O[C@@H]3CO)[C@H](O)[C@@H](O)[C@H]2O)(C(=O)O)O[C@H]1C(O)[C@H](O)CNC(=O)OCc1cn(C2CCc3ccccc3NC2=O)nn1
REMARK SMILES IDX 43 1 42 2 9 3 8 4 41 5 6 6 5 7 10 8 11 9 12 10 14 11 13 12
REMARK SMILES IDX 32 13 34 14 36 15 15 16 16 17 29 18 28 19 21 20 17 21 19 22
REMARK SMILES IDX 30 23 31 24 22 26 23 27 24 28 25 29 26 30 27 31 18 32 20 34
REMARK SMILES IDX 33 36 35 38 37 40 38 42 39 43 40 44 7 46 4 48 2 49 1 51 3 52
REMARK SMILES IDX 44 53 45 55 46 56 47 58 48 59 49 60 50 62 51 63 52 64 53 65
REMARK SMILES IDX 54 66 69 67 55 68 68 69 56 70 57 71 66 73 65 74 67 75 64 77
REMARK SMILES IDX 59 78 63 79 60 80 62 81 61 82 58 83
REMARK H PARENT 31 25 18 33 20 35 33 37 35 39 37 41 40 45 7 47 4 50 44 54
REMARK H PARENT 46 57 48 61 65 76
REMARK Flexibility Score: 90.00
ROOT
ATOM      1  C   UNL     1       6.924  25.443  35.957  1.00  0.00     0.176 C 
ENDROOT
BRANCH   1   2
ATOM      2  C   UNL     1       7.715  24.127  35.818  1.00  0.00     0.178 C 
ATOM      3  C   UNL     1       9.970  23.893  36.557  1.00  0.00     0.272 C 
ATOM      4  C   UNL     1      10.432  23.752  35.163  1.00  0.00     0.113 C 
ATOM      5  O   UNL     1       8.592  23.918  36.781  1.00  0.00    -0.332 OA
ATOM      6  C   UNL     1       9.566  24.476  34.189  1.00  0.00     0.145 C 
ATOM      7  C   UNL     1       8.144  23.972  34.384  1.00  0.00     0.142 C 
BRANCH   3   8
ATOM      8  O   UNL     1      10.457  24.952  37.239  1.00  0.00    -0.338 OA
BRANCH   8   9
ATOM      9  C   UNL     1      11.702  25.395  37.182  1.00  0.00     0.199 C 
BRANCH   9  10
ATOM     10  C   UNL     1      12.120  26.758  36.841  1.00  0.00     0.179 C 
ATOM     11  C   UNL     1      12.722  27.987  34.976  1.00  0.00     0.282 C 
ATOM     12  O   UNL     1      12.077  26.829  35.408  1.00  0.00    -0.341 OA
ATOM     13  C   UNL     1      12.914  29.044  35.990  1.00  0.00     0.202 C 
ATOM     14  C   UNL     1      11.899  29.146  37.077  1.00  0.00     0.179 C 
ATOM     15  C   UNL     1      11.130  27.857  37.223  1.00  0.00     0.177 C 
BRANCH  11  16
ATOM     16  O   UNL     1      12.091  28.427  33.794  1.00  0.00    -0.341 OA
BRANCH  16  17
ATOM     17  C   UNL     1      12.517  29.669  33.402  1.00  0.00     0.184 C 
ATOM     18  C   UNL     1      11.451  30.575  32.845  1.00  0.00     0.178 C 
ATOM     19  O   UNL     1      12.065  31.814  32.652  1.00  0.00    -0.341 OA
ATOM     20  C   UNL     1      12.860  31.820  31.516  1.00  0.00     0.281 C 
ATOM     21  C   UNL     1      13.600  29.569  32.338  1.00  0.00     0.180 C 
ATOM     22  C   UNL     1      13.393  30.462  31.169  1.00  0.00     0.202 C 
BRANCH  18  23
ATOM     23  C   UNL     1      10.324  30.800  33.833  1.00  0.00     0.191 C 
BRANCH  23  24
ATOM     24  O   UNL     1       9.685  29.609  34.170  1.00  0.00    -0.394 OA
ATOM     25  H   UNL     1       8.845  29.471  33.683  1.00  0.00     0.210 HD
ENDBRANCH  23  24
ENDBRANCH  18  23
BRANCH  20  26
ATOM     26  O   UNL     1      13.864  32.755  31.687  1.00  0.00    -0.350 OA
BRANCH  26  27
ATOM     27  C   UNL     1      13.784  33.377  32.921  1.00  0.00     0.169 C 
BRANCH  27  28
ATOM     28  C   UNL     1      15.039  33.336  33.732  1.00  0.00     0.119 C 
BRANCH  28  29
ATOM     29  N   UNL     1      14.986  32.197  34.633  1.00  0.00    -0.092 NA
ATOM     30  N   UNL     1      14.425  32.262  35.742  1.00  0.00     0.001 N 
ATOM     31  N   UNL     1      13.466  32.324  36.524  1.00  0.00    -0.003 NA
ENDBRANCH  28  29
ENDBRANCH  27  28
ENDBRANCH  26  27
ENDBRANCH  20  26
BRANCH  21  32
ATOM     32  O   UNL     1      14.880  29.700  32.899  1.00  0.00    -0.387 OA
ATOM     33  H   UNL     1      15.175  30.641  32.789  1.00  0.00     0.211 HD
ENDBRANCH  21  32
BRANCH  22  34
ATOM     34  O   UNL     1      12.567  29.878  30.180  1.00  0.00    -0.385 OA
ATOM     35  H   UNL     1      12.998  29.855  29.305  1.00  0.00     0.211 HD
ENDBRANCH  22  34
ENDBRANCH  16  17
ENDBRANCH  11  16
BRANCH  13  36
ATOM     36  O   UNL     1      14.225  29.005  36.475  1.00  0.00    -0.385 OA
ATOM     37  H   UNL     1      14.743  28.319  35.979  1.00  0.00     0.211 HD
ENDBRANCH  13  36
BRANCH  14  38
ATOM     38  O   UNL     1      11.065  30.255  36.946  1.00  0.00    -0.387 OA
ATOM     39  H   UNL     1      10.897  30.582  37.868  1.00  0.00     0.211 HD
ENDBRANCH  14  38
BRANCH  15  40
ATOM     40  O   UNL     1      10.051  27.839  36.305  1.00  0.00    -0.387 OA
ATOM     41  H   UNL     1       9.262  28.119  36.819  1.00  0.00     0.211 HD
ENDBRANCH  15  40
ENDBRANCH   9  10
ENDBRANCH   8   9
ENDBRANCH   3   8
BRANCH   3  42
ATOM     42  C   UNL     1      10.326  22.593  37.245  1.00  0.00     0.364 C 
ATOM     43  O   UNL     1       9.991  22.357  38.383  1.00  0.00    -0.246 OA
BRANCH  42  44
ATOM     44  O   UNL     1      11.067  21.628  36.555  1.00  0.00    -0.477 OA
ATOM     45  H   UNL     1      11.995  21.806  36.208  1.00  0.00     0.296 HD
ENDBRANCH  42  44
ENDBRANCH   3  42
BRANCH   6  46
ATOM     46  O   UNL     1       9.635  25.844  34.504  1.00  0.00    -0.391 OA
ATOM     47  H   UNL     1       9.104  26.399  33.910  1.00  0.00     0.211 HD
ENDBRANCH   6  46
BRANCH   7  48
ATOM     48  N   UNL     1       8.067  22.647  33.867  1.00  0.00    -0.348 N 
ATOM     49  C   UNL     1       7.009  22.268  32.994  1.00  0.00     0.217 C 
ATOM     50  H   UNL     1       8.781  21.922  34.116  1.00  0.00     0.163 HD
ATOM     51  C   UNL     1       6.885  20.897  32.430  1.00  0.00     0.114 C 
ATOM     52  O   UNL     1       6.167  23.126  32.703  1.00  0.00    -0.275 OA
ENDBRANCH   7  48
ENDBRANCH   1   2
BRANCH   1  53
ATOM     53  O   UNL     1       7.676  26.358  36.701  1.00  0.00    -0.388 OA
ATOM     54  H   UNL     1       7.524  27.293  36.439  1.00  0.00     0.211 HD
ENDBRANCH   1  53
BRANCH   1  55
ATOM     55  C   UNL     1       6.593  26.069  34.652  1.00  0.00     0.165 C 
BRANCH  55  56
ATOM     56  O   UNL     1       7.099  27.349  34.467  1.00  0.00    -0.388 OA
ATOM     57  H   UNL     1       7.711  27.543  35.226  1.00  0.00     0.211 HD
ENDBRANCH  55  56
BRANCH  55  58
ATOM     58  C   UNL     1       5.147  26.097  34.278  1.00  0.00     0.154 C 
BRANCH  58  59
ATOM     59  N   UNL     1       4.851  25.733  32.926  1.00  0.00    -0.319 N 
ATOM     60  C   UNL     1       4.976  26.605  31.820  1.00  0.00     0.407 C 
ATOM     61  H   UNL     1       4.522  24.763  32.742  1.00  0.00     0.167 HD
ATOM     62  O   UNL     1       5.367  27.788  31.969  1.00  0.00    -0.225 OA
BRANCH  60  63
ATOM     63  O   UNL     1       4.661  26.141  30.565  1.00  0.00    -0.443 OA
BRANCH  63  64
ATOM     64  C   UNL     1       3.752  26.754  29.719  1.00  0.00     0.294 C 
BRANCH  64  65
ATOM     65  C   UNL     1       4.435  27.369  28.579  1.00  0.00     0.120 A 
ATOM     66  C   UNL     1       4.497  26.875  27.299  1.00  0.00     0.139 A 
ATOM     67  N   UNL     1       5.140  28.526  28.544  1.00  0.00    -0.132 NA
ATOM     68  N   UNL     1       5.221  27.721  26.525  1.00  0.00    -0.240 N 
ATOM     69  N   UNL     1       5.593  28.708  27.315  1.00  0.00    -0.066 NA
BRANCH  68  70
ATOM     70  C   UNL     1       5.526  27.567  25.093  1.00  0.00     0.198 C 
BRANCH  70  71
ATOM     71  C   UNL     1       4.897  28.720  24.405  1.00  0.00     0.042 CG0
ATOM     72  G   UNL     1       5.444  29.092  23.071  1.00  0.00     0.000 G0
ENDBRANCH  70  71
BRANCH  70  73
ATOM     73  C   UNL     1       6.986  27.470  25.004  1.00  0.00     0.249 C 
ATOM     74  N   UNL     1       7.957  28.473  24.750  1.00  0.00    -0.324 N 
ATOM     75  O   UNL     1       7.448  26.310  25.182  1.00  0.00    -0.272 OA
ATOM     76  H   UNL     1       8.935  28.320  25.081  1.00  0.00     0.170 HD
BRANCH  74  77
ATOM     77  C   UNL     1       7.675  29.708  24.057  1.00  0.00     0.044 A 
ATOM     78  C   UNL     1       6.567  30.049  23.291  1.00  0.00    -0.024 A 
ATOM     79  C   UNL     1       8.689  30.626  24.224  1.00  0.00     0.026 A 
ATOM     80  C   UNL     1       6.456  31.283  22.693  1.00  0.00     0.006 A 
ATOM     81  C   UNL     1       8.602  31.873  23.635  1.00  0.00     0.002 A 
ATOM     82  C   UNL     1       7.474  32.187  22.869  1.00  0.00     0.000 A 
BRANCH  78  83
ATOM     83  C   UNL     1       5.420  29.128  23.052  1.00  0.00     0.040 CG0
ATOM     84  G   UNL     1       4.902  28.725  24.388  1.00  0.00     0.000 G0
ENDBRANCH  78  83
ENDBRANCH  74  77
ENDBRANCH  70  73
ENDBRANCH  68  70
ENDBRANCH  64  65
ENDBRANCH  63  64
ENDBRANCH  60  63
ENDBRANCH  58  59
ENDBRANCH  55  58
ENDBRANCH   1  55
TORSDOF 30
