REMARK VINA RESULT:    -4.553      6.584      9.817
REMARK INTER + INTRA:         -22.313
REMARK INTER:                 -14.165
REMARK INTRA:                  -8.148
REMARK UNBOUND:               -10.839
REMARK SMILES CC(=O)N[C@@H]1[C@@H](O)C[C@](OC[C@H]2O[C@@H](O[C@H]3[C@H](O)[C@@H](O)[C@H](OCCN=[N+]=[N-])O[C@@H]3CO)[C@H](O)[C@@H](O)[C@H]2O)(C(=O)O)O[C@H]1C(O)[C@H](O)CNC(=O)OCc1cn(-c2ccccc2C(C)C)nn1
REMARK SMILES IDX 9 1 8 2 6 3 5 4 42 5 41 6 10 7 11 8 12 9 14 10 13 11 32 12
REMARK SMILES IDX 34 13 36 14 15 15 16 16 29 17 28 18 21 19 17 20 19 21 30 22
REMARK SMILES IDX 31 23 22 25 23 26 24 27 25 28 26 29 27 30 18 31 20 33 33 35
REMARK SMILES IDX 35 37 37 39 38 41 39 42 40 43 7 45 43 47 44 48 45 50 46 51
REMARK SMILES IDX 47 53 48 54 49 55 50 57 51 58 52 59 53 60 54 61 66 62 55 63
REMARK SMILES IDX 65 64 56 65 61 66 57 67 60 68 58 69 59 70 62 71 63 72 64 73
REMARK SMILES IDX 4 74 2 75 1 77 3 78
REMARK H PARENT 31 24 18 32 20 34 33 36 35 38 37 40 40 44 7 46 44 49 46 52
REMARK H PARENT 48 56 4 76
REMARK Flexibility Score: inf
ROOT
ATOM      1  C   UNL     1       3.074  20.591  37.375  1.00  0.00     0.272 C 
ATOM      2  C   UNL     1       1.771  21.125  37.925  1.00  0.00     0.113 C 
ATOM      3  C   UNL     1       2.084  22.413  38.671  1.00  0.00     0.145 C 
ATOM      4  C   UNL     1       2.887  22.017  39.923  1.00  0.00     0.142 C 
ATOM      5  C   UNL     1       3.994  21.138  39.479  1.00  0.00     0.178 C 
ATOM      6  O   UNL     1       4.131  21.217  38.101  1.00  0.00    -0.332 OA
ENDROOT
BRANCH   1   7
ATOM      7  O   UNL     1       3.294  20.980  36.105  1.00  0.00    -0.338 OA
BRANCH   7   8
ATOM      8  C   UNL     1       2.559  20.929  35.049  1.00  0.00     0.199 C 
BRANCH   8   9
ATOM      9  C   UNL     1       2.889  21.586  33.748  1.00  0.00     0.179 C 
ATOM     10  C   UNL     1       4.182  23.159  32.739  1.00  0.00     0.282 C 
ATOM     11  O   UNL     1       3.628  22.734  33.882  1.00  0.00    -0.341 OA
ATOM     12  C   UNL     1       3.616  22.577  31.451  1.00  0.00     0.202 C 
ATOM     13  C   UNL     1       3.626  21.072  31.470  1.00  0.00     0.179 C 
ATOM     14  C   UNL     1       3.729  20.607  32.894  1.00  0.00     0.177 C 
BRANCH  10  15
ATOM     15  O   UNL     1       5.540  23.147  32.637  1.00  0.00    -0.341 OA
BRANCH  15  16
ATOM     16  C   UNL     1       6.303  23.401  33.748  1.00  0.00     0.184 C 
ATOM     17  C   UNL     1       6.115  24.773  34.306  1.00  0.00     0.178 C 
ATOM     18  O   UNL     1       7.251  25.501  34.365  1.00  0.00    -0.341 OA
ATOM     19  C   UNL     1       8.345  25.013  35.008  1.00  0.00     0.281 C 
ATOM     20  C   UNL     1       7.731  23.052  33.633  1.00  0.00     0.180 C 
ATOM     21  C   UNL     1       8.427  23.489  34.910  1.00  0.00     0.202 C 
BRANCH  17  22
ATOM     22  C   UNL     1       5.472  24.781  35.702  1.00  0.00     0.191 C 
BRANCH  22  23
ATOM     23  O   UNL     1       5.138  23.442  36.012  1.00  0.00    -0.394 OA
ATOM     24  H   UNL     1       4.219  23.295  35.625  1.00  0.00     0.210 HD
ENDBRANCH  22  23
ENDBRANCH  17  22
BRANCH  19  25
ATOM     25  O   UNL     1       8.315  25.343  36.337  1.00  0.00    -0.350 OA
BRANCH  25  26
ATOM     26  C   UNL     1       8.475  26.648  36.682  1.00  0.00     0.169 C 
BRANCH  26  27
ATOM     27  C   UNL     1       7.572  27.220  37.711  1.00  0.00     0.119 C 
BRANCH  27  28
ATOM     28  N   UNL     1       7.126  26.237  38.640  1.00  0.00    -0.092 NA
ATOM     29  N   UNL     1       6.467  26.420  39.644  1.00  0.00     0.001 N 
ATOM     30  N   UNL     1       5.683  26.749  40.526  1.00  0.00    -0.003 NA
ENDBRANCH  27  28
ENDBRANCH  26  27
ENDBRANCH  25  26
ENDBRANCH  19  25
BRANCH  20  31
ATOM     31  O   UNL     1       7.984  21.687  33.503  1.00  0.00    -0.387 OA
ATOM     32  H   UNL     1       7.206  21.197  33.850  1.00  0.00     0.211 HD
ENDBRANCH  20  31
BRANCH  21  33
ATOM     33  O   UNL     1       9.777  23.135  34.882  1.00  0.00    -0.385 OA
ATOM     34  H   UNL     1       9.876  22.336  35.459  1.00  0.00     0.211 HD
ENDBRANCH  21  33
ENDBRANCH  15  16
ENDBRANCH  10  15
BRANCH  12  35
ATOM     35  O   UNL     1       2.330  23.063  31.293  1.00  0.00    -0.385 OA
ATOM     36  H   UNL     1       1.680  22.480  31.799  1.00  0.00     0.211 HD
ENDBRANCH  12  35
BRANCH  13  37
ATOM     37  O   UNL     1       4.704  20.610  30.702  1.00  0.00    -0.387 OA
ATOM     38  H   UNL     1       4.619  19.625  30.666  1.00  0.00     0.211 HD
ENDBRANCH  13  37
BRANCH  14  39
ATOM     39  O   UNL     1       5.034  20.709  33.327  1.00  0.00    -0.387 OA
ATOM     40  H   UNL     1       5.022  21.055  34.254  1.00  0.00     0.211 HD
ENDBRANCH  14  39
ENDBRANCH   8   9
ENDBRANCH   7   8
ENDBRANCH   1   7
BRANCH   1  41
ATOM     41  C   UNL     1       3.195  19.141  37.569  1.00  0.00     0.364 C 
ATOM     42  O   UNL     1       4.303  18.609  37.201  1.00  0.00    -0.246 OA
BRANCH  41  43
ATOM     43  O   UNL     1       2.281  18.265  38.090  1.00  0.00    -0.477 OA
ATOM     44  H   UNL     1       1.282  18.327  38.024  1.00  0.00     0.296 HD
ENDBRANCH  41  43
ENDBRANCH   1  41
BRANCH   3  45
ATOM     45  O   UNL     1       2.964  23.194  37.914  1.00  0.00    -0.391 OA
ATOM     46  H   UNL     1       3.833  23.195  38.387  1.00  0.00     0.211 HD
ENDBRANCH   3  45
BRANCH   5  47
ATOM     47  C   UNL     1       5.361  21.420  40.026  1.00  0.00     0.176 C 
BRANCH  47  48
ATOM     48  O   UNL     1       5.195  21.223  41.442  1.00  0.00    -0.388 OA
ATOM     49  H   UNL     1       4.218  21.448  41.560  1.00  0.00     0.211 HD
ENDBRANCH  47  48
BRANCH  47  50
ATOM     50  C   UNL     1       5.871  22.819  39.882  1.00  0.00     0.165 C 
BRANCH  50  51
ATOM     51  O   UNL     1       5.926  23.266  38.590  1.00  0.00    -0.388 OA
ATOM     52  H   UNL     1       6.095  22.472  38.020  1.00  0.00     0.211 HD
ENDBRANCH  50  51
BRANCH  50  53
ATOM     53  C   UNL     1       7.004  23.142  40.781  1.00  0.00     0.154 C 
BRANCH  53  54
ATOM     54  N   UNL     1       8.271  23.392  40.120  1.00  0.00    -0.319 N 
ATOM     55  C   UNL     1       9.141  22.335  39.758  1.00  0.00     0.407 C 
ATOM     56  H   UNL     1       8.596  24.354  39.884  1.00  0.00     0.167 HD
ATOM     57  O   UNL     1       8.896  21.127  39.976  1.00  0.00    -0.225 OA
BRANCH  55  58
ATOM     58  O   UNL     1      10.379  22.554  39.106  1.00  0.00    -0.443 OA
BRANCH  58  59
ATOM     59  C   UNL     1      11.056  23.760  39.285  1.00  0.00     0.294 C 
BRANCH  59  60
ATOM     60  C   UNL     1      11.623  24.184  37.974  1.00  0.00     0.121 A 
ATOM     61  C   UNL     1      11.888  25.441  37.478  1.00  0.00     0.144 A 
ATOM     62  N   UNL     1      12.008  23.343  36.961  1.00  0.00    -0.131 NA
ATOM     63  N   UNL     1      12.404  25.374  36.240  1.00  0.00    -0.220 N 
ATOM     64  N   UNL     1      12.462  24.065  35.958  1.00  0.00    -0.062 NA
BRANCH  63  65
ATOM     65  C   UNL     1      12.824  26.422  35.373  1.00  0.00     0.070 A 
ATOM     66  C   UNL     1      14.099  26.929  35.495  1.00  0.00    -0.020 A 
ATOM     67  C   UNL     1      12.013  26.978  34.409  1.00  0.00     0.029 A 
ATOM     68  C   UNL     1      14.540  27.955  34.682  1.00  0.00     0.006 A 
ATOM     69  C   UNL     1      12.439  28.005  33.587  1.00  0.00     0.002 A 
ATOM     70  C   UNL     1      13.720  28.502  33.724  1.00  0.00     0.000 A 
BRANCH  66  71
ATOM     71  C   UNL     1      15.005  26.354  36.509  1.00  0.00     0.015 C 
ATOM     72  C   UNL     1      15.125  27.348  37.654  1.00  0.00     0.012 C 
ATOM     73  C   UNL     1      16.405  26.175  35.899  1.00  0.00     0.012 C 
ENDBRANCH  66  71
ENDBRANCH  63  65
ENDBRANCH  59  60
ENDBRANCH  58  59
ENDBRANCH  55  58
ENDBRANCH  53  54
ENDBRANCH  50  53
ENDBRANCH  47  50
ENDBRANCH   5  47
BRANCH   4  74
ATOM     74  N   UNL     1       1.966  21.358  40.821  1.00  0.00    -0.348 N 
ATOM     75  C   UNL     1       1.306  21.974  41.896  1.00  0.00     0.217 C 
ATOM     76  H   UNL     1       1.777  20.324  40.661  1.00  0.00     0.163 HD
ATOM     77  C   UNL     1       0.380  21.148  42.743  1.00  0.00     0.114 C 
ATOM     78  O   UNL     1       1.479  23.174  42.147  1.00  0.00    -0.275 OA
ENDBRANCH   4  74
TORSDOF 31
