REMARK VINA RESULT:    -6.018      8.726     14.992
REMARK INTER + INTRA:         -21.509
REMARK INTER:                 -15.404
REMARK INTRA:                  -6.105
REMARK UNBOUND:                -6.520
REMARK SMILES CC(=O)N[C@@H]1[C@@H](O)C[C@](OC[C@H]2O[C@@H](O[C@H]3[C@H](O)[C@@H](O)[C@H](OCCN=[N+]=[N-])O[C@@H]3CO)[C@H](O)[C@@H](O)[C@H]2O)(C(=O)O)O[C@H]1C(O)[C@H](O)CNC(=O)OCc1cn(-c2nc(C)nc(N)n2)nn1
REMARK SMILES IDX 9 1 8 2 6 3 5 4 42 5 41 6 10 7 11 8 12 9 14 10 13 11 32 12
REMARK SMILES IDX 34 13 36 14 15 15 16 16 29 17 28 18 21 19 17 20 19 21 30 22
REMARK SMILES IDX 31 23 22 25 23 26 24 27 25 28 26 29 27 30 18 31 20 33 33 35
REMARK SMILES IDX 35 37 37 39 38 41 39 42 40 43 7 45 43 47 44 48 45 50 46 51
REMARK SMILES IDX 47 53 48 54 49 55 50 57 51 58 52 59 53 60 54 61 65 62 55 63
REMARK SMILES IDX 64 64 56 65 63 66 57 67 61 68 58 69 60 70 59 71 62 72 4 75
REMARK SMILES IDX 2 76 1 78 3 79
REMARK H PARENT 31 24 18 32 20 34 33 36 35 38 37 40 40 44 7 46 44 49 46 52
REMARK H PARENT 48 56 62 73 62 74 4 77
REMARK Flexibility Score: inf
ROOT
ATOM      1  C   UNL     1      15.228  30.081  22.598  1.00  0.00     0.272 C 
ATOM      2  C   UNL     1      15.422  30.036  24.075  1.00  0.00     0.113 C 
ATOM      3  C   UNL     1      14.121  30.184  24.804  1.00  0.00     0.145 C 
ATOM      4  C   UNL     1      13.465  31.465  24.362  1.00  0.00     0.142 C 
ATOM      5  C   UNL     1      13.493  31.659  22.864  1.00  0.00     0.178 C 
ATOM      6  O   UNL     1      14.659  31.343  22.277  1.00  0.00    -0.332 OA
ENDROOT
BRANCH   1   7
ATOM      7  O   UNL     1      14.685  29.081  21.997  1.00  0.00    -0.338 OA
BRANCH   7   8
ATOM      8  C   UNL     1      14.099  28.710  20.924  1.00  0.00     0.199 C 
BRANCH   8   9
ATOM      9  C   UNL     1      14.614  28.730  19.526  1.00  0.00     0.179 C 
ATOM     10  C   UNL     1      14.737  29.770  17.566  1.00  0.00     0.282 C 
ATOM     11  O   UNL     1      14.467  29.950  18.950  1.00  0.00    -0.341 OA
ATOM     12  C   UNL     1      16.243  29.748  17.493  1.00  0.00     0.202 C 
ATOM     13  C   UNL     1      16.752  28.516  18.201  1.00  0.00     0.179 C 
ATOM     14  C   UNL     1      15.882  27.983  19.271  1.00  0.00     0.177 C 
BRANCH  10  15
ATOM     15  O   UNL     1      14.213  30.790  16.818  1.00  0.00    -0.341 OA
BRANCH  15  16
ATOM     16  C   UNL     1      12.971  30.510  16.275  1.00  0.00     0.184 C 
ATOM     17  C   UNL     1      12.987  30.041  14.859  1.00  0.00     0.178 C 
ATOM     18  O   UNL     1      12.168  30.789  14.023  1.00  0.00    -0.341 OA
ATOM     19  C   UNL     1      10.866  30.939  14.483  1.00  0.00     0.281 C 
ATOM     20  C   UNL     1      12.197  31.840  16.347  1.00  0.00     0.180 C 
ATOM     21  C   UNL     1      10.800  31.558  15.848  1.00  0.00     0.202 C 
BRANCH  17  22
ATOM     22  C   UNL     1      12.750  28.565  14.679  1.00  0.00     0.191 C 
BRANCH  22  23
ATOM     23  O   UNL     1      13.924  28.035  14.099  1.00  0.00    -0.394 OA
ATOM     24  H   UNL     1      14.672  27.999  14.733  1.00  0.00     0.210 HD
ENDBRANCH  22  23
ENDBRANCH  17  22
BRANCH  19  25
ATOM     25  O   UNL     1      10.149  29.776  14.483  1.00  0.00    -0.350 OA
BRANCH  25  26
ATOM     26  C   UNL     1       9.080  29.693  13.642  1.00  0.00     0.169 C 
BRANCH  26  27
ATOM     27  C   UNL     1       9.457  29.449  12.207  1.00  0.00     0.119 C 
BRANCH  27  28
ATOM     28  N   UNL     1       9.803  28.027  12.064  1.00  0.00    -0.092 NA
ATOM     29  N   UNL     1       9.083  27.355  11.328  1.00  0.00     0.001 N 
ATOM     30  N   UNL     1       8.349  26.385  11.042  1.00  0.00    -0.003 NA
ENDBRANCH  27  28
ENDBRANCH  26  27
ENDBRANCH  25  26
ENDBRANCH  19  25
BRANCH  20  31
ATOM     31  O   UNL     1      12.221  32.325  17.637  1.00  0.00    -0.387 OA
ATOM     32  H   UNL     1      12.485  33.286  17.658  1.00  0.00     0.211 HD
ENDBRANCH  20  31
BRANCH  21  33
ATOM     33  O   UNL     1      10.115  32.773  15.839  1.00  0.00    -0.385 OA
ATOM     34  H   UNL     1      10.722  33.528  16.041  1.00  0.00     0.211 HD
ENDBRANCH  21  33
ENDBRANCH  15  16
ENDBRANCH  10  15
BRANCH  12  35
ATOM     35  O   UNL     1      16.722  29.806  16.187  1.00  0.00    -0.385 OA
ATOM     36  H   UNL     1      16.753  30.758  15.918  1.00  0.00     0.211 HD
ENDBRANCH  12  35
BRANCH  13  37
ATOM     37  O   UNL     1      18.054  28.802  18.622  1.00  0.00    -0.387 OA
ATOM     38  H   UNL     1      18.647  29.075  17.878  1.00  0.00     0.211 HD
ENDBRANCH  13  37
BRANCH  14  39
ATOM     39  O   UNL     1      16.639  27.698  20.402  1.00  0.00    -0.387 OA
ATOM     40  H   UNL     1      16.121  28.072  21.177  1.00  0.00     0.211 HD
ENDBRANCH  14  39
ENDBRANCH   8   9
ENDBRANCH   7   8
ENDBRANCH   1   7
BRANCH   1  41
ATOM     41  C   UNL     1      16.675  30.325  22.080  1.00  0.00     0.364 C 
ATOM     42  O   UNL     1      16.804  31.191  21.225  1.00  0.00    -0.246 OA
BRANCH  41  43
ATOM     43  O   UNL     1      17.712  29.596  22.572  1.00  0.00    -0.477 OA
ATOM     44  H   UNL     1      18.652  29.981  22.738  1.00  0.00     0.296 HD
ENDBRANCH  41  43
ENDBRANCH   1  41
BRANCH   3  45
ATOM     45  O   UNL     1      13.221  29.169  24.572  1.00  0.00    -0.391 OA
ATOM     46  H   UNL     1      13.544  28.512  23.931  1.00  0.00     0.211 HD
ENDBRANCH   3  45
BRANCH   5  47
ATOM     47  C   UNL     1      12.266  31.127  22.166  1.00  0.00     0.176 C 
BRANCH  47  48
ATOM     48  O   UNL     1      11.184  31.098  23.029  1.00  0.00    -0.388 OA
ATOM     49  H   UNL     1      10.881  30.210  23.288  1.00  0.00     0.211 HD
ENDBRANCH  47  48
BRANCH  47  50
ATOM     50  C   UNL     1      11.979  31.969  20.963  1.00  0.00     0.165 C 
BRANCH  50  51
ATOM     51  O   UNL     1      13.192  32.241  20.305  1.00  0.00    -0.388 OA
ATOM     52  H   UNL     1      13.802  32.652  20.941  1.00  0.00     0.211 HD
ENDBRANCH  50  51
BRANCH  50  53
ATOM     53  C   UNL     1      11.303  33.270  21.238  1.00  0.00     0.154 C 
BRANCH  53  54
ATOM     54  N   UNL     1       9.866  33.185  21.110  1.00  0.00    -0.319 N 
ATOM     55  C   UNL     1       9.177  33.162  19.882  1.00  0.00     0.407 C 
ATOM     56  H   UNL     1       9.257  33.136  21.980  1.00  0.00     0.167 HD
ATOM     57  O   UNL     1       9.797  33.213  18.815  1.00  0.00    -0.225 OA
BRANCH  55  58
ATOM     58  O   UNL     1       7.790  33.084  19.815  1.00  0.00    -0.443 OA
BRANCH  58  59
ATOM     59  C   UNL     1       6.946  33.167  20.935  1.00  0.00     0.294 C 
BRANCH  59  60
ATOM     60  C   UNL     1       6.608  31.816  21.477  1.00  0.00     0.121 A 
ATOM     61  C   UNL     1       6.816  31.378  22.768  1.00  0.00     0.148 A 
ATOM     62  N   UNL     1       6.047  30.788  20.813  1.00  0.00    -0.131 NA
ATOM     63  N   UNL     1       6.380  30.110  22.851  1.00  0.00    -0.185 N 
ATOM     64  N   UNL     1       5.923  29.781  21.660  1.00  0.00    -0.059 NA
BRANCH  63  65
ATOM     65  C   UNL     1       6.431  29.326  24.035  1.00  0.00     0.257 A 
ATOM     66  N   UNL     1       6.873  28.056  23.969  1.00  0.00    -0.175 NA
ATOM     67  N   UNL     1       6.063  29.775  25.248  1.00  0.00    -0.196 NA
ATOM     68  C   UNL     1       6.946  27.262  25.068  1.00  0.00     0.225 A 
ATOM     69  C   UNL     1       6.121  29.023  26.353  1.00  0.00     0.133 A 
ATOM     70  N   UNL     1       6.561  27.773  26.258  1.00  0.00    -0.198 NA
ATOM     71  C   UNL     1       5.697  29.568  27.691  1.00  0.00     0.090 C 
BRANCH  68  72
ATOM     72  N   UNL     1       7.418  25.936  24.944  1.00  0.00    -0.368 N 
ATOM     73  H   UNL     1       6.776  25.150  24.721  1.00  0.00     0.159 HD
ATOM     74  H   UNL     1       8.425  25.719  25.074  1.00  0.00     0.159 HD
ENDBRANCH  68  72
ENDBRANCH  63  65
ENDBRANCH  59  60
ENDBRANCH  58  59
ENDBRANCH  55  58
ENDBRANCH  53  54
ENDBRANCH  50  53
ENDBRANCH  47  50
ENDBRANCH   5  47
BRANCH   4  75
ATOM     75  N   UNL     1      14.122  32.574  25.021  1.00  0.00    -0.348 N 
ATOM     76  C   UNL     1      13.391  33.461  25.861  1.00  0.00     0.217 C 
ATOM     77  H   UNL     1      15.149  32.768  24.909  1.00  0.00     0.163 HD
ATOM     78  C   UNL     1      14.074  34.582  26.521  1.00  0.00     0.114 C 
ATOM     79  O   UNL     1      12.166  33.279  26.033  1.00  0.00    -0.275 OA
ENDBRANCH   4  75
TORSDOF 31
