REMARK VINA RESULT:    -5.424      3.668      7.078
REMARK INTER + INTRA:         -20.120
REMARK INTER:                 -11.558
REMARK INTRA:                  -8.562
REMARK UNBOUND:                -6.769
REMARK SMILES CC(=O)N[C@@H]1[C@@H](O)C[C@](OC[C@H]2O[C@@H](O[C@H]3[C@H](O)[C@@H](O)[C@H](OCCN=[N+]=[N-])O[C@@H]3CO)[C@H](O)[C@@H](O)[C@H]2O)(C(=O)O)O[C@H]1C(O)[C@H](O)CNC(=O)OCc1cn(-c2cccnc2)nn1
REMARK SMILES IDX 9 1 8 2 6 3 5 4 42 5 41 6 10 7 11 8 12 9 14 10 13 11 32 12
REMARK SMILES IDX 34 13 36 14 15 15 16 16 29 17 28 18 21 19 17 20 19 21 30 22
REMARK SMILES IDX 31 23 22 25 23 26 24 27 25 28 26 29 27 30 18 31 20 33 33 35
REMARK SMILES IDX 35 37 37 39 38 41 39 42 40 43 7 45 43 47 44 48 45 50 46 51
REMARK SMILES IDX 47 53 48 54 49 55 50 57 51 58 52 59 53 60 54 61 63 62 55 63
REMARK SMILES IDX 62 64 56 65 57 66 61 67 58 68 60 69 59 70 4 71 2 72 1 74
REMARK SMILES IDX 3 75
REMARK H PARENT 31 24 18 32 20 34 33 36 35 38 37 40 40 44 7 46 44 49 46 52
REMARK H PARENT 48 56 4 73
REMARK Flexibility Score: inf
ROOT
ATOM      1  C   UNL     1      13.439  31.158  17.535  1.00  0.00     0.272 C 
ATOM      2  C   UNL     1      12.417  30.914  16.501  1.00  0.00     0.113 C 
ATOM      3  C   UNL     1      12.676  31.689  15.257  1.00  0.00     0.145 C 
ATOM      4  C   UNL     1      14.130  31.755  14.863  1.00  0.00     0.142 C 
ATOM      5  C   UNL     1      15.030  31.024  15.793  1.00  0.00     0.178 C 
ATOM      6  O   UNL     1      14.756  31.280  17.129  1.00  0.00    -0.332 OA
ENDROOT
BRANCH   1   7
ATOM      7  O   UNL     1      13.467  30.154  18.501  1.00  0.00    -0.338 OA
BRANCH   7   8
ATOM      8  C   UNL     1      14.618  30.011  19.208  1.00  0.00     0.199 C 
BRANCH   8   9
ATOM      9  C   UNL     1      14.421  28.805  20.147  1.00  0.00     0.179 C 
ATOM     10  C   UNL     1      16.483  28.998  21.241  1.00  0.00     0.282 C 
ATOM     11  O   UNL     1      15.607  28.266  20.470  1.00  0.00    -0.341 OA
ATOM     12  C   UNL     1      15.756  29.684  22.345  1.00  0.00     0.202 C 
ATOM     13  C   UNL     1      14.430  28.939  22.560  1.00  0.00     0.179 C 
ATOM     14  C   UNL     1      13.553  29.170  21.338  1.00  0.00     0.177 C 
BRANCH  10  15
ATOM     15  O   UNL     1      17.151  29.856  20.369  1.00  0.00    -0.341 OA
BRANCH  15  16
ATOM     16  C   UNL     1      18.385  29.435  19.997  1.00  0.00     0.184 C 
ATOM     17  C   UNL     1      19.489  30.438  20.127  1.00  0.00     0.178 C 
ATOM     18  O   UNL     1      20.682  29.728  20.267  1.00  0.00    -0.341 OA
ATOM     19  C   UNL     1      20.801  28.660  19.383  1.00  0.00     0.281 C 
ATOM     20  C   UNL     1      18.456  28.981  18.542  1.00  0.00     0.180 C 
ATOM     21  C   UNL     1      19.931  28.805  18.156  1.00  0.00     0.202 C 
BRANCH  17  22
ATOM     22  C   UNL     1      19.367  31.421  21.233  1.00  0.00     0.191 C 
BRANCH  22  23
ATOM     23  O   UNL     1      20.124  32.544  21.030  1.00  0.00    -0.394 OA
ATOM     24  H   UNL     1      19.555  33.214  20.572  1.00  0.00     0.210 HD
ENDBRANCH  22  23
ENDBRANCH  17  22
BRANCH  19  25
ATOM     25  O   UNL     1      20.564  27.445  19.958  1.00  0.00    -0.350 OA
BRANCH  25  26
ATOM     26  C   UNL     1      21.218  27.090  21.082  1.00  0.00     0.169 C 
BRANCH  26  27
ATOM     27  C   UNL     1      21.897  25.766  21.122  1.00  0.00     0.119 C 
BRANCH  27  28
ATOM     28  N   UNL     1      21.238  24.724  21.832  1.00  0.00    -0.092 NA
ATOM     29  N   UNL     1      21.125  24.722  23.075  1.00  0.00     0.001 N 
ATOM     30  N   UNL     1      21.523  24.536  24.238  1.00  0.00    -0.003 NA
ENDBRANCH  27  28
ENDBRANCH  26  27
ENDBRANCH  25  26
ENDBRANCH  19  25
BRANCH  20  31
ATOM     31  O   UNL     1      17.854  27.736  18.420  1.00  0.00    -0.387 OA
ATOM     32  H   UNL     1      16.891  27.795  18.186  1.00  0.00     0.211 HD
ENDBRANCH  20  31
BRANCH  21  33
ATOM     33  O   UNL     1      20.382  29.853  17.356  1.00  0.00    -0.385 OA
ATOM     34  H   UNL     1      20.995  29.481  16.676  1.00  0.00     0.211 HD
ENDBRANCH  21  33
ENDBRANCH  15  16
ENDBRANCH  10  15
BRANCH  12  35
ATOM     35  O   UNL     1      16.447  29.489  23.556  1.00  0.00    -0.385 OA
ATOM     36  H   UNL     1      17.102  30.244  23.665  1.00  0.00     0.211 HD
ENDBRANCH  12  35
BRANCH  13  37
ATOM     37  O   UNL     1      13.808  29.284  23.732  1.00  0.00    -0.387 OA
ATOM     38  H   UNL     1      13.022  28.701  23.879  1.00  0.00     0.211 HD
ENDBRANCH  13  37
BRANCH  14  39
ATOM     39  O   UNL     1      13.086  30.467  21.291  1.00  0.00    -0.387 OA
ATOM     40  H   UNL     1      12.476  30.539  20.509  1.00  0.00     0.211 HD
ENDBRANCH  14  39
ENDBRANCH   8   9
ENDBRANCH   7   8
ENDBRANCH   1   7
BRANCH   1  41
ATOM     41  C   UNL     1      13.044  32.435  18.251  1.00  0.00     0.364 C 
ATOM     42  O   UNL     1      13.533  33.508  17.861  1.00  0.00    -0.246 OA
BRANCH  41  43
ATOM     43  O   UNL     1      12.171  32.456  19.311  1.00  0.00    -0.477 OA
ATOM     44  H   UNL     1      11.188  32.219  19.262  1.00  0.00     0.296 HD
ENDBRANCH  41  43
ENDBRANCH   1  41
BRANCH   3  45
ATOM     45  O   UNL     1      11.924  31.063  14.236  1.00  0.00    -0.391 OA
ATOM     46  H   UNL     1      10.966  31.069  14.426  1.00  0.00     0.211 HD
ENDBRANCH   3  45
BRANCH   5  47
ATOM     47  C   UNL     1      15.199  29.567  15.522  1.00  0.00     0.176 C 
BRANCH  47  48
ATOM     48  O   UNL     1      16.406  29.153  16.141  1.00  0.00    -0.388 OA
ATOM     49  H   UNL     1      17.140  29.753  15.833  1.00  0.00     0.211 HD
ENDBRANCH  47  48
BRANCH  47  50
ATOM     50  C   UNL     1      15.313  29.155  14.088  1.00  0.00     0.165 C 
BRANCH  50  51
ATOM     51  O   UNL     1      14.567  27.899  14.080  1.00  0.00    -0.388 OA
ATOM     52  H   UNL     1      15.258  27.202  14.186  1.00  0.00     0.211 HD
ENDBRANCH  50  51
BRANCH  50  53
ATOM     53  C   UNL     1      16.670  28.716  13.643  1.00  0.00     0.154 C 
BRANCH  53  54
ATOM     54  N   UNL     1      17.589  29.739  13.259  1.00  0.00    -0.319 N 
ATOM     55  C   UNL     1      18.877  29.767  13.913  1.00  0.00     0.407 C 
ATOM     56  H   UNL     1      17.445  30.453  12.552  1.00  0.00     0.167 HD
ATOM     57  O   UNL     1      19.116  28.897  14.774  1.00  0.00    -0.225 OA
BRANCH  55  58
ATOM     58  O   UNL     1      19.819  30.718  13.609  1.00  0.00    -0.443 OA
BRANCH  58  59
ATOM     59  C   UNL     1      19.479  32.082  13.645  1.00  0.00     0.294 C 
BRANCH  59  60
ATOM     60  C   UNL     1      19.262  32.483  15.051  1.00  0.00     0.121 A 
ATOM     61  C   UNL     1      18.141  33.020  15.642  1.00  0.00     0.144 A 
ATOM     62  N   UNL     1      20.179  32.385  16.060  1.00  0.00    -0.131 NA
ATOM     63  N   UNL     1      18.385  33.230  16.945  1.00  0.00    -0.219 N 
ATOM     64  N   UNL     1      19.626  32.836  17.166  1.00  0.00    -0.062 NA
BRANCH  63  65
ATOM     65  C   UNL     1      17.557  33.759  17.976  1.00  0.00     0.085 A 
ATOM     66  C   UNL     1      17.073  32.987  19.011  1.00  0.00     0.031 A 
ATOM     67  C   UNL     1      17.190  35.091  17.979  1.00  0.00     0.139 A 
ATOM     68  C   UNL     1      16.267  33.520  19.992  1.00  0.00     0.022 A 
ATOM     69  N   UNL     1      16.396  35.604  18.951  1.00  0.00    -0.262 NA
ATOM     70  C   UNL     1      15.923  34.852  19.960  1.00  0.00     0.111 A 
ENDBRANCH  63  65
ENDBRANCH  59  60
ENDBRANCH  58  59
ENDBRANCH  55  58
ENDBRANCH  53  54
ENDBRANCH  50  53
ENDBRANCH  47  50
ENDBRANCH   5  47
BRANCH   4  71
ATOM     71  N   UNL     1      14.567  33.143  14.740  1.00  0.00    -0.348 N 
ATOM     72  C   UNL     1      14.221  33.989  13.658  1.00  0.00     0.217 C 
ATOM     73  H   UNL     1      15.180  33.576  15.484  1.00  0.00     0.163 HD
ATOM     74  C   UNL     1      14.699  35.405  13.573  1.00  0.00     0.114 C 
ATOM     75  O   UNL     1      13.488  33.558  12.726  1.00  0.00    -0.275 OA
ENDBRANCH   4  71
TORSDOF 30
