REMARK VINA RESULT:    -5.668      5.497     12.518
REMARK INTER + INTRA:         -20.721
REMARK INTER:                 -13.087
REMARK INTRA:                  -7.634
REMARK UNBOUND:                -6.769
REMARK SMILES CC(=O)N[C@@H]1[C@@H](O)C[C@](OC[C@H]2O[C@@H](O[C@H]3[C@H](O)[C@@H](O)[C@H](OCCN=[N+]=[N-])O[C@@H]3CO)[C@H](O)[C@@H](O)[C@H]2O)(C(=O)O)O[C@H]1C(O)[C@H](O)CNC(=O)OCc1cn(-c2cccnc2)nn1
REMARK SMILES IDX 9 1 8 2 6 3 5 4 42 5 41 6 10 7 11 8 12 9 14 10 13 11 32 12
REMARK SMILES IDX 34 13 36 14 15 15 16 16 29 17 28 18 21 19 17 20 19 21 30 22
REMARK SMILES IDX 31 23 22 25 23 26 24 27 25 28 26 29 27 30 18 31 20 33 33 35
REMARK SMILES IDX 35 37 37 39 38 41 39 42 40 43 7 45 43 47 44 48 45 50 46 51
REMARK SMILES IDX 47 53 48 54 49 55 50 57 51 58 52 59 53 60 54 61 63 62 55 63
REMARK SMILES IDX 62 64 56 65 57 66 61 67 58 68 60 69 59 70 4 71 2 72 1 74
REMARK SMILES IDX 3 75
REMARK H PARENT 31 24 18 32 20 34 33 36 35 38 37 40 40 44 7 46 44 49 46 52
REMARK H PARENT 48 56 4 73
REMARK Flexibility Score: inf
ROOT
ATOM      1  C   UNL     1      23.394  25.766  26.217  1.00  0.00     0.272 C 
ATOM      2  C   UNL     1      23.345  24.860  27.378  1.00  0.00     0.113 C 
ATOM      3  C   UNL     1      24.151  25.365  28.523  1.00  0.00     0.145 C 
ATOM      4  C   UNL     1      24.052  26.854  28.739  1.00  0.00     0.142 C 
ATOM      5  C   UNL     1      23.158  27.535  27.766  1.00  0.00     0.178 C 
ATOM      6  O   UNL     1      23.368  27.129  26.456  1.00  0.00    -0.332 OA
ENDROOT
BRANCH   1   7
ATOM      7  O   UNL     1      22.340  25.551  25.331  1.00  0.00    -0.338 OA
BRANCH   7   8
ATOM      8  C   UNL     1      22.429  26.143  24.111  1.00  0.00     0.199 C 
BRANCH   8   9
ATOM      9  C   UNL     1      21.453  25.399  23.180  1.00  0.00     0.179 C 
ATOM     10  C   UNL     1      21.283  27.103  21.581  1.00  0.00     0.282 C 
ATOM     11  O   UNL     1      20.689  26.274  22.508  1.00  0.00    -0.341 OA
ATOM     12  C   UNL     1      22.276  26.347  20.768  1.00  0.00     0.202 C 
ATOM     13  C   UNL     1      21.919  24.856  20.871  1.00  0.00     0.179 C 
ATOM     14  C   UNL     1      22.185  24.402  22.298  1.00  0.00     0.177 C 
BRANCH  10  15
ATOM     15  O   UNL     1      21.818  28.173  22.297  1.00  0.00    -0.341 OA
BRANCH  15  16
ATOM     16  C   UNL     1      21.000  29.249  22.401  1.00  0.00     0.184 C 
ATOM     17  C   UNL     1      21.539  30.540  21.866  1.00  0.00     0.178 C 
ATOM     18  O   UNL     1      20.446  31.338  21.528  1.00  0.00    -0.341 OA
ATOM     19  C   UNL     1      19.438  31.340  22.487  1.00  0.00     0.281 C 
ATOM     20  C   UNL     1      20.602  29.570  23.838  1.00  0.00     0.180 C 
ATOM     21  C   UNL     1      19.927  30.949  23.862  1.00  0.00     0.202 C 
BRANCH  17  22
ATOM     22  C   UNL     1      22.460  30.446  20.707  1.00  0.00     0.191 C 
BRANCH  22  23
ATOM     23  O   UNL     1      21.910  29.776  19.645  1.00  0.00    -0.394 OA
ATOM     24  H   UNL     1      21.338  29.052  20.008  1.00  0.00     0.210 HD
ENDBRANCH  22  23
ENDBRANCH  17  22
BRANCH  19  25
ATOM     25  O   UNL     1      18.368  30.561  22.156  1.00  0.00    -0.350 OA
BRANCH  25  26
ATOM     26  C   UNL     1      17.773  30.706  20.954  1.00  0.00     0.169 C 
BRANCH  26  27
ATOM     27  C   UNL     1      17.157  29.511  20.316  1.00  0.00     0.119 C 
BRANCH  27  28
ATOM     28  N   UNL     1      17.967  28.347  20.207  1.00  0.00    -0.092 NA
ATOM     29  N   UNL     1      18.980  28.296  19.478  1.00  0.00     0.001 N 
ATOM     30  N   UNL     1      19.578  28.165  18.396  1.00  0.00    -0.003 NA
ENDBRANCH  27  28
ENDBRANCH  26  27
ENDBRANCH  25  26
ENDBRANCH  19  25
BRANCH  20  31
ATOM     31  O   UNL     1      19.658  28.650  24.271  1.00  0.00    -0.387 OA
ATOM     32  H   UNL     1      20.025  28.001  24.926  1.00  0.00     0.211 HD
ENDBRANCH  20  31
BRANCH  21  33
ATOM     33  O   UNL     1      20.775  31.927  24.378  1.00  0.00    -0.385 OA
ATOM     34  H   UNL     1      20.733  31.883  25.364  1.00  0.00     0.211 HD
ENDBRANCH  21  33
ENDBRANCH  15  16
ENDBRANCH  10  15
BRANCH  12  35
ATOM     35  O   UNL     1      22.088  26.641  19.404  1.00  0.00    -0.385 OA
ATOM     36  H   UNL     1      21.300  26.109  19.077  1.00  0.00     0.211 HD
ENDBRANCH  12  35
BRANCH  13  37
ATOM     37  O   UNL     1      22.568  24.088  19.940  1.00  0.00    -0.387 OA
ATOM     38  H   UNL     1      22.436  24.470  19.037  1.00  0.00     0.211 HD
ENDBRANCH  13  37
BRANCH  14  39
ATOM     39  O   UNL     1      23.538  24.337  22.562  1.00  0.00    -0.387 OA
ATOM     40  H   UNL     1      23.948  25.182  22.238  1.00  0.00     0.211 HD
ENDBRANCH  14  39
ENDBRANCH   8   9
ENDBRANCH   7   8
ENDBRANCH   1   7
BRANCH   1  41
ATOM     41  C   UNL     1      24.667  25.442  25.460  1.00  0.00     0.364 C 
ATOM     42  O   UNL     1      25.500  26.347  25.287  1.00  0.00    -0.246 OA
BRANCH  41  43
ATOM     43  O   UNL     1      24.939  24.193  24.958  1.00  0.00    -0.477 OA
ATOM     44  H   UNL     1      25.173  23.990  23.994  1.00  0.00     0.296 HD
ENDBRANCH  41  43
ENDBRANCH   1  41
BRANCH   3  45
ATOM     45  O   UNL     1      23.689  24.676  29.669  1.00  0.00    -0.391 OA
ATOM     46  H   UNL     1      22.715  24.668  29.727  1.00  0.00     0.211 HD
ENDBRANCH   3  45
BRANCH   5  47
ATOM     47  C   UNL     1      21.709  27.558  28.122  1.00  0.00     0.176 C 
BRANCH  47  48
ATOM     48  O   UNL     1      20.996  28.020  26.986  1.00  0.00    -0.388 OA
ATOM     49  H   UNL     1      21.565  27.884  26.179  1.00  0.00     0.211 HD
ENDBRANCH  47  48
BRANCH  47  50
ATOM     50  C   UNL     1      21.305  28.454  29.249  1.00  0.00     0.165 C 
BRANCH  50  51
ATOM     51  O   UNL     1      19.966  27.958  29.558  1.00  0.00    -0.388 OA
ATOM     52  H   UNL     1      20.043  27.592  30.472  1.00  0.00     0.211 HD
ENDBRANCH  50  51
BRANCH  50  53
ATOM     53  C   UNL     1      21.034  29.878  28.884  1.00  0.00     0.154 C 
BRANCH  53  54
ATOM     54  N   UNL     1      19.667  30.279  28.802  1.00  0.00    -0.319 N 
ATOM     55  C   UNL     1      19.330  31.338  27.880  1.00  0.00     0.407 C 
ATOM     56  H   UNL     1      18.885  29.884  29.315  1.00  0.00     0.167 HD
ATOM     57  O   UNL     1      20.251  31.842  27.204  1.00  0.00    -0.225 OA
BRANCH  55  58
ATOM     58  O   UNL     1      18.042  31.789  27.739  1.00  0.00    -0.443 OA
BRANCH  58  59
ATOM     59  C   UNL     1      17.674  32.523  26.597  1.00  0.00     0.294 C 
BRANCH  59  60
ATOM     60  C   UNL     1      16.695  31.734  25.818  1.00  0.00     0.121 A 
ATOM     61  C   UNL     1      16.315  31.871  24.503  1.00  0.00     0.144 A 
ATOM     62  N   UNL     1      15.963  30.681  26.289  1.00  0.00    -0.131 NA
ATOM     63  N   UNL     1      15.397  30.936  24.209  1.00  0.00    -0.219 N 
ATOM     64  N   UNL     1      15.206  30.233  25.310  1.00  0.00    -0.062 NA
BRANCH  63  65
ATOM     65  C   UNL     1      14.703  30.660  22.996  1.00  0.00     0.085 A 
ATOM     66  C   UNL     1      14.246  29.400  22.671  1.00  0.00     0.031 A 
ATOM     67  C   UNL     1      14.460  31.659  22.073  1.00  0.00     0.139 A 
ATOM     68  C   UNL     1      13.584  29.156  21.489  1.00  0.00     0.022 A 
ATOM     69  N   UNL     1      13.808  31.405  20.911  1.00  0.00    -0.262 NA
ATOM     70  C   UNL     1      13.362  30.177  20.594  1.00  0.00     0.111 A 
ENDBRANCH  63  65
ENDBRANCH  59  60
ENDBRANCH  58  59
ENDBRANCH  55  58
ENDBRANCH  53  54
ENDBRANCH  50  53
ENDBRANCH  47  50
ENDBRANCH   5  47
BRANCH   4  71
ATOM     71  N   UNL     1      25.376  27.468  28.707  1.00  0.00    -0.348 N 
ATOM     72  C   UNL     1      25.995  28.073  29.828  1.00  0.00     0.217 C 
ATOM     73  H   UNL     1      25.935  27.481  27.810  1.00  0.00     0.163 HD
ATOM     74  C   UNL     1      27.354  28.696  29.745  1.00  0.00     0.114 C 
ATOM     75  O   UNL     1      25.403  28.099  30.941  1.00  0.00    -0.275 OA
ENDBRANCH   4  71
TORSDOF 30
