REMARK VINA RESULT:    -5.312      7.298     12.382
REMARK INTER + INTRA:         -21.815
REMARK INTER:                 -16.697
REMARK INTRA:                  -5.118
REMARK UNBOUND:                -8.275
REMARK SMILES CC(=O)N[C@@H]1[C@@H](O)C[C@](OC[C@H]2O[C@@H](O[C@H]3[C@H](O)[C@@H](O)[C@H](OCCN=[N+]=[N-])O[C@@H]3CO)[C@H](O)[C@@H](O)[C@H]2O)(C(=O)O)O[C@H]1C(O)[C@H](O)CNC(=O)OCc1cn(C(C)(C)C(=O)O)nn1
REMARK SMILES IDX 9 1 8 2 6 3 5 4 42 5 41 6 10 7 11 8 12 9 14 10 13 11 32 12
REMARK SMILES IDX 34 13 36 14 15 15 16 16 29 17 28 18 21 19 17 20 19 21 30 22
REMARK SMILES IDX 31 23 22 25 23 26 24 27 25 28 26 29 27 30 18 31 20 33 33 35
REMARK SMILES IDX 35 37 37 39 38 41 39 42 40 43 7 45 43 47 44 48 45 50 46 51
REMARK SMILES IDX 47 53 48 54 49 55 50 57 51 58 52 59 53 60 54 61 63 62 55 63
REMARK SMILES IDX 62 64 56 65 57 66 58 67 59 68 60 69 61 70 4 72 2 73 1 75
REMARK SMILES IDX 3 76
REMARK H PARENT 31 24 18 32 20 34 33 36 35 38 37 40 40 44 7 46 44 49 46 52
REMARK H PARENT 48 56 61 71 4 74
REMARK Flexibility Score: inf
ROOT
ATOM      1  C   UNL     1      22.614  26.277  27.904  1.00  0.00     0.272 C 
ATOM      2  C   UNL     1      22.601  24.818  27.708  1.00  0.00     0.113 C 
ATOM      3  C   UNL     1      23.205  24.343  26.416  1.00  0.00     0.145 C 
ATOM      4  C   UNL     1      23.105  25.418  25.377  1.00  0.00     0.142 C 
ATOM      5  C   UNL     1      21.844  26.224  25.739  1.00  0.00     0.178 C 
ATOM      6  O   UNL     1      22.173  27.025  26.808  1.00  0.00    -0.332 OA
ENDROOT
BRANCH   1   7
ATOM      7  O   UNL     1      23.810  26.792  28.300  1.00  0.00    -0.338 OA
BRANCH   7   8
ATOM      8  C   UNL     1      24.321  26.407  29.500  1.00  0.00     0.199 C 
BRANCH   8   9
ATOM      9  C   UNL     1      25.621  27.119  29.801  1.00  0.00     0.179 C 
ATOM     10  C   UNL     1      26.916  27.803  31.585  1.00  0.00     0.282 C 
ATOM     11  O   UNL     1      25.852  26.927  31.162  1.00  0.00    -0.341 OA
ATOM     12  C   UNL     1      28.156  27.266  30.978  1.00  0.00     0.202 C 
ATOM     13  C   UNL     1      27.866  26.166  29.959  1.00  0.00     0.179 C 
ATOM     14  C   UNL     1      26.752  26.579  29.010  1.00  0.00     0.177 C 
BRANCH  10  15
ATOM     15  O   UNL     1      26.801  27.808  32.942  1.00  0.00    -0.341 OA
BRANCH  15  16
ATOM     16  C   UNL     1      26.693  26.559  33.529  1.00  0.00     0.184 C 
ATOM     17  C   UNL     1      25.878  26.659  34.781  1.00  0.00     0.178 C 
ATOM     18  O   UNL     1      26.135  25.587  35.649  1.00  0.00    -0.341 OA
ATOM     19  C   UNL     1      27.373  25.685  36.268  1.00  0.00     0.281 C 
ATOM     20  C   UNL     1      28.073  26.035  33.926  1.00  0.00     0.180 C 
ATOM     21  C   UNL     1      28.359  26.390  35.363  1.00  0.00     0.202 C 
BRANCH  17  22
ATOM     22  C   UNL     1      24.373  26.555  34.483  1.00  0.00     0.191 C 
BRANCH  22  23
ATOM     23  O   UNL     1      24.240  26.009  33.222  1.00  0.00    -0.394 OA
ATOM     24  H   UNL     1      23.858  25.085  33.316  1.00  0.00     0.210 HD
ENDBRANCH  22  23
ENDBRANCH  17  22
BRANCH  19  25
ATOM     25  O   UNL     1      27.778  24.378  36.537  1.00  0.00    -0.350 OA
BRANCH  25  26
ATOM     26  C   UNL     1      28.696  24.254  37.547  1.00  0.00     0.169 C 
BRANCH  26  27
ATOM     27  C   UNL     1      30.059  24.071  36.864  1.00  0.00     0.119 C 
BRANCH  27  28
ATOM     28  N   UNL     1      30.016  23.064  35.829  1.00  0.00    -0.092 NA
ATOM     29  N   UNL     1      30.500  21.949  36.075  1.00  0.00     0.001 N 
ATOM     30  N   UNL     1      31.190  20.954  36.251  1.00  0.00    -0.003 NA
ENDBRANCH  27  28
ENDBRANCH  26  27
ENDBRANCH  25  26
ENDBRANCH  19  25
BRANCH  20  31
ATOM     31  O   UNL     1      28.087  24.648  33.818  1.00  0.00    -0.387 OA
ATOM     32  H   UNL     1      28.816  24.226  34.336  1.00  0.00     0.211 HD
ENDBRANCH  20  31
BRANCH  21  33
ATOM     33  O   UNL     1      28.282  27.772  35.491  1.00  0.00    -0.385 OA
ATOM     34  H   UNL     1      28.134  28.074  36.418  1.00  0.00     0.211 HD
ENDBRANCH  21  33
ENDBRANCH  15  16
ENDBRANCH  10  15
BRANCH  12  35
ATOM     35  O   UNL     1      28.758  28.296  30.221  1.00  0.00    -0.385 OA
ATOM     36  H   UNL     1      29.465  28.767  30.686  1.00  0.00     0.211 HD
ENDBRANCH  12  35
BRANCH  13  37
ATOM     37  O   UNL     1      27.574  24.978  30.602  1.00  0.00    -0.387 OA
ATOM     38  H   UNL     1      27.784  25.045  31.569  1.00  0.00     0.211 HD
ENDBRANCH  13  37
BRANCH  14  39
ATOM     39  O   UNL     1      26.380  25.444  28.308  1.00  0.00    -0.387 OA
ATOM     40  H   UNL     1      27.199  25.081  27.863  1.00  0.00     0.211 HD
ENDBRANCH  14  39
ENDBRANCH   8   9
ENDBRANCH   7   8
ENDBRANCH   1   7
BRANCH   1  41
ATOM     41  C   UNL     1      21.548  26.582  28.964  1.00  0.00     0.364 C 
ATOM     42  O   UNL     1      21.015  27.711  29.014  1.00  0.00    -0.246 OA
BRANCH  41  43
ATOM     43  O   UNL     1      21.157  25.624  29.879  1.00  0.00    -0.477 OA
ATOM     44  H   UNL     1      20.688  24.767  29.632  1.00  0.00     0.296 HD
ENDBRANCH  41  43
ENDBRANCH   1  41
BRANCH   3  45
ATOM     45  O   UNL     1      24.533  24.034  26.623  1.00  0.00    -0.391 OA
ATOM     46  H   UNL     1      24.991  23.745  25.791  1.00  0.00     0.211 HD
ENDBRANCH   3  45
BRANCH   5  47
ATOM     47  C   UNL     1      21.365  27.048  24.577  1.00  0.00     0.176 C 
BRANCH  47  48
ATOM     48  O   UNL     1      20.102  27.561  24.861  1.00  0.00    -0.388 OA
ATOM     49  H   UNL     1      19.442  27.286  24.157  1.00  0.00     0.211 HD
ENDBRANCH  47  48
BRANCH  47  50
ATOM     50  C   UNL     1      22.303  28.211  24.350  1.00  0.00     0.165 C 
BRANCH  50  51
ATOM     51  O   UNL     1      21.805  29.379  24.945  1.00  0.00    -0.388 OA
ATOM     52  H   UNL     1      22.389  29.609  25.701  1.00  0.00     0.211 HD
ENDBRANCH  50  51
BRANCH  50  53
ATOM     53  C   UNL     1      22.548  28.489  22.891  1.00  0.00     0.154 C 
BRANCH  53  54
ATOM     54  N   UNL     1      21.558  27.853  22.057  1.00  0.00    -0.319 N 
ATOM     55  C   UNL     1      20.700  28.605  21.218  1.00  0.00     0.407 C 
ATOM     56  H   UNL     1      21.460  26.819  22.061  1.00  0.00     0.167 HD
ATOM     57  O   UNL     1      20.757  29.859  21.155  1.00  0.00    -0.225 OA
BRANCH  55  58
ATOM     58  O   UNL     1      19.739  27.975  20.414  1.00  0.00    -0.443 OA
BRANCH  58  59
ATOM     59  C   UNL     1      18.813  28.788  19.686  1.00  0.00     0.294 C 
BRANCH  59  60
ATOM     60  C   UNL     1      17.503  28.813  20.336  1.00  0.00     0.120 A 
ATOM     61  C   UNL     1      16.991  29.830  21.100  1.00  0.00     0.139 A 
ATOM     62  N   UNL     1      16.581  27.848  20.300  1.00  0.00    -0.132 NA
ATOM     63  N   UNL     1      15.762  29.465  21.516  1.00  0.00    -0.235 N 
ATOM     64  N   UNL     1      15.555  28.249  21.003  1.00  0.00    -0.066 NA
BRANCH  63  65
ATOM     65  C   UNL     1      14.818  30.188  22.343  1.00  0.00     0.155 C 
ATOM     66  C   UNL     1      13.446  30.133  21.738  1.00  0.00     0.049 C 
ATOM     67  C   UNL     1      15.219  31.654  22.466  1.00  0.00     0.049 C 
BRANCH  65  68
ATOM     68  C   UNL     1      14.854  29.596  23.699  1.00  0.00     0.331 C 
ATOM     69  O   UNL     1      15.901  29.659  24.361  1.00  0.00    -0.250 OA
BRANCH  68  70
ATOM     70  O   UNL     1      13.717  28.984  24.195  1.00  0.00    -0.479 OA
ATOM     71  H   UNL     1      12.816  29.448  24.233  1.00  0.00     0.296 HD
ENDBRANCH  68  70
ENDBRANCH  65  68
ENDBRANCH  63  65
ENDBRANCH  59  60
ENDBRANCH  58  59
ENDBRANCH  55  58
ENDBRANCH  53  54
ENDBRANCH  50  53
ENDBRANCH  47  50
ENDBRANCH   5  47
BRANCH   4  72
ATOM     72  N   UNL     1      22.876  24.896  24.055  1.00  0.00    -0.348 N 
ATOM     73  C   UNL     1      23.912  24.498  23.164  1.00  0.00     0.217 C 
ATOM     74  H   UNL     1      21.895  24.800  23.728  1.00  0.00     0.163 HD
ATOM     75  C   UNL     1      23.587  23.966  21.805  1.00  0.00     0.114 C 
ATOM     76  O   UNL     1      25.112  24.598  23.532  1.00  0.00    -0.275 OA
ENDBRANCH   4  72
TORSDOF 32
