REMARK VINA RESULT:    -4.887     16.766     22.034
REMARK INTER + INTRA:         -20.732
REMARK INTER:                 -16.111
REMARK INTRA:                  -4.621
REMARK UNBOUND:                -8.275
REMARK SMILES CC(=O)N[C@@H]1[C@@H](O)C[C@](OC[C@H]2O[C@@H](O[C@H]3[C@H](O)[C@@H](O)[C@H](OCCN=[N+]=[N-])O[C@@H]3CO)[C@H](O)[C@@H](O)[C@H]2O)(C(=O)O)O[C@H]1C(O)[C@H](O)CNC(=O)OCc1cn(C(C)(C)C(=O)O)nn1
REMARK SMILES IDX 9 1 8 2 6 3 5 4 42 5 41 6 10 7 11 8 12 9 14 10 13 11 32 12
REMARK SMILES IDX 34 13 36 14 15 15 16 16 29 17 28 18 21 19 17 20 19 21 30 22
REMARK SMILES IDX 31 23 22 25 23 26 24 27 25 28 26 29 27 30 18 31 20 33 33 35
REMARK SMILES IDX 35 37 37 39 38 41 39 42 40 43 7 45 43 47 44 48 45 50 46 51
REMARK SMILES IDX 47 53 48 54 49 55 50 57 51 58 52 59 53 60 54 61 63 62 55 63
REMARK SMILES IDX 62 64 56 65 57 66 58 67 59 68 60 69 61 70 4 72 2 73 1 75
REMARK SMILES IDX 3 76
REMARK H PARENT 31 24 18 32 20 34 33 36 35 38 37 40 40 44 7 46 44 49 46 52
REMARK H PARENT 48 56 61 71 4 74
REMARK Flexibility Score: inf
ROOT
ATOM      1  C   UNL     1       2.733  22.099  31.351  1.00  0.00     0.272 C 
ATOM      2  C   UNL     1       1.691  22.245  32.381  1.00  0.00     0.113 C 
ATOM      3  C   UNL     1       1.689  23.562  33.104  1.00  0.00     0.145 C 
ATOM      4  C   UNL     1       3.063  24.159  33.086  1.00  0.00     0.142 C 
ATOM      5  C   UNL     1       4.032  22.963  33.040  1.00  0.00     0.178 C 
ATOM      6  O   UNL     1       4.017  22.485  31.750  1.00  0.00    -0.332 OA
ENDROOT
BRANCH   1   7
ATOM      7  O   UNL     1       2.464  22.720  30.170  1.00  0.00    -0.338 OA
BRANCH   7   8
ATOM      8  C   UNL     1       1.225  22.583  29.629  1.00  0.00     0.199 C 
BRANCH   8   9
ATOM      9  C   UNL     1       1.124  23.286  28.293  1.00  0.00     0.179 C 
ATOM     10  C   UNL     1       1.676  25.282  27.273  1.00  0.00     0.282 C 
ATOM     11  O   UNL     1       1.934  24.415  28.397  1.00  0.00    -0.341 OA
ATOM     12  C   UNL     1       2.243  24.598  26.088  1.00  0.00     0.202 C 
ATOM     13  C   UNL     1       2.669  23.165  26.401  1.00  0.00     0.179 C 
ATOM     14  C   UNL     1       1.584  22.429  27.174  1.00  0.00     0.177 C 
BRANCH  10  15
ATOM     15  O   UNL     1       2.213  26.471  27.662  1.00  0.00    -0.341 OA
BRANCH  15  16
ATOM     16  C   UNL     1       3.590  26.560  27.556  1.00  0.00     0.184 C 
ATOM     17  C   UNL     1       4.111  27.543  28.557  1.00  0.00     0.178 C 
ATOM     18  O   UNL     1       5.373  28.032  28.188  1.00  0.00    -0.341 OA
ATOM     19  C   UNL     1       5.313  28.920  27.124  1.00  0.00     0.281 C 
ATOM     20  C   UNL     1       3.987  27.069  26.170  1.00  0.00     0.180 C 
ATOM     21  C   UNL     1       4.162  28.565  26.208  1.00  0.00     0.202 C 
BRANCH  17  22
ATOM     22  C   UNL     1       4.344  26.882  29.926  1.00  0.00     0.191 C 
BRANCH  22  23
ATOM     23  O   UNL     1       5.491  26.120  29.826  1.00  0.00    -0.394 OA
ATOM     24  H   UNL     1       6.226  26.586  30.325  1.00  0.00     0.210 HD
ENDBRANCH  22  23
ENDBRANCH  17  22
BRANCH  19  25
ATOM     25  O   UNL     1       6.536  28.819  26.463  1.00  0.00    -0.350 OA
BRANCH  25  26
ATOM     26  C   UNL     1       6.642  29.576  25.325  1.00  0.00     0.169 C 
BRANCH  26  27
ATOM     27  C   UNL     1       7.896  29.074  24.595  1.00  0.00     0.119 C 
BRANCH  27  28
ATOM     28  N   UNL     1       7.911  27.636  24.466  1.00  0.00    -0.092 NA
ATOM     29  N   UNL     1       8.457  26.973  25.361  1.00  0.00     0.001 N 
ATOM     30  N   UNL     1       9.202  26.364  26.117  1.00  0.00    -0.003 NA
ENDBRANCH  27  28
ENDBRANCH  26  27
ENDBRANCH  25  26
ENDBRANCH  19  25
BRANCH  20  31
ATOM     31  O   UNL     1       5.205  26.505  25.805  1.00  0.00    -0.387 OA
ATOM     32  H   UNL     1       5.105  25.669  25.286  1.00  0.00     0.211 HD
ENDBRANCH  20  31
BRANCH  21  33
ATOM     33  O   UNL     1       2.967  29.130  26.636  1.00  0.00    -0.385 OA
ATOM     34  H   UNL     1       2.193  28.524  26.556  1.00  0.00     0.211 HD
ENDBRANCH  21  33
ENDBRANCH  15  16
ENDBRANCH  10  15
BRANCH  12  35
ATOM     35  O   UNL     1       1.216  24.457  25.127  1.00  0.00    -0.385 OA
ATOM     36  H   UNL     1       0.654  23.680  25.261  1.00  0.00     0.211 HD
ENDBRANCH  12  35
BRANCH  13  37
ATOM     37  O   UNL     1       3.873  23.157  27.079  1.00  0.00    -0.387 OA
ATOM     38  H   UNL     1       4.623  22.986  26.454  1.00  0.00     0.211 HD
ENDBRANCH  13  37
BRANCH  14  39
ATOM     39  O   UNL     1       2.150  21.252  27.638  1.00  0.00    -0.387 OA
ATOM     40  H   UNL     1       2.234  21.329  28.631  1.00  0.00     0.211 HD
ENDBRANCH  14  39
ENDBRANCH   8   9
ENDBRANCH   7   8
ENDBRANCH   1   7
BRANCH   1  41
ATOM     41  C   UNL     1       2.898  20.593  31.112  1.00  0.00     0.364 C 
ATOM     42  O   UNL     1       1.964  19.807  31.379  1.00  0.00    -0.246 OA
BRANCH  41  43
ATOM     43  O   UNL     1       4.073  20.076  30.601  1.00  0.00    -0.477 OA
ATOM     44  H   UNL     1       4.706  19.492  31.123  1.00  0.00     0.296 HD
ENDBRANCH  41  43
ENDBRANCH   1  41
BRANCH   3  45
ATOM     45  O   UNL     1       0.813  24.423  32.477  1.00  0.00    -0.391 OA
ATOM     46  H   UNL     1       0.080  23.945  32.007  1.00  0.00     0.211 HD
ENDBRANCH   3  45
BRANCH   5  47
ATOM     47  C   UNL     1       5.421  23.362  33.449  1.00  0.00     0.176 C 
BRANCH  47  48
ATOM     48  O   UNL     1       5.525  23.326  34.837  1.00  0.00    -0.388 OA
ATOM     49  H   UNL     1       5.924  22.457  35.140  1.00  0.00     0.211 HD
ENDBRANCH  47  48
BRANCH  47  50
ATOM     50  C   UNL     1       6.425  22.388  32.878  1.00  0.00     0.165 C 
BRANCH  50  51
ATOM     51  O   UNL     1       5.935  21.076  32.930  1.00  0.00    -0.388 OA
ATOM     52  H   UNL     1       5.352  20.937  32.151  1.00  0.00     0.211 HD
ENDBRANCH  50  51
BRANCH  50  53
ATOM     53  C   UNL     1       7.750  22.427  33.592  1.00  0.00     0.154 C 
BRANCH  53  54
ATOM     54  N   UNL     1       8.295  23.763  33.624  1.00  0.00    -0.319 N 
ATOM     55  C   UNL     1       8.998  24.251  34.752  1.00  0.00     0.407 C 
ATOM     56  H   UNL     1       8.177  24.393  32.807  1.00  0.00     0.167 HD
ATOM     57  O   UNL     1       9.184  23.550  35.779  1.00  0.00    -0.225 OA
BRANCH  55  58
ATOM     58  O   UNL     1       9.520  25.552  34.773  1.00  0.00    -0.443 OA
BRANCH  58  59
ATOM     59  C   UNL     1      10.854  25.765  34.299  1.00  0.00     0.294 C 
BRANCH  59  60
ATOM     60  C   UNL     1      11.009  27.104  33.731  1.00  0.00     0.120 A 
ATOM     61  C   UNL     1      12.178  27.809  33.609  1.00  0.00     0.139 A 
ATOM     62  N   UNL     1      10.035  27.871  33.234  1.00  0.00    -0.132 NA
ATOM     63  N   UNL     1      11.895  28.996  33.038  1.00  0.00    -0.235 N 
ATOM     64  N   UNL     1      10.575  28.988  32.827  1.00  0.00    -0.066 NA
BRANCH  63  65
ATOM     65  C   UNL     1      12.783  30.090  32.699  1.00  0.00     0.155 C 
ATOM     66  C   UNL     1      13.903  30.180  33.692  1.00  0.00     0.049 C 
ATOM     67  C   UNL     1      12.033  31.418  32.714  1.00  0.00     0.049 C 
BRANCH  65  68
ATOM     68  C   UNL     1      13.274  29.866  31.321  1.00  0.00     0.331 C 
ATOM     69  O   UNL     1      12.753  30.488  30.382  1.00  0.00    -0.250 OA
BRANCH  68  70
ATOM     70  O   UNL     1      14.303  28.966  31.113  1.00  0.00    -0.479 OA
ATOM     71  H   UNL     1      14.776  28.868  30.222  1.00  0.00     0.296 HD
ENDBRANCH  68  70
ENDBRANCH  65  68
ENDBRANCH  63  65
ENDBRANCH  59  60
ENDBRANCH  58  59
ENDBRANCH  55  58
ENDBRANCH  53  54
ENDBRANCH  50  53
ENDBRANCH  47  50
ENDBRANCH   5  47
BRANCH   4  72
ATOM     72  N   UNL     1       3.376  24.876  34.295  1.00  0.00    -0.348 N 
ATOM     73  C   UNL     1       3.060  26.246  34.515  1.00  0.00     0.217 C 
ATOM     74  H   UNL     1       3.861  24.364  35.058  1.00  0.00     0.163 HD
ATOM     75  C   UNL     1       3.422  26.916  35.802  1.00  0.00     0.114 C 
ATOM     76  O   UNL     1       2.469  26.894  33.611  1.00  0.00    -0.275 OA
ENDBRANCH   4  72
TORSDOF 32
