REMARK VINA RESULT:    -5.621     11.797     18.759
REMARK INTER + INTRA:         -21.367
REMARK INTER:                 -14.558
REMARK INTRA:                  -6.809
REMARK UNBOUND:                -7.203
REMARK SMILES CC(=O)N[C@@H]1[C@@H](O)C[C@](OC[C@H]2O[C@@H](O[C@H]3[C@H](O)[C@@H](O)[C@H](OCCN=[N+]=[N-])O[C@@H]3CO)[C@H](O)[C@@H](O)[C@H]2O)(C(=O)O)O[C@H]1C(O)[C@H](O)CNC(=O)OCc1cn(CC2=CC[C@H]3C[C@@H]2C3(C)C)nn1
REMARK SMILES IDX 9 1 8 2 6 3 5 4 42 5 41 6 10 7 11 8 12 9 14 10 13 11 32 12
REMARK SMILES IDX 34 13 36 14 15 15 16 16 29 17 28 18 21 19 17 20 19 21 30 22
REMARK SMILES IDX 31 23 22 25 23 26 24 27 25 28 26 29 27 30 18 31 20 33 33 35
REMARK SMILES IDX 35 37 37 39 38 41 39 42 40 43 7 45 43 47 44 48 45 50 46 51
REMARK SMILES IDX 47 53 48 54 49 55 50 57 51 58 52 59 53 60 54 61 67 62 55 63
REMARK SMILES IDX 66 64 56 65 57 66 58 67 62 68 59 69 61 70 63 71 60 72 64 73
REMARK SMILES IDX 65 74 4 75 2 76 1 78 3 79
REMARK H PARENT 31 24 18 32 20 34 33 36 35 38 37 40 40 44 7 46 44 49 46 52
REMARK H PARENT 48 56 4 77
REMARK Flexibility Score: inf
ROOT
ATOM      1  C   UNL     1      32.231  19.307  24.349  1.00  0.00     0.272 C 
ATOM      2  C   UNL     1      32.403  20.791  24.335  1.00  0.00     0.113 C 
ATOM      3  C   UNL     1      31.046  21.484  24.549  1.00  0.00     0.145 C 
ATOM      4  C   UNL     1      30.111  21.156  23.441  1.00  0.00     0.142 C 
ATOM      5  C   UNL     1      30.702  19.975  22.700  1.00  0.00     0.178 C 
ATOM      6  O   UNL     1      31.092  18.990  23.533  1.00  0.00    -0.332 OA
ENDROOT
BRANCH   1   7
ATOM      7  O   UNL     1      31.962  18.740  25.515  1.00  0.00    -0.338 OA
BRANCH   7   8
ATOM      8  C   UNL     1      32.580  17.772  26.141  1.00  0.00     0.199 C 
BRANCH   8   9
ATOM      9  C   UNL     1      33.026  17.770  27.541  1.00  0.00     0.179 C 
ATOM     10  C   UNL     1      34.243  19.113  28.980  1.00  0.00     0.282 C 
ATOM     11  O   UNL     1      33.491  19.095  27.811  1.00  0.00    -0.341 OA
ATOM     12  C   UNL     1      33.714  18.324  30.091  1.00  0.00     0.202 C 
ATOM     13  C   UNL     1      32.533  17.462  29.878  1.00  0.00     0.179 C 
ATOM     14  C   UNL     1      31.860  17.682  28.546  1.00  0.00     0.177 C 
BRANCH  10  15
ATOM     15  O   UNL     1      34.285  20.473  29.342  1.00  0.00    -0.341 OA
BRANCH  15  16
ATOM     16  C   UNL     1      34.515  21.305  28.260  1.00  0.00     0.184 C 
ATOM     17  C   UNL     1      35.706  22.181  28.525  1.00  0.00     0.178 C 
ATOM     18  O   UNL     1      35.801  23.276  27.685  1.00  0.00    -0.341 OA
ATOM     19  C   UNL     1      34.956  23.296  26.615  1.00  0.00     0.281 C 
ATOM     20  C   UNL     1      33.304  22.237  28.156  1.00  0.00     0.180 C 
ATOM     21  C   UNL     1      33.501  23.154  26.987  1.00  0.00     0.202 C 
BRANCH  17  22
ATOM     22  C   UNL     1      36.967  21.324  28.362  1.00  0.00     0.191 C 
BRANCH  22  23
ATOM     23  O   UNL     1      36.736  20.420  27.336  1.00  0.00    -0.394 OA
ATOM     24  H   UNL     1      36.842  19.493  27.712  1.00  0.00     0.210 HD
ENDBRANCH  22  23
ENDBRANCH  17  22
BRANCH  19  25
ATOM     25  O   UNL     1      35.278  22.309  25.674  1.00  0.00    -0.350 OA
BRANCH  25  26
ATOM     26  C   UNL     1      36.131  22.794  24.682  1.00  0.00     0.169 C 
BRANCH  26  27
ATOM     27  C   UNL     1      35.439  22.473  23.355  1.00  0.00     0.119 C 
BRANCH  27  28
ATOM     28  N   UNL     1      34.832  23.677  22.828  1.00  0.00    -0.092 NA
ATOM     29  N   UNL     1      33.875  24.211  23.358  1.00  0.00     0.001 N 
ATOM     30  N   UNL     1      32.822  24.640  23.846  1.00  0.00    -0.003 NA
ENDBRANCH  27  28
ENDBRANCH  26  27
ENDBRANCH  25  26
ENDBRANCH  19  25
BRANCH  20  31
ATOM     31  O   UNL     1      32.142  21.478  27.929  1.00  0.00    -0.387 OA
ATOM     32  H   UNL     1      31.343  22.045  28.003  1.00  0.00     0.211 HD
ENDBRANCH  20  31
BRANCH  21  33
ATOM     33  O   UNL     1      32.924  24.407  27.185  1.00  0.00    -0.385 OA
ATOM     34  H   UNL     1      32.444  24.661  26.346  1.00  0.00     0.211 HD
ENDBRANCH  21  33
ENDBRANCH  15  16
ENDBRANCH  10  15
BRANCH  12  35
ATOM     35  O   UNL     1      34.768  17.493  30.558  1.00  0.00    -0.385 OA
ATOM     36  H   UNL     1      34.451  16.868  31.257  1.00  0.00     0.211 HD
ENDBRANCH  12  35
BRANCH  13  37
ATOM     37  O   UNL     1      31.633  17.525  30.947  1.00  0.00    -0.387 OA
ATOM     38  H   UNL     1      31.923  16.910  31.674  1.00  0.00     0.211 HD
ENDBRANCH  13  37
BRANCH  14  39
ATOM     39  O   UNL     1      31.257  18.956  28.585  1.00  0.00    -0.387 OA
ATOM     40  H   UNL     1      31.947  19.654  28.704  1.00  0.00     0.211 HD
ENDBRANCH  14  39
ENDBRANCH   8   9
ENDBRANCH   7   8
ENDBRANCH   1   7
BRANCH   1  41
ATOM     41  C   UNL     1      33.321  18.657  23.575  1.00  0.00     0.364 C 
ATOM     42  O   UNL     1      33.048  17.698  22.771  1.00  0.00    -0.246 OA
BRANCH  41  43
ATOM     43  O   UNL     1      34.624  19.012  23.668  1.00  0.00    -0.477 OA
ATOM     44  H   UNL     1      35.011  19.934  23.787  1.00  0.00     0.296 HD
ENDBRANCH  41  43
ENDBRANCH   1  41
BRANCH   3  45
ATOM     45  O   UNL     1      30.542  20.871  25.706  1.00  0.00    -0.391 OA
ATOM     46  H   UNL     1      30.065  20.051  25.429  1.00  0.00     0.211 HD
ENDBRANCH   3  45
BRANCH   5  47
ATOM     47  C   UNL     1      29.673  19.384  21.733  1.00  0.00     0.176 C 
BRANCH  47  48
ATOM     48  O   UNL     1      28.745  18.639  22.413  1.00  0.00    -0.388 OA
ATOM     49  H   UNL     1      29.081  17.764  22.756  1.00  0.00     0.211 HD
ENDBRANCH  47  48
BRANCH  47  50
ATOM     50  C   UNL     1      30.350  18.573  20.668  1.00  0.00     0.165 C 
BRANCH  50  51
ATOM     51  O   UNL     1      31.623  19.185  20.480  1.00  0.00    -0.388 OA
ATOM     52  H   UNL     1      31.425  19.912  19.809  1.00  0.00     0.211 HD
ENDBRANCH  50  51
BRANCH  50  53
ATOM     53  C   UNL     1      29.651  18.677  19.351  1.00  0.00     0.154 C 
BRANCH  53  54
ATOM     54  N   UNL     1      28.757  19.783  19.224  1.00  0.00    -0.319 N 
ATOM     55  C   UNL     1      28.390  20.262  17.944  1.00  0.00     0.407 C 
ATOM     56  H   UNL     1      28.370  20.230  20.092  1.00  0.00     0.167 HD
ATOM     57  O   UNL     1      28.841  19.726  16.924  1.00  0.00    -0.225 OA
BRANCH  55  58
ATOM     58  O   UNL     1      27.524  21.330  17.810  1.00  0.00    -0.443 OA
BRANCH  58  59
ATOM     59  C   UNL     1      27.662  22.412  16.951  1.00  0.00     0.294 C 
BRANCH  59  60
ATOM     60  C   UNL     1      27.034  23.675  17.437  1.00  0.00     0.120 A 
ATOM     61  C   UNL     1      25.727  23.883  17.809  1.00  0.00     0.138 A 
ATOM     62  N   UNL     1      27.662  24.871  17.612  1.00  0.00    -0.132 NA
ATOM     63  N   UNL     1      25.588  25.156  18.189  1.00  0.00    -0.248 N 
ATOM     64  N   UNL     1      26.768  25.729  18.060  1.00  0.00    -0.067 NA
BRANCH  63  65
ATOM     65  C   UNL     1      24.356  25.810  18.668  1.00  0.00     0.177 C 
BRANCH  65  66
ATOM     66  C   UNL     1      24.059  25.164  19.989  1.00  0.00    -0.049 C 
ATOM     67  C   UNL     1      22.888  24.528  20.196  1.00  0.00    -0.025 C 
ATOM     68  C   UNL     1      25.011  25.183  21.110  1.00  0.00     0.023 C 
ATOM     69  C   UNL     1      22.567  24.042  21.555  1.00  0.00     0.031 C 
ATOM     70  C   UNL     1      25.001  23.773  21.716  1.00  0.00     0.013 C 
ATOM     71  C   UNL     1      24.314  25.649  22.352  1.00  0.00    -0.026 C 
ATOM     72  C   UNL     1      23.744  24.229  22.469  1.00  0.00    -0.000 C 
ATOM     73  C   UNL     1      25.227  25.916  23.525  1.00  0.00     0.012 C 
ATOM     74  C   UNL     1      23.297  26.730  22.207  1.00  0.00     0.012 C 
ENDBRANCH  65  66
ENDBRANCH  63  65
ENDBRANCH  59  60
ENDBRANCH  58  59
ENDBRANCH  55  58
ENDBRANCH  53  54
ENDBRANCH  50  53
ENDBRANCH  47  50
ENDBRANCH   5  47
BRANCH   4  75
ATOM     75  N   UNL     1      29.849  22.181  22.492  1.00  0.00    -0.348 N 
ATOM     76  C   UNL     1      28.665  22.372  21.767  1.00  0.00     0.217 C 
ATOM     77  H   UNL     1      30.644  22.865  22.326  1.00  0.00     0.163 HD
ATOM     78  C   UNL     1      28.525  23.492  20.800  1.00  0.00     0.114 C 
ATOM     79  O   UNL     1      27.742  21.563  21.971  1.00  0.00    -0.275 OA
ENDBRANCH   4  75
TORSDOF 31
