REMARK VINA RESULT:    -6.266     11.794     17.919
REMARK INTER + INTRA:         -24.965
REMARK INTER:                 -16.152
REMARK INTRA:                  -8.813
REMARK UNBOUND:                -8.074
REMARK SMILES CC(=O)N[C@@H]1[C@@H](O)C[C@](OC[C@H]2O[C@@H](O[C@H]3[C@H](O)[C@@H](O)[C@H](OCCN=[N+]=[N-])O[C@@H]3CO)[C@H](O)[C@@H](O)[C@H]2O)(C(=O)O)O[C@H]1C(O)[C@H](O)CNC(=O)OCc1cn(C[C@@H](C)CN2CCN(c3ccc(Cl)cc3)CC2)nn1
REMARK SMILES IDX 43 1 42 2 9 3 8 4 41 5 6 6 5 7 10 8 11 9 12 10 14 11 13 12
REMARK SMILES IDX 32 13 34 14 36 15 15 16 16 17 29 18 28 19 21 20 17 21 19 22
REMARK SMILES IDX 30 23 31 24 22 26 23 27 24 28 25 29 26 30 27 31 18 32 20 34
REMARK SMILES IDX 33 36 35 38 37 40 38 42 39 43 40 44 7 46 4 48 2 49 1 51 3 52
REMARK SMILES IDX 44 53 45 55 46 56 47 58 48 59 49 60 50 62 51 63 52 64 53 65
REMARK SMILES IDX 54 66 74 67 55 68 73 69 56 70 57 71 58 72 59 73 60 74 61 75
REMARK SMILES IDX 72 76 62 77 71 78 63 79 64 80 65 81 70 82 66 83 69 84 67 85
REMARK SMILES IDX 68 86
REMARK H PARENT 31 25 18 33 20 35 33 37 35 39 37 41 40 45 7 47 4 50 44 54
REMARK H PARENT 46 57 48 61
REMARK Flexibility Score: inf
ROOT
ATOM      1  C   UNL     1      14.816  33.382  22.123  1.00  0.00     0.176 C 
ENDROOT
BRANCH   1   2
ATOM      2  C   UNL     1      14.502  31.909  21.906  1.00  0.00     0.178 C 
ATOM      3  C   UNL     1      15.440  29.827  21.300  1.00  0.00     0.272 C 
ATOM      4  C   UNL     1      14.087  29.460  20.939  1.00  0.00     0.113 C 
ATOM      5  O   UNL     1      15.558  31.250  21.369  1.00  0.00    -0.332 OA
ATOM      6  C   UNL     1      13.332  30.572  20.235  1.00  0.00     0.145 C 
ATOM      7  C   UNL     1      13.177  31.710  21.253  1.00  0.00     0.142 C 
BRANCH   3   8
ATOM      8  O   UNL     1      16.486  29.458  20.566  1.00  0.00    -0.338 OA
BRANCH   8   9
ATOM      9  C   UNL     1      16.673  28.365  19.874  1.00  0.00     0.199 C 
BRANCH   9  10
ATOM     10  C   UNL     1      16.734  28.339  18.374  1.00  0.00     0.179 C 
ATOM     11  C   UNL     1      16.382  29.951  16.724  1.00  0.00     0.282 C 
ATOM     12  O   UNL     1      15.881  29.212  17.762  1.00  0.00    -0.341 OA
ATOM     13  C   UNL     1      17.466  30.873  17.250  1.00  0.00     0.202 C 
ATOM     14  C   UNL     1      18.533  30.034  17.875  1.00  0.00     0.179 C 
ATOM     15  C   UNL     1      18.190  28.585  17.951  1.00  0.00     0.177 C 
BRANCH  11  16
ATOM     16  O   UNL     1      15.315  30.768  16.278  1.00  0.00    -0.341 OA
BRANCH  16  17
ATOM     17  C   UNL     1      14.485  30.037  15.467  1.00  0.00     0.184 C 
ATOM     18  C   UNL     1      14.524  30.496  14.024  1.00  0.00     0.178 C 
ATOM     19  O   UNL     1      13.386  31.097  13.583  1.00  0.00    -0.341 OA
ATOM     20  C   UNL     1      12.213  30.377  13.725  1.00  0.00     0.281 C 
ATOM     21  C   UNL     1      13.052  30.018  15.989  1.00  0.00     0.180 C 
ATOM     22  C   UNL     1      12.198  29.427  14.891  1.00  0.00     0.202 C 
BRANCH  18  23
ATOM     23  C   UNL     1      15.031  29.405  13.092  1.00  0.00     0.191 C 
BRANCH  23  24
ATOM     24  O   UNL     1      15.276  28.228  13.754  1.00  0.00    -0.394 OA
ATOM     25  H   UNL     1      15.501  28.468  14.704  1.00  0.00     0.210 HD
ENDBRANCH  23  24
ENDBRANCH  18  23
BRANCH  20  26
ATOM     26  O   UNL     1      11.863  29.699  12.564  1.00  0.00    -0.350 OA
BRANCH  26  27
ATOM     27  C   UNL     1      10.811  30.221  11.866  1.00  0.00     0.169 C 
BRANCH  27  28
ATOM     28  C   UNL     1       9.758  29.188  11.580  1.00  0.00     0.119 C 
BRANCH  28  29
ATOM     29  N   UNL     1       9.153  28.763  12.832  1.00  0.00    -0.092 NA
ATOM     30  N   UNL     1       8.107  29.312  13.222  1.00  0.00     0.001 N 
ATOM     31  N   UNL     1       7.085  29.931  13.492  1.00  0.00    -0.003 NA
ENDBRANCH  28  29
ENDBRANCH  27  28
ENDBRANCH  26  27
ENDBRANCH  20  26
BRANCH  21  32
ATOM     32  O   UNL     1      12.943  29.185  17.100  1.00  0.00    -0.387 OA
ATOM     33  H   UNL     1      12.035  29.367  17.482  1.00  0.00     0.211 HD
ENDBRANCH  21  32
BRANCH  22  34
ATOM     34  O   UNL     1      10.867  29.350  15.367  1.00  0.00    -0.385 OA
ATOM     35  H   UNL     1      10.204  29.414  14.662  1.00  0.00     0.211 HD
ENDBRANCH  22  34
ENDBRANCH  16  17
ENDBRANCH  11  16
BRANCH  13  36
ATOM     36  O   UNL     1      17.918  31.649  16.197  1.00  0.00    -0.385 OA
ATOM     37  H   UNL     1      18.686  31.155  15.786  1.00  0.00     0.211 HD
ENDBRANCH  13  36
BRANCH  14  38
ATOM     38  O   UNL     1      18.945  30.515  19.125  1.00  0.00    -0.387 OA
ATOM     39  H   UNL     1      18.683  29.899  19.846  1.00  0.00     0.211 HD
ENDBRANCH  14  38
BRANCH  15  40
ATOM     40  O   UNL     1      19.020  27.923  18.821  1.00  0.00    -0.387 OA
ATOM     41  H   UNL     1      19.831  27.578  18.383  1.00  0.00     0.211 HD
ENDBRANCH  15  40
ENDBRANCH   9  10
ENDBRANCH   8   9
ENDBRANCH   3   8
BRANCH   3  42
ATOM     42  C   UNL     1      15.707  29.468  22.749  1.00  0.00     0.364 C 
ATOM     43  O   UNL     1      14.744  29.113  23.514  1.00  0.00    -0.246 OA
BRANCH  42  44
ATOM     44  O   UNL     1      16.945  29.500  23.337  1.00  0.00    -0.477 OA
ATOM     45  H   UNL     1      17.233  28.798  24.009  1.00  0.00     0.296 HD
ENDBRANCH  42  44
ENDBRANCH   3  42
BRANCH   6  46
ATOM     46  O   UNL     1      14.123  30.988  19.164  1.00  0.00    -0.391 OA
ATOM     47  H   UNL     1      14.857  30.352  18.986  1.00  0.00     0.211 HD
ENDBRANCH   6  46
BRANCH   7  48
ATOM     48  N   UNL     1      12.147  31.306  22.189  1.00  0.00    -0.348 N 
ATOM     49  C   UNL     1      11.017  32.136  22.405  1.00  0.00     0.217 C 
ATOM     50  H   UNL     1      12.196  30.402  22.734  1.00  0.00     0.163 HD
ATOM     51  C   UNL     1       9.969  31.680  23.386  1.00  0.00     0.114 C 
ATOM     52  O   UNL     1      10.847  33.240  21.815  1.00  0.00    -0.275 OA
ENDBRANCH   7  48
ENDBRANCH   1   2
BRANCH   1  53
ATOM     53  O   UNL     1      15.478  33.488  23.345  1.00  0.00    -0.388 OA
ATOM     54  H   UNL     1      14.909  33.183  24.089  1.00  0.00     0.211 HD
ENDBRANCH   1  53
BRANCH   1  55
ATOM     55  C   UNL     1      15.734  33.969  21.087  1.00  0.00     0.165 C 
BRANCH  55  56
ATOM     56  O   UNL     1      15.716  33.350  19.865  1.00  0.00    -0.388 OA
ATOM     57  H   UNL     1      16.297  33.777  19.213  1.00  0.00     0.211 HD
ENDBRANCH  55  56
BRANCH  55  58
ATOM     58  C   UNL     1      17.131  34.200  21.554  1.00  0.00     0.154 C 
BRANCH  58  59
ATOM     59  N   UNL     1      17.944  33.043  21.171  1.00  0.00    -0.319 N 
ATOM     60  C   UNL     1      18.469  32.157  22.140  1.00  0.00     0.407 C 
ATOM     61  H   UNL     1      18.135  32.876  20.162  1.00  0.00     0.167 HD
ATOM     62  O   UNL     1      18.223  32.392  23.349  1.00  0.00    -0.225 OA
BRANCH  60  63
ATOM     63  O   UNL     1      19.232  31.064  21.753  1.00  0.00    -0.443 OA
BRANCH  63  64
ATOM     64  C   UNL     1      20.149  30.521  22.703  1.00  0.00     0.294 C 
BRANCH  64  65
ATOM     65  C   UNL     1      20.565  29.142  22.359  1.00  0.00     0.120 A 
ATOM     66  C   UNL     1      21.388  28.315  23.088  1.00  0.00     0.138 A 
ATOM     67  N   UNL     1      20.220  28.427  21.262  1.00  0.00    -0.132 NA
ATOM     68  N   UNL     1      21.501  27.173  22.418  1.00  0.00    -0.252 N 
ATOM     69  N   UNL     1      20.793  27.244  21.313  1.00  0.00    -0.067 NA
BRANCH  68  70
ATOM     70  C   UNL     1      22.306  26.032  22.857  1.00  0.00     0.150 C 
BRANCH  70  71
ATOM     71  C   UNL     1      21.751  25.451  24.162  1.00  0.00     0.022 C 
ATOM     72  C   UNL     1      20.747  24.396  23.748  1.00  0.00     0.011 C 
BRANCH  71  73
ATOM     73  C   UNL     1      22.877  24.863  24.953  1.00  0.00     0.089 C 
BRANCH  73  74
ATOM     74  N   UNL     1      23.218  25.456  26.179  1.00  0.00    -0.299 NA
ATOM     75  C   UNL     1      24.416  26.167  26.336  1.00  0.00     0.106 C 
ATOM     76  C   UNL     1      22.697  24.803  27.336  1.00  0.00     0.106 C 
ATOM     77  C   UNL     1      25.228  25.691  27.541  1.00  0.00     0.132 C 
ATOM     78  C   UNL     1      22.951  25.665  28.559  1.00  0.00     0.132 C 
ATOM     79  N   UNL     1      24.379  25.729  28.731  1.00  0.00    -0.369 N 
BRANCH  79  80
ATOM     80  C   UNL     1      24.975  25.821  29.994  1.00  0.00     0.037 A 
ATOM     81  C   UNL     1      24.234  26.057  31.149  1.00  0.00     0.027 A 
ATOM     82  C   UNL     1      26.343  25.674  30.191  1.00  0.00     0.027 A 
ATOM     83  C   UNL     1      24.794  26.144  32.401  1.00  0.00     0.022 A 
ATOM     84  C   UNL     1      26.908  25.761  31.447  1.00  0.00     0.022 A 
ATOM     85  C   UNL     1      26.146  25.997  32.569  1.00  0.00     0.041 A 
ATOM     86  Cl  UNL     1      26.852  26.105  34.147  1.00  0.00    -0.084 Cl
ENDBRANCH  79  80
ENDBRANCH  73  74
ENDBRANCH  71  73
ENDBRANCH  70  71
ENDBRANCH  68  70
ENDBRANCH  64  65
ENDBRANCH  63  64
ENDBRANCH  60  63
ENDBRANCH  58  59
ENDBRANCH  55  58
ENDBRANCH   1  55
TORSDOF 34
