REMARK VINA RESULT:    -5.968      7.725     12.418
REMARK INTER + INTRA:         -24.138
REMARK INTER:                 -12.840
REMARK INTRA:                 -11.298
REMARK UNBOUND:                -7.877
REMARK SMILES CC(=O)N[C@@H]1[C@@H](O)C[C@](OC[C@H]2O[C@@H](O[C@H]3[C@H](O)[C@@H](O)[C@H](OCCN=[N+]=[N-])O[C@@H]3CO)[C@H](O)[C@@H](O)[C@H]2O)(C(=O)O)O[C@H]1C(O)[C@H](O)CNC(=O)OCc1cn(CC(O)CCc2ccccc2)nn1
REMARK SMILES IDX 43 1 42 2 9 3 8 4 41 5 6 6 5 7 10 8 11 9 12 10 14 11 13 12
REMARK SMILES IDX 32 13 34 14 36 15 15 16 16 17 29 18 28 19 21 20 17 21 19 22
REMARK SMILES IDX 30 23 31 24 22 26 23 27 24 28 25 29 26 30 27 31 18 32 20 34
REMARK SMILES IDX 33 36 35 38 37 40 38 42 39 43 40 44 7 46 4 48 2 49 1 51 3 52
REMARK SMILES IDX 44 53 45 55 46 56 47 58 48 59 49 60 50 62 51 63 52 64 53 65
REMARK SMILES IDX 54 66 68 67 55 68 67 69 56 70 57 71 58 72 59 74 60 75 61 76
REMARK SMILES IDX 62 77 66 78 63 79 65 80 64 81
REMARK H PARENT 31 25 18 33 20 35 33 37 35 39 37 41 40 45 7 47 4 50 44 54
REMARK H PARENT 46 57 48 61 58 73
REMARK Flexibility Score: inf
ROOT
ATOM      1  C   UNL     1      24.101  31.751  23.477  1.00  0.00     0.176 C 
ENDROOT
BRANCH   1   2
ATOM      2  C   UNL     1      23.012  30.662  23.503  1.00  0.00     0.178 C 
ATOM      3  C   UNL     1      20.667  30.992  23.645  1.00  0.00     0.272 C 
ATOM      4  C   UNL     1      20.849  31.065  25.125  1.00  0.00     0.113 C 
ATOM      5  O   UNL     1      21.877  31.180  23.032  1.00  0.00    -0.332 OA
ATOM      6  C   UNL     1      21.797  30.024  25.604  1.00  0.00     0.145 C 
ATOM      7  C   UNL     1      23.070  29.974  24.813  1.00  0.00     0.142 C 
BRANCH   3   8
ATOM      8  O   UNL     1      19.710  31.932  23.214  1.00  0.00    -0.338 OA
BRANCH   8   9
ATOM      9  C   UNL     1      18.909  32.462  24.161  1.00  0.00     0.199 C 
BRANCH   9  10
ATOM     10  C   UNL     1      17.419  32.171  23.862  1.00  0.00     0.179 C 
ATOM     11  C   UNL     1      15.964  30.906  22.666  1.00  0.00     0.282 C 
ATOM     12  O   UNL     1      17.260  31.328  22.822  1.00  0.00    -0.341 OA
ATOM     13  C   UNL     1      15.641  30.129  23.973  1.00  0.00     0.202 C 
ATOM     14  C   UNL     1      15.410  31.267  24.972  1.00  0.00     0.179 C 
ATOM     15  C   UNL     1      16.775  31.870  25.165  1.00  0.00     0.177 C 
BRANCH  11  16
ATOM     16  O   UNL     1      15.845  30.036  21.640  1.00  0.00    -0.341 OA
BRANCH  16  17
ATOM     17  C   UNL     1      16.799  30.020  20.650  1.00  0.00     0.184 C 
ATOM     18  C   UNL     1      16.630  31.102  19.636  1.00  0.00     0.178 C 
ATOM     19  O   UNL     1      16.513  30.728  18.335  1.00  0.00    -0.341 OA
ATOM     20  C   UNL     1      17.155  29.597  17.925  1.00  0.00     0.281 C 
ATOM     21  C   UNL     1      16.861  28.615  20.121  1.00  0.00     0.180 C 
ATOM     22  C   UNL     1      16.556  28.434  18.679  1.00  0.00     0.202 C 
BRANCH  18  23
ATOM     23  C   UNL     1      17.798  32.060  19.732  1.00  0.00     0.191 C 
BRANCH  23  24
ATOM     24  O   UNL     1      18.871  31.489  20.413  1.00  0.00    -0.394 OA
ATOM     25  H   UNL     1      19.406  30.998  19.719  1.00  0.00     0.210 HD
ENDBRANCH  23  24
ENDBRANCH  18  23
BRANCH  20  26
ATOM     26  O   UNL     1      18.534  29.654  18.039  1.00  0.00    -0.350 OA
BRANCH  26  27
ATOM     27  C   UNL     1      19.117  29.292  16.823  1.00  0.00     0.169 C 
BRANCH  27  28
ATOM     28  C   UNL     1      20.434  30.059  16.722  1.00  0.00     0.119 C 
BRANCH  28  29
ATOM     29  N   UNL     1      20.378  31.294  17.457  1.00  0.00    -0.092 NA
ATOM     30  N   UNL     1      21.216  31.503  18.358  1.00  0.00     0.001 N 
ATOM     31  N   UNL     1      21.856  31.577  19.424  1.00  0.00    -0.003 NA
ENDBRANCH  28  29
ENDBRANCH  27  28
ENDBRANCH  26  27
ENDBRANCH  20  26
BRANCH  21  32
ATOM     32  O   UNL     1      18.150  28.051  20.319  1.00  0.00    -0.387 OA
ATOM     33  H   UNL     1      18.771  28.288  19.592  1.00  0.00     0.211 HD
ENDBRANCH  21  32
BRANCH  22  34
ATOM     34  O   UNL     1      15.177  28.447  18.451  1.00  0.00    -0.385 OA
ATOM     35  H   UNL     1      14.867  29.301  18.087  1.00  0.00     0.211 HD
ENDBRANCH  22  34
ENDBRANCH  16  17
ENDBRANCH  11  16
BRANCH  13  36
ATOM     36  O   UNL     1      14.591  29.280  23.857  1.00  0.00    -0.385 OA
ATOM     37  H   UNL     1      13.728  29.651  23.608  1.00  0.00     0.211 HD
ENDBRANCH  13  36
BRANCH  14  38
ATOM     38  O   UNL     1      14.870  30.786  26.161  1.00  0.00    -0.387 OA
ATOM     39  H   UNL     1      14.201  30.089  25.977  1.00  0.00     0.211 HD
ENDBRANCH  14  38
BRANCH  15  40
ATOM     40  O   UNL     1      17.528  30.920  25.864  1.00  0.00    -0.387 OA
ATOM     41  H   UNL     1      18.489  31.135  25.838  1.00  0.00     0.211 HD
ENDBRANCH  15  40
ENDBRANCH   9  10
ENDBRANCH   8   9
ENDBRANCH   3   8
BRANCH   3  42
ATOM     42  C   UNL     1      20.044  29.690  23.299  1.00  0.00     0.364 C 
ATOM     43  O   UNL     1      19.326  29.110  24.163  1.00  0.00    -0.246 OA
BRANCH  42  44
ATOM     44  O   UNL     1      20.203  29.076  22.088  1.00  0.00    -0.477 OA
ATOM     45  H   UNL     1      20.349  28.078  22.049  1.00  0.00     0.296 HD
ENDBRANCH  42  44
ENDBRANCH   3  42
BRANCH   6  46
ATOM     46  O   UNL     1      22.045  30.332  26.970  1.00  0.00    -0.391 OA
ATOM     47  H   UNL     1      22.499  31.192  27.075  1.00  0.00     0.211 HD
ENDBRANCH   6  46
BRANCH   7  48
ATOM     48  N   UNL     1      23.622  28.647  24.715  1.00  0.00    -0.348 N 
ATOM     49  C   UNL     1      24.861  28.261  25.296  1.00  0.00     0.217 C 
ATOM     50  H   UNL     1      23.105  27.887  24.179  1.00  0.00     0.163 HD
ATOM     51  C   UNL     1      25.318  26.865  25.129  1.00  0.00     0.114 C 
ATOM     52  O   UNL     1      25.543  29.073  25.930  1.00  0.00    -0.275 OA
ENDBRANCH   7  48
ENDBRANCH   1   2
BRANCH   1  53
ATOM     53  O   UNL     1      23.704  32.834  24.235  1.00  0.00    -0.388 OA
ATOM     54  H   UNL     1      24.459  33.309  24.659  1.00  0.00     0.211 HD
ENDBRANCH   1  53
BRANCH   1  55
ATOM     55  C   UNL     1      24.651  32.055  22.134  1.00  0.00     0.165 C 
BRANCH  55  56
ATOM     56  O   UNL     1      23.714  32.709  21.375  1.00  0.00    -0.388 OA
ATOM     57  H   UNL     1      23.948  33.638  21.177  1.00  0.00     0.211 HD
ENDBRANCH  55  56
BRANCH  55  58
ATOM     58  C   UNL     1      25.052  30.741  21.503  1.00  0.00     0.154 C 
BRANCH  58  59
ATOM     59  N   UNL     1      24.385  30.374  20.312  1.00  0.00    -0.319 N 
ATOM     60  C   UNL     1      24.775  29.388  19.367  1.00  0.00     0.407 C 
ATOM     61  H   UNL     1      23.465  30.868  20.042  1.00  0.00     0.167 HD
ATOM     62  O   UNL     1      25.799  28.718  19.548  1.00  0.00    -0.225 OA
BRANCH  60  63
ATOM     63  O   UNL     1      24.022  29.154  18.227  1.00  0.00    -0.443 OA
BRANCH  63  64
ATOM     64  C   UNL     1      23.299  28.024  17.907  1.00  0.00     0.294 C 
BRANCH  64  65
ATOM     65  C   UNL     1      22.513  27.398  18.981  1.00  0.00     0.120 A 
ATOM     66  C   UNL     1      22.888  26.326  19.782  1.00  0.00     0.138 A 
ATOM     67  N   UNL     1      21.263  27.738  19.357  1.00  0.00    -0.132 NA
ATOM     68  N   UNL     1      21.859  26.076  20.586  1.00  0.00    -0.250 N 
ATOM     69  N   UNL     1      20.897  26.924  20.325  1.00  0.00    -0.067 NA
BRANCH  68  70
ATOM     70  C   UNL     1      21.860  24.977  21.587  1.00  0.00     0.177 C 
BRANCH  70  71
ATOM     71  C   UNL     1      21.306  25.557  22.845  1.00  0.00     0.136 C 
BRANCH  71  72
ATOM     72  O   UNL     1      21.897  26.795  23.152  1.00  0.00    -0.391 OA
ATOM     73  H   UNL     1      21.291  27.380  23.653  1.00  0.00     0.211 HD
ENDBRANCH  71  72
BRANCH  71  74
ATOM     74  C   UNL     1      21.329  24.660  24.019  1.00  0.00     0.038 C 
BRANCH  74  75
ATOM     75  C   UNL     1      22.458  24.609  24.941  1.00  0.00     0.038 C 
BRANCH  75  76
ATOM     76  C   UNL     1      22.322  25.113  26.291  1.00  0.00    -0.048 A 
ATOM     77  C   UNL     1      21.756  26.361  26.535  1.00  0.00     0.004 A 
ATOM     78  C   UNL     1      22.820  24.409  27.387  1.00  0.00     0.004 A 
ATOM     79  C   UNL     1      21.698  26.865  27.801  1.00  0.00     0.000 A 
ATOM     80  C   UNL     1      22.746  24.945  28.650  1.00  0.00     0.000 A 
ATOM     81  C   UNL     1      22.183  26.190  28.894  1.00  0.00     0.000 A 
ENDBRANCH  75  76
ENDBRANCH  74  75
ENDBRANCH  71  74
ENDBRANCH  70  71
ENDBRANCH  68  70
ENDBRANCH  64  65
ENDBRANCH  63  64
ENDBRANCH  60  63
ENDBRANCH  58  59
ENDBRANCH  55  58
ENDBRANCH   1  55
TORSDOF 35
