REMARK VINA RESULT:    -6.059      7.871     14.289
REMARK INTER + INTRA:         -22.407
REMARK INTER:                 -16.802
REMARK INTRA:                  -5.605
REMARK UNBOUND:                -6.784
REMARK SMILES COc1ccc(Cn2cc(COC(=O)NC[C@@H](O)C(O)[C@@H]3O[C@@](OC[C@H]4O[C@@H](O[C@H]5[C@H](O)[C@@H](O)[C@H](OCCN=[N+]=[N-])O[C@@H]5CO)[C@H](O)[C@@H](O)[C@H]4O)(C(=O)O)C[C@H](O)[C@H]3NC(C)=O)nn2)cc1
REMARK SMILES IDX 23 1 55 2 56 3 58 4 21 5 22 6 24 7 25 8 26 9 28 10 27 11
REMARK SMILES IDX 46 12 48 13 50 14 29 15 30 16 43 17 42 18 35 19 31 20 33 21
REMARK SMILES IDX 44 22 45 23 36 25 37 26 38 27 39 28 40 29 41 30 32 31 34 33
REMARK SMILES IDX 47 35 49 37 51 39 52 41 53 42 54 43 57 45 19 47 20 48 17 50
REMARK SMILES IDX 18 51 16 53 15 54 13 55 14 57 12 58 11 59 10 60 9 61 63 62
REMARK SMILES IDX 8 63 64 64 7 65 6 66 5 67 65 68 4 69 66 70 3 71 2 72 1 73
REMARK SMILES IDX 59 74 60 75 61 77 62 78
REMARK H PARENT 45 24 32 32 34 34 47 36 49 38 51 40 54 44 57 46 20 49 18 52
REMARK H PARENT 15 56 59 76
REMARK Flexibility Score: inf
ROOT
ATOM      1  C   UNL     1      16.505  29.697  19.873  1.00  0.00     0.272 C 
ATOM      2  C   UNL     1      17.442  28.609  19.391  1.00  0.00     0.113 C 
ATOM      3  C   UNL     1      17.032  28.155  18.004  1.00  0.00     0.145 C 
ATOM      4  C   UNL     1      16.742  29.286  17.061  1.00  0.00     0.142 C 
ATOM      5  C   UNL     1      16.825  30.654  17.717  1.00  0.00     0.178 C 
ATOM      6  O   UNL     1      16.260  30.658  18.978  1.00  0.00    -0.332 OA
ENDROOT
BRANCH   1   7
ATOM      7  O   UNL     1      16.758  30.058  21.152  1.00  0.00    -0.338 OA
BRANCH   7   8
ATOM      8  C   UNL     1      17.933  30.544  21.569  1.00  0.00     0.199 C 
BRANCH   8   9
ATOM      9  C   UNL     1      17.875  31.132  22.962  1.00  0.00     0.179 C 
ATOM     10  C   UNL     1      16.300  31.700  24.506  1.00  0.00     0.282 C 
ATOM     11  O   UNL     1      16.698  30.675  23.620  1.00  0.00    -0.341 OA
ATOM     12  C   UNL     1      17.458  32.302  25.213  1.00  0.00     0.202 C 
ATOM     13  C   UNL     1      18.745  31.551  25.162  1.00  0.00     0.179 C 
ATOM     14  C   UNL     1      19.002  30.807  23.867  1.00  0.00     0.177 C 
BRANCH  10  15
ATOM     15  O   UNL     1      15.217  31.338  25.256  1.00  0.00    -0.341 OA
BRANCH  15  16
ATOM     16  C   UNL     1      13.983  31.417  24.647  1.00  0.00     0.184 C 
ATOM     17  C   UNL     1      12.903  32.068  25.477  1.00  0.00     0.178 C 
ATOM     18  O   UNL     1      11.647  31.564  25.141  1.00  0.00    -0.341 OA
ATOM     19  C   UNL     1      11.550  31.199  23.786  1.00  0.00     0.281 C 
ATOM     20  C   UNL     1      13.500  29.958  24.533  1.00  0.00     0.180 C 
ATOM     21  C   UNL     1      12.412  29.956  23.495  1.00  0.00     0.202 C 
BRANCH  17  22
ATOM     22  C   UNL     1      12.824  33.557  25.356  1.00  0.00     0.191 C 
BRANCH  22  23
ATOM     23  O   UNL     1      11.542  33.981  25.698  1.00  0.00    -0.394 OA
ATOM     24  H   UNL     1      11.592  34.348  26.627  1.00  0.00     0.210 HD
ENDBRANCH  22  23
ENDBRANCH  17  22
BRANCH  19  25
ATOM     25  O   UNL     1      11.827  32.199  22.911  1.00  0.00    -0.350 OA
BRANCH  25  26
ATOM     26  C   UNL     1      12.343  31.895  21.689  1.00  0.00     0.169 C 
BRANCH  26  27
ATOM     27  C   UNL     1      11.685  32.473  20.492  1.00  0.00     0.119 C 
BRANCH  27  28
ATOM     28  N   UNL     1      12.541  32.655  19.372  1.00  0.00    -0.092 NA
ATOM     29  N   UNL     1      12.987  31.735  18.671  1.00  0.00     0.001 N 
ATOM     30  N   UNL     1      13.135  30.986  17.678  1.00  0.00    -0.003 NA
ENDBRANCH  27  28
ENDBRANCH  26  27
ENDBRANCH  25  26
ENDBRANCH  19  25
BRANCH  20  31
ATOM     31  O   UNL     1      14.525  29.087  24.293  1.00  0.00    -0.387 OA
ATOM     32  H   UNL     1      14.701  28.970  23.305  1.00  0.00     0.211 HD
ENDBRANCH  20  31
BRANCH  21  33
ATOM     33  O   UNL     1      11.654  28.786  23.550  1.00  0.00    -0.385 OA
ATOM     34  H   UNL     1      11.473  28.564  24.501  1.00  0.00     0.211 HD
ENDBRANCH  21  33
ENDBRANCH  15  16
ENDBRANCH  10  15
BRANCH  12  35
ATOM     35  O   UNL     1      17.668  33.652  24.833  1.00  0.00    -0.385 OA
ATOM     36  H   UNL     1      16.887  33.962  24.282  1.00  0.00     0.211 HD
ENDBRANCH  12  35
BRANCH  13  37
ATOM     37  O   UNL     1      18.894  30.691  26.277  1.00  0.00    -0.387 OA
ATOM     38  H   UNL     1      18.157  30.886  26.910  1.00  0.00     0.211 HD
ENDBRANCH  13  37
BRANCH  14  39
ATOM     39  O   UNL     1      19.161  29.441  24.081  1.00  0.00    -0.387 OA
ATOM     40  H   UNL     1      19.864  29.246  24.748  1.00  0.00     0.211 HD
ENDBRANCH  14  39
ENDBRANCH   8   9
ENDBRANCH   7   8
ENDBRANCH   1   7
BRANCH   1  41
ATOM     41  C   UNL     1      15.185  28.889  20.104  1.00  0.00     0.364 C 
ATOM     42  O   UNL     1      14.966  28.372  21.220  1.00  0.00    -0.246 OA
BRANCH  41  43
ATOM     43  O   UNL     1      14.249  28.719  19.142  1.00  0.00    -0.477 OA
ATOM     44  H   UNL     1      14.362  28.454  18.196  1.00  0.00     0.296 HD
ENDBRANCH  41  43
ENDBRANCH   1  41
BRANCH   3  45
ATOM     45  O   UNL     1      18.165  27.423  17.543  1.00  0.00    -0.391 OA
ATOM     46  H   UNL     1      18.213  26.545  18.001  1.00  0.00     0.211 HD
ENDBRANCH   3  45
BRANCH   5  47
ATOM     47  C   UNL     1      18.215  31.137  17.573  1.00  0.00     0.176 C 
BRANCH  47  48
ATOM     48  O   UNL     1      18.432  32.431  18.128  1.00  0.00    -0.388 OA
ATOM     49  H   UNL     1      19.277  32.770  17.760  1.00  0.00     0.211 HD
ENDBRANCH  47  48
BRANCH  47  50
ATOM     50  C   UNL     1      18.609  31.477  16.106  1.00  0.00     0.165 C 
BRANCH  50  51
ATOM     51  O   UNL     1      17.653  31.412  15.174  1.00  0.00    -0.388 OA
ATOM     52  H   UNL     1      18.037  31.289  14.270  1.00  0.00     0.211 HD
ENDBRANCH  50  51
BRANCH  50  53
ATOM     53  C   UNL     1      19.799  30.556  15.755  1.00  0.00     0.154 C 
BRANCH  53  54
ATOM     54  N   UNL     1      20.187  29.716  16.840  1.00  0.00    -0.319 N 
ATOM     55  C   UNL     1      20.838  28.468  16.569  1.00  0.00     0.407 C 
ATOM     56  H   UNL     1      20.010  29.980  17.814  1.00  0.00     0.167 HD
ATOM     57  O   UNL     1      21.058  28.138  15.371  1.00  0.00    -0.225 OA
BRANCH  55  58
ATOM     58  O   UNL     1      21.201  27.672  17.640  1.00  0.00    -0.443 OA
BRANCH  58  59
ATOM     59  C   UNL     1      21.645  28.292  18.863  1.00  0.00     0.294 C 
BRANCH  59  60
ATOM     60  C   UNL     1      21.493  27.309  19.956  1.00  0.00     0.120 A 
ATOM     61  C   UNL     1      22.235  26.139  20.144  1.00  0.00     0.138 A 
ATOM     62  N   UNL     1      20.614  27.340  20.964  1.00  0.00    -0.132 NA
ATOM     63  N   UNL     1      21.761  25.541  21.243  1.00  0.00    -0.248 N 
ATOM     64  N   UNL     1      20.777  26.282  21.731  1.00  0.00    -0.067 NA
BRANCH  63  65
ATOM     65  C   UNL     1      22.235  24.301  21.804  1.00  0.00     0.181 C 
BRANCH  65  66
ATOM     66  C   UNL     1      22.688  24.540  23.192  1.00  0.00    -0.026 A 
ATOM     67  C   UNL     1      24.038  24.767  23.445  1.00  0.00     0.009 A 
ATOM     68  C   UNL     1      21.832  24.567  24.261  1.00  0.00     0.009 A 
ATOM     69  C   UNL     1      24.513  25.012  24.716  1.00  0.00     0.047 A 
ATOM     70  C   UNL     1      22.315  24.816  25.550  1.00  0.00     0.047 A 
ATOM     71  C   UNL     1      23.642  25.039  25.796  1.00  0.00     0.118 A 
BRANCH  71  72
ATOM     72  O   UNL     1      24.167  25.289  27.050  1.00  0.00    -0.497 OA
ATOM     73  C   UNL     1      23.414  25.440  28.217  1.00  0.00     0.278 C 
ENDBRANCH  71  72
ENDBRANCH  65  66
ENDBRANCH  63  65
ENDBRANCH  59  60
ENDBRANCH  58  59
ENDBRANCH  55  58
ENDBRANCH  53  54
ENDBRANCH  50  53
ENDBRANCH  47  50
ENDBRANCH   5  47
BRANCH   4  74
ATOM     74  N   UNL     1      15.540  29.134  16.270  1.00  0.00    -0.348 N 
ATOM     75  C   UNL     1      15.520  28.855  14.876  1.00  0.00     0.217 C 
ATOM     76  H   UNL     1      14.625  29.248  16.730  1.00  0.00     0.163 HD
ATOM     77  C   UNL     1      14.199  28.723  14.150  1.00  0.00     0.114 C 
ATOM     78  O   UNL     1      16.598  28.719  14.251  1.00  0.00    -0.275 OA
ENDBRANCH   4  74
TORSDOF 32
