REMARK VINA RESULT:    -6.002     14.538     19.851
REMARK INTER + INTRA:         -22.987
REMARK INTER:                 -14.545
REMARK INTRA:                  -8.442
REMARK UNBOUND:                -6.283
REMARK SMILES CC(=O)N[C@@H]1[C@@H](O)C[C@](OC[C@H]2O[C@@H](O[C@H]3[C@H](O)[C@@H](O)[C@H](OCCN=[N+]=[N-])O[C@@H]3CO)[C@H](O)[C@@H](O)[C@H]2O)(C(=O)O)O[C@H]1C(O)[C@H](O)CNC(=O)OCc1cn(C[C@H](CC(=O)O)CC(C)C)nn1
REMARK SMILES IDX 43 1 42 2 9 3 8 4 41 5 6 6 5 7 10 8 11 9 12 10 14 11 13 12
REMARK SMILES IDX 32 13 34 14 36 15 15 16 16 17 29 18 28 19 21 20 17 21 19 22
REMARK SMILES IDX 30 23 31 24 22 26 23 27 24 28 25 29 26 30 27 31 18 32 20 34
REMARK SMILES IDX 33 36 35 38 37 40 38 42 39 43 40 44 7 46 4 48 2 49 1 51 3 52
REMARK SMILES IDX 44 53 45 55 46 56 47 58 48 59 49 60 50 62 51 63 52 64 53 65
REMARK SMILES IDX 54 66 67 67 55 68 66 69 56 70 57 71 58 72 59 73 60 74 61 75
REMARK SMILES IDX 62 77 63 78 64 79 65 80
REMARK H PARENT 31 25 18 33 20 35 33 37 35 39 37 41 40 45 7 47 4 50 44 54
REMARK H PARENT 46 57 48 61 61 76
REMARK Flexibility Score: inf
ROOT
ATOM      1  C   UNL     1      21.851  30.058  24.821  1.00  0.00     0.176 C 
ENDROOT
BRANCH   1   2
ATOM      2  C   UNL     1      22.857  30.926  24.119  1.00  0.00     0.178 C 
ATOM      3  C   UNL     1      24.491  29.908  22.668  1.00  0.00     0.272 C 
ATOM      4  C   UNL     1      25.514  29.961  23.745  1.00  0.00     0.113 C 
ATOM      5  O   UNL     1      23.264  30.219  23.034  1.00  0.00    -0.332 OA
ATOM      6  C   UNL     1      25.058  30.297  25.107  1.00  0.00     0.145 C 
ATOM      7  C   UNL     1      23.904  31.302  25.110  1.00  0.00     0.142 C 
BRANCH   3   8
ATOM      8  O   UNL     1      24.479  28.606  22.097  1.00  0.00    -0.338 OA
BRANCH   8   9
ATOM      9  C   UNL     1      23.276  28.215  21.596  1.00  0.00     0.199 C 
BRANCH   9  10
ATOM     10  C   UNL     1      23.040  26.717  21.892  1.00  0.00     0.179 C 
ATOM     11  C   UNL     1      23.255  25.137  23.578  1.00  0.00     0.282 C 
ATOM     12  O   UNL     1      23.082  26.473  23.250  1.00  0.00    -0.341 OA
ATOM     13  C   UNL     1      22.504  24.323  22.512  1.00  0.00     0.202 C 
ATOM     14  C   UNL     1      21.256  25.062  22.076  1.00  0.00     0.179 C 
ATOM     15  C   UNL     1      21.628  26.346  21.414  1.00  0.00     0.177 C 
BRANCH  11  16
ATOM     16  O   UNL     1      22.593  24.881  24.753  1.00  0.00    -0.341 OA
BRANCH  16  17
ATOM     17  C   UNL     1      22.927  25.664  25.826  1.00  0.00     0.184 C 
ATOM     18  C   UNL     1      23.798  24.991  26.846  1.00  0.00     0.178 C 
ATOM     19  O   UNL     1      23.233  24.814  28.074  1.00  0.00    -0.341 OA
ATOM     20  C   UNL     1      22.754  25.960  28.679  1.00  0.00     0.281 C 
ATOM     21  C   UNL     1      21.637  26.057  26.516  1.00  0.00     0.180 C 
ATOM     22  C   UNL     1      22.005  26.867  27.766  1.00  0.00     0.202 C 
BRANCH  18  23
ATOM     23  C   UNL     1      25.116  25.743  26.897  1.00  0.00     0.191 C 
BRANCH  23  24
ATOM     24  O   UNL     1      25.896  25.327  27.972  1.00  0.00    -0.394 OA
ATOM     25  H   UNL     1      26.864  25.283  27.741  1.00  0.00     0.210 HD
ENDBRANCH  23  24
ENDBRANCH  18  23
BRANCH  20  26
ATOM     26  O   UNL     1      23.813  26.559  29.345  1.00  0.00    -0.350 OA
BRANCH  26  27
ATOM     27  C   UNL     1      23.650  26.585  30.720  1.00  0.00     0.169 C 
BRANCH  27  28
ATOM     28  C   UNL     1      25.035  26.762  31.326  1.00  0.00     0.119 C 
BRANCH  28  29
ATOM     29  N   UNL     1      25.837  25.661  30.812  1.00  0.00    -0.092 NA
ATOM     30  N   UNL     1      26.834  25.339  31.415  1.00  0.00     0.001 N 
ATOM     31  N   UNL     1      27.951  24.909  31.731  1.00  0.00    -0.003 NA
ENDBRANCH  28  29
ENDBRANCH  27  28
ENDBRANCH  26  27
ENDBRANCH  20  26
BRANCH  21  32
ATOM     32  O   UNL     1      20.835  26.783  25.654  1.00  0.00    -0.387 OA
ATOM     33  H   UNL     1      20.995  26.416  24.729  1.00  0.00     0.211 HD
ENDBRANCH  21  32
BRANCH  22  34
ATOM     34  O   UNL     1      20.768  27.280  28.302  1.00  0.00    -0.385 OA
ATOM     35  H   UNL     1      20.947  28.053  28.879  1.00  0.00     0.211 HD
ENDBRANCH  22  34
ENDBRANCH  16  17
ENDBRANCH  11  16
BRANCH  13  36
ATOM     36  O   UNL     1      23.311  23.927  21.475  1.00  0.00    -0.385 OA
ATOM     37  H   UNL     1      23.665  24.652  20.931  1.00  0.00     0.211 HD
ENDBRANCH  13  36
BRANCH  14  38
ATOM     38  O   UNL     1      20.554  25.349  23.264  1.00  0.00    -0.387 OA
ATOM     39  H   UNL     1      20.377  24.553  23.790  1.00  0.00     0.211 HD
ENDBRANCH  14  38
BRANCH  15  40
ATOM     40  O   UNL     1      20.712  27.326  21.850  1.00  0.00    -0.387 OA
ATOM     41  H   UNL     1      20.779  27.465  22.808  1.00  0.00     0.211 HD
ENDBRANCH  15  40
ENDBRANCH   9  10
ENDBRANCH   8   9
ENDBRANCH   3   8
BRANCH   3  42
ATOM     42  C   UNL     1      24.943  30.766  21.501  1.00  0.00     0.364 C 
ATOM     43  O   UNL     1      25.532  30.256  20.540  1.00  0.00    -0.246 OA
BRANCH  42  44
ATOM     44  O   UNL     1      24.705  32.110  21.497  1.00  0.00    -0.477 OA
ATOM     45  H   UNL     1      25.022  32.735  22.237  1.00  0.00     0.296 HD
ENDBRANCH  42  44
ENDBRANCH   3  42
BRANCH   6  46
ATOM     46  O   UNL     1      24.749  29.244  25.940  1.00  0.00    -0.391 OA
ATOM     47  H   UNL     1      25.503  29.151  26.574  1.00  0.00     0.211 HD
ENDBRANCH   6  46
BRANCH   7  48
ATOM     48  N   UNL     1      24.518  32.590  24.926  1.00  0.00    -0.348 N 
ATOM     49  C   UNL     1      23.969  33.714  25.650  1.00  0.00     0.217 C 
ATOM     50  H   UNL     1      25.332  32.799  24.308  1.00  0.00     0.163 HD
ATOM     51  C   UNL     1      24.617  35.059  25.460  1.00  0.00     0.114 C 
ATOM     52  O   UNL     1      22.983  33.602  26.418  1.00  0.00    -0.275 OA
ENDBRANCH   7  48
ENDBRANCH   1   2
BRANCH   1  53
ATOM     53  O   UNL     1      21.806  28.798  24.153  1.00  0.00    -0.388 OA
ATOM     54  H   UNL     1      21.892  28.072  24.825  1.00  0.00     0.211 HD
ENDBRANCH   1  53
BRANCH   1  55
ATOM     55  C   UNL     1      20.411  30.518  24.801  1.00  0.00     0.165 C 
BRANCH  55  56
ATOM     56  O   UNL     1      19.720  29.239  24.646  1.00  0.00    -0.388 OA
ATOM     57  H   UNL     1      19.177  29.206  25.498  1.00  0.00     0.211 HD
ENDBRANCH  55  56
BRANCH  55  58
ATOM     58  C   UNL     1      20.047  31.233  23.546  1.00  0.00     0.154 C 
BRANCH  58  59
ATOM     59  N   UNL     1      19.694  30.347  22.495  1.00  0.00    -0.319 N 
ATOM     60  C   UNL     1      20.269  30.630  21.200  1.00  0.00     0.407 C 
ATOM     61  H   UNL     1      19.071  29.521  22.530  1.00  0.00     0.167 HD
ATOM     62  O   UNL     1      21.042  31.621  21.063  1.00  0.00    -0.225 OA
BRANCH  60  63
ATOM     63  O   UNL     1      20.019  29.875  20.076  1.00  0.00    -0.443 OA
BRANCH  63  64
ATOM     64  C   UNL     1      18.915  30.029  19.209  1.00  0.00     0.294 C 
BRANCH  64  65
ATOM     65  C   UNL     1      17.696  29.314  19.682  1.00  0.00     0.120 A 
ATOM     66  C   UNL     1      16.433  29.817  19.897  1.00  0.00     0.138 A 
ATOM     67  N   UNL     1      17.649  28.012  19.979  1.00  0.00    -0.132 NA
ATOM     68  N   UNL     1      15.634  28.792  20.328  1.00  0.00    -0.252 N 
ATOM     69  N   UNL     1      16.414  27.737  20.358  1.00  0.00    -0.067 NA
BRANCH  68  70
ATOM     70  C   UNL     1      14.267  28.864  20.690  1.00  0.00     0.150 C 
BRANCH  70  71
ATOM     71  C   UNL     1      13.970  29.594  21.932  1.00  0.00     0.022 C 
BRANCH  71  72
ATOM     72  C   UNL     1      14.666  29.151  23.164  1.00  0.00     0.128 C 
BRANCH  72  73
ATOM     73  C   UNL     1      15.800  29.965  23.621  1.00  0.00     0.303 C 
ATOM     74  O   UNL     1      15.606  31.168  23.937  1.00  0.00    -0.252 OA
BRANCH  73  75
ATOM     75  O   UNL     1      17.098  29.484  23.729  1.00  0.00    -0.481 OA
ATOM     76  H   UNL     1      17.732  29.549  22.946  1.00  0.00     0.296 HD
ENDBRANCH  73  75
ENDBRANCH  72  73
ENDBRANCH  71  72
BRANCH  71  77
ATOM     77  C   UNL     1      12.514  29.891  22.155  1.00  0.00     0.009 C 
BRANCH  77  78
ATOM     78  C   UNL     1      12.107  31.228  22.582  1.00  0.00    -0.017 C 
ATOM     79  C   UNL     1      11.917  32.287  21.557  1.00  0.00     0.007 C 
ATOM     80  C   UNL     1      10.906  31.253  23.510  1.00  0.00     0.007 C 
ENDBRANCH  77  78
ENDBRANCH  71  77
ENDBRANCH  70  71
ENDBRANCH  68  70
ENDBRANCH  64  65
ENDBRANCH  63  64
ENDBRANCH  60  63
ENDBRANCH  58  59
ENDBRANCH  55  58
ENDBRANCH   1  55
TORSDOF 36
