REMARK VINA RESULT:    -5.786     18.796     22.647
REMARK INTER + INTRA:         -20.686
REMARK INTER:                 -12.980
REMARK INTRA:                  -7.706
REMARK UNBOUND:                -5.091
REMARK SMILES C=CCCCCn1cc(COC(=O)NC[C@@H](O)C(O)[C@@H]2O[C@@](OC[C@H]3O[C@@H](O[C@H]4[C@H](O)[C@@H](O)[C@H](OCCN=[N+]=[N-])O[C@@H]4CO)[C@H](O)[C@@H](O)[C@H]3O)(C(=O)O)C[C@H](O)[C@H]2NC(C)=O)nn1
REMARK SMILES IDX 18 1 20 2 22 3 54 4 21 5 55 6 57 7 23 8 24 9 25 10 27 11
REMARK SMILES IDX 26 12 45 13 47 14 49 15 28 16 29 17 42 18 41 19 34 20 30 21
REMARK SMILES IDX 32 22 43 23 44 24 35 26 36 27 37 28 38 29 39 30 40 31 31 32
REMARK SMILES IDX 33 34 46 36 48 38 50 40 51 42 52 43 53 44 56 46 58 48 59 49
REMARK SMILES IDX 60 51 61 52 19 53 16 55 17 56 15 58 14 59 12 60 13 62 11 63
REMARK SMILES IDX 10 64 9 65 8 66 62 67 7 68 63 69 6 70 5 71 4 72 3 73 2 74
REMARK SMILES IDX 1 75
REMARK H PARENT 44 25 31 33 33 35 46 37 48 39 50 41 53 45 56 47 58 50 19 54
REMARK H PARENT 17 57 14 61
REMARK Flexibility Score: inf
ROOT
ATOM      1  C   UNL     1       3.238  20.058  39.186  1.00  0.00     0.176 C 
ENDROOT
BRANCH   1   2
ATOM      2  C   UNL     1       2.661  19.008  38.232  1.00  0.00     0.178 C 
ATOM      3  C   UNL     1       1.566  18.819  36.218  1.00  0.00     0.272 C 
ATOM      4  C   UNL     1       0.734  17.731  36.757  1.00  0.00     0.113 C 
ATOM      5  O   UNL     1       1.898  19.672  37.338  1.00  0.00    -0.332 OA
ATOM      6  C   UNL     1       1.328  16.951  37.847  1.00  0.00     0.145 C 
ATOM      7  C   UNL     1       2.221  17.741  38.790  1.00  0.00     0.142 C 
BRANCH   3   8
ATOM      8  O   UNL     1       0.869  19.731  35.441  1.00  0.00    -0.338 OA
BRANCH   8   9
ATOM      9  C   UNL     1       0.987  19.808  34.130  1.00  0.00     0.199 C 
BRANCH   9  10
ATOM     10  C   UNL     1       1.446  21.044  33.457  1.00  0.00     0.179 C 
ATOM     11  C   UNL     1       3.066  22.719  33.704  1.00  0.00     0.282 C 
ATOM     12  O   UNL     1       2.256  21.811  34.328  1.00  0.00    -0.341 OA
ATOM     13  C   UNL     1       2.678  23.030  32.311  1.00  0.00     0.202 C 
ATOM     14  C   UNL     1       2.502  21.827  31.424  1.00  0.00     0.179 C 
ATOM     15  C   UNL     1       2.338  20.620  32.296  1.00  0.00     0.177 C 
BRANCH  11  16
ATOM     16  O   UNL     1       4.365  22.363  33.951  1.00  0.00    -0.341 OA
BRANCH  16  17
ATOM     17  C   UNL     1       5.338  23.119  33.368  1.00  0.00     0.184 C 
ATOM     18  C   UNL     1       6.674  22.445  33.576  1.00  0.00     0.178 C 
ATOM     19  O   UNL     1       7.678  23.389  33.847  1.00  0.00    -0.341 OA
ATOM     20  C   UNL     1       7.522  23.782  35.173  1.00  0.00     0.281 C 
ATOM     21  C   UNL     1       5.463  24.499  34.054  1.00  0.00     0.180 C 
ATOM     22  C   UNL     1       6.150  24.346  35.391  1.00  0.00     0.202 C 
BRANCH  18  23
ATOM     23  C   UNL     1       7.079  21.559  32.410  1.00  0.00     0.191 C 
BRANCH  23  24
ATOM     24  O   UNL     1       5.974  21.187  31.665  1.00  0.00    -0.394 OA
ATOM     25  H   UNL     1       6.060  20.235  31.420  1.00  0.00     0.210 HD
ENDBRANCH  23  24
ENDBRANCH  18  23
BRANCH  20  26
ATOM     26  O   UNL     1       8.496  24.751  35.419  1.00  0.00    -0.350 OA
BRANCH  26  27
ATOM     27  C   UNL     1       9.510  24.769  34.479  1.00  0.00     0.169 C 
BRANCH  27  28
ATOM     28  C   UNL     1       9.766  26.221  34.117  1.00  0.00     0.119 C 
BRANCH  28  29
ATOM     29  N   UNL     1       8.604  27.041  34.337  1.00  0.00    -0.092 NA
ATOM     30  N   UNL     1       8.625  27.988  35.114  1.00  0.00     0.001 N 
ATOM     31  N   UNL     1       8.830  29.007  35.774  1.00  0.00    -0.003 NA
ENDBRANCH  28  29
ENDBRANCH  27  28
ENDBRANCH  26  27
ENDBRANCH  20  26
BRANCH  21  32
ATOM     32  O   UNL     1       6.304  25.252  33.237  1.00  0.00    -0.387 OA
ATOM     33  H   UNL     1       5.929  26.109  32.954  1.00  0.00     0.211 HD
ENDBRANCH  21  32
BRANCH  22  34
ATOM     34  O   UNL     1       5.369  23.587  36.258  1.00  0.00    -0.385 OA
ATOM     35  H   UNL     1       4.418  23.735  36.001  1.00  0.00     0.211 HD
ENDBRANCH  22  34
ENDBRANCH  16  17
ENDBRANCH  11  16
BRANCH  13  36
ATOM     36  O   UNL     1       1.454  23.712  32.354  1.00  0.00    -0.385 OA
ATOM     37  H   UNL     1       1.488  24.571  31.895  1.00  0.00     0.211 HD
ENDBRANCH  13  36
BRANCH  14  38
ATOM     38  O   UNL     1       3.560  21.672  30.527  1.00  0.00    -0.387 OA
ATOM     39  H   UNL     1       3.549  20.740  30.229  1.00  0.00     0.211 HD
ENDBRANCH  14  38
BRANCH  15  40
ATOM     40  O   UNL     1       3.565  20.136  32.767  1.00  0.00    -0.387 OA
ATOM     41  H   UNL     1       4.327  20.447  32.245  1.00  0.00     0.211 HD
ENDBRANCH  15  40
ENDBRANCH   9  10
ENDBRANCH   8   9
ENDBRANCH   3   8
BRANCH   3  42
ATOM     42  C   UNL     1       2.853  18.354  35.718  1.00  0.00     0.364 C 
ATOM     43  O   UNL     1       3.842  19.117  35.669  1.00  0.00    -0.246 OA
BRANCH  42  44
ATOM     44  O   UNL     1       3.048  17.081  35.271  1.00  0.00    -0.477 OA
ATOM     45  H   UNL     1       2.287  16.488  34.988  1.00  0.00     0.296 HD
ENDBRANCH  42  44
ENDBRANCH   3  42
BRANCH   6  46
ATOM     46  O   UNL     1       0.287  16.333  38.583  1.00  0.00    -0.391 OA
ATOM     47  H   UNL     1      -0.027  16.906  39.327  1.00  0.00     0.211 HD
ENDBRANCH   6  46
BRANCH   7  48
ATOM     48  N   UNL     1       3.393  16.913  39.134  1.00  0.00    -0.348 N 
ATOM     49  C   UNL     1       3.674  16.480  40.450  1.00  0.00     0.217 C 
ATOM     50  H   UNL     1       4.088  16.605  38.400  1.00  0.00     0.163 HD
ATOM     51  C   UNL     1       4.897  15.642  40.741  1.00  0.00     0.114 C 
ATOM     52  O   UNL     1       2.889  16.805  41.376  1.00  0.00    -0.275 OA
ENDBRANCH   7  48
ENDBRANCH   1   2
BRANCH   1  53
ATOM     53  O   UNL     1       4.681  19.680  39.262  1.00  0.00    -0.388 OA
ATOM     54  H   UNL     1       4.737  19.457  40.246  1.00  0.00     0.211 HD
ENDBRANCH   1  53
BRANCH   1  55
ATOM     55  C   UNL     1       3.340  21.414  38.649  1.00  0.00     0.165 C 
BRANCH  55  56
ATOM     56  O   UNL     1       3.858  21.513  37.338  1.00  0.00    -0.388 OA
ATOM     57  H   UNL     1       3.441  22.327  36.961  1.00  0.00     0.211 HD
ENDBRANCH  55  56
BRANCH  55  58
ATOM     58  C   UNL     1       3.903  22.490  39.479  1.00  0.00     0.154 C 
BRANCH  58  59
ATOM     59  N   UNL     1       5.199  22.931  39.132  1.00  0.00    -0.319 N 
ATOM     60  C   UNL     1       6.465  22.550  39.591  1.00  0.00     0.407 C 
ATOM     61  H   UNL     1       5.227  23.707  38.368  1.00  0.00     0.167 HD
ATOM     62  O   UNL     1       6.599  21.679  40.466  1.00  0.00    -0.225 OA
BRANCH  60  63
ATOM     63  O   UNL     1       7.633  23.135  39.081  1.00  0.00    -0.443 OA
BRANCH  63  64
ATOM     64  C   UNL     1       8.878  22.488  39.347  1.00  0.00     0.294 C 
BRANCH  64  65
ATOM     65  C   UNL     1       9.937  22.995  38.438  1.00  0.00     0.120 A 
ATOM     66  C   UNL     1      10.372  24.319  38.390  1.00  0.00     0.138 A 
ATOM     67  N   UNL     1      10.661  22.339  37.519  1.00  0.00    -0.132 NA
ATOM     68  N   UNL     1      11.326  24.393  37.456  1.00  0.00    -0.252 N 
ATOM     69  N   UNL     1      11.496  23.205  36.936  1.00  0.00    -0.067 NA
BRANCH  68  70
ATOM     70  C   UNL     1      12.031  25.636  37.114  1.00  0.00     0.146 C 
BRANCH  70  71
ATOM     71  C   UNL     1      13.094  25.327  36.093  1.00  0.00     0.024 C 
BRANCH  71  72
ATOM     72  C   UNL     1      13.287  26.549  35.222  1.00  0.00     0.006 C 
BRANCH  72  73
ATOM     73  C   UNL     1      14.675  27.111  35.427  1.00  0.00     0.027 C 
BRANCH  73  74
ATOM     74  C   UNL     1      15.530  26.172  36.187  1.00  0.00    -0.035 C 
ATOM     75  C   UNL     1      16.834  26.145  35.989  1.00  0.00     0.004 C 
ENDBRANCH  73  74
ENDBRANCH  72  73
ENDBRANCH  71  72
ENDBRANCH  70  71
ENDBRANCH  68  70
ENDBRANCH  64  65
ENDBRANCH  63  64
ENDBRANCH  60  63
ENDBRANCH  58  59
ENDBRANCH  55  58
ENDBRANCH   1  55
TORSDOF 34
