REMARK VINA RESULT:    -4.537      3.051      9.539
REMARK INTER + INTRA:         -20.558
REMARK INTER:                 -14.329
REMARK INTRA:                  -6.230
REMARK UNBOUND:                -9.390
REMARK SMILES CC(=O)N[C@@H]1[C@@H](O)C[C@](OC[C@H]2O[C@@H](O[C@H]3[C@H](O)[C@@H](O)[C@H](OCCN=[N+]=[N-])O[C@@H]3CO)[C@H](O)[C@@H](O)[C@H]2O)(C(=O)O)O[C@H]1C(O)[C@H](O)CNC(=O)OCc1cn(-c2ccncc2)nn1
REMARK SMILES IDX 9 1 8 2 6 3 5 4 42 5 41 6 10 7 11 8 12 9 14 10 13 11 32 12
REMARK SMILES IDX 34 13 36 14 15 15 16 16 29 17 28 18 21 19 17 20 19 21 30 22
REMARK SMILES IDX 31 23 22 25 23 26 24 27 25 28 26 29 27 30 18 31 20 33 33 35
REMARK SMILES IDX 35 37 37 39 38 41 39 42 40 43 7 45 43 47 44 48 45 50 46 51
REMARK SMILES IDX 47 53 48 54 49 55 50 57 51 58 52 59 53 60 54 61 63 62 55 63
REMARK SMILES IDX 62 64 56 65 57 66 61 67 58 68 60 69 59 70 4 71 2 72 1 74
REMARK SMILES IDX 3 75
REMARK H PARENT 31 24 18 32 20 34 33 36 35 38 37 40 40 44 7 46 44 49 46 52
REMARK H PARENT 48 56 4 73
REMARK Flexibility Score: inf
ROOT
ATOM      1  C   UNL     1      23.030  24.776  22.961  1.00  0.00     0.272 C 
ATOM      2  C   UNL     1      24.323  24.185  22.363  1.00  0.00     0.113 C 
ATOM      3  C   UNL     1      25.400  25.270  22.257  1.00  0.00     0.145 C 
ATOM      4  C   UNL     1      24.899  26.258  21.149  1.00  0.00     0.142 C 
ATOM      5  C   UNL     1      23.501  26.635  21.544  1.00  0.00     0.178 C 
ATOM      6  O   UNL     1      23.255  26.160  22.826  1.00  0.00    -0.332 OA
ENDROOT
BRANCH   1   7
ATOM      7  O   UNL     1      22.977  24.559  24.260  1.00  0.00    -0.338 OA
BRANCH   7   8
ATOM      8  C   UNL     1      22.589  25.045  25.355  1.00  0.00     0.199 C 
BRANCH   8   9
ATOM      9  C   UNL     1      23.561  25.528  26.389  1.00  0.00     0.179 C 
ATOM     10  C   UNL     1      23.934  27.532  27.559  1.00  0.00     0.282 C 
ATOM     11  O   UNL     1      23.159  26.881  26.627  1.00  0.00    -0.341 OA
ATOM     12  C   UNL     1      23.812  26.888  28.904  1.00  0.00     0.202 C 
ATOM     13  C   UNL     1      24.137  25.397  28.790  1.00  0.00     0.179 C 
ATOM     14  C   UNL     1      23.270  24.815  27.714  1.00  0.00     0.177 C 
BRANCH  10  15
ATOM     15  O   UNL     1      23.378  28.836  27.601  1.00  0.00    -0.341 OA
BRANCH  15  16
ATOM     16  C   UNL     1      22.811  29.219  26.432  1.00  0.00     0.184 C 
ATOM     17  C   UNL     1      23.338  30.482  25.881  1.00  0.00     0.178 C 
ATOM     18  O   UNL     1      22.772  30.736  24.614  1.00  0.00    -0.341 OA
ATOM     19  C   UNL     1      21.468  31.251  24.971  1.00  0.00     0.281 C 
ATOM     20  C   UNL     1      21.283  29.404  26.688  1.00  0.00     0.180 C 
ATOM     21  C   UNL     1      20.687  30.097  25.476  1.00  0.00     0.202 C 
BRANCH  17  22
ATOM     22  C   UNL     1      24.815  30.520  25.778  1.00  0.00     0.191 C 
BRANCH  22  23
ATOM     23  O   UNL     1      25.432  30.821  27.003  1.00  0.00    -0.394 OA
ATOM     24  H   UNL     1      26.350  30.422  26.961  1.00  0.00     0.210 HD
ENDBRANCH  22  23
ENDBRANCH  17  22
BRANCH  19  25
ATOM     25  O   UNL     1      20.958  31.738  23.799  1.00  0.00    -0.350 OA
BRANCH  25  26
ATOM     26  C   UNL     1      19.832  32.484  23.973  1.00  0.00     0.169 C 
BRANCH  26  27
ATOM     27  C   UNL     1      18.755  32.318  22.951  1.00  0.00     0.119 C 
BRANCH  27  28
ATOM     28  N   UNL     1      18.498  30.931  22.622  1.00  0.00    -0.092 NA
ATOM     29  N   UNL     1      17.606  30.258  23.121  1.00  0.00     0.001 N 
ATOM     30  N   UNL     1      16.869  29.600  23.861  1.00  0.00    -0.003 NA
ENDBRANCH  27  28
ENDBRANCH  26  27
ENDBRANCH  25  26
ENDBRANCH  19  25
BRANCH  20  31
ATOM     31  O   UNL     1      20.752  28.140  26.774  1.00  0.00    -0.387 OA
ATOM     32  H   UNL     1      21.020  27.686  27.635  1.00  0.00     0.211 HD
ENDBRANCH  20  31
BRANCH  21  33
ATOM     33  O   UNL     1      19.381  30.481  25.740  1.00  0.00    -0.385 OA
ATOM     34  H   UNL     1      18.767  29.767  25.427  1.00  0.00     0.211 HD
ENDBRANCH  21  33
ENDBRANCH  15  16
ENDBRANCH  10  15
BRANCH  12  35
ATOM     35  O   UNL     1      24.750  27.434  29.813  1.00  0.00    -0.385 OA
ATOM     36  H   UNL     1      25.627  27.089  29.522  1.00  0.00     0.211 HD
ENDBRANCH  12  35
BRANCH  13  37
ATOM     37  O   UNL     1      23.945  24.716  29.968  1.00  0.00    -0.387 OA
ATOM     38  H   UNL     1      23.030  24.293  29.991  1.00  0.00     0.211 HD
ENDBRANCH  13  37
BRANCH  14  39
ATOM     39  O   UNL     1      21.911  25.049  27.978  1.00  0.00    -0.387 OA
ATOM     40  H   UNL     1      21.819  25.904  28.498  1.00  0.00     0.211 HD
ENDBRANCH  14  39
ENDBRANCH   8   9
ENDBRANCH   7   8
ENDBRANCH   1   7
BRANCH   1  41
ATOM     41  C   UNL     1      21.854  24.330  22.209  1.00  0.00     0.364 C 
ATOM     42  O   UNL     1      21.954  23.574  21.188  1.00  0.00    -0.246 OA
BRANCH  41  43
ATOM     43  O   UNL     1      20.568  24.688  22.538  1.00  0.00    -0.477 OA
ATOM     44  H   UNL     1      20.135  24.603  23.432  1.00  0.00     0.296 HD
ENDBRANCH  41  43
ENDBRANCH   1  41
BRANCH   3  45
ATOM     45  O   UNL     1      25.462  25.974  23.428  1.00  0.00    -0.391 OA
ATOM     46  H   UNL     1      25.347  26.935  23.293  1.00  0.00     0.211 HD
ENDBRANCH   3  45
BRANCH   5  47
ATOM     47  C   UNL     1      23.304  28.146  21.718  1.00  0.00     0.176 C 
BRANCH  47  48
ATOM     48  O   UNL     1      23.323  28.247  23.178  1.00  0.00    -0.388 OA
ATOM     49  H   UNL     1      22.686  27.549  23.515  1.00  0.00     0.211 HD
ENDBRANCH  47  48
BRANCH  47  50
ATOM     50  C   UNL     1      22.030  28.716  21.268  1.00  0.00     0.165 C 
BRANCH  50  51
ATOM     51  O   UNL     1      21.441  29.688  22.040  1.00  0.00    -0.388 OA
ATOM     52  H   UNL     1      20.512  29.440  22.291  1.00  0.00     0.211 HD
ENDBRANCH  50  51
BRANCH  50  53
ATOM     53  C   UNL     1      21.129  27.801  20.534  1.00  0.00     0.154 C 
BRANCH  53  54
ATOM     54  N   UNL     1      19.971  28.405  19.931  1.00  0.00    -0.319 N 
ATOM     55  C   UNL     1      19.805  28.425  18.525  1.00  0.00     0.407 C 
ATOM     56  H   UNL     1      19.274  28.837  20.563  1.00  0.00     0.167 HD
ATOM     57  O   UNL     1      20.705  27.893  17.837  1.00  0.00    -0.225 OA
BRANCH  55  58
ATOM     58  O   UNL     1      18.736  28.983  17.884  1.00  0.00    -0.443 OA
BRANCH  58  59
ATOM     59  C   UNL     1      17.479  28.375  17.674  1.00  0.00     0.294 C 
BRANCH  59  60
ATOM     60  C   UNL     1      16.601  28.482  18.886  1.00  0.00     0.121 A 
ATOM     61  C   UNL     1      15.577  29.363  19.153  1.00  0.00     0.144 A 
ATOM     62  N   UNL     1      16.678  27.684  19.978  1.00  0.00    -0.131 NA
ATOM     63  N   UNL     1      15.071  29.087  20.368  1.00  0.00    -0.220 N 
ATOM     64  N   UNL     1      15.762  28.054  20.854  1.00  0.00    -0.062 NA
BRANCH  63  65
ATOM     65  C   UNL     1      14.002  29.784  20.991  1.00  0.00     0.069 A 
ATOM     66  C   UNL     1      13.453  30.953  20.509  1.00  0.00     0.048 A 
ATOM     67  C   UNL     1      13.475  29.256  22.149  1.00  0.00     0.048 A 
ATOM     68  C   UNL     1      12.406  31.596  21.148  1.00  0.00     0.113 A 
ATOM     69  C   UNL     1      12.428  29.906  22.781  1.00  0.00     0.113 A 
ATOM     70  N   UNL     1      11.920  31.040  22.282  1.00  0.00    -0.265 NA
ENDBRANCH  63  65
ENDBRANCH  59  60
ENDBRANCH  58  59
ENDBRANCH  55  58
ENDBRANCH  53  54
ENDBRANCH  50  53
ENDBRANCH  47  50
ENDBRANCH   5  47
BRANCH   4  71
ATOM     71  N   UNL     1      24.974  25.454  19.953  1.00  0.00    -0.348 N 
ATOM     72  C   UNL     1      24.887  25.956  18.637  1.00  0.00     0.217 C 
ATOM     73  H   UNL     1      25.099  24.429  20.049  1.00  0.00     0.163 HD
ATOM     74  C   UNL     1      24.976  25.038  17.492  1.00  0.00     0.114 C 
ATOM     75  O   UNL     1      24.735  27.179  18.442  1.00  0.00    -0.275 OA
ENDBRANCH   4  71
TORSDOF 30
