REMARK VINA RESULT:    -6.000      6.944     14.137
REMARK INTER + INTRA:         -22.232
REMARK INTER:                 -15.248
REMARK INTRA:                  -6.985
REMARK UNBOUND:                -6.938
REMARK SMILES CC(=O)N[C@@H]1[C@@H](O)C[C@](OC[C@H]2O[C@@H](O[C@H]3[C@H](O)[C@@H](O)[C@H](OCCN=[N+]=[N-])O[C@@H]3CO)[C@H](O)[C@@H](O)[C@H]2O)(C(=O)O)O[C@H]1C(O)[C@H](O)CNC(=O)OCc1cn(Cc2cc(Br)cc(Br)c2O)nn1
REMARK SMILES IDX 9 1 8 2 6 3 5 4 42 5 41 6 10 7 11 8 12 9 14 10 13 11 32 12
REMARK SMILES IDX 34 13 36 14 15 15 16 16 29 17 28 18 21 19 17 20 19 21 30 22
REMARK SMILES IDX 31 23 22 25 23 26 24 27 25 28 26 29 27 30 18 31 20 33 33 35
REMARK SMILES IDX 35 37 37 39 38 41 39 42 40 43 7 45 43 47 44 48 45 50 46 51
REMARK SMILES IDX 47 53 48 54 49 55 50 57 51 58 52 59 53 60 54 61 67 62 55 63
REMARK SMILES IDX 66 64 56 65 57 66 58 67 64 68 59 69 62 70 60 71 61 72 63 73
REMARK SMILES IDX 65 74 4 76 2 77 1 79 3 80
REMARK H PARENT 31 24 18 32 20 34 33 36 35 38 37 40 40 44 7 46 44 49 46 52
REMARK H PARENT 48 56 65 75 4 78
REMARK Flexibility Score: inf
ROOT
ATOM      1  C   UNL     1      22.148  22.897  12.245  1.00  0.00     0.272 C 
ATOM      2  C   UNL     1      20.700  22.287  12.562  1.00  0.00     0.113 C 
ATOM      3  C   UNL     1      20.339  21.287  11.541  1.00  0.00     0.145 C 
ATOM      4  C   UNL     1      21.401  20.222  11.453  1.00  0.00     0.142 C 
ATOM      5  C   UNL     1      22.743  20.607  11.998  1.00  0.00     0.178 C 
ATOM      6  O   UNL     1      23.026  21.873  12.281  1.00  0.00    -0.332 OA
ENDROOT
BRANCH   1   7
ATOM      7  O   UNL     1      22.292  23.702  13.324  1.00  0.00    -0.338 OA
BRANCH   7   8
ATOM      8  C   UNL     1      23.378  24.364  13.670  1.00  0.00     0.199 C 
BRANCH   8   9
ATOM      9  C   UNL     1      23.422  25.853  13.680  1.00  0.00     0.179 C 
ATOM     10  C   UNL     1      24.917  26.125  15.446  1.00  0.00     0.282 C 
ATOM     11  O   UNL     1      23.705  26.381  14.892  1.00  0.00    -0.341 OA
ATOM     12  C   UNL     1      26.035  26.225  14.460  1.00  0.00     0.202 C 
ATOM     13  C   UNL     1      25.597  26.971  13.230  1.00  0.00     0.179 C 
ATOM     14  C   UNL     1      24.360  26.400  12.602  1.00  0.00     0.177 C 
BRANCH  10  15
ATOM     15  O   UNL     1      24.902  24.914  16.157  1.00  0.00    -0.341 OA
BRANCH  15  16
ATOM     16  C   UNL     1      24.668  25.054  17.505  1.00  0.00     0.184 C 
ATOM     17  C   UNL     1      25.737  24.373  18.329  1.00  0.00     0.178 C 
ATOM     18  O   UNL     1      25.438  24.253  19.656  1.00  0.00    -0.341 OA
ATOM     19  C   UNL     1      24.379  25.014  20.118  1.00  0.00     0.281 C 
ATOM     20  C   UNL     1      23.371  24.350  17.921  1.00  0.00     0.180 C 
ATOM     21  C   UNL     1      23.109  24.789  19.341  1.00  0.00     0.202 C 
BRANCH  17  22
ATOM     22  C   UNL     1      27.101  25.009  18.154  1.00  0.00     0.191 C 
BRANCH  22  23
ATOM     23  O   UNL     1      27.013  26.383  18.084  1.00  0.00    -0.394 OA
ATOM     24  H   UNL     1      26.431  26.695  18.816  1.00  0.00     0.210 HD
ENDBRANCH  22  23
ENDBRANCH  17  22
BRANCH  19  25
ATOM     25  O   UNL     1      24.762  26.345  20.146  1.00  0.00    -0.350 OA
BRANCH  25  26
ATOM     26  C   UNL     1      24.594  26.883  21.393  1.00  0.00     0.169 C 
BRANCH  26  27
ATOM     27  C   UNL     1      23.360  27.694  21.595  1.00  0.00     0.119 C 
BRANCH  27  28
ATOM     28  N   UNL     1      22.457  27.115  22.569  1.00  0.00    -0.092 NA
ATOM     29  N   UNL     1      21.555  26.360  22.263  1.00  0.00     0.001 N 
ATOM     30  N   UNL     1      20.789  25.406  22.149  1.00  0.00    -0.003 NA
ENDBRANCH  27  28
ENDBRANCH  26  27
ENDBRANCH  25  26
ENDBRANCH  19  25
BRANCH  20  31
ATOM     31  O   UNL     1      22.322  24.588  17.076  1.00  0.00    -0.387 OA
ATOM     32  H   UNL     1      22.416  23.925  16.320  1.00  0.00     0.211 HD
ENDBRANCH  20  31
BRANCH  21  33
ATOM     33  O   UNL     1      22.309  23.878  20.021  1.00  0.00    -0.385 OA
ATOM     34  H   UNL     1      22.356  23.000  19.604  1.00  0.00     0.211 HD
ENDBRANCH  21  33
ENDBRANCH  15  16
ENDBRANCH  10  15
BRANCH  12  35
ATOM     35  O   UNL     1      27.097  26.916  15.092  1.00  0.00    -0.385 OA
ATOM     36  H   UNL     1      27.526  26.243  15.671  1.00  0.00     0.211 HD
ENDBRANCH  12  35
BRANCH  13  37
ATOM     37  O   UNL     1      26.626  27.088  12.296  1.00  0.00    -0.387 OA
ATOM     38  H   UNL     1      26.582  26.269  11.741  1.00  0.00     0.211 HD
ENDBRANCH  13  37
BRANCH  14  39
ATOM     39  O   UNL     1      24.706  25.379  11.735  1.00  0.00    -0.387 OA
ATOM     40  H   UNL     1      23.920  25.091  11.198  1.00  0.00     0.211 HD
ENDBRANCH  14  39
ENDBRANCH   8   9
ENDBRANCH   7   8
ENDBRANCH   1   7
BRANCH   1  41
ATOM     41  C   UNL     1      22.015  23.527  10.936  1.00  0.00     0.364 C 
ATOM     42  O   UNL     1      22.957  23.445  10.061  1.00  0.00    -0.246 OA
BRANCH  41  43
ATOM     43  O   UNL     1      20.919  24.234  10.517  1.00  0.00    -0.477 OA
ATOM     44  H   UNL     1      20.264  23.837   9.859  1.00  0.00     0.296 HD
ENDBRANCH  41  43
ENDBRANCH   1  41
BRANCH   3  45
ATOM     45  O   UNL     1      19.086  20.738  11.870  1.00  0.00    -0.391 OA
ATOM     46  H   UNL     1      18.372  21.372  11.633  1.00  0.00     0.211 HD
ENDBRANCH   3  45
BRANCH   5  47
ATOM     47  C   UNL     1      23.088  19.624  13.100  1.00  0.00     0.176 C 
BRANCH  47  48
ATOM     48  O   UNL     1      22.072  18.639  13.182  1.00  0.00    -0.388 OA
ATOM     49  H   UNL     1      21.671  18.626  14.074  1.00  0.00     0.211 HD
ENDBRANCH  47  48
BRANCH  47  50
ATOM     50  C   UNL     1      24.431  19.023  13.033  1.00  0.00     0.165 C 
BRANCH  50  51
ATOM     51  O   UNL     1      24.637  18.071  14.007  1.00  0.00    -0.388 OA
ATOM     52  H   UNL     1      25.482  18.192  14.508  1.00  0.00     0.211 HD
ENDBRANCH  50  51
BRANCH  50  53
ATOM     53  C   UNL     1      25.604  19.936  12.935  1.00  0.00     0.154 C 
BRANCH  53  54
ATOM     54  N   UNL     1      25.777  20.874  13.990  1.00  0.00    -0.319 N 
ATOM     55  C   UNL     1      26.682  20.521  15.049  1.00  0.00     0.407 C 
ATOM     56  H   UNL     1      25.284  21.777  14.060  1.00  0.00     0.167 HD
ATOM     57  O   UNL     1      27.285  19.395  14.996  1.00  0.00    -0.225 OA
BRANCH  55  58
ATOM     58  O   UNL     1      26.888  21.384  16.088  1.00  0.00    -0.443 OA
BRANCH  58  59
ATOM     59  C   UNL     1      28.159  21.630  16.633  1.00  0.00     0.294 C 
BRANCH  59  60
ATOM     60  C   UNL     1      28.277  21.018  17.976  1.00  0.00     0.120 A 
ATOM     61  C   UNL     1      28.003  21.563  19.224  1.00  0.00     0.138 A 
ATOM     62  N   UNL     1      28.680  19.765  18.247  1.00  0.00    -0.132 NA
ATOM     63  N   UNL     1      28.241  20.660  20.187  1.00  0.00    -0.248 N 
ATOM     64  N   UNL     1      28.657  19.563  19.549  1.00  0.00    -0.067 NA
BRANCH  63  65
ATOM     65  C   UNL     1      28.100  20.778  21.642  1.00  0.00     0.185 C 
BRANCH  65  66
ATOM     66  C   UNL     1      29.464  20.814  22.218  1.00  0.00     0.018 A 
ATOM     67  C   UNL     1      30.107  22.032  22.329  1.00  0.00     0.025 A 
ATOM     68  C   UNL     1      30.120  19.668  22.652  1.00  0.00     0.134 A 
ATOM     69  C   UNL     1      31.383  22.140  22.861  1.00  0.00     0.019 A 
ATOM     70  C   UNL     1      31.396  19.744  23.187  1.00  0.00     0.061 A 
ATOM     71  Br  UNL     1      32.232  23.839  22.994  1.00  0.00    -0.051 Br
ATOM     72  C   UNL     1      32.010  20.992  23.282  1.00  0.00     0.035 A 
ATOM     73  Br  UNL     1      32.265  18.172  23.771  1.00  0.00    -0.047 Br
BRANCH  68  74
ATOM     74  O   UNL     1      29.423  18.484  22.512  1.00  0.00    -0.506 OA
ATOM     75  H   UNL     1      28.725  18.237  23.194  1.00  0.00     0.293 HD
ENDBRANCH  68  74
ENDBRANCH  65  66
ENDBRANCH  63  65
ENDBRANCH  59  60
ENDBRANCH  58  59
ENDBRANCH  55  58
ENDBRANCH  53  54
ENDBRANCH  50  53
ENDBRANCH  47  50
ENDBRANCH   5  47
BRANCH   4  76
ATOM     76  N   UNL     1      21.437  19.678  10.113  1.00  0.00    -0.348 N 
ATOM     77  C   UNL     1      20.694  18.504   9.827  1.00  0.00     0.217 C 
ATOM     78  H   UNL     1      21.991  20.107   9.336  1.00  0.00     0.163 HD
ATOM     79  C   UNL     1      20.731  17.941   8.441  1.00  0.00     0.114 C 
ATOM     80  O   UNL     1      20.006  17.945  10.746  1.00  0.00    -0.275 OA
ENDBRANCH   4  76
TORSDOF 32
