REMARK VINA RESULT:    -4.973      2.782      6.305
REMARK INTER + INTRA:         -20.872
REMARK INTER:                 -13.388
REMARK INTRA:                  -7.484
REMARK UNBOUND:                -8.339
REMARK SMILES CC(=O)N[C@@H]1[C@@H](O)C[C@](OC[C@H]2O[C@@H](O[C@H]3[C@H](O)[C@@H](O)[C@H](OCCN=[N+]=[N-])O[C@@H]3CO)[C@H](O)[C@@H](O)[C@H]2O)(C(=O)O)O[C@H]1C(O)[C@H](O)CNC(=O)OCc1cn(Cc2ccccc2)nn1
REMARK SMILES IDX 9 1 8 2 6 3 5 4 42 5 41 6 10 7 11 8 12 9 14 10 13 11 32 12
REMARK SMILES IDX 34 13 36 14 15 15 16 16 29 17 28 18 21 19 17 20 19 21 30 22
REMARK SMILES IDX 31 23 22 25 23 26 24 27 25 28 26 29 27 30 18 31 20 33 33 35
REMARK SMILES IDX 35 37 37 39 38 41 39 42 40 43 7 45 43 47 44 48 45 50 46 51
REMARK SMILES IDX 47 53 48 54 49 55 50 57 51 58 52 59 53 60 54 61 64 62 55 63
REMARK SMILES IDX 63 64 56 65 57 66 58 67 62 68 59 69 61 70 60 71 4 72 2 73
REMARK SMILES IDX 1 75 3 76
REMARK H PARENT 31 24 18 32 20 34 33 36 35 38 37 40 40 44 7 46 44 49 46 52
REMARK H PARENT 48 56 4 74
REMARK Flexibility Score: inf
ROOT
ATOM      1  C   UNL     1      19.566  33.733  25.055  1.00  0.00     0.272 C 
ATOM      2  C   UNL     1      20.329  33.951  23.801  1.00  0.00     0.113 C 
ATOM      3  C   UNL     1      20.791  32.648  23.272  1.00  0.00     0.145 C 
ATOM      4  C   UNL     1      20.481  31.453  24.187  1.00  0.00     0.142 C 
ATOM      5  C   UNL     1      20.735  31.781  25.596  1.00  0.00     0.178 C 
ATOM      6  O   UNL     1      20.443  33.108  25.961  1.00  0.00    -0.332 OA
ENDROOT
BRANCH   1   7
ATOM      7  O   UNL     1      18.381  33.037  24.936  1.00  0.00    -0.338 OA
BRANCH   7   8
ATOM      8  C   UNL     1      17.544  33.671  24.034  1.00  0.00     0.199 C 
BRANCH   8   9
ATOM      9  C   UNL     1      16.121  33.166  24.117  1.00  0.00     0.179 C 
ATOM     10  C   UNL     1      14.628  31.859  22.889  1.00  0.00     0.282 C 
ATOM     11  O   UNL     1      15.590  32.872  22.882  1.00  0.00    -0.341 OA
ATOM     12  C   UNL     1      13.731  31.915  24.069  1.00  0.00     0.202 C 
ATOM     13  C   UNL     1      14.511  31.725  25.331  1.00  0.00     0.179 C 
ATOM     14  C   UNL     1      15.971  32.039  25.104  1.00  0.00     0.177 C 
BRANCH  10  15
ATOM     15  O   UNL     1      15.216  30.610  22.775  1.00  0.00    -0.341 OA
BRANCH  15  16
ATOM     16  C   UNL     1      15.604  30.290  21.479  1.00  0.00     0.184 C 
ATOM     17  C   UNL     1      14.868  29.096  20.996  1.00  0.00     0.178 C 
ATOM     18  O   UNL     1      15.347  28.805  19.700  1.00  0.00    -0.341 OA
ATOM     19  C   UNL     1      16.589  28.169  19.905  1.00  0.00     0.281 C 
ATOM     20  C   UNL     1      17.090  29.915  21.597  1.00  0.00     0.180 C 
ATOM     21  C   UNL     1      17.601  29.194  20.394  1.00  0.00     0.202 C 
BRANCH  17  22
ATOM     22  C   UNL     1      13.361  29.325  20.934  1.00  0.00     0.191 C 
BRANCH  22  23
ATOM     23  O   UNL     1      12.834  28.879  22.166  1.00  0.00    -0.394 OA
ATOM     24  H   UNL     1      13.138  29.492  22.877  1.00  0.00     0.210 HD
ENDBRANCH  22  23
ENDBRANCH  17  22
BRANCH  19  25
ATOM     25  O   UNL     1      17.012  27.616  18.722  1.00  0.00    -0.350 OA
BRANCH  25  26
ATOM     26  C   UNL     1      16.731  28.471  17.674  1.00  0.00     0.169 C 
BRANCH  26  27
ATOM     27  C   UNL     1      17.842  28.643  16.683  1.00  0.00     0.119 C 
BRANCH  27  28
ATOM     28  N   UNL     1      19.002  27.923  17.232  1.00  0.00    -0.092 NA
ATOM     29  N   UNL     1      19.917  28.611  17.682  1.00  0.00     0.001 N 
ATOM     30  N   UNL     1      20.898  28.985  18.340  1.00  0.00    -0.003 NA
ENDBRANCH  27  28
ENDBRANCH  26  27
ENDBRANCH  25  26
ENDBRANCH  19  25
BRANCH  20  31
ATOM     31  O   UNL     1      17.759  31.153  21.697  1.00  0.00    -0.387 OA
ATOM     32  H   UNL     1      18.103  31.317  22.615  1.00  0.00     0.211 HD
ENDBRANCH  20  31
BRANCH  21  33
ATOM     33  O   UNL     1      18.765  28.504  20.729  1.00  0.00    -0.385 OA
ATOM     34  H   UNL     1      19.515  29.113  20.969  1.00  0.00     0.211 HD
ENDBRANCH  21  33
ENDBRANCH  15  16
ENDBRANCH  10  15
BRANCH  12  35
ATOM     35  O   UNL     1      12.968  33.095  24.104  1.00  0.00    -0.385 OA
ATOM     36  H   UNL     1      12.381  33.064  23.307  1.00  0.00     0.211 HD
ENDBRANCH  12  35
BRANCH  13  37
ATOM     37  O   UNL     1      14.358  30.412  25.760  1.00  0.00    -0.387 OA
ATOM     38  H   UNL     1      14.232  30.347  26.745  1.00  0.00     0.211 HD
ENDBRANCH  13  37
BRANCH  14  39
ATOM     39  O   UNL     1      16.748  30.940  24.858  1.00  0.00    -0.387 OA
ATOM     40  H   UNL     1      16.850  30.293  25.583  1.00  0.00     0.211 HD
ENDBRANCH  14  39
ENDBRANCH   8   9
ENDBRANCH   7   8
ENDBRANCH   1   7
BRANCH   1  41
ATOM     41  C   UNL     1      19.251  35.025  25.759  1.00  0.00     0.364 C 
ATOM     42  O   UNL     1      18.669  34.998  26.845  1.00  0.00    -0.246 OA
BRANCH  41  43
ATOM     43  O   UNL     1      19.614  36.224  25.188  1.00  0.00    -0.477 OA
ATOM     44  H   UNL     1      20.528  36.652  25.344  1.00  0.00     0.296 HD
ENDBRANCH  41  43
ENDBRANCH   1  41
BRANCH   3  45
ATOM     45  O   UNL     1      20.248  32.310  22.018  1.00  0.00    -0.391 OA
ATOM     46  H   UNL     1      19.417  31.816  22.080  1.00  0.00     0.211 HD
ENDBRANCH   3  45
BRANCH   5  47
ATOM     47  C   UNL     1      20.158  30.945  26.661  1.00  0.00     0.176 C 
BRANCH  47  48
ATOM     48  O   UNL     1      20.391  29.592  26.549  1.00  0.00    -0.388 OA
ATOM     49  H   UNL     1      21.333  29.338  26.441  1.00  0.00     0.211 HD
ENDBRANCH  47  48
BRANCH  47  50
ATOM     50  C   UNL     1      20.364  31.367  28.088  1.00  0.00     0.165 C 
BRANCH  50  51
ATOM     51  O   UNL     1      21.647  31.704  28.392  1.00  0.00    -0.388 OA
ATOM     52  H   UNL     1      21.866  31.665  29.343  1.00  0.00     0.211 HD
ENDBRANCH  50  51
BRANCH  50  53
ATOM     53  C   UNL     1      19.621  30.500  29.061  1.00  0.00     0.154 C 
BRANCH  53  54
ATOM     54  N   UNL     1      20.242  29.228  29.324  1.00  0.00    -0.319 N 
ATOM     55  C   UNL     1      21.067  28.940  30.459  1.00  0.00     0.407 C 
ATOM     56  H   UNL     1      20.122  28.396  28.670  1.00  0.00     0.167 HD
ATOM     57  O   UNL     1      21.289  29.840  31.301  1.00  0.00    -0.225 OA
BRANCH  55  58
ATOM     58  O   UNL     1      21.628  27.691  30.648  1.00  0.00    -0.443 OA
BRANCH  58  59
ATOM     59  C   UNL     1      21.193  26.611  29.858  1.00  0.00     0.294 C 
BRANCH  59  60
ATOM     60  C   UNL     1      21.954  26.529  28.593  1.00  0.00     0.120 A 
ATOM     61  C   UNL     1      22.439  25.332  28.049  1.00  0.00     0.138 A 
ATOM     62  N   UNL     1      22.334  27.478  27.730  1.00  0.00    -0.132 NA
ATOM     63  N   UNL     1      23.076  25.614  26.902  1.00  0.00    -0.248 N 
ATOM     64  N   UNL     1      23.006  26.900  26.724  1.00  0.00    -0.067 NA
BRANCH  63  65
ATOM     65  C   UNL     1      23.710  24.643  26.039  1.00  0.00     0.181 C 
BRANCH  65  66
ATOM     66  C   UNL     1      23.006  24.610  24.733  1.00  0.00    -0.026 A 
ATOM     67  C   UNL     1      23.691  24.597  23.531  1.00  0.00     0.005 A 
ATOM     68  C   UNL     1      21.620  24.591  24.726  1.00  0.00     0.005 A 
ATOM     69  C   UNL     1      22.987  24.566  22.339  1.00  0.00     0.000 A 
ATOM     70  C   UNL     1      20.929  24.560  23.529  1.00  0.00     0.000 A 
ATOM     71  C   UNL     1      21.615  24.548  22.343  1.00  0.00     0.000 A 
ENDBRANCH  65  66
ENDBRANCH  63  65
ENDBRANCH  59  60
ENDBRANCH  58  59
ENDBRANCH  55  58
ENDBRANCH  53  54
ENDBRANCH  50  53
ENDBRANCH  47  50
ENDBRANCH   5  47
BRANCH   4  72
ATOM     72  N   UNL     1      21.475  30.472  23.706  1.00  0.00    -0.348 N 
ATOM     73  C   UNL     1      21.150  29.134  23.389  1.00  0.00     0.217 C 
ATOM     74  H   UNL     1      22.468  30.772  23.595  1.00  0.00     0.163 HD
ATOM     75  C   UNL     1      22.179  28.162  22.911  1.00  0.00     0.114 C 
ATOM     76  O   UNL     1      19.958  28.761  23.516  1.00  0.00    -0.275 OA
ENDBRANCH   4  72
TORSDOF 31
