REMARK VINA RESULT:    -5.752      5.118     12.193
REMARK INTER + INTRA:         -21.577
REMARK INTER:                 -16.436
REMARK INTRA:                  -5.141
REMARK UNBOUND:                -7.419
REMARK SMILES CC(=O)N[C@@H]1[C@@H](O)C[C@](OC[C@H]2O[C@@H](O[C@H]3[C@H](O)[C@@H](O)[C@H](OCCN=[N+]=[N-])O[C@@H]3CO)[C@H](O)[C@@H](O)[C@H]2O)(C(=O)O)O[C@H]1C(O)[C@H](O)CNC(=O)OCc1cn(-c2ccc(C)cc2)nn1
REMARK SMILES IDX 9 1 8 2 6 3 5 4 42 5 41 6 10 7 11 8 12 9 14 10 13 11 32 12
REMARK SMILES IDX 34 13 36 14 15 15 16 16 29 17 28 18 21 19 17 20 19 21 30 22
REMARK SMILES IDX 31 23 22 25 23 26 24 27 25 28 26 29 27 30 18 31 20 33 33 35
REMARK SMILES IDX 35 37 37 39 38 41 39 42 40 43 7 45 43 47 44 48 45 50 46 51
REMARK SMILES IDX 47 53 48 54 49 55 50 57 51 58 52 59 53 60 54 61 64 62 55 63
REMARK SMILES IDX 63 64 56 65 57 66 62 67 58 68 61 69 59 70 60 71 4 72 2 73
REMARK SMILES IDX 1 75 3 76
REMARK H PARENT 31 24 18 32 20 34 33 36 35 38 37 40 40 44 7 46 44 49 46 52
REMARK H PARENT 48 56 4 74
REMARK Flexibility Score: inf
ROOT
ATOM      1  C   UNL     1      23.679  24.960  21.589  1.00  0.00     0.272 C 
ATOM      2  C   UNL     1      22.334  24.263  21.763  1.00  0.00     0.113 C 
ATOM      3  C   UNL     1      21.557  24.831  22.889  1.00  0.00     0.145 C 
ATOM      4  C   UNL     1      21.759  26.283  23.140  1.00  0.00     0.142 C 
ATOM      5  C   UNL     1      22.607  27.029  22.116  1.00  0.00     0.178 C 
ATOM      6  O   UNL     1      23.635  26.268  21.669  1.00  0.00    -0.332 OA
ENDROOT
BRANCH   1   7
ATOM      7  O   UNL     1      24.060  24.624  20.253  1.00  0.00    -0.338 OA
BRANCH   7   8
ATOM      8  C   UNL     1      24.584  25.769  19.650  1.00  0.00     0.199 C 
BRANCH   8   9
ATOM      9  C   UNL     1      24.987  25.537  18.243  1.00  0.00     0.179 C 
ATOM     10  C   UNL     1      26.141  24.141  16.838  1.00  0.00     0.282 C 
ATOM     11  O   UNL     1      25.555  24.270  18.093  1.00  0.00    -0.341 OA
ATOM     12  C   UNL     1      25.099  24.085  15.786  1.00  0.00     0.202 C 
ATOM     13  C   UNL     1      23.772  24.536  16.332  1.00  0.00     0.179 C 
ATOM     14  C   UNL     1      23.877  25.738  17.248  1.00  0.00     0.177 C 
BRANCH  10  15
ATOM     15  O   UNL     1      26.900  22.974  16.803  1.00  0.00    -0.341 OA
BRANCH  15  16
ATOM     16  C   UNL     1      27.796  22.915  17.870  1.00  0.00     0.184 C 
ATOM     17  C   UNL     1      29.242  23.022  17.474  1.00  0.00     0.178 C 
ATOM     18  O   UNL     1      29.925  21.847  17.805  1.00  0.00    -0.341 OA
ATOM     19  C   UNL     1      29.416  20.800  17.056  1.00  0.00     0.281 C 
ATOM     20  C   UNL     1      27.589  21.556  18.503  1.00  0.00     0.180 C 
ATOM     21  C   UNL     1      27.969  20.536  17.419  1.00  0.00     0.202 C 
BRANCH  17  22
ATOM     22  C   UNL     1      29.940  24.112  18.304  1.00  0.00     0.191 C 
BRANCH  22  23
ATOM     23  O   UNL     1      29.897  23.796  19.660  1.00  0.00    -0.394 OA
ATOM     24  H   UNL     1      29.391  24.536  20.111  1.00  0.00     0.210 HD
ENDBRANCH  22  23
ENDBRANCH  17  22
BRANCH  19  25
ATOM     25  O   UNL     1      30.159  19.637  17.189  1.00  0.00    -0.350 OA
BRANCH  25  26
ATOM     26  C   UNL     1      30.730  19.484  18.427  1.00  0.00     0.169 C 
BRANCH  26  27
ATOM     27  C   UNL     1      30.378  18.211  19.142  1.00  0.00     0.119 C 
BRANCH  27  28
ATOM     28  N   UNL     1      29.234  18.375  20.007  1.00  0.00    -0.092 NA
ATOM     29  N   UNL     1      29.391  18.562  21.201  1.00  0.00     0.001 N 
ATOM     30  N   UNL     1      29.535  18.842  22.392  1.00  0.00    -0.003 NA
ENDBRANCH  27  28
ENDBRANCH  26  27
ENDBRANCH  25  26
ENDBRANCH  19  25
BRANCH  20  31
ATOM     31  O   UNL     1      28.373  21.359  19.631  1.00  0.00    -0.387 OA
ATOM     32  H   UNL     1      27.824  21.608  20.413  1.00  0.00     0.211 HD
ENDBRANCH  20  31
BRANCH  21  33
ATOM     33  O   UNL     1      27.194  20.900  16.299  1.00  0.00    -0.385 OA
ATOM     34  H   UNL     1      27.728  20.959  15.475  1.00  0.00     0.211 HD
ENDBRANCH  21  33
ENDBRANCH  15  16
ENDBRANCH  10  15
BRANCH  12  35
ATOM     35  O   UNL     1      25.449  24.840  14.651  1.00  0.00    -0.385 OA
ATOM     36  H   UNL     1      26.302  24.409  14.320  1.00  0.00     0.211 HD
ENDBRANCH  12  35
BRANCH  13  37
ATOM     37  O   UNL     1      23.119  23.462  16.885  1.00  0.00    -0.387 OA
ATOM     38  H   UNL     1      23.303  22.584  16.421  1.00  0.00     0.211 HD
ENDBRANCH  13  37
BRANCH  14  39
ATOM     39  O   UNL     1      22.693  25.873  17.947  1.00  0.00    -0.387 OA
ATOM     40  H   UNL     1      21.881  25.772  17.408  1.00  0.00     0.211 HD
ENDBRANCH  14  39
ENDBRANCH   8   9
ENDBRANCH   7   8
ENDBRANCH   1   7
BRANCH   1  41
ATOM     41  C   UNL     1      24.583  24.297  22.551  1.00  0.00     0.364 C 
ATOM     42  O   UNL     1      25.067  23.156  22.373  1.00  0.00    -0.246 OA
BRANCH  41  43
ATOM     43  O   UNL     1      24.913  25.002  23.724  1.00  0.00    -0.477 OA
ATOM     44  H   UNL     1      25.077  24.471  24.580  1.00  0.00     0.296 HD
ENDBRANCH  41  43
ENDBRANCH   1  41
BRANCH   3  45
ATOM     45  O   UNL     1      20.192  24.481  22.780  1.00  0.00    -0.391 OA
ATOM     46  H   UNL     1      20.186  23.648  22.208  1.00  0.00     0.211 HD
ENDBRANCH   3  45
BRANCH   5  47
ATOM     47  C   UNL     1      21.702  27.538  21.012  1.00  0.00     0.176 C 
BRANCH  47  48
ATOM     48  O   UNL     1      20.368  27.196  21.172  1.00  0.00    -0.388 OA
ATOM     49  H   UNL     1      20.072  27.646  22.007  1.00  0.00     0.211 HD
ENDBRANCH  47  48
BRANCH  47  50
ATOM     50  C   UNL     1      21.890  28.874  20.471  1.00  0.00     0.165 C 
BRANCH  50  51
ATOM     51  O   UNL     1      21.147  29.905  21.084  1.00  0.00    -0.388 OA
ATOM     52  H   UNL     1      21.761  30.552  21.520  1.00  0.00     0.211 HD
ENDBRANCH  50  51
BRANCH  50  53
ATOM     53  C   UNL     1      21.882  29.139  19.006  1.00  0.00     0.154 C 
BRANCH  53  54
ATOM     54  N   UNL     1      20.652  29.690  18.502  1.00  0.00    -0.319 N 
ATOM     55  C   UNL     1      19.845  28.966  17.575  1.00  0.00     0.407 C 
ATOM     56  H   UNL     1      20.333  30.637  18.810  1.00  0.00     0.167 HD
ATOM     57  O   UNL     1      20.215  27.823  17.212  1.00  0.00    -0.225 OA
BRANCH  55  58
ATOM     58  O   UNL     1      18.684  29.530  17.092  1.00  0.00    -0.443 OA
BRANCH  58  59
ATOM     59  C   UNL     1      17.509  28.822  16.890  1.00  0.00     0.294 C 
BRANCH  59  60
ATOM     60  C   UNL     1      16.907  28.401  18.157  1.00  0.00     0.121 A 
ATOM     61  C   UNL     1      16.186  29.219  19.047  1.00  0.00     0.144 A 
ATOM     62  N   UNL     1      16.910  27.205  18.728  1.00  0.00    -0.131 NA
ATOM     63  N   UNL     1      15.805  28.473  20.084  1.00  0.00    -0.220 N 
ATOM     64  N   UNL     1      16.255  27.254  19.871  1.00  0.00    -0.062 NA
BRANCH  63  65
ATOM     65  C   UNL     1      15.049  28.974  21.201  1.00  0.00     0.066 A 
ATOM     66  C   UNL     1      13.677  29.061  21.119  1.00  0.00     0.029 A 
ATOM     67  C   UNL     1      15.653  29.366  22.377  1.00  0.00     0.029 A 
ATOM     68  C   UNL     1      12.931  29.532  22.204  1.00  0.00     0.005 A 
ATOM     69  C   UNL     1      14.907  29.837  23.464  1.00  0.00     0.005 A 
ATOM     70  C   UNL     1      13.537  29.921  23.377  1.00  0.00    -0.051 A 
ATOM     71  C   UNL     1      12.737  30.415  24.544  1.00  0.00     0.044 C 
ENDBRANCH  63  65
ENDBRANCH  59  60
ENDBRANCH  58  59
ENDBRANCH  55  58
ENDBRANCH  53  54
ENDBRANCH  50  53
ENDBRANCH  47  50
ENDBRANCH   5  47
BRANCH   4  72
ATOM     72  N   UNL     1      22.161  26.568  24.504  1.00  0.00    -0.348 N 
ATOM     73  C   UNL     1      21.258  26.995  25.525  1.00  0.00     0.217 C 
ATOM     74  H   UNL     1      23.154  26.475  24.796  1.00  0.00     0.163 HD
ATOM     75  C   UNL     1      21.729  27.285  26.914  1.00  0.00     0.114 C 
ATOM     76  O   UNL     1      20.059  27.105  25.169  1.00  0.00    -0.275 OA
ENDBRANCH   4  72
TORSDOF 30
