REMARK VINA RESULT:    -6.468      2.927      5.306
REMARK INTER + INTRA:         -22.137
REMARK INTER:                 -16.805
REMARK INTRA:                  -5.332
REMARK UNBOUND:                -5.460
REMARK SMILES CC(=O)N[C@@H]1[C@@H](O)C[C@](OC[C@H]2O[C@@H](O[C@H]3[C@H](O)[C@@H](O)[C@H](OCCN=[N+]=[N-])O[C@@H]3CO)[C@H](O)[C@@H](O)[C@H]2O)(C(=O)O)O[C@H]1C(O)[C@H](O)CNC(=O)OCc1cn(C(c2ccccc2)c2ccccc2)nn1
REMARK SMILES IDX 9 1 8 2 6 3 5 4 42 5 41 6 10 7 11 8 12 9 14 10 13 11 32 12
REMARK SMILES IDX 34 13 36 14 15 15 16 16 29 17 28 18 21 19 17 20 19 21 30 22
REMARK SMILES IDX 31 23 22 25 23 26 24 27 25 28 26 29 27 30 18 31 20 33 33 35
REMARK SMILES IDX 35 37 37 39 38 41 39 42 40 43 7 45 43 47 44 48 45 50 46 51
REMARK SMILES IDX 47 53 48 54 49 55 50 57 51 58 52 59 53 60 54 61 70 62 55 63
REMARK SMILES IDX 69 64 56 65 57 66 58 67 62 68 59 69 61 70 60 71 63 72 64 73
REMARK SMILES IDX 68 74 65 75 67 76 66 77 4 78 2 79 1 81 3 82
REMARK H PARENT 31 24 18 32 20 34 33 36 35 38 37 40 40 44 7 46 44 49 46 52
REMARK H PARENT 48 56 4 80
REMARK Flexibility Score: inf
ROOT
ATOM      1  C   UNL     1      13.385  31.312  21.431  1.00  0.00     0.272 C 
ATOM      2  C   UNL     1      14.461  32.317  20.971  1.00  0.00     0.113 C 
ATOM      3  C   UNL     1      14.548  33.433  21.931  1.00  0.00     0.145 C 
ATOM      4  C   UNL     1      14.876  32.904  23.305  1.00  0.00     0.142 C 
ATOM      5  C   UNL     1      14.528  31.472  23.485  1.00  0.00     0.178 C 
ATOM      6  O   UNL     1      13.500  31.004  22.732  1.00  0.00    -0.332 OA
ENDROOT
BRANCH   1   7
ATOM      7  O   UNL     1      13.543  30.149  20.659  1.00  0.00    -0.338 OA
BRANCH   7   8
ATOM      8  C   UNL     1      14.717  30.166  19.954  1.00  0.00     0.199 C 
BRANCH   8   9
ATOM      9  C   UNL     1      14.872  28.944  19.050  1.00  0.00     0.179 C 
ATOM     10  C   UNL     1      16.196  29.321  17.102  1.00  0.00     0.282 C 
ATOM     11  O   UNL     1      15.044  29.276  17.799  1.00  0.00    -0.341 OA
ATOM     12  C   UNL     1      17.402  29.039  17.863  1.00  0.00     0.202 C 
ATOM     13  C   UNL     1      17.231  28.077  18.986  1.00  0.00     0.179 C 
ATOM     14  C   UNL     1      15.890  27.974  19.604  1.00  0.00     0.177 C 
BRANCH  10  15
ATOM     15  O   UNL     1      16.156  30.612  16.490  1.00  0.00    -0.341 OA
BRANCH  15  16
ATOM     16  C   UNL     1      15.834  30.536  15.168  1.00  0.00     0.184 C 
ATOM     17  C   UNL     1      14.430  30.954  14.908  1.00  0.00     0.178 C 
ATOM     18  O   UNL     1      14.205  31.071  13.530  1.00  0.00    -0.341 OA
ATOM     19  C   UNL     1      14.171  29.829  12.957  1.00  0.00     0.281 C 
ATOM     20  C   UNL     1      15.957  29.110  14.644  1.00  0.00     0.180 C 
ATOM     21  C   UNL     1      14.836  28.772  13.742  1.00  0.00     0.202 C 
BRANCH  17  22
ATOM     22  C   UNL     1      13.992  32.210  15.634  1.00  0.00     0.191 C 
BRANCH  22  23
ATOM     23  O   UNL     1      15.046  33.118  15.647  1.00  0.00    -0.394 OA
ATOM     24  H   UNL     1      15.916  32.717  15.851  1.00  0.00     0.210 HD
ENDBRANCH  22  23
ENDBRANCH  17  22
BRANCH  19  25
ATOM     25  O   UNL     1      14.608  29.859  11.622  1.00  0.00    -0.350 OA
BRANCH  25  26
ATOM     26  C   UNL     1      15.623  30.733  11.366  1.00  0.00     0.169 C 
BRANCH  26  27
ATOM     27  C   UNL     1      16.625  30.086  10.438  1.00  0.00     0.119 C 
BRANCH  27  28
ATOM     28  N   UNL     1      17.352  29.004  11.098  1.00  0.00    -0.092 NA
ATOM     29  N   UNL     1      18.427  28.590  10.683  1.00  0.00     0.001 N 
ATOM     30  N   UNL     1      19.304  28.033  10.011  1.00  0.00    -0.003 NA
ENDBRANCH  27  28
ENDBRANCH  26  27
ENDBRANCH  25  26
ENDBRANCH  19  25
BRANCH  20  31
ATOM     31  O   UNL     1      17.224  28.996  14.070  1.00  0.00    -0.387 OA
ATOM     32  H   UNL     1      17.371  29.685  13.368  1.00  0.00     0.211 HD
ENDBRANCH  20  31
BRANCH  21  33
ATOM     33  O   UNL     1      13.864  28.066  14.510  1.00  0.00    -0.385 OA
ATOM     34  H   UNL     1      13.999  27.105  14.277  1.00  0.00     0.211 HD
ENDBRANCH  21  33
ENDBRANCH  15  16
ENDBRANCH  10  15
BRANCH  12  35
ATOM     35  O   UNL     1      18.454  28.509  17.073  1.00  0.00    -0.385 OA
ATOM     36  H   UNL     1      19.235  29.086  17.255  1.00  0.00     0.211 HD
ENDBRANCH  12  35
BRANCH  13  37
ATOM     37  O   UNL     1      18.177  28.321  20.015  1.00  0.00    -0.387 OA
ATOM     38  H   UNL     1      19.072  28.016  19.713  1.00  0.00     0.211 HD
ENDBRANCH  13  37
BRANCH  14  39
ATOM     39  O   UNL     1      15.988  28.270  20.973  1.00  0.00    -0.387 OA
ATOM     40  H   UNL     1      16.508  27.589  21.461  1.00  0.00     0.211 HD
ENDBRANCH  14  39
ENDBRANCH   8   9
ENDBRANCH   7   8
ENDBRANCH   1   7
BRANCH   1  41
ATOM     41  C   UNL     1      12.104  31.937  21.099  1.00  0.00     0.364 C 
ATOM     42  O   UNL     1      11.844  32.291  19.932  1.00  0.00    -0.246 OA
BRANCH  41  43
ATOM     43  O   UNL     1      11.116  32.172  22.057  1.00  0.00    -0.477 OA
ATOM     44  H   UNL     1      10.855  31.457  22.721  1.00  0.00     0.296 HD
ENDBRANCH  41  43
ENDBRANCH   1  41
BRANCH   3  45
ATOM     45  O   UNL     1      15.588  34.280  21.491  1.00  0.00    -0.391 OA
ATOM     46  H   UNL     1      16.326  33.753  21.094  1.00  0.00     0.211 HD
ENDBRANCH   3  45
BRANCH   5  47
ATOM     47  C   UNL     1      15.666  30.492  23.461  1.00  0.00     0.176 C 
BRANCH  47  48
ATOM     48  O   UNL     1      15.077  29.211  23.414  1.00  0.00    -0.388 OA
ATOM     49  H   UNL     1      15.667  28.505  23.729  1.00  0.00     0.211 HD
ENDBRANCH  47  48
BRANCH  47  50
ATOM     50  C   UNL     1      16.590  30.528  24.624  1.00  0.00     0.165 C 
BRANCH  50  51
ATOM     51  O   UNL     1      15.827  30.840  25.744  1.00  0.00    -0.388 OA
ATOM     52  H   UNL     1      15.637  30.052  26.315  1.00  0.00     0.211 HD
ENDBRANCH  50  51
BRANCH  50  53
ATOM     53  C   UNL     1      17.739  31.470  24.523  1.00  0.00     0.154 C 
BRANCH  53  54
ATOM     54  N   UNL     1      19.032  30.882  24.383  1.00  0.00    -0.319 N 
ATOM     55  C   UNL     1      19.608  30.339  23.230  1.00  0.00     0.407 C 
ATOM     56  H   UNL     1      19.643  30.849  25.261  1.00  0.00     0.167 HD
ATOM     57  O   UNL     1      18.977  30.316  22.167  1.00  0.00    -0.225 OA
BRANCH  55  58
ATOM     58  O   UNL     1      20.897  29.812  23.246  1.00  0.00    -0.443 OA
BRANCH  58  59
ATOM     59  C   UNL     1      21.502  29.372  22.020  1.00  0.00     0.294 C 
BRANCH  59  60
ATOM     60  C   UNL     1      21.481  27.887  21.993  1.00  0.00     0.120 A 
ATOM     61  C   UNL     1      22.488  27.111  22.491  1.00  0.00     0.139 A 
ATOM     62  N   UNL     1      20.510  27.124  21.501  1.00  0.00    -0.132 NA
ATOM     63  N   UNL     1      22.098  25.841  22.286  1.00  0.00    -0.240 N 
ATOM     64  N   UNL     1      20.901  25.864  21.688  1.00  0.00    -0.066 NA
BRANCH  63  65
ATOM     65  C   UNL     1      22.772  24.606  22.628  1.00  0.00     0.169 C 
BRANCH  65  66
ATOM     66  C   UNL     1      23.034  24.618  24.073  1.00  0.00    -0.019 A 
ATOM     67  C   UNL     1      21.990  24.616  24.976  1.00  0.00     0.006 A 
ATOM     68  C   UNL     1      24.306  24.649  24.603  1.00  0.00     0.006 A 
ATOM     69  C   UNL     1      22.215  24.643  26.346  1.00  0.00     0.000 A 
ATOM     70  C   UNL     1      24.544  24.677  25.974  1.00  0.00     0.000 A 
ATOM     71  C   UNL     1      23.487  24.674  26.863  1.00  0.00     0.000 A 
ENDBRANCH  65  66
BRANCH  65  72
ATOM     72  C   UNL     1      23.964  24.414  21.779  1.00  0.00    -0.019 A 
ATOM     73  C   UNL     1      23.862  24.806  20.449  1.00  0.00     0.006 A 
ATOM     74  C   UNL     1      25.139  23.859  22.195  1.00  0.00     0.006 A 
ATOM     75  C   UNL     1      24.916  24.637  19.590  1.00  0.00     0.000 A 
ATOM     76  C   UNL     1      26.208  23.686  21.334  1.00  0.00     0.000 A 
ATOM     77  C   UNL     1      26.099  24.075  20.023  1.00  0.00     0.000 A 
ENDBRANCH  65  72
ENDBRANCH  63  65
ENDBRANCH  59  60
ENDBRANCH  58  59
ENDBRANCH  55  58
ENDBRANCH  53  54
ENDBRANCH  50  53
ENDBRANCH  47  50
ENDBRANCH   5  47
BRANCH   4  78
ATOM     78  N   UNL     1      14.075  33.735  24.226  1.00  0.00    -0.348 N 
ATOM     79  C   UNL     1      14.568  34.153  25.493  1.00  0.00     0.217 C 
ATOM     80  H   UNL     1      13.105  34.048  23.974  1.00  0.00     0.163 HD
ATOM     81  C   UNL     1      13.731  35.002  26.407  1.00  0.00     0.114 C 
ATOM     82  O   UNL     1      15.711  33.832  25.882  1.00  0.00    -0.275 OA
ENDBRANCH   4  78
TORSDOF 32
