REMARK VINA RESULT:    -6.979     13.421     19.773
REMARK INTER + INTRA:         -26.194
REMARK INTER:                 -19.647
REMARK INTRA:                  -6.547
REMARK UNBOUND:                -7.995
REMARK SMILES CC(=O)N[C@@H]1[C@@H](O)C[C@](OC[C@H]2O[C@@H](O[C@H]3[C@H](O)[C@@H](O)[C@H](OCCN=[N+]=[N-])O[C@@H]3CO)[C@H](O)[C@@H](O)[C@H]2O)(C(=O)O)O[C@H]1C(O)[C@H](O)CNC(=O)OCc1cn(-c2ccc(-c3c4ccc(=O)cc-4oc4cc(O)ccc34)c(C(=O)[O-])c2)nn1
REMARK SMILES IDX 9 1 8 2 6 3 5 4 42 5 41 6 10 7 11 8 12 9 14 10 13 11 32 12
REMARK SMILES IDX 34 13 36 14 15 15 16 16 29 17 28 18 21 19 17 20 19 21 30 22
REMARK SMILES IDX 31 23 22 25 23 26 24 27 25 28 26 29 27 30 18 31 20 33 33 35
REMARK SMILES IDX 35 37 37 39 38 41 39 42 40 43 7 45 43 47 44 48 45 50 46 51
REMARK SMILES IDX 47 53 48 54 49 55 50 57 51 58 52 59 53 60 54 61 82 62 55 63
REMARK SMILES IDX 81 64 56 65 80 66 57 67 76 68 58 69 59 70 77 71 78 72 79 73
REMARK SMILES IDX 60 74 75 75 61 76 74 77 69 78 67 79 62 80 73 81 70 82 68 83
REMARK SMILES IDX 66 84 63 85 71 86 64 87 65 88 72 89 4 91 2 92 1 94 3 95
REMARK H PARENT 31 24 18 32 20 34 33 36 35 38 37 40 40 44 7 46 44 49 46 52
REMARK H PARENT 48 56 72 90 4 93
REMARK Flexibility Score: inf
ROOT
ATOM      1  C   UNL     1       5.209  26.773  34.606  1.00  0.00     0.272 C 
ATOM      2  C   UNL     1       4.794  25.717  35.601  1.00  0.00     0.113 C 
ATOM      3  C   UNL     1       5.141  24.321  35.165  1.00  0.00     0.145 C 
ATOM      4  C   UNL     1       5.446  24.359  33.689  1.00  0.00     0.142 C 
ATOM      5  C   UNL     1       4.385  25.216  33.051  1.00  0.00     0.178 C 
ATOM      6  O   UNL     1       4.625  26.537  33.337  1.00  0.00    -0.332 OA
ENDROOT
BRANCH   1   7
ATOM      7  O   UNL     1       6.554  26.961  34.457  1.00  0.00    -0.338 OA
BRANCH   7   8
ATOM      8  C   UNL     1       7.221  27.216  35.603  1.00  0.00     0.199 C 
BRANCH   8   9
ATOM      9  C   UNL     1       8.633  27.758  35.331  1.00  0.00     0.179 C 
ATOM     10  C   UNL     1      10.855  27.327  35.770  1.00  0.00     0.282 C 
ATOM     11  O   UNL     1       9.554  27.275  36.187  1.00  0.00    -0.341 OA
ATOM     12  C   UNL     1      11.176  28.413  34.820  1.00  0.00     0.202 C 
ATOM     13  C   UNL     1      10.225  28.471  33.647  1.00  0.00     0.179 C 
ATOM     14  C   UNL     1       9.018  27.583  33.909  1.00  0.00     0.177 C 
BRANCH  10  15
ATOM     15  O   UNL     1      11.206  26.033  35.389  1.00  0.00    -0.341 OA
BRANCH  15  16
ATOM     16  C   UNL     1      10.994  25.101  36.351  1.00  0.00     0.184 C 
ATOM     17  C   UNL     1      12.265  24.501  36.869  1.00  0.00     0.178 C 
ATOM     18  O   UNL     1      12.042  23.895  38.114  1.00  0.00    -0.341 OA
ATOM     19  C   UNL     1      10.857  23.169  38.116  1.00  0.00     0.281 C 
ATOM     20  C   UNL     1      10.179  23.894  35.849  1.00  0.00     0.180 C 
ATOM     21  C   UNL     1      10.459  22.716  36.757  1.00  0.00     0.202 C 
BRANCH  17  22
ATOM     22  C   UNL     1      13.310  25.560  37.040  1.00  0.00     0.191 C 
BRANCH  22  23
ATOM     23  O   UNL     1      14.066  25.639  35.868  1.00  0.00    -0.394 OA
ATOM     24  H   UNL     1      14.795  26.274  36.042  1.00  0.00     0.210 HD
ENDBRANCH  22  23
ENDBRANCH  17  22
BRANCH  19  25
ATOM     25  O   UNL     1       9.845  23.862  38.745  1.00  0.00    -0.350 OA
BRANCH  25  26
ATOM     26  C   UNL     1       8.831  23.058  39.250  1.00  0.00     0.169 C 
BRANCH  26  27
ATOM     27  C   UNL     1       7.568  23.900  39.233  1.00  0.00     0.119 C 
BRANCH  27  28
ATOM     28  N   UNL     1       6.421  23.141  38.812  1.00  0.00    -0.092 NA
ATOM     29  N   UNL     1       5.616  22.757  39.669  1.00  0.00     0.001 N 
ATOM     30  N   UNL     1       4.587  22.502  40.297  1.00  0.00    -0.003 NA
ENDBRANCH  27  28
ENDBRANCH  26  27
ENDBRANCH  25  26
ENDBRANCH  19  25
BRANCH  20  31
ATOM     31  O   UNL     1       8.839  24.236  36.007  1.00  0.00    -0.387 OA
ATOM     32  H   UNL     1       8.684  24.943  36.671  1.00  0.00     0.211 HD
ENDBRANCH  20  31
BRANCH  21  33
ATOM     33  O   UNL     1      11.363  21.807  36.205  1.00  0.00    -0.385 OA
ATOM     34  H   UNL     1      11.962  22.358  35.612  1.00  0.00     0.211 HD
ENDBRANCH  21  33
ENDBRANCH  15  16
ENDBRANCH  10  15
BRANCH  12  35
ATOM     35  O   UNL     1      11.178  29.667  35.483  1.00  0.00    -0.385 OA
ATOM     36  H   UNL     1      11.210  30.389  34.786  1.00  0.00     0.211 HD
ENDBRANCH  12  35
BRANCH  13  37
ATOM     37  O   UNL     1      10.850  28.188  32.444  1.00  0.00    -0.387 OA
ATOM     38  H   UNL     1      11.006  27.216  32.405  1.00  0.00     0.211 HD
ENDBRANCH  13  37
BRANCH  14  39
ATOM     39  O   UNL     1       9.364  26.286  33.554  1.00  0.00    -0.387 OA
ATOM     40  H   UNL     1       8.498  25.822  33.360  1.00  0.00     0.211 HD
ENDBRANCH  14  39
ENDBRANCH   8   9
ENDBRANCH   7   8
ENDBRANCH   1   7
BRANCH   1  41
ATOM     41  C   UNL     1       4.495  28.030  35.065  1.00  0.00     0.364 C 
ATOM     42  O   UNL     1       4.241  28.991  34.316  1.00  0.00    -0.246 OA
BRANCH  41  43
ATOM     43  O   UNL     1       4.087  28.150  36.391  1.00  0.00    -0.477 OA
ATOM     44  H   UNL     1       3.388  28.827  36.661  1.00  0.00     0.296 HD
ENDBRANCH  41  43
ENDBRANCH   1  41
BRANCH   3  45
ATOM     45  O   UNL     1       6.173  23.839  35.947  1.00  0.00    -0.391 OA
ATOM     46  H   UNL     1       5.775  23.489  36.782  1.00  0.00     0.211 HD
ENDBRANCH   3  45
BRANCH   5  47
ATOM     47  C   UNL     1       4.443  25.096  31.525  1.00  0.00     0.176 C 
BRANCH  47  48
ATOM     48  O   UNL     1       5.445  25.984  31.064  1.00  0.00    -0.388 OA
ATOM     49  H   UNL     1       5.905  25.653  30.277  1.00  0.00     0.211 HD
ENDBRANCH  47  48
BRANCH  47  50
ATOM     50  C   UNL     1       3.168  25.561  30.903  1.00  0.00     0.165 C 
BRANCH  50  51
ATOM     51  O   UNL     1       2.087  25.216  31.717  1.00  0.00    -0.388 OA
ATOM     52  H   UNL     1       1.667  26.050  32.052  1.00  0.00     0.211 HD
ENDBRANCH  50  51
BRANCH  50  53
ATOM     53  C   UNL     1       2.940  25.131  29.497  1.00  0.00     0.154 C 
BRANCH  53  54
ATOM     54  N   UNL     1       3.646  25.963  28.549  1.00  0.00    -0.319 N 
ATOM     55  C   UNL     1       3.953  25.580  27.223  1.00  0.00     0.407 C 
ATOM     56  H   UNL     1       3.978  26.940  28.814  1.00  0.00     0.167 HD
ATOM     57  O   UNL     1       3.609  24.458  26.803  1.00  0.00    -0.225 OA
BRANCH  55  58
ATOM     58  O   UNL     1       4.636  26.407  26.340  1.00  0.00    -0.443 OA
BRANCH  58  59
ATOM     59  C   UNL     1       4.549  27.835  26.409  1.00  0.00     0.294 C 
BRANCH  59  60
ATOM     60  C   UNL     1       5.591  28.351  25.486  1.00  0.00     0.121 A 
ATOM     61  C   UNL     1       6.926  28.494  25.745  1.00  0.00     0.144 A 
ATOM     62  N   UNL     1       5.415  28.780  24.203  1.00  0.00    -0.131 NA
ATOM     63  N   UNL     1       7.538  28.995  24.652  1.00  0.00    -0.220 N 
ATOM     64  N   UNL     1       6.589  29.157  23.733  1.00  0.00    -0.062 NA
BRANCH  63  65
ATOM     65  C   UNL     1       8.924  29.280  24.534  1.00  0.00     0.067 A 
ATOM     66  C   UNL     1       9.385  30.487  24.066  1.00  0.00     0.039 A 
ATOM     67  C   UNL     1       9.829  28.317  24.905  1.00  0.00     0.029 A 
ATOM     68  C   UNL     1      10.738  30.715  23.975  1.00  0.00     0.007 A 
ATOM     69  C   UNL     1      11.185  28.548  24.813  1.00  0.00     0.012 A 
ATOM     70  C   UNL     1      11.670  29.748  24.347  1.00  0.00    -0.008 A 
BRANCH  68  71
ATOM     71  C   UNL     1      11.264  31.990  23.482  1.00  0.00     0.072 C 
ATOM     72  O   UNL     1      11.508  32.951  24.250  1.00  0.00    -0.545 OA
ATOM     73  O   UNL     1      11.499  32.143  22.137  1.00  0.00    -0.545 OA
ENDBRANCH  68  71
BRANCH  70  74
ATOM     74  C   UNL     1      13.096  30.003  24.250  1.00  0.00     0.004 A 
ATOM     75  C   UNL     1      13.753  29.665  23.093  1.00  0.00     0.026 A 
ATOM     76  C   UNL     1      13.809  30.567  25.276  1.00  0.00     0.026 A 
ATOM     77  C   UNL     1      13.119  29.095  22.014  1.00  0.00     0.016 A 
ATOM     78  C   UNL     1      15.119  29.912  23.017  1.00  0.00     0.139 A 
ATOM     79  C   UNL     1      15.262  30.811  25.147  1.00  0.00     0.139 A 
ATOM     80  C   UNL     1      13.221  30.931  26.461  1.00  0.00     0.016 A 
ATOM     81  C   UNL     1      13.791  28.758  20.853  1.00  0.00     0.047 A 
ATOM     82  C   UNL     1      15.779  29.575  21.861  1.00  0.00     0.093 A 
ATOM     83  O   UNL     1      15.798  30.455  24.008  1.00  0.00    -0.456 OA
ATOM     84  C   UNL     1      15.971  31.376  26.176  1.00  0.00     0.099 A 
ATOM     85  C   UNL     1      13.950  31.500  27.490  1.00  0.00     0.053 A 
ATOM     86  C   UNL     1      15.145  29.000  20.769  1.00  0.00     0.119 A 
ATOM     87  C   UNL     1      15.307  31.712  27.332  1.00  0.00     0.182 A 
ATOM     88  O   UNL     1      15.915  32.234  28.305  1.00  0.00    -0.290 OA
BRANCH  86  89
ATOM     89  O   UNL     1      15.811  28.660  19.601  1.00  0.00    -0.508 OA
ATOM     90  H   UNL     1      16.167  27.709  19.541  1.00  0.00     0.293 HD
ENDBRANCH  86  89
ENDBRANCH  70  74
ENDBRANCH  63  65
ENDBRANCH  59  60
ENDBRANCH  58  59
ENDBRANCH  55  58
ENDBRANCH  53  54
ENDBRANCH  50  53
ENDBRANCH  47  50
ENDBRANCH   5  47
BRANCH   4  91
ATOM     91  N   UNL     1       5.508  23.039  33.100  1.00  0.00    -0.348 N 
ATOM     92  C   UNL     1       6.759  22.396  33.013  1.00  0.00     0.217 C 
ATOM     93  H   UNL     1       4.670  22.535  32.735  1.00  0.00     0.163 HD
ATOM     94  C   UNL     1       6.940  21.044  32.428  1.00  0.00     0.114 C 
ATOM     95  O   UNL     1       7.825  22.959  33.442  1.00  0.00    -0.275 OA
ENDBRANCH   4  91
TORSDOF 33
