REMARK VINA RESULT:    -6.468     17.885     21.022
REMARK INTER + INTRA:         -21.047
REMARK INTER:                 -13.233
REMARK INTRA:                  -7.815
REMARK UNBOUND:                -4.749
REMARK SMILES CC(=O)N[C@@H]1[C@@H](O)C[C@](OC[C@H]2O[C@@H](O[C@H]3[C@H](O)[C@@H](O)[C@H](OCCN=[N+]=[N-])O[C@@H]3CO)[C@H](O)[C@@H](O)[C@H]2O)(C(=O)O)O[C@H]1C(O)[C@H](O)CNC(=O)OCc1cn(-c2ccccc2C(C)=O)nn1
REMARK SMILES IDX 9 1 8 2 6 3 5 4 42 5 41 6 10 7 11 8 12 9 14 10 13 11 32 12
REMARK SMILES IDX 34 13 36 14 15 15 16 16 29 17 28 18 21 19 17 20 19 21 30 22
REMARK SMILES IDX 31 23 22 25 23 26 24 27 25 28 26 29 27 30 18 31 20 33 33 35
REMARK SMILES IDX 35 37 37 39 38 41 39 42 40 43 7 45 43 47 44 48 45 50 46 51
REMARK SMILES IDX 47 53 48 54 49 55 50 57 51 58 52 59 53 60 54 61 66 62 55 63
REMARK SMILES IDX 65 64 56 65 61 66 57 67 60 68 58 69 59 70 62 71 64 72 63 73
REMARK SMILES IDX 4 74 2 75 1 77 3 78
REMARK H PARENT 31 24 18 32 20 34 33 36 35 38 37 40 40 44 7 46 44 49 46 52
REMARK H PARENT 48 56 4 76
REMARK Flexibility Score: inf
ROOT
ATOM      1  C   UNL     1       1.180  22.257  27.859  1.00  0.00     0.272 C 
ATOM      2  C   UNL     1       0.066  21.375  28.344  1.00  0.00     0.113 C 
ATOM      3  C   UNL     1       0.672  20.256  29.150  1.00  0.00     0.145 C 
ATOM      4  C   UNL     1       1.242  20.938  30.382  1.00  0.00     0.142 C 
ATOM      5  C   UNL     1       2.363  21.804  29.872  1.00  0.00     0.178 C 
ATOM      6  O   UNL     1       2.396  22.063  28.553  1.00  0.00    -0.332 OA
ENDROOT
BRANCH   1   7
ATOM      7  O   UNL     1       0.973  23.549  27.824  1.00  0.00    -0.338 OA
BRANCH   7   8
ATOM      8  C   UNL     1       1.014  24.459  26.903  1.00  0.00     0.199 C 
BRANCH   8   9
ATOM      9  C   UNL     1       2.079  25.473  26.716  1.00  0.00     0.179 C 
ATOM     10  C   UNL     1       3.413  26.893  27.965  1.00  0.00     0.282 C 
ATOM     11  O   UNL     1       2.536  25.824  28.025  1.00  0.00    -0.341 OA
ATOM     12  C   UNL     1       3.953  27.227  26.627  1.00  0.00     0.202 C 
ATOM     13  C   UNL     1       4.187  26.076  25.699  1.00  0.00     0.179 C 
ATOM     14  C   UNL     1       3.358  24.875  26.083  1.00  0.00     0.177 C 
BRANCH  10  15
ATOM     15  O   UNL     1       4.466  26.671  28.852  1.00  0.00    -0.341 OA
BRANCH  15  16
ATOM     16  C   UNL     1       4.273  27.334  30.062  1.00  0.00     0.184 C 
ATOM     17  C   UNL     1       4.543  28.801  29.835  1.00  0.00     0.178 C 
ATOM     18  O   UNL     1       5.581  29.308  30.572  1.00  0.00    -0.341 OA
ATOM     19  C   UNL     1       5.529  29.084  31.926  1.00  0.00     0.281 C 
ATOM     20  C   UNL     1       5.378  26.817  30.995  1.00  0.00     0.180 C 
ATOM     21  C   UNL     1       5.303  27.616  32.257  1.00  0.00     0.202 C 
BRANCH  17  22
ATOM     22  C   UNL     1       3.246  29.558  30.056  1.00  0.00     0.191 C 
BRANCH  22  23
ATOM     23  O   UNL     1       2.381  28.729  30.768  1.00  0.00    -0.394 OA
ATOM     24  H   UNL     1       2.792  28.260  31.516  1.00  0.00     0.210 HD
ENDBRANCH  22  23
ENDBRANCH  17  22
BRANCH  19  25
ATOM     25  O   UNL     1       4.654  29.900  32.615  1.00  0.00    -0.350 OA
BRANCH  25  26
ATOM     26  C   UNL     1       5.336  31.021  33.065  1.00  0.00     0.169 C 
BRANCH  26  27
ATOM     27  C   UNL     1       6.821  30.701  33.151  1.00  0.00     0.119 C 
BRANCH  27  28
ATOM     28  N   UNL     1       7.255  30.708  34.553  1.00  0.00    -0.092 NA
ATOM     29  N   UNL     1       7.217  29.625  35.136  1.00  0.00     0.001 N 
ATOM     30  N   UNL     1       7.126  28.657  35.870  1.00  0.00    -0.003 NA
ENDBRANCH  27  28
ENDBRANCH  26  27
ENDBRANCH  25  26
ENDBRANCH  19  25
BRANCH  20  31
ATOM     31  O   UNL     1       5.219  25.465  31.187  1.00  0.00    -0.387 OA
ATOM     32  H   UNL     1       5.713  24.926  30.494  1.00  0.00     0.211 HD
ENDBRANCH  20  31
BRANCH  21  33
ATOM     33  O   UNL     1       6.193  27.155  33.229  1.00  0.00    -0.385 OA
ATOM     34  H   UNL     1       7.008  27.745  33.230  1.00  0.00     0.211 HD
ENDBRANCH  21  33
ENDBRANCH  15  16
ENDBRANCH  10  15
BRANCH  12  35
ATOM     35  O   UNL     1       3.230  28.262  26.013  1.00  0.00    -0.385 OA
ATOM     36  H   UNL     1       2.584  27.908  25.352  1.00  0.00     0.211 HD
ENDBRANCH  12  35
BRANCH  13  37
ATOM     37  O   UNL     1       5.531  25.666  25.700  1.00  0.00    -0.387 OA
ATOM     38  H   UNL     1       5.535  24.737  26.051  1.00  0.00     0.211 HD
ENDBRANCH  13  37
BRANCH  14  39
ATOM     39  O   UNL     1       4.014  24.082  27.031  1.00  0.00    -0.387 OA
ATOM     40  H   UNL     1       3.385  23.563  27.595  1.00  0.00     0.211 HD
ENDBRANCH  14  39
ENDBRANCH   8   9
ENDBRANCH   7   8
ENDBRANCH   1   7
BRANCH   1  41
ATOM     41  C   UNL     1       1.540  21.698  26.525  1.00  0.00     0.364 C 
ATOM     42  O   UNL     1       0.627  21.270  25.737  1.00  0.00    -0.246 OA
BRANCH  41  43
ATOM     43  O   UNL     1       2.809  21.577  26.020  1.00  0.00    -0.477 OA
ATOM     44  H   UNL     1       3.501  20.954  26.416  1.00  0.00     0.296 HD
ENDBRANCH  41  43
ENDBRANCH   1  41
BRANCH   3  45
ATOM     45  O   UNL     1      -0.368  19.392  29.480  1.00  0.00    -0.391 OA
ATOM     46  H   UNL     1      -0.196  18.931  30.344  1.00  0.00     0.211 HD
ENDBRANCH   3  45
BRANCH   5  47
ATOM     47  C   UNL     1       2.472  23.085  30.761  1.00  0.00     0.176 C 
BRANCH  47  48
ATOM     48  O   UNL     1       3.246  23.983  29.932  1.00  0.00    -0.388 OA
ATOM     49  H   UNL     1       2.644  24.788  29.888  1.00  0.00     0.211 HD
ENDBRANCH  47  48
BRANCH  47  50
ATOM     50  C   UNL     1       3.276  22.836  31.967  1.00  0.00     0.165 C 
BRANCH  50  51
ATOM     51  O   UNL     1       3.224  23.925  32.872  1.00  0.00    -0.388 OA
ATOM     52  H   UNL     1       3.250  24.784  32.396  1.00  0.00     0.211 HD
ENDBRANCH  50  51
BRANCH  50  53
ATOM     53  C   UNL     1       4.521  22.071  31.953  1.00  0.00     0.154 C 
BRANCH  53  54
ATOM     54  N   UNL     1       5.694  22.738  32.384  1.00  0.00    -0.319 N 
ATOM     55  C   UNL     1       6.871  22.179  32.931  1.00  0.00     0.407 C 
ATOM     56  H   UNL     1       5.732  23.806  32.297  1.00  0.00     0.167 HD
ATOM     57  O   UNL     1       6.923  20.938  33.092  1.00  0.00    -0.225 OA
BRANCH  55  58
ATOM     58  O   UNL     1       7.983  22.921  33.304  1.00  0.00    -0.443 OA
BRANCH  58  59
ATOM     59  C   UNL     1       8.118  23.398  34.618  1.00  0.00     0.294 C 
BRANCH  59  60
ATOM     60  C   UNL     1       9.203  24.439  34.604  1.00  0.00     0.121 A 
ATOM     61  C   UNL     1       9.045  25.804  34.639  1.00  0.00     0.144 A 
ATOM     62  N   UNL     1      10.528  24.250  34.552  1.00  0.00    -0.131 NA
ATOM     63  N   UNL     1      10.289  26.384  34.604  1.00  0.00    -0.220 N 
ATOM     64  N   UNL     1      11.161  25.401  34.552  1.00  0.00    -0.062 NA
BRANCH  63  65
ATOM     65  C   UNL     1      10.508  27.789  34.586  1.00  0.00     0.077 A 
ATOM     66  C   UNL     1      10.845  28.556  35.642  1.00  0.00     0.043 A 
ATOM     67  C   UNL     1      10.356  28.397  33.324  1.00  0.00     0.029 A 
ATOM     68  C   UNL     1      11.027  29.938  35.422  1.00  0.00     0.014 A 
ATOM     69  C   UNL     1      10.540  29.750  33.139  1.00  0.00     0.002 A 
ATOM     70  C   UNL     1      10.884  30.543  34.206  1.00  0.00     0.001 A 
BRANCH  66  71
ATOM     71  C   UNL     1      11.017  28.020  36.972  1.00  0.00     0.161 C 
ATOM     72  O   UNL     1       9.978  28.111  37.733  1.00  0.00    -0.294 OA
ATOM     73  C   UNL     1      12.198  27.392  37.567  1.00  0.00     0.093 C 
ENDBRANCH  66  71
ENDBRANCH  63  65
ENDBRANCH  59  60
ENDBRANCH  58  59
ENDBRANCH  55  58
ENDBRANCH  53  54
ENDBRANCH  50  53
ENDBRANCH  47  50
ENDBRANCH   5  47
BRANCH   4  74
ATOM     74  N   UNL     1       1.660  20.000  31.380  1.00  0.00    -0.348 N 
ATOM     75  C   UNL     1       0.860  19.623  32.487  1.00  0.00     0.217 C 
ATOM     76  H   UNL     1       2.620  19.581  31.265  1.00  0.00     0.163 HD
ATOM     77  C   UNL     1       1.398  18.626  33.477  1.00  0.00     0.114 C 
ATOM     78  O   UNL     1      -0.272  20.140  32.591  1.00  0.00    -0.275 OA
ENDBRANCH   4  74
TORSDOF 31
