REMARK VINA RESULT:    -6.085      1.905      2.847
REMARK INTER + INTRA:         -23.216
REMARK INTER:                 -16.182
REMARK INTRA:                  -7.034
REMARK UNBOUND:                -6.283
REMARK SMILES CC(=O)N[C@@H]1[C@@H](O)C[C@](OC[C@H]2O[C@@H](O[C@H]3[C@H](O)[C@@H](O)[C@H](OCCN=[N+]=[N-])O[C@@H]3CO)[C@H](O)[C@@H](O)[C@H]2O)(C(=O)O)O[C@H]1C(O)[C@H](O)CNC(=O)OCc1cn(C[C@H](CC(=O)O)CC(C)C)nn1
REMARK SMILES IDX 43 1 42 2 9 3 8 4 41 5 6 6 5 7 10 8 11 9 12 10 14 11 13 12
REMARK SMILES IDX 32 13 34 14 36 15 15 16 16 17 29 18 28 19 21 20 17 21 19 22
REMARK SMILES IDX 30 23 31 24 22 26 23 27 24 28 25 29 26 30 27 31 18 32 20 34
REMARK SMILES IDX 33 36 35 38 37 40 38 42 39 43 40 44 7 46 4 48 2 49 1 51 3 52
REMARK SMILES IDX 44 53 45 55 46 56 47 58 48 59 49 60 50 62 51 63 52 64 53 65
REMARK SMILES IDX 54 66 67 67 55 68 66 69 56 70 57 71 58 72 59 73 60 74 61 75
REMARK SMILES IDX 62 77 63 78 64 79 65 80
REMARK H PARENT 31 25 18 33 20 35 33 37 35 39 37 41 40 45 7 47 4 50 44 54
REMARK H PARENT 46 57 48 61 61 76
REMARK Flexibility Score: inf
ROOT
ATOM      1  C   UNL     1       2.732  20.536  31.783  1.00  0.00     0.176 C 
ENDROOT
BRANCH   1   2
ATOM      2  C   UNL     1       1.749  19.716  32.572  1.00  0.00     0.178 C 
ATOM      3  C   UNL     1       1.117  20.434  34.784  1.00  0.00     0.272 C 
ATOM      4  C   UNL     1       2.078  19.478  35.393  1.00  0.00     0.113 C 
ATOM      5  O   UNL     1       1.200  20.567  33.476  1.00  0.00    -0.332 OA
ATOM      6  C   UNL     1       3.051  18.821  34.500  1.00  0.00     0.145 C 
ATOM      7  C   UNL     1       2.474  18.533  33.113  1.00  0.00     0.142 C 
BRANCH   3   8
ATOM      8  O   UNL     1       1.286  21.713  35.382  1.00  0.00    -0.338 OA
BRANCH   8   9
ATOM      9  C   UNL     1       0.319  22.618  35.074  1.00  0.00     0.199 C 
BRANCH   9  10
ATOM     10  C   UNL     1       0.949  23.862  34.408  1.00  0.00     0.179 C 
ATOM     11  C   UNL     1       2.965  24.663  33.583  1.00  0.00     0.282 C 
ATOM     12  O   UNL     1       2.177  23.556  33.859  1.00  0.00    -0.341 OA
ATOM     13  C   UNL     1       2.007  25.782  33.145  1.00  0.00     0.202 C 
ATOM     14  C   UNL     1       0.844  25.200  32.370  1.00  0.00     0.179 C 
ATOM     15  C   UNL     1       0.041  24.305  33.252  1.00  0.00     0.177 C 
BRANCH  11  16
ATOM     16  O   UNL     1       3.730  24.395  32.475  1.00  0.00    -0.341 OA
BRANCH  16  17
ATOM     17  C   UNL     1       5.069  24.202  32.687  1.00  0.00     0.184 C 
ATOM     18  C   UNL     1       5.407  22.964  33.464  1.00  0.00     0.178 C 
ATOM     19  O   UNL     1       5.985  23.176  34.681  1.00  0.00    -0.341 OA
ATOM     20  C   UNL     1       7.134  23.943  34.668  1.00  0.00     0.281 C 
ATOM     21  C   UNL     1       5.576  25.390  33.477  1.00  0.00     0.180 C 
ATOM     22  C   UNL     1       7.058  25.143  33.790  1.00  0.00     0.202 C 
BRANCH  18  23
ATOM     23  C   UNL     1       6.229  22.061  32.561  1.00  0.00     0.191 C 
BRANCH  23  24
ATOM     24  O   UNL     1       6.460  20.824  33.155  1.00  0.00    -0.394 OA
ATOM     25  H   UNL     1       7.429  20.656  33.313  1.00  0.00     0.210 HD
ENDBRANCH  23  24
ENDBRANCH  18  23
BRANCH  20  26
ATOM     26  O   UNL     1       8.202  23.100  34.401  1.00  0.00    -0.350 OA
BRANCH  26  27
ATOM     27  C   UNL     1       9.389  23.524  34.974  1.00  0.00     0.169 C 
BRANCH  27  28
ATOM     28  C   UNL     1       9.155  23.587  36.478  1.00  0.00     0.119 C 
BRANCH  28  29
ATOM     29  N   UNL     1      10.102  22.650  37.066  1.00  0.00    -0.092 NA
ATOM     30  N   UNL     1       9.889  22.234  38.180  1.00  0.00     0.001 N 
ATOM     31  N   UNL     1      10.001  21.779  39.327  1.00  0.00    -0.003 NA
ENDBRANCH  28  29
ENDBRANCH  27  28
ENDBRANCH  26  27
ENDBRANCH  20  26
BRANCH  21  32
ATOM     32  O   UNL     1       5.393  26.557  32.758  1.00  0.00    -0.387 OA
ATOM     33  H   UNL     1       6.310  26.883  32.495  1.00  0.00     0.211 HD
ENDBRANCH  21  32
BRANCH  22  34
ATOM     34  O   UNL     1       7.489  26.321  34.436  1.00  0.00    -0.385 OA
ATOM     35  H   UNL     1       8.450  26.222  34.606  1.00  0.00     0.211 HD
ENDBRANCH  22  34
ENDBRANCH  16  17
ENDBRANCH  11  16
BRANCH  13  36
ATOM     36  O   UNL     1       1.635  26.603  34.181  1.00  0.00    -0.385 OA
ATOM     37  H   UNL     1       2.293  26.687  34.893  1.00  0.00     0.211 HD
ENDBRANCH  13  36
BRANCH  14  38
ATOM     38  O   UNL     1       1.425  24.428  31.344  1.00  0.00    -0.387 OA
ATOM     39  H   UNL     1       1.219  24.771  30.461  1.00  0.00     0.211 HD
ENDBRANCH  14  38
BRANCH  15  40
ATOM     40  O   UNL     1      -0.328  23.179  32.486  1.00  0.00    -0.387 OA
ATOM     41  H   UNL     1       0.305  23.024  31.767  1.00  0.00     0.211 HD
ENDBRANCH  15  40
ENDBRANCH   9  10
ENDBRANCH   8   9
ENDBRANCH   3   8
BRANCH   3  42
ATOM     42  C   UNL     1      -0.294  20.068  35.205  1.00  0.00     0.364 C 
ATOM     43  O   UNL     1      -0.584  19.964  36.403  1.00  0.00    -0.246 OA
BRANCH  42  44
ATOM     44  O   UNL     1      -1.260  19.847  34.266  1.00  0.00    -0.477 OA
ATOM     45  H   UNL     1      -1.487  20.515  33.531  1.00  0.00     0.296 HD
ENDBRANCH  42  44
ENDBRANCH   3  42
BRANCH   6  46
ATOM     46  O   UNL     1       4.283  19.424  34.367  1.00  0.00    -0.391 OA
ATOM     47  H   UNL     1       4.333  19.769  33.441  1.00  0.00     0.211 HD
ENDBRANCH   6  46
BRANCH   7  48
ATOM     48  N   UNL     1       1.700  17.330  33.263  1.00  0.00    -0.348 N 
ATOM     49  C   UNL     1       1.877  16.280  32.285  1.00  0.00     0.217 C 
ATOM     50  H   UNL     1       1.006  17.136  34.018  1.00  0.00     0.163 HD
ATOM     51  C   UNL     1       1.070  15.021  32.448  1.00  0.00     0.114 C 
ATOM     52  O   UNL     1       2.672  16.389  31.320  1.00  0.00    -0.275 OA
ENDBRANCH   7  48
ENDBRANCH   1   2
BRANCH   1  53
ATOM     53  O   UNL     1       2.171  21.832  31.579  1.00  0.00    -0.388 OA
ATOM     54  H   UNL     1       2.782  22.513  31.964  1.00  0.00     0.211 HD
ENDBRANCH   1  53
BRANCH   1  55
ATOM     55  C   UNL     1       3.053  20.066  30.382  1.00  0.00     0.165 C 
BRANCH  55  56
ATOM     56  O   UNL     1       4.215  20.899  30.077  1.00  0.00    -0.388 OA
ATOM     57  H   UNL     1       3.887  21.809  30.369  1.00  0.00     0.211 HD
ENDBRANCH  55  56
BRANCH  55  58
ATOM     58  C   UNL     1       2.057  20.525  29.374  1.00  0.00     0.154 C 
BRANCH  58  59
ATOM     59  N   UNL     1       2.572  21.532  28.515  1.00  0.00    -0.319 N 
ATOM     60  C   UNL     1       1.802  22.751  28.426  1.00  0.00     0.407 C 
ATOM     61  H   UNL     1       3.430  21.507  27.935  1.00  0.00     0.167 HD
ATOM     62  O   UNL     1       0.738  22.869  29.099  1.00  0.00    -0.225 OA
BRANCH  60  63
ATOM     63  O   UNL     1       2.158  23.817  27.631  1.00  0.00    -0.443 OA
BRANCH  63  64
ATOM     64  C   UNL     1       2.853  24.969  28.061  1.00  0.00     0.294 C 
BRANCH  64  65
ATOM     65  C   UNL     1       3.688  25.581  26.989  1.00  0.00     0.120 A 
ATOM     66  C   UNL     1       3.941  26.912  26.750  1.00  0.00     0.138 A 
ATOM     67  N   UNL     1       4.351  24.889  26.057  1.00  0.00    -0.132 NA
ATOM     68  N   UNL     1       4.764  27.001  25.660  1.00  0.00    -0.252 N 
ATOM     69  N   UNL     1       4.976  25.761  25.286  1.00  0.00    -0.067 NA
BRANCH  68  70
ATOM     70  C   UNL     1       5.256  28.181  25.049  1.00  0.00     0.150 C 
BRANCH  70  71
ATOM     71  C   UNL     1       6.622  28.574  25.421  1.00  0.00     0.022 C 
BRANCH  71  72
ATOM     72  C   UNL     1       7.521  27.509  25.931  1.00  0.00     0.128 C 
BRANCH  72  73
ATOM     73  C   UNL     1       8.357  26.812  24.946  1.00  0.00     0.303 C 
ATOM     74  O   UNL     1       9.610  26.853  25.062  1.00  0.00    -0.252 OA
BRANCH  73  75
ATOM     75  O   UNL     1       7.845  26.094  23.873  1.00  0.00    -0.481 OA
ATOM     76  H   UNL     1       6.949  25.635  23.948  1.00  0.00     0.296 HD
ENDBRANCH  73  75
ENDBRANCH  72  73
ENDBRANCH  71  72
BRANCH  71  77
ATOM     77  C   UNL     1       6.719  29.850  26.208  1.00  0.00     0.009 C 
BRANCH  77  78
ATOM     78  C   UNL     1       5.596  30.270  27.044  1.00  0.00    -0.017 C 
ATOM     79  C   UNL     1       5.531  29.804  28.453  1.00  0.00     0.007 C 
ATOM     80  C   UNL     1       5.328  31.764  27.031  1.00  0.00     0.007 C 
ENDBRANCH  77  78
ENDBRANCH  71  77
ENDBRANCH  70  71
ENDBRANCH  68  70
ENDBRANCH  64  65
ENDBRANCH  63  64
ENDBRANCH  60  63
ENDBRANCH  58  59
ENDBRANCH  55  58
ENDBRANCH   1  55
TORSDOF 36
