REMARK VINA RESULT:    -6.295      9.880     14.862
REMARK INTER + INTRA:         -21.214
REMARK INTER:                 -14.209
REMARK INTRA:                  -7.005
REMARK UNBOUND:                -5.351
REMARK SMILES CC(=O)N[C@@H]1[C@@H](O)C[C@](OC[C@H]2O[C@@H](O[C@H]3[C@H](O)[C@@H](O)[C@H](OCCN=[N+]=[N-])O[C@@H]3CO)[C@H](O)[C@@H](O)[C@H]2O)(C(=O)O)O[C@H]1C(O)[C@H](O)CNC(=O)OCc1cn(-c2ccc([N+](=O)[O-])cc2)nn1
REMARK SMILES IDX 9 1 8 2 6 3 5 4 42 5 41 6 10 7 11 8 12 9 14 10 13 11 32 12
REMARK SMILES IDX 34 13 36 14 15 15 16 16 29 17 28 18 21 19 17 20 19 21 30 22
REMARK SMILES IDX 31 23 22 25 23 26 24 27 25 28 26 29 27 30 18 31 20 33 33 35
REMARK SMILES IDX 35 37 37 39 38 41 39 42 40 43 7 45 43 47 44 48 45 50 46 51
REMARK SMILES IDX 47 53 48 54 49 55 50 57 51 58 52 59 53 60 54 61 66 62 55 63
REMARK SMILES IDX 65 64 56 65 57 66 64 67 58 68 63 69 59 70 60 71 61 72 62 73
REMARK SMILES IDX 4 74 2 75 1 77 3 78
REMARK H PARENT 31 24 18 32 20 34 33 36 35 38 37 40 40 44 7 46 44 49 46 52
REMARK H PARENT 48 56 4 76
REMARK Flexibility Score: inf
ROOT
ATOM      1  C   UNL     1      17.677  29.281  18.353  1.00  0.00     0.272 C 
ATOM      2  C   UNL     1      16.606  28.251  18.208  1.00  0.00     0.113 C 
ATOM      3  C   UNL     1      15.500  28.532  19.132  1.00  0.00     0.145 C 
ATOM      4  C   UNL     1      15.793  29.570  20.231  1.00  0.00     0.142 C 
ATOM      5  C   UNL     1      17.180  29.434  20.653  1.00  0.00     0.178 C 
ATOM      6  O   UNL     1      18.135  29.248  19.659  1.00  0.00    -0.332 OA
ENDROOT
BRANCH   1   7
ATOM      7  O   UNL     1      17.364  30.527  17.906  1.00  0.00    -0.338 OA
BRANCH   7   8
ATOM      8  C   UNL     1      16.961  30.635  16.614  1.00  0.00     0.199 C 
BRANCH   8   9
ATOM      9  C   UNL     1      16.446  32.034  16.298  1.00  0.00     0.179 C 
ATOM     10  C   UNL     1      14.308  32.269  17.217  1.00  0.00     0.282 C 
ATOM     11  O   UNL     1      15.089  32.085  16.119  1.00  0.00    -0.341 OA
ATOM     12  C   UNL     1      14.959  32.460  18.526  1.00  0.00     0.202 C 
ATOM     13  C   UNL     1      16.195  33.312  18.410  1.00  0.00     0.179 C 
ATOM     14  C   UNL     1      16.988  33.110  17.169  1.00  0.00     0.177 C 
BRANCH  10  15
ATOM     15  O   UNL     1      13.331  31.279  17.204  1.00  0.00    -0.341 OA
BRANCH  15  16
ATOM     16  C   UNL     1      12.564  31.177  16.092  1.00  0.00     0.184 C 
ATOM     17  C   UNL     1      11.094  31.450  16.324  1.00  0.00     0.178 C 
ATOM     18  O   UNL     1      10.413  31.251  15.106  1.00  0.00    -0.341 OA
ATOM     19  C   UNL     1      10.348  29.883  14.841  1.00  0.00     0.281 C 
ATOM     20  C   UNL     1      12.609  29.695  15.672  1.00  0.00     0.180 C 
ATOM     21  C   UNL     1      11.774  29.505  14.421  1.00  0.00     0.202 C 
BRANCH  17  22
ATOM     22  C   UNL     1      10.785  32.862  16.745  1.00  0.00     0.191 C 
BRANCH  22  23
ATOM     23  O   UNL     1      11.130  32.922  18.118  1.00  0.00    -0.394 OA
ATOM     24  H   UNL     1      11.622  32.103  18.388  1.00  0.00     0.210 HD
ENDBRANCH  22  23
ENDBRANCH  17  22
BRANCH  19  25
ATOM     25  O   UNL     1       9.507  29.637  13.787  1.00  0.00    -0.350 OA
BRANCH  25  26
ATOM     26  C   UNL     1       8.452  30.502  13.643  1.00  0.00     0.169 C 
BRANCH  26  27
ATOM     27  C   UNL     1       7.406  30.071  12.654  1.00  0.00     0.119 C 
BRANCH  27  28
ATOM     28  N   UNL     1       6.497  29.138  13.324  1.00  0.00    -0.092 NA
ATOM     29  N   UNL     1       5.987  29.455  14.388  1.00  0.00     0.001 N 
ATOM     30  N   UNL     1       5.318  29.888  15.313  1.00  0.00    -0.003 NA
ENDBRANCH  27  28
ENDBRANCH  26  27
ENDBRANCH  25  26
ENDBRANCH  19  25
BRANCH  20  31
ATOM     31  O   UNL     1      13.889  29.233  15.545  1.00  0.00    -0.387 OA
ATOM     32  H   UNL     1      14.594  29.892  15.701  1.00  0.00     0.211 HD
ENDBRANCH  20  31
BRANCH  21  33
ATOM     33  O   UNL     1      11.865  28.209  13.991  1.00  0.00    -0.385 OA
ATOM     34  H   UNL     1      11.421  27.620  14.647  1.00  0.00     0.211 HD
ENDBRANCH  21  33
ENDBRANCH  15  16
ENDBRANCH  10  15
BRANCH  12  35
ATOM     35  O   UNL     1      14.097  33.202  19.357  1.00  0.00    -0.385 OA
ATOM     36  H   UNL     1      14.392  33.197  20.286  1.00  0.00     0.211 HD
ENDBRANCH  12  35
BRANCH  13  37
ATOM     37  O   UNL     1      16.986  33.124  19.570  1.00  0.00    -0.387 OA
ATOM     38  H   UNL     1      17.012  33.973  20.043  1.00  0.00     0.211 HD
ENDBRANCH  13  37
BRANCH  14  39
ATOM     39  O   UNL     1      18.348  32.918  17.369  1.00  0.00    -0.387 OA
ATOM     40  H   UNL     1      18.467  31.977  17.675  1.00  0.00     0.211 HD
ENDBRANCH  14  39
ENDBRANCH   8   9
ENDBRANCH   7   8
ENDBRANCH   1   7
BRANCH   1  41
ATOM     41  C   UNL     1      18.886  28.794  17.581  1.00  0.00     0.364 C 
ATOM     42  O   UNL     1      18.864  27.682  17.019  1.00  0.00    -0.246 OA
BRANCH  41  43
ATOM     43  O   UNL     1      20.003  29.579  17.508  1.00  0.00    -0.477 OA
ATOM     44  H   UNL     1      20.112  30.481  17.964  1.00  0.00     0.296 HD
ENDBRANCH  41  43
ENDBRANCH   1  41
BRANCH   3  45
ATOM     45  O   UNL     1      14.381  29.003  18.450  1.00  0.00    -0.391 OA
ATOM     46  H   UNL     1      13.806  28.266  18.164  1.00  0.00     0.211 HD
ENDBRANCH   3  45
BRANCH   5  47
ATOM     47  C   UNL     1      17.818  30.361  21.592  1.00  0.00     0.176 C 
BRANCH  47  48
ATOM     48  O   UNL     1      17.851  29.965  22.932  1.00  0.00    -0.388 OA
ATOM     49  H   UNL     1      17.359  30.540  23.543  1.00  0.00     0.211 HD
ENDBRANCH  47  48
BRANCH  47  50
ATOM     50  C   UNL     1      19.169  30.932  21.306  1.00  0.00     0.165 C 
BRANCH  50  51
ATOM     51  O   UNL     1      19.381  31.407  20.049  1.00  0.00    -0.388 OA
ATOM     52  H   UNL     1      19.884  30.772  19.475  1.00  0.00     0.211 HD
ENDBRANCH  50  51
BRANCH  50  53
ATOM     53  C   UNL     1      20.289  30.157  21.948  1.00  0.00     0.154 C 
BRANCH  53  54
ATOM     54  N   UNL     1      20.394  28.783  21.534  1.00  0.00    -0.319 N 
ATOM     55  C   UNL     1      21.138  28.337  20.416  1.00  0.00     0.407 C 
ATOM     56  H   UNL     1      19.896  28.026  22.074  1.00  0.00     0.167 HD
ATOM     57  O   UNL     1      21.746  29.153  19.718  1.00  0.00    -0.225 OA
BRANCH  55  58
ATOM     58  O   UNL     1      21.206  26.986  20.070  1.00  0.00    -0.443 OA
BRANCH  58  59
ATOM     59  C   UNL     1      22.170  26.092  20.561  1.00  0.00     0.294 C 
BRANCH  59  60
ATOM     60  C   UNL     1      21.854  25.699  21.950  1.00  0.00     0.121 A 
ATOM     61  C   UNL     1      22.577  25.965  23.111  1.00  0.00     0.144 A 
ATOM     62  N   UNL     1      20.767  24.999  22.391  1.00  0.00    -0.131 NA
ATOM     63  N   UNL     1      21.934  25.443  24.172  1.00  0.00    -0.220 N 
ATOM     64  N   UNL     1      20.849  24.868  23.702  1.00  0.00    -0.062 NA
BRANCH  63  65
ATOM     65  C   UNL     1      22.335  25.507  25.545  1.00  0.00     0.067 A 
ATOM     66  C   UNL     1      22.401  24.412  26.373  1.00  0.00     0.035 A 
ATOM     67  C   UNL     1      22.671  26.735  26.096  1.00  0.00     0.035 A 
ATOM     68  C   UNL     1      22.787  24.531  27.707  1.00  0.00     0.088 A 
ATOM     69  C   UNL     1      23.054  26.857  27.415  1.00  0.00     0.088 A 
ATOM     70  C   UNL     1      23.121  25.760  28.247  1.00  0.00     0.269 A 
BRANCH  70  71
ATOM     71  N   UNL     1      23.512  25.870  29.611  1.00  0.00     0.062 N 
ATOM     72  O   UNL     1      24.535  25.353  30.087  1.00  0.00    -0.258 OA
ATOM     73  O   UNL     1      22.703  26.592  30.452  1.00  0.00    -0.258 OA
ENDBRANCH  70  71
ENDBRANCH  63  65
ENDBRANCH  59  60
ENDBRANCH  58  59
ENDBRANCH  55  58
ENDBRANCH  53  54
ENDBRANCH  50  53
ENDBRANCH  47  50
ENDBRANCH   5  47
BRANCH   4  74
ATOM     74  N   UNL     1      14.901  29.088  21.299  1.00  0.00    -0.348 N 
ATOM     75  C   UNL     1      13.634  29.647  21.537  1.00  0.00     0.217 C 
ATOM     76  H   UNL     1      15.237  28.300  21.878  1.00  0.00     0.163 HD
ATOM     77  C   UNL     1      12.809  29.086  22.649  1.00  0.00     0.114 C 
ATOM     78  O   UNL     1      13.178  30.582  20.862  1.00  0.00    -0.275 OA
ENDBRANCH   4  74
TORSDOF 31
