REMARK VINA RESULT:    -5.387     13.523     18.814
REMARK INTER + INTRA:         -21.530
REMARK INTER:                 -14.726
REMARK INTRA:                  -6.804
REMARK UNBOUND:                -7.010
REMARK SMILES CC(=O)N[C@@H]1[C@@H](O)C[C@](OC[C@H]2O[C@@H](O[C@H]3[C@H](O)[C@@H](O)[C@H](OCCN=[N+]=[N-])O[C@@H]3CO)[C@H](O)[C@@H](O)[C@H]2O)(C(=O)O)O[C@H]1C(O)[C@H](O)CNC(=O)OCc1cn([C@@H](CC(=O)O)C(=O)O)nn1
REMARK SMILES IDX 43 1 42 2 9 3 8 4 41 5 6 6 5 7 10 8 11 9 12 10 14 11 13 12
REMARK SMILES IDX 32 13 34 14 36 15 15 16 16 17 29 18 28 19 21 20 17 21 19 22
REMARK SMILES IDX 30 23 31 24 22 26 23 27 24 28 25 29 26 30 27 31 18 32 20 34
REMARK SMILES IDX 33 36 35 38 37 40 38 42 39 43 40 44 7 46 4 48 2 49 1 51 3 52
REMARK SMILES IDX 44 53 45 55 46 56 47 58 48 59 49 60 50 62 51 63 52 64 53 65
REMARK SMILES IDX 54 66 65 67 55 68 64 69 56 70 57 71 58 72 59 73 60 74 61 76
REMARK SMILES IDX 62 77 63 78
REMARK H PARENT 31 25 18 33 20 35 33 37 35 39 37 41 40 45 7 47 4 50 44 54
REMARK H PARENT 46 57 48 61 60 75 63 79
REMARK Flexibility Score: inf
ROOT
ATOM      1  C   UNL     1       2.671  20.057  31.863  1.00  0.00     0.176 C 
ENDROOT
BRANCH   1   2
ATOM      2  C   UNL     1       2.390  21.304  32.683  1.00  0.00     0.178 C 
ATOM      3  C   UNL     1       2.388  23.648  32.488  1.00  0.00     0.272 C 
ATOM      4  C   UNL     1       2.410  23.415  34.005  1.00  0.00     0.113 C 
ATOM      5  O   UNL     1       2.671  22.389  31.911  1.00  0.00    -0.332 OA
ATOM      6  C   UNL     1       3.663  22.594  34.270  1.00  0.00     0.145 C 
ATOM      7  C   UNL     1       3.215  21.158  33.949  1.00  0.00     0.142 C 
BRANCH   3   8
ATOM      8  O   UNL     1       3.215  24.522  32.144  1.00  0.00    -0.338 OA
BRANCH   8   9
ATOM      9  C   UNL     1       4.044  25.384  31.800  1.00  0.00     0.199 C 
BRANCH   9  10
ATOM     10  C   UNL     1       3.973  26.751  32.480  1.00  0.00     0.179 C 
ATOM     11  C   UNL     1       5.677  26.637  34.021  1.00  0.00     0.282 C 
ATOM     12  O   UNL     1       4.341  26.779  33.781  1.00  0.00    -0.341 OA
ATOM     13  C   UNL     1       6.502  27.632  33.301  1.00  0.00     0.202 C 
ATOM     14  C   UNL     1       5.515  28.636  32.683  1.00  0.00     0.179 C 
ATOM     15  C   UNL     1       4.700  27.820  31.698  1.00  0.00     0.177 C 
BRANCH  11  16
ATOM     16  O   UNL     1       6.155  25.337  34.045  1.00  0.00    -0.341 OA
BRANCH  16  17
ATOM     17  C   UNL     1       7.063  25.099  35.051  1.00  0.00     0.184 C 
ATOM     18  C   UNL     1       7.406  23.658  35.170  1.00  0.00     0.178 C 
ATOM     19  O   UNL     1       8.366  23.444  36.152  1.00  0.00    -0.341 OA
ATOM     20  C   UNL     1       8.219  24.260  37.278  1.00  0.00     0.281 C 
ATOM     21  C   UNL     1       6.395  25.573  36.340  1.00  0.00     0.180 C 
ATOM     22  C   UNL     1       6.752  24.640  37.453  1.00  0.00     0.202 C 
BRANCH  18  23
ATOM     23  C   UNL     1       8.060  23.232  33.857  1.00  0.00     0.191 C 
BRANCH  23  24
ATOM     24  O   UNL     1       9.079  24.155  33.545  1.00  0.00    -0.394 OA
ATOM     25  H   UNL     1       9.253  24.015  32.567  1.00  0.00     0.210 HD
ENDBRANCH  23  24
ENDBRANCH  18  23
BRANCH  20  26
ATOM     26  O   UNL     1       8.925  25.425  37.040  1.00  0.00    -0.350 OA
BRANCH  26  27
ATOM     27  C   UNL     1      10.243  25.423  37.375  1.00  0.00     0.169 C 
BRANCH  27  28
ATOM     28  C   UNL     1      11.105  25.591  36.160  1.00  0.00     0.119 C 
BRANCH  28  29
ATOM     29  N   UNL     1      12.125  24.541  36.179  1.00  0.00    -0.092 NA
ATOM     30  N   UNL     1      11.737  23.357  36.128  1.00  0.00     0.001 N 
ATOM     31  N   UNL     1      11.676  22.165  36.484  1.00  0.00    -0.003 NA
ENDBRANCH  28  29
ENDBRANCH  27  28
ENDBRANCH  26  27
ENDBRANCH  20  26
BRANCH  21  32
ATOM     32  O   UNL     1       6.824  26.858  36.647  1.00  0.00    -0.387 OA
ATOM     33  H   UNL     1       7.649  26.821  37.212  1.00  0.00     0.211 HD
ENDBRANCH  21  32
BRANCH  22  34
ATOM     34  O   UNL     1       5.951  23.498  37.516  1.00  0.00    -0.385 OA
ATOM     35  H   UNL     1       5.244  23.648  36.811  1.00  0.00     0.211 HD
ENDBRANCH  22  34
ENDBRANCH  16  17
ENDBRANCH  11  16
BRANCH  13  36
ATOM     36  O   UNL     1       7.327  28.390  34.134  1.00  0.00    -0.385 OA
ATOM     37  H   UNL     1       7.575  27.811  34.912  1.00  0.00     0.211 HD
ENDBRANCH  13  36
BRANCH  14  38
ATOM     38  O   UNL     1       6.141  29.696  32.076  1.00  0.00    -0.387 OA
ATOM     39  H   UNL     1       6.458  29.471  31.157  1.00  0.00     0.211 HD
ENDBRANCH  14  38
BRANCH  15  40
ATOM     40  O   UNL     1       5.537  27.294  30.740  1.00  0.00    -0.387 OA
ATOM     41  H   UNL     1       5.783  27.915  30.033  1.00  0.00     0.211 HD
ENDBRANCH  15  40
ENDBRANCH   9  10
ENDBRANCH   8   9
ENDBRANCH   3   8
BRANCH   3  42
ATOM     42  C   UNL     1       0.922  23.954  32.194  1.00  0.00     0.364 C 
ATOM     43  O   UNL     1       0.232  24.539  33.041  1.00  0.00    -0.246 OA
BRANCH  42  44
ATOM     44  O   UNL     1       0.343  23.589  30.994  1.00  0.00    -0.477 OA
ATOM     45  H   UNL     1       0.854  23.625  30.101  1.00  0.00     0.296 HD
ENDBRANCH  42  44
ENDBRANCH   3  42
BRANCH   6  46
ATOM     46  O   UNL     1       4.627  22.858  33.272  1.00  0.00    -0.391 OA
ATOM     47  H   UNL     1       5.468  22.398  33.430  1.00  0.00     0.211 HD
ENDBRANCH   6  46
BRANCH   7  48
ATOM     48  N   UNL     1       2.447  20.716  35.088  1.00  0.00    -0.348 N 
ATOM     49  C   UNL     1       2.895  19.608  35.870  1.00  0.00     0.217 C 
ATOM     50  H   UNL     1       1.553  21.173  35.383  1.00  0.00     0.163 HD
ATOM     51  C   UNL     1       2.050  19.196  37.041  1.00  0.00     0.114 C 
ATOM     52  O   UNL     1       3.959  18.990  35.600  1.00  0.00    -0.275 OA
ENDBRANCH   7  48
ENDBRANCH   1   2
BRANCH   1  53
ATOM     53  O   UNL     1       3.117  19.009  32.660  1.00  0.00    -0.388 OA
ATOM     54  H   UNL     1       2.360  18.531  33.104  1.00  0.00     0.211 HD
ENDBRANCH   1  53
BRANCH   1  55
ATOM     55  C   UNL     1       3.558  20.242  30.690  1.00  0.00     0.165 C 
BRANCH  55  56
ATOM     56  O   UNL     1       4.720  20.946  30.911  1.00  0.00    -0.388 OA
ATOM     57  H   UNL     1       5.349  20.951  30.141  1.00  0.00     0.211 HD
ENDBRANCH  55  56
BRANCH  55  58
ATOM     58  C   UNL     1       2.793  20.683  29.490  1.00  0.00     0.154 C 
BRANCH  58  59
ATOM     59  N   UNL     1       2.936  22.055  29.115  1.00  0.00    -0.319 N 
ATOM     60  C   UNL     1       2.359  22.511  27.906  1.00  0.00     0.407 C 
ATOM     61  H   UNL     1       3.449  22.723  29.706  1.00  0.00     0.167 HD
ATOM     62  O   UNL     1       1.711  21.666  27.196  1.00  0.00    -0.225 OA
BRANCH  60  63
ATOM     63  O   UNL     1       2.430  23.799  27.403  1.00  0.00    -0.443 OA
BRANCH  63  64
ATOM     64  C   UNL     1       2.238  24.916  28.286  1.00  0.00     0.294 C 
BRANCH  64  65
ATOM     65  C   UNL     1       3.264  25.941  27.982  1.00  0.00     0.120 A 
ATOM     66  C   UNL     1       4.340  25.891  27.124  1.00  0.00     0.139 A 
ATOM     67  N   UNL     1       3.336  27.188  28.555  1.00  0.00    -0.132 NA
ATOM     68  N   UNL     1       5.018  27.074  27.197  1.00  0.00    -0.237 N 
ATOM     69  N   UNL     1       4.376  27.804  28.062  1.00  0.00    -0.066 NA
BRANCH  68  70
ATOM     70  C   UNL     1       6.216  27.422  26.467  1.00  0.00     0.229 C 
BRANCH  70  71
ATOM     71  C   UNL     1       6.471  26.338  25.435  1.00  0.00     0.161 C 
BRANCH  71  72
ATOM     72  C   UNL     1       7.714  26.589  24.681  1.00  0.00     0.306 C 
ATOM     73  O   UNL     1       8.824  26.180  25.104  1.00  0.00    -0.252 OA
BRANCH  72  74
ATOM     74  O   UNL     1       7.679  27.280  23.490  1.00  0.00    -0.481 OA
ATOM     75  H   UNL     1       7.463  28.284  23.510  1.00  0.00     0.296 HD
ENDBRANCH  72  74
ENDBRANCH  71  72
ENDBRANCH  70  71
BRANCH  70  76
ATOM     76  C   UNL     1       6.005  28.711  25.785  1.00  0.00     0.329 C 
ATOM     77  O   UNL     1       5.221  28.760  24.810  1.00  0.00    -0.250 OA
BRANCH  76  78
ATOM     78  O   UNL     1       6.637  29.885  26.173  1.00  0.00    -0.480 OA
ATOM     79  H   UNL     1       7.471  29.815  26.749  1.00  0.00     0.296 HD
ENDBRANCH  76  78
ENDBRANCH  70  76
ENDBRANCH  68  70
ENDBRANCH  64  65
ENDBRANCH  63  64
ENDBRANCH  60  63
ENDBRANCH  58  59
ENDBRANCH  55  58
ENDBRANCH   1  55
TORSDOF 35
