REMARK VINA RESULT:    -4.621      7.322     13.559
REMARK INTER + INTRA:         -20.483
REMARK INTER:                 -14.592
REMARK INTRA:                  -5.891
REMARK UNBOUND:                -8.028
REMARK SMILES CCN(CC)CCn1cc(COC(=O)NC[C@@H](O)C(O)[C@@H]2O[C@@](OC[C@H]3O[C@@H](O[C@H]4[C@H](O)[C@@H](O)[C@H](OCCN=[N+]=[N-])O[C@@H]4CO)[C@H](O)[C@@H](O)[C@H]3O)(C(=O)O)C[C@H](O)[C@H]2NC(C)=O)nn1
REMARK SMILES IDX 19 1 21 2 23 3 55 4 22 5 56 6 58 7 24 8 25 9 26 10 28 11
REMARK SMILES IDX 27 12 46 13 48 14 50 15 29 16 30 17 43 18 42 19 35 20 31 21
REMARK SMILES IDX 33 22 44 23 45 24 36 26 37 27 38 28 39 29 40 30 41 31 32 32
REMARK SMILES IDX 34 34 47 36 49 38 51 40 52 42 53 43 54 44 57 46 59 48 60 49
REMARK SMILES IDX 61 51 62 52 20 53 17 55 18 56 16 58 15 59 13 60 14 62 12 63
REMARK SMILES IDX 11 64 10 65 9 66 63 67 8 68 64 69 7 70 6 71 3 72 2 73 1 74
REMARK SMILES IDX 4 75 5 76
REMARK H PARENT 45 25 32 33 34 35 47 37 49 39 51 41 54 45 57 47 59 50 20 54
REMARK H PARENT 18 57 15 61
REMARK Flexibility Score: inf
ROOT
ATOM      1  C   UNL     1      23.966  19.584  13.764  1.00  0.00     0.176 C 
ENDROOT
BRANCH   1   2
ATOM      2  C   UNL     1      24.078  21.015  13.308  1.00  0.00     0.178 C 
ATOM      3  C   UNL     1      24.640  23.142  13.983  1.00  0.00     0.272 C 
ATOM      4  C   UNL     1      24.446  23.337  12.472  1.00  0.00     0.113 C 
ATOM      5  O   UNL     1      24.560  21.809  14.321  1.00  0.00    -0.332 OA
ATOM      6  C   UNL     1      23.153  22.790  11.960  1.00  0.00     0.145 C 
ATOM      7  C   UNL     1      22.760  21.615  12.869  1.00  0.00     0.142 C 
BRANCH   3   8
ATOM      8  O   UNL     1      23.716  23.948  14.603  1.00  0.00    -0.338 OA
BRANCH   8   9
ATOM      9  C   UNL     1      23.595  23.798  15.963  1.00  0.00     0.199 C 
BRANCH   9  10
ATOM     10  C   UNL     1      23.044  25.078  16.617  1.00  0.00     0.179 C 
ATOM     11  C   UNL     1      22.819  25.678  18.880  1.00  0.00     0.282 C 
ATOM     12  O   UNL     1      22.684  24.736  17.871  1.00  0.00    -0.341 OA
ATOM     13  C   UNL     1      22.746  27.063  18.375  1.00  0.00     0.202 C 
ATOM     14  C   UNL     1      23.728  27.370  17.279  1.00  0.00     0.179 C 
ATOM     15  C   UNL     1      24.155  26.083  16.606  1.00  0.00     0.177 C 
BRANCH  11  16
ATOM     16  O   UNL     1      23.959  25.295  19.572  1.00  0.00    -0.341 OA
BRANCH  16  17
ATOM     17  C   UNL     1      23.874  25.409  20.915  1.00  0.00     0.184 C 
ATOM     18  C   UNL     1      25.118  25.990  21.537  1.00  0.00     0.178 C 
ATOM     19  O   UNL     1      24.866  26.164  22.929  1.00  0.00    -0.341 OA
ATOM     20  C   UNL     1      25.031  24.943  23.546  1.00  0.00     0.281 C 
ATOM     21  C   UNL     1      23.615  24.083  21.621  1.00  0.00     0.180 C 
ATOM     22  C   UNL     1      24.579  23.811  22.732  1.00  0.00     0.202 C 
BRANCH  18  23
ATOM     23  C   UNL     1      25.631  27.240  20.919  1.00  0.00     0.191 C 
BRANCH  23  24
ATOM     24  O   UNL     1      26.313  26.897  19.758  1.00  0.00    -0.394 OA
ATOM     25  H   UNL     1      25.856  26.206  19.216  1.00  0.00     0.210 HD
ENDBRANCH  23  24
ENDBRANCH  18  23
BRANCH  20  26
ATOM     26  O   UNL     1      24.550  24.952  24.852  1.00  0.00    -0.350 OA
BRANCH  26  27
ATOM     27  C   UNL     1      23.412  25.677  25.041  1.00  0.00     0.169 C 
BRANCH  27  28
ATOM     28  C   UNL     1      23.483  26.586  26.253  1.00  0.00     0.119 C 
BRANCH  28  29
ATOM     29  N   UNL     1      22.383  27.531  26.267  1.00  0.00    -0.092 NA
ATOM     30  N   UNL     1      21.237  27.229  25.913  1.00  0.00     0.001 N 
ATOM     31  N   UNL     1      20.278  27.071  25.155  1.00  0.00    -0.003 NA
ENDBRANCH  28  29
ENDBRANCH  27  28
ENDBRANCH  26  27
ENDBRANCH  20  26
BRANCH  21  32
ATOM     32  O   UNL     1      22.328  24.102  22.125  1.00  0.00    -0.387 OA
ATOM     33  H   UNL     1      21.954  23.217  22.308  1.00  0.00     0.211 HD
ENDBRANCH  21  32
BRANCH  22  34
ATOM     34  O   UNL     1      25.706  23.088  22.265  1.00  0.00    -0.385 OA
ATOM     35  H   UNL     1      26.204  23.715  21.680  1.00  0.00     0.211 HD
ENDBRANCH  22  34
ENDBRANCH  16  17
ENDBRANCH  11  16
BRANCH  13  36
ATOM     36  O   UNL     1      21.448  27.266  17.821  1.00  0.00    -0.385 OA
ATOM     37  H   UNL     1      20.959  27.947  18.317  1.00  0.00     0.211 HD
ENDBRANCH  13  36
BRANCH  14  38
ATOM     38  O   UNL     1      24.817  28.122  17.689  1.00  0.00    -0.387 OA
ATOM     39  H   UNL     1      24.572  28.916  18.192  1.00  0.00     0.211 HD
ENDBRANCH  14  38
BRANCH  15  40
ATOM     40  O   UNL     1      25.230  25.568  17.318  1.00  0.00    -0.387 OA
ATOM     41  H   UNL     1      25.457  26.170  18.084  1.00  0.00     0.211 HD
ENDBRANCH  15  40
ENDBRANCH   9  10
ENDBRANCH   8   9
ENDBRANCH   3   8
BRANCH   3  42
ATOM     42  C   UNL     1      26.022  23.621  14.239  1.00  0.00     0.364 C 
ATOM     43  O   UNL     1      26.330  24.848  14.053  1.00  0.00    -0.246 OA
BRANCH  42  44
ATOM     44  O   UNL     1      27.059  22.824  14.679  1.00  0.00    -0.477 OA
ATOM     45  H   UNL     1      27.428  22.944  15.616  1.00  0.00     0.296 HD
ENDBRANCH  42  44
ENDBRANCH   3  42
BRANCH   6  46
ATOM     46  O   UNL     1      22.145  23.710  11.808  1.00  0.00    -0.391 OA
ATOM     47  H   UNL     1      21.288  23.213  11.815  1.00  0.00     0.211 HD
ENDBRANCH   6  46
BRANCH   7  48
ATOM     48  N   UNL     1      21.881  20.711  12.208  1.00  0.00    -0.348 N 
ATOM     49  C   UNL     1      20.468  21.002  12.222  1.00  0.00     0.217 C 
ATOM     50  H   UNL     1      22.161  19.850  11.704  1.00  0.00     0.163 HD
ATOM     51  C   UNL     1      19.493  20.103  11.555  1.00  0.00     0.114 C 
ATOM     52  O   UNL     1      20.014  22.025  12.799  1.00  0.00    -0.275 OA
ENDBRANCH   7  48
ENDBRANCH   1   2
BRANCH   1  53
ATOM     53  O   UNL     1      22.792  19.448  14.493  1.00  0.00    -0.388 OA
ATOM     54  H   UNL     1      22.062  19.115  13.882  1.00  0.00     0.211 HD
ENDBRANCH   1  53
BRANCH   1  55
ATOM     55  C   UNL     1      23.874  18.737  12.521  1.00  0.00     0.165 C 
BRANCH  55  56
ATOM     56  O   UNL     1      22.718  17.951  12.587  1.00  0.00    -0.388 OA
ATOM     57  H   UNL     1      22.969  17.020  12.377  1.00  0.00     0.211 HD
ENDBRANCH  55  56
BRANCH  55  58
ATOM     58  C   UNL     1      25.048  17.872  12.245  1.00  0.00     0.154 C 
BRANCH  58  59
ATOM     59  N   UNL     1      26.212  18.204  12.993  1.00  0.00    -0.319 N 
ATOM     60  C   UNL     1      27.376  18.687  12.303  1.00  0.00     0.407 C 
ATOM     61  H   UNL     1      26.249  18.103  14.007  1.00  0.00     0.167 HD
ATOM     62  O   UNL     1      27.381  18.813  11.063  1.00  0.00    -0.225 OA
BRANCH  60  63
ATOM     63  O   UNL     1      28.495  19.010  13.053  1.00  0.00    -0.443 OA
BRANCH  63  64
ATOM     64  C   UNL     1      28.663  18.378  14.333  1.00  0.00     0.294 C 
BRANCH  64  65
ATOM     65  C   UNL     1      28.310  19.365  15.363  1.00  0.00     0.120 A 
ATOM     66  C   UNL     1      29.182  19.774  16.377  1.00  0.00     0.138 A 
ATOM     67  N   UNL     1      27.187  20.049  15.570  1.00  0.00    -0.132 NA
ATOM     68  N   UNL     1      28.554  20.681  17.145  1.00  0.00    -0.251 N 
ATOM     69  N   UNL     1      27.358  20.828  16.641  1.00  0.00    -0.067 NA
BRANCH  68  70
ATOM     70  C   UNL     1      29.081  21.370  18.308  1.00  0.00     0.161 C 
BRANCH  70  71
ATOM     71  C   UNL     1      28.168  21.065  19.476  1.00  0.00     0.108 C 
BRANCH  71  72
ATOM     72  N   UNL     1      28.826  20.381  20.551  1.00  0.00    -0.302 NA
BRANCH  72  73
ATOM     73  C   UNL     1      28.745  18.952  20.418  1.00  0.00     0.081 C 
ATOM     74  C   UNL     1      30.106  18.431  19.974  1.00  0.00     0.021 C 
ENDBRANCH  72  73
BRANCH  72  75
ATOM     75  C   UNL     1      28.438  20.855  21.843  1.00  0.00     0.081 C 
ATOM     76  C   UNL     1      29.591  20.767  22.822  1.00  0.00     0.021 C 
ENDBRANCH  72  75
ENDBRANCH  71  72
ENDBRANCH  70  71
ENDBRANCH  68  70
ENDBRANCH  64  65
ENDBRANCH  63  64
ENDBRANCH  60  63
ENDBRANCH  58  59
ENDBRANCH  55  58
ENDBRANCH   1  55
TORSDOF 34
