REMARK VINA RESULT:    -6.217      4.350     12.029
REMARK INTER + INTRA:         -23.887
REMARK INTER:                 -15.891
REMARK INTRA:                  -7.996
REMARK UNBOUND:                -7.494
REMARK SMILES CC(=O)N[C@@H]1[C@@H](O)C[C@](OC[C@H]2O[C@@H](O[C@H]3[C@H](O)[C@@H](O)[C@H](OCCN=[N+]=[N-])O[C@@H]3CO)[C@H](O)[C@@H](O)[C@H]2O)(C(=O)O)O[C@H]1C(O)[C@H](O)CNC(=O)OCc1cn(C(C)CC(=O)c2ccccc2)nn1
REMARK SMILES IDX 43 1 42 2 9 3 8 4 41 5 6 6 5 7 10 8 11 9 12 10 14 11 13 12
REMARK SMILES IDX 32 13 34 14 36 15 15 16 16 17 29 18 28 19 21 20 17 21 19 22
REMARK SMILES IDX 30 23 31 24 22 26 23 27 24 28 25 29 26 30 27 31 18 32 20 34
REMARK SMILES IDX 33 36 35 38 37 40 38 42 39 43 40 44 7 46 4 48 2 49 1 51 3 52
REMARK SMILES IDX 44 53 45 55 46 56 47 58 48 59 49 60 50 62 51 63 52 64 53 65
REMARK SMILES IDX 54 66 68 67 55 68 67 69 56 70 57 71 58 72 59 73 60 74 61 75
REMARK SMILES IDX 62 76 66 77 63 78 65 79 64 80
REMARK H PARENT 31 25 18 33 20 35 33 37 35 39 37 41 40 45 7 47 4 50 44 54
REMARK H PARENT 46 57 48 61
REMARK Flexibility Score: inf
ROOT
ATOM      1  C   UNL     1      16.876  31.098  23.478  1.00  0.00     0.176 C 
ENDROOT
BRANCH   1   2
ATOM      2  C   UNL     1      16.016  29.981  23.078  1.00  0.00     0.178 C 
ATOM      3  C   UNL     1      16.016  29.331  20.810  1.00  0.00     0.272 C 
ATOM      4  C   UNL     1      14.588  28.904  20.832  1.00  0.00     0.113 C 
ATOM      5  O   UNL     1      16.472  29.117  22.162  1.00  0.00    -0.332 OA
ATOM      6  C   UNL     1      13.908  29.298  22.129  1.00  0.00     0.145 C 
ATOM      7  C   UNL     1      14.579  30.457  22.764  1.00  0.00     0.142 C 
BRANCH   3   8
ATOM      8  O   UNL     1      16.385  30.531  20.468  1.00  0.00    -0.338 OA
BRANCH   8   9
ATOM      9  C   UNL     1      16.518  31.251  19.412  1.00  0.00     0.199 C 
BRANCH   9  10
ATOM     10  C   UNL     1      15.449  31.918  18.608  1.00  0.00     0.179 C 
ATOM     11  C   UNL     1      13.846  31.213  17.015  1.00  0.00     0.282 C 
ATOM     12  O   UNL     1      15.004  31.063  17.681  1.00  0.00    -0.341 OA
ATOM     13  C   UNL     1      12.703  31.437  17.947  1.00  0.00     0.202 C 
ATOM     14  C   UNL     1      13.012  32.356  19.040  1.00  0.00     0.179 C 
ATOM     15  C   UNL     1      14.432  32.703  19.335  1.00  0.00     0.177 C 
BRANCH  11  16
ATOM     16  O   UNL     1      13.676  29.998  16.297  1.00  0.00    -0.341 OA
BRANCH  16  17
ATOM     17  C   UNL     1      14.507  29.996  15.203  1.00  0.00     0.184 C 
ATOM     18  C   UNL     1      14.089  31.024  14.193  1.00  0.00     0.178 C 
ATOM     19  O   UNL     1      12.850  30.733  13.644  1.00  0.00    -0.341 OA
ATOM     20  C   UNL     1      12.689  29.503  13.087  1.00  0.00     0.281 C 
ATOM     21  C   UNL     1      14.451  28.598  14.552  1.00  0.00     0.180 C 
ATOM     22  C   UNL     1      13.130  28.349  13.921  1.00  0.00     0.202 C 
BRANCH  18  23
ATOM     23  C   UNL     1      15.146  31.218  13.124  1.00  0.00     0.191 C 
BRANCH  23  24
ATOM     24  O   UNL     1      14.695  31.992  12.062  1.00  0.00    -0.394 OA
ATOM     25  H   UNL     1      13.793  32.349  12.281  1.00  0.00     0.210 HD
ENDBRANCH  23  24
ENDBRANCH  18  23
BRANCH  20  26
ATOM     26  O   UNL     1      13.148  29.383  11.800  1.00  0.00    -0.350 OA
BRANCH  26  27
ATOM     27  C   UNL     1      12.181  29.249  10.842  1.00  0.00     0.169 C 
BRANCH  27  28
ATOM     28  C   UNL     1      12.028  27.832  10.358  1.00  0.00     0.119 C 
BRANCH  28  29
ATOM     29  N   UNL     1      10.629  27.599  10.050  1.00  0.00    -0.092 NA
ATOM     30  N   UNL     1       9.848  27.319  10.956  1.00  0.00     0.001 N 
ATOM     31  N   UNL     1       9.049  27.240  11.891  1.00  0.00    -0.003 NA
ENDBRANCH  28  29
ENDBRANCH  27  28
ENDBRANCH  26  27
ENDBRANCH  20  26
BRANCH  21  32
ATOM     32  O   UNL     1      15.524  28.416  13.688  1.00  0.00    -0.387 OA
ATOM     33  H   UNL     1      16.246  29.072  13.835  1.00  0.00     0.211 HD
ENDBRANCH  21  32
BRANCH  22  34
ATOM     34  O   UNL     1      12.170  27.940  14.848  1.00  0.00    -0.385 OA
ATOM     35  H   UNL     1      12.531  28.194  15.735  1.00  0.00     0.211 HD
ENDBRANCH  22  34
ENDBRANCH  16  17
ENDBRANCH  11  16
BRANCH  13  36
ATOM     36  O   UNL     1      11.590  31.957  17.225  1.00  0.00    -0.385 OA
ATOM     37  H   UNL     1      11.291  31.204  16.649  1.00  0.00     0.211 HD
ENDBRANCH  13  36
BRANCH  14  38
ATOM     38  O   UNL     1      12.392  31.850  20.219  1.00  0.00    -0.387 OA
ATOM     39  H   UNL     1      12.540  32.447  20.989  1.00  0.00     0.211 HD
ENDBRANCH  14  38
BRANCH  15  40
ATOM     40  O   UNL     1      14.581  32.765  20.706  1.00  0.00    -0.387 OA
ATOM     41  H   UNL     1      14.702  31.945  21.191  1.00  0.00     0.211 HD
ENDBRANCH  15  40
ENDBRANCH   9  10
ENDBRANCH   8   9
ENDBRANCH   3   8
BRANCH   3  42
ATOM     42  C   UNL     1      16.792  28.254  20.053  1.00  0.00     0.364 C 
ATOM     43  O   UNL     1      16.178  27.417  19.380  1.00  0.00    -0.246 OA
BRANCH  42  44
ATOM     44  O   UNL     1      18.167  28.207  20.108  1.00  0.00    -0.477 OA
ATOM     45  H   UNL     1      18.678  28.861  19.527  1.00  0.00     0.296 HD
ENDBRANCH  42  44
ENDBRANCH   3  42
BRANCH   6  46
ATOM     46  O   UNL     1      12.542  29.481  21.951  1.00  0.00    -0.391 OA
ATOM     47  H   UNL     1      12.378  30.477  21.845  1.00  0.00     0.211 HD
ENDBRANCH   6  46
BRANCH   7  48
ATOM     48  N   UNL     1      13.962  30.761  24.051  1.00  0.00    -0.348 N 
ATOM     49  C   UNL     1      13.592  32.076  24.443  1.00  0.00     0.217 C 
ATOM     50  H   UNL     1      13.781  29.985  24.713  1.00  0.00     0.163 HD
ATOM     51  C   UNL     1      12.975  32.376  25.737  1.00  0.00     0.114 C 
ATOM     52  O   UNL     1      13.812  33.040  23.632  1.00  0.00    -0.275 OA
ENDBRANCH   7  48
ENDBRANCH   1   2
BRANCH   1  53
ATOM     53  O   UNL     1      16.758  32.247  22.660  1.00  0.00    -0.388 OA
ATOM     54  H   UNL     1      16.450  32.987  23.269  1.00  0.00     0.211 HD
ENDBRANCH   1  53
BRANCH   1  55
ATOM     55  C   UNL     1      18.361  30.830  23.603  1.00  0.00     0.165 C 
BRANCH  55  56
ATOM     56  O   UNL     1      18.899  31.146  24.808  1.00  0.00    -0.388 OA
ATOM     57  H   UNL     1      18.657  30.461  25.474  1.00  0.00     0.211 HD
ENDBRANCH  55  56
BRANCH  55  58
ATOM     58  C   UNL     1      19.038  31.650  22.495  1.00  0.00     0.154 C 
BRANCH  58  59
ATOM     59  N   UNL     1      19.285  30.824  21.334  1.00  0.00    -0.319 N 
ATOM     60  C   UNL     1      19.994  31.212  20.176  1.00  0.00     0.407 C 
ATOM     61  H   UNL     1      18.922  29.821  21.310  1.00  0.00     0.167 HD
ATOM     62  O   UNL     1      20.522  32.338  20.094  1.00  0.00    -0.225 OA
BRANCH  60  63
ATOM     63  O   UNL     1      20.127  30.344  19.073  1.00  0.00    -0.443 OA
BRANCH  63  64
ATOM     64  C   UNL     1      21.444  29.848  18.750  1.00  0.00     0.294 C 
BRANCH  64  65
ATOM     65  C   UNL     1      21.543  28.570  19.546  1.00  0.00     0.120 A 
ATOM     66  C   UNL     1      22.303  28.464  20.726  1.00  0.00     0.138 A 
ATOM     67  N   UNL     1      21.050  27.365  19.336  1.00  0.00    -0.132 NA
ATOM     68  N   UNL     1      22.237  27.201  21.171  1.00  0.00    -0.249 N 
ATOM     69  N   UNL     1      21.477  26.551  20.325  1.00  0.00    -0.067 NA
BRANCH  68  70
ATOM     70  C   UNL     1      22.933  26.724  22.368  1.00  0.00     0.114 C 
ATOM     71  C   UNL     1      24.394  27.011  22.224  1.00  0.00     0.034 C 
BRANCH  70  72
ATOM     72  C   UNL     1      22.286  27.258  23.603  1.00  0.00     0.108 C 
BRANCH  72  73
ATOM     73  C   UNL     1      21.553  26.139  24.254  1.00  0.00     0.164 C 
ATOM     74  O   UNL     1      20.652  25.533  23.670  1.00  0.00    -0.294 OA
BRANCH  73  75
ATOM     75  C   UNL     1      21.947  25.782  25.625  1.00  0.00     0.018 A 
ATOM     76  C   UNL     1      22.595  24.640  25.925  1.00  0.00     0.012 A 
ATOM     77  C   UNL     1      21.619  26.700  26.636  1.00  0.00     0.012 A 
ATOM     78  C   UNL     1      22.954  24.356  27.253  1.00  0.00     0.001 A 
ATOM     79  C   UNL     1      21.976  26.406  27.920  1.00  0.00     0.001 A 
ATOM     80  C   UNL     1      22.637  25.252  28.248  1.00  0.00     0.000 A 
ENDBRANCH  73  75
ENDBRANCH  72  73
ENDBRANCH  70  72
ENDBRANCH  68  70
ENDBRANCH  64  65
ENDBRANCH  63  64
ENDBRANCH  60  63
ENDBRANCH  58  59
ENDBRANCH  55  58
ENDBRANCH   1  55
TORSDOF 33
