REMARK VINA RESULT:    -6.264      0.000      0.000
REMARK INTER + INTRA:         -26.431
REMARK INTER:                 -17.304
REMARK INTRA:                  -9.127
REMARK UNBOUND:                -7.166
REMARK SMILES CC(=O)N[C@@H]1[C@@H](O)C[C@](OC[C@H]2O[C@@H](O[C@H]3[C@H](O)[C@@H](O)[C@H](OCCN=[N+]=[N-])O[C@@H]3CO)[C@H](O)[C@@H](O)[C@H]2O)(C(=O)O)O[C@H]1C(O)[C@H](O)CNC(=O)OCc1cn(CCCCCCCCCCC(=O)O)nn1
REMARK SMILES IDX 51 1 49 2 48 3 50 5 47 6 45 7 43 8 42 9 9 10 8 11 41 12 6 13
REMARK SMILES IDX 5 14 10 15 11 16 12 17 14 18 13 19 32 20 34 21 36 22 15 23
REMARK SMILES IDX 16 24 29 25 28 26 21 27 17 28 19 29 30 30 31 31 22 33 23 34
REMARK SMILES IDX 24 35 25 36 26 37 27 38 18 39 20 41 33 43 35 45 37 47 38 49
REMARK SMILES IDX 39 50 40 51 7 53 4 55 2 56 1 58 3 59 44 60 46 62 52 64 53 65
REMARK SMILES IDX 54 66 70 67 55 68 69 69 56 70 57 71 58 72 59 73 60 74 61 75
REMARK SMILES IDX 62 76 63 77 64 78 65 79 66 80 67 81 68 82
REMARK H PARENT 48 4 31 32 18 40 20 42 33 44 35 46 37 48 40 52 7 54 4 57 44 61
REMARK H PARENT 46 63 68 83
REMARK Flexibility Score: inf
ROOT
ATOM      1  O   UNL     1      20.739  31.139  21.727  1.00  0.00    -0.443 OA
ENDROOT
BRANCH   1   2
ATOM      2  C   UNL     1      20.027  31.253  22.941  1.00  0.00     0.407 C 
ATOM      3  N   UNL     1      18.699  30.770  23.053  1.00  0.00    -0.319 N 
ATOM      4  H   UNL     1      18.253  30.331  22.205  1.00  0.00     0.167 HD
ATOM      5  O   UNL     1      20.550  31.780  23.949  1.00  0.00    -0.225 OA
BRANCH   3   6
ATOM      6  C   UNL     1      17.945  30.857  24.266  1.00  0.00     0.154 C 
BRANCH   6   7
ATOM      7  C   UNL     1      16.455  30.571  24.102  1.00  0.00     0.165 C 
BRANCH   7   8
ATOM      8  C   UNL     1      15.869  30.650  25.468  1.00  0.00     0.176 C 
BRANCH   8   9
ATOM      9  C   UNL     1      14.417  31.058  25.547  1.00  0.00     0.178 C 
ATOM     10  C   UNL     1      12.639  31.566  24.137  1.00  0.00     0.272 C 
ATOM     11  C   UNL     1      12.227  32.592  25.171  1.00  0.00     0.113 C 
ATOM     12  O   UNL     1      13.997  31.357  24.280  1.00  0.00    -0.332 OA
ATOM     13  C   UNL     1      13.377  33.208  25.900  1.00  0.00     0.145 C 
ATOM     14  C   UNL     1      14.163  32.108  26.582  1.00  0.00     0.142 C 
BRANCH  10  15
ATOM     15  O   UNL     1      12.350  32.025  22.841  1.00  0.00    -0.338 OA
BRANCH  15  16
ATOM     16  C   UNL     1      13.133  31.560  21.840  1.00  0.00     0.199 C 
BRANCH  16  17
ATOM     17  C   UNL     1      13.883  32.783  21.271  1.00  0.00     0.179 C 
ATOM     18  C   UNL     1      15.926  32.013  20.359  1.00  0.00     0.282 C 
ATOM     19  O   UNL     1      15.215  32.660  21.313  1.00  0.00    -0.341 OA
ATOM     20  C   UNL     1      15.176  31.765  19.106  1.00  0.00     0.202 C 
ATOM     21  C   UNL     1      14.288  32.969  18.817  1.00  0.00     0.179 C 
ATOM     22  C   UNL     1      13.289  33.176  19.937  1.00  0.00     0.177 C 
BRANCH  18  23
ATOM     23  O   UNL     1      16.433  30.834  20.964  1.00  0.00    -0.341 OA
BRANCH  23  24
ATOM     24  C   UNL     1      16.567  29.882  19.962  1.00  0.00     0.184 C 
ATOM     25  C   UNL     1      15.910  28.570  20.239  1.00  0.00     0.178 C 
ATOM     26  O   UNL     1      16.241  27.652  19.286  1.00  0.00    -0.341 OA
ATOM     27  C   UNL     1      16.908  28.012  18.176  1.00  0.00     0.281 C 
ATOM     28  C   UNL     1      18.057  29.574  19.741  1.00  0.00     0.180 C 
ATOM     29  C   UNL     1      18.140  28.854  18.415  1.00  0.00     0.202 C 
BRANCH  25  30
ATOM     30  C   UNL     1      14.400  28.660  20.363  1.00  0.00     0.191 C 
BRANCH  30  31
ATOM     31  O   UNL     1      13.926  28.327  21.605  1.00  0.00    -0.394 OA
ATOM     32  H   UNL     1      12.963  28.563  21.647  1.00  0.00     0.210 HD
ENDBRANCH  30  31
ENDBRANCH  25  30
BRANCH  27  33
ATOM     33  O   UNL     1      16.071  28.710  17.316  1.00  0.00    -0.350 OA
BRANCH  33  34
ATOM     34  C   UNL     1      16.703  29.041  16.118  1.00  0.00     0.169 C 
BRANCH  34  35
ATOM     35  C   UNL     1      15.857  28.709  14.922  1.00  0.00     0.119 C 
BRANCH  35  36
ATOM     36  N   UNL     1      14.605  29.463  15.012  1.00  0.00    -0.092 NA
ATOM     37  N   UNL     1      14.613  30.713  15.037  1.00  0.00     0.001 N 
ATOM     38  N   UNL     1      14.919  31.925  15.063  1.00  0.00    -0.003 NA
ENDBRANCH  35  36
ENDBRANCH  34  35
ENDBRANCH  33  34
ENDBRANCH  27  33
BRANCH  28  39
ATOM     39  O   UNL     1      18.834  30.712  19.704  1.00  0.00    -0.387 OA
ATOM     40  H   UNL     1      18.830  31.167  18.825  1.00  0.00     0.211 HD
ENDBRANCH  28  39
BRANCH  29  41
ATOM     41  O   UNL     1      19.231  27.992  18.477  1.00  0.00    -0.385 OA
ATOM     42  H   UNL     1      18.978  27.155  17.979  1.00  0.00     0.211 HD
ENDBRANCH  29  41
ENDBRANCH  23  24
ENDBRANCH  18  23
BRANCH  20  43
ATOM     43  O   UNL     1      16.012  31.661  17.986  1.00  0.00    -0.385 OA
ATOM     44  H   UNL     1      15.474  31.176  17.293  1.00  0.00     0.211 HD
ENDBRANCH  20  43
BRANCH  21  45
ATOM     45  O   UNL     1      13.609  32.800  17.612  1.00  0.00    -0.387 OA
ATOM     46  H   UNL     1      13.697  31.843  17.374  1.00  0.00     0.211 HD
ENDBRANCH  21  45
BRANCH  22  47
ATOM     47  O   UNL     1      12.183  32.410  19.661  1.00  0.00    -0.387 OA
ATOM     48  H   UNL     1      12.088  32.337  18.677  1.00  0.00     0.211 HD
ENDBRANCH  22  47
ENDBRANCH  16  17
ENDBRANCH  15  16
ENDBRANCH  10  15
BRANCH  10  49
ATOM     49  C   UNL     1      11.884  30.316  24.268  1.00  0.00     0.364 C 
ATOM     50  O   UNL     1      10.647  30.282  24.363  1.00  0.00    -0.246 OA
BRANCH  49  51
ATOM     51  O   UNL     1      12.542  29.098  24.290  1.00  0.00    -0.477 OA
ATOM     52  H   UNL     1      12.060  28.219  24.496  1.00  0.00     0.296 HD
ENDBRANCH  49  51
ENDBRANCH  10  49
BRANCH  13  53
ATOM     53  O   UNL     1      14.177  34.047  25.154  1.00  0.00    -0.391 OA
ATOM     54  H   UNL     1      13.674  34.595  24.486  1.00  0.00     0.211 HD
ENDBRANCH  13  53
BRANCH  14  55
ATOM     55  N   UNL     1      13.406  31.679  27.711  1.00  0.00    -0.348 N 
ATOM     56  C   UNL     1      13.965  31.069  28.870  1.00  0.00     0.217 C 
ATOM     57  H   UNL     1      12.365  31.801  27.729  1.00  0.00     0.163 HD
ATOM     58  C   UNL     1      13.115  30.651  29.999  1.00  0.00     0.114 C 
ATOM     59  O   UNL     1      15.198  30.901  28.897  1.00  0.00    -0.275 OA
ENDBRANCH  14  55
ENDBRANCH   8   9
BRANCH   8  60
ATOM     60  O   UNL     1      16.707  31.375  26.273  1.00  0.00    -0.388 OA
ATOM     61  H   UNL     1      17.142  30.875  26.981  1.00  0.00     0.211 HD
ENDBRANCH   8  60
ENDBRANCH   7   8
BRANCH   7  62
ATOM     62  O   UNL     1      16.347  29.327  23.493  1.00  0.00    -0.388 OA
ATOM     63  H   UNL     1      15.638  29.309  22.804  1.00  0.00     0.211 HD
ENDBRANCH   7  62
ENDBRANCH   6   7
ENDBRANCH   3   6
ENDBRANCH   1   2
BRANCH   1  64
ATOM     64  C   UNL     1      21.938  30.352  21.763  1.00  0.00     0.294 C 
BRANCH  64  65
ATOM     65  C   UNL     1      21.529  28.934  21.680  1.00  0.00     0.120 A 
ATOM     66  C   UNL     1      22.295  27.863  22.101  1.00  0.00     0.138 A 
ATOM     67  N   UNL     1      20.380  28.431  21.208  1.00  0.00    -0.132 NA
ATOM     68  N   UNL     1      21.566  26.757  21.862  1.00  0.00    -0.252 N 
ATOM     69  N   UNL     1      20.394  27.131  21.313  1.00  0.00    -0.067 NA
BRANCH  68  70
ATOM     70  C   UNL     1      21.897  25.390  22.118  1.00  0.00     0.146 C 
BRANCH  70  71
ATOM     71  C   UNL     1      21.078  24.703  23.154  1.00  0.00     0.024 C 
BRANCH  71  72
ATOM     72  C   UNL     1      21.687  24.591  24.507  1.00  0.00     0.002 C 
BRANCH  72  73
ATOM     73  C   UNL     1      23.175  24.611  24.554  1.00  0.00     0.000 C 
BRANCH  73  74
ATOM     74  C   UNL     1      23.779  24.602  25.916  1.00  0.00     0.000 C 
BRANCH  74  75
ATOM     75  C   UNL     1      22.709  24.434  26.958  1.00  0.00     0.000 C 
BRANCH  75  76
ATOM     76  C   UNL     1      22.724  25.523  28.008  1.00  0.00     0.000 C 
BRANCH  76  77
ATOM     77  C   UNL     1      21.780  26.643  27.717  1.00  0.00     0.001 C 
BRANCH  77  78
ATOM     78  C   UNL     1      22.428  27.894  27.208  1.00  0.00     0.012 C 
BRANCH  78  79
ATOM     79  C   UNL     1      22.140  28.008  25.721  1.00  0.00     0.122 C 
BRANCH  79  80
ATOM     80  C   UNL     1      20.812  28.616  25.536  1.00  0.00     0.303 C 
ATOM     81  O   UNL     1      20.003  28.141  24.712  1.00  0.00    -0.252 OA
BRANCH  80  82
ATOM     82  O   UNL     1      20.418  29.730  26.265  1.00  0.00    -0.481 OA
ATOM     83  H   UNL     1      21.051  30.476  26.487  1.00  0.00     0.296 HD
ENDBRANCH  80  82
ENDBRANCH  79  80
ENDBRANCH  78  79
ENDBRANCH  77  78
ENDBRANCH  76  77
ENDBRANCH  75  76
ENDBRANCH  74  75
ENDBRANCH  73  74
ENDBRANCH  72  73
ENDBRANCH  71  72
ENDBRANCH  70  71
ENDBRANCH  68  70
ENDBRANCH  64  65
ENDBRANCH   1  64
TORSDOF 41
