REMARK VINA RESULT:    -5.407      2.360      3.487
REMARK INTER + INTRA:         -20.804
REMARK INTER:                 -13.884
REMARK INTRA:                  -6.920
REMARK UNBOUND:                -6.864
REMARK SMILES CC(=O)N[C@@H]1[C@@H](O)C[C@](OC[C@H]2O[C@@H](O[C@H]3[C@H](O)[C@@H](O)[C@H](OCCN=[N+]=[N-])O[C@@H]3CO)[C@H](O)[C@@H](O)[C@H]2O)(C(=O)O)O[C@H]1C(O)[C@H](O)CNC(=O)OCc1cn(CCC2OCCO2)nn1
REMARK SMILES IDX 9 1 8 2 6 3 5 4 42 5 41 6 10 7 11 8 12 9 14 10 13 11 32 12
REMARK SMILES IDX 34 13 36 14 15 15 16 16 29 17 28 18 21 19 17 20 19 21 30 22
REMARK SMILES IDX 31 23 22 25 23 26 24 27 25 28 26 29 27 30 18 31 20 33 33 35
REMARK SMILES IDX 35 37 37 39 38 41 39 42 40 43 7 45 43 47 44 48 45 50 46 51
REMARK SMILES IDX 47 53 48 54 49 55 50 57 51 58 52 59 53 60 54 61 64 62 55 63
REMARK SMILES IDX 63 64 56 65 57 66 58 67 59 68 62 69 60 70 61 71 4 72 2 73
REMARK SMILES IDX 1 75 3 76
REMARK H PARENT 31 24 18 32 20 34 33 36 35 38 37 40 40 44 7 46 44 49 46 52
REMARK H PARENT 48 56 4 74
REMARK Flexibility Score: inf
ROOT
ATOM      1  C   UNL     1      16.596  29.777  15.772  1.00  0.00     0.272 C 
ATOM      2  C   UNL     1      16.682  28.747  14.587  1.00  0.00     0.113 C 
ATOM      3  C   UNL     1      17.351  29.334  13.418  1.00  0.00     0.145 C 
ATOM      4  C   UNL     1      18.747  29.785  13.801  1.00  0.00     0.142 C 
ATOM      5  C   UNL     1      18.883  30.027  15.266  1.00  0.00     0.178 C 
ATOM      6  O   UNL     1      17.787  30.439  15.937  1.00  0.00    -0.332 OA
ENDROOT
BRANCH   1   7
ATOM      7  O   UNL     1      16.345  28.990  16.818  1.00  0.00    -0.338 OA
BRANCH   7   8
ATOM      8  C   UNL     1      16.108  29.317  18.069  1.00  0.00     0.199 C 
BRANCH   8   9
ATOM      9  C   UNL     1      17.207  29.670  19.019  1.00  0.00     0.179 C 
ATOM     10  C   UNL     1      17.544  30.301  21.248  1.00  0.00     0.282 C 
ATOM     11  O   UNL     1      16.694  30.237  20.163  1.00  0.00    -0.341 OA
ATOM     12  C   UNL     1      18.975  30.029  20.967  1.00  0.00     0.202 C 
ATOM     13  C   UNL     1      19.210  28.816  20.110  1.00  0.00     0.179 C 
ATOM     14  C   UNL     1      17.918  28.382  19.504  1.00  0.00     0.177 C 
BRANCH  10  15
ATOM     15  O   UNL     1      16.982  29.560  22.288  1.00  0.00    -0.341 OA
BRANCH  15  16
ATOM     16  C   UNL     1      15.847  30.141  22.836  1.00  0.00     0.184 C 
ATOM     17  C   UNL     1      15.964  30.472  24.293  1.00  0.00     0.178 C 
ATOM     18  O   UNL     1      14.788  31.119  24.679  1.00  0.00    -0.341 OA
ATOM     19  C   UNL     1      13.673  30.295  24.655  1.00  0.00     0.281 C 
ATOM     20  C   UNL     1      14.673  29.124  22.754  1.00  0.00     0.180 C 
ATOM     21  C   UNL     1      13.450  29.919  23.193  1.00  0.00     0.202 C 
BRANCH  17  22
ATOM     22  C   UNL     1      17.073  31.490  24.490  1.00  0.00     0.191 C 
BRANCH  22  23
ATOM     23  O   UNL     1      18.237  30.725  24.754  1.00  0.00    -0.394 OA
ATOM     24  H   UNL     1      18.655  30.383  23.936  1.00  0.00     0.210 HD
ENDBRANCH  22  23
ENDBRANCH  17  22
BRANCH  19  25
ATOM     25  O   UNL     1      12.603  30.983  25.155  1.00  0.00    -0.350 OA
BRANCH  25  26
ATOM     26  C   UNL     1      12.807  32.308  25.415  1.00  0.00     0.169 C 
BRANCH  26  27
ATOM     27  C   UNL     1      11.830  33.247  24.741  1.00  0.00     0.119 C 
BRANCH  27  28
ATOM     28  N   UNL     1      12.031  33.232  23.304  1.00  0.00    -0.092 NA
ATOM     29  N   UNL     1      11.143  32.938  22.508  1.00  0.00     0.001 N 
ATOM     30  N   UNL     1      10.279  32.818  21.643  1.00  0.00    -0.003 NA
ENDBRANCH  27  28
ENDBRANCH  26  27
ENDBRANCH  25  26
ENDBRANCH  19  25
BRANCH  20  31
ATOM     31  O   UNL     1      14.536  28.721  21.448  1.00  0.00    -0.387 OA
ATOM     32  H   UNL     1      13.572  28.766  21.200  1.00  0.00     0.211 HD
ENDBRANCH  20  31
BRANCH  21  33
ATOM     33  O   UNL     1      12.348  29.106  23.026  1.00  0.00    -0.385 OA
ATOM     34  H   UNL     1      11.581  29.524  23.491  1.00  0.00     0.211 HD
ENDBRANCH  21  33
ENDBRANCH  15  16
ENDBRANCH  10  15
BRANCH  12  35
ATOM     35  O   UNL     1      19.561  31.180  20.382  1.00  0.00    -0.385 OA
ATOM     36  H   UNL     1      19.875  30.879  19.489  1.00  0.00     0.211 HD
ENDBRANCH  12  35
BRANCH  13  37
ATOM     37  O   UNL     1      19.850  27.795  20.813  1.00  0.00    -0.387 OA
ATOM     38  H   UNL     1      20.031  28.131  21.730  1.00  0.00     0.211 HD
ENDBRANCH  13  37
BRANCH  14  39
ATOM     39  O   UNL     1      17.079  27.714  20.372  1.00  0.00    -0.387 OA
ATOM     40  H   UNL     1      16.259  28.216  20.607  1.00  0.00     0.211 HD
ENDBRANCH  14  39
ENDBRANCH   8   9
ENDBRANCH   7   8
ENDBRANCH   1   7
BRANCH   1  41
ATOM     41  C   UNL     1      15.607  30.743  15.293  1.00  0.00     0.364 C 
ATOM     42  O   UNL     1      15.927  32.001  15.239  1.00  0.00    -0.246 OA
BRANCH  41  43
ATOM     43  O   UNL     1      14.321  30.509  14.863  1.00  0.00    -0.477 OA
ATOM     44  H   UNL     1      13.745  31.280  14.556  1.00  0.00     0.296 HD
ENDBRANCH  41  43
ENDBRANCH   1  41
BRANCH   3  45
ATOM     45  O   UNL     1      17.434  28.299  12.442  1.00  0.00    -0.391 OA
ATOM     46  H   UNL     1      16.484  28.063  12.213  1.00  0.00     0.211 HD
ENDBRANCH   3  45
BRANCH   5  47
ATOM     47  C   UNL     1      19.634  28.900  15.908  1.00  0.00     0.176 C 
BRANCH  47  48
ATOM     48  O   UNL     1      20.653  28.385  15.093  1.00  0.00    -0.388 OA
ATOM     49  H   UNL     1      20.387  28.418  14.128  1.00  0.00     0.211 HD
ENDBRANCH  47  48
BRANCH  47  50
ATOM     50  C   UNL     1      20.414  29.428  17.145  1.00  0.00     0.165 C 
BRANCH  50  51
ATOM     51  O   UNL     1      20.216  30.786  17.235  1.00  0.00    -0.388 OA
ATOM     52  H   UNL     1      20.071  31.110  18.143  1.00  0.00     0.211 HD
ENDBRANCH  50  51
BRANCH  50  53
ATOM     53  C   UNL     1      21.803  28.942  17.055  1.00  0.00     0.154 C 
BRANCH  53  54
ATOM     54  N   UNL     1      21.958  27.633  17.606  1.00  0.00    -0.319 N 
ATOM     55  C   UNL     1      22.634  26.585  16.984  1.00  0.00     0.407 C 
ATOM     56  H   UNL     1      21.528  27.466  18.550  1.00  0.00     0.167 HD
ATOM     57  O   UNL     1      23.151  26.723  15.865  1.00  0.00    -0.225 OA
BRANCH  55  58
ATOM     58  O   UNL     1      22.778  25.314  17.561  1.00  0.00    -0.443 OA
BRANCH  58  59
ATOM     59  C   UNL     1      23.606  25.117  18.692  1.00  0.00     0.294 C 
BRANCH  59  60
ATOM     60  C   UNL     1      22.849  25.133  19.966  1.00  0.00     0.120 A 
ATOM     61  C   UNL     1      23.384  24.819  21.219  1.00  0.00     0.138 A 
ATOM     62  N   UNL     1      21.562  25.428  20.208  1.00  0.00    -0.132 NA
ATOM     63  N   UNL     1      22.409  24.937  22.161  1.00  0.00    -0.252 N 
ATOM     64  N   UNL     1      21.323  25.305  21.521  1.00  0.00    -0.067 NA
BRANCH  63  65
ATOM     65  C   UNL     1      22.647  24.685  23.574  1.00  0.00     0.151 C 
BRANCH  65  66
ATOM     66  C   UNL     1      21.409  25.029  24.392  1.00  0.00     0.086 C 
BRANCH  66  67
ATOM     67  C   UNL     1      21.401  26.475  24.794  1.00  0.00     0.251 C 
ATOM     68  O   UNL     1      22.709  26.963  24.788  1.00  0.00    -0.350 OA
ATOM     69  O   UNL     1      20.699  27.286  23.925  1.00  0.00    -0.350 OA
ATOM     70  C   UNL     1      22.569  28.345  24.746  1.00  0.00     0.192 C 
ATOM     71  C   UNL     1      21.111  28.562  24.377  1.00  0.00     0.192 C 
ENDBRANCH  66  67
ENDBRANCH  65  66
ENDBRANCH  63  65
ENDBRANCH  59  60
ENDBRANCH  58  59
ENDBRANCH  55  58
ENDBRANCH  53  54
ENDBRANCH  50  53
ENDBRANCH  47  50
ENDBRANCH   5  47
BRANCH   4  72
ATOM     72  N   UNL     1      19.158  30.930  12.991  1.00  0.00    -0.348 N 
ATOM     73  C   UNL     1      20.433  31.063  12.433  1.00  0.00     0.217 C 
ATOM     74  H   UNL     1      18.425  31.683  12.838  1.00  0.00     0.163 HD
ATOM     75  C   UNL     1      20.778  32.269  11.613  1.00  0.00     0.114 C 
ATOM     76  O   UNL     1      21.265  30.139  12.647  1.00  0.00    -0.275 OA
ENDBRANCH   4  72
TORSDOF 32
