REMARK VINA RESULT:    -6.135      5.028     11.062
REMARK INTER + INTRA:         -21.323
REMARK INTER:                 -13.538
REMARK INTRA:                  -7.785
REMARK UNBOUND:                -5.863
REMARK SMILES CC(=O)N[C@@H]1[C@@H](O)C[C@](OC[C@H]2O[C@@H](O[C@H]3[C@H](O)[C@@H](O)[C@H](OCCN=[N+]=[N-])O[C@@H]3CO)[C@H](O)[C@@H](O)[C@H]2O)(C(=O)O)O[C@H]1C(O)[C@H](O)CNC(=O)OCc1cn(-c2ncccc2C#N)nn1
REMARK SMILES IDX 9 1 8 2 6 3 5 4 42 5 41 6 10 7 11 8 12 9 14 10 13 11 32 12
REMARK SMILES IDX 34 13 36 14 15 15 16 16 29 17 28 18 21 19 17 20 19 21 30 22
REMARK SMILES IDX 31 23 22 25 23 26 24 27 25 28 26 29 27 30 18 31 20 33 33 35
REMARK SMILES IDX 35 37 37 39 38 41 39 42 40 43 7 45 43 47 44 48 45 50 46 51
REMARK SMILES IDX 47 53 48 54 49 55 50 57 51 58 52 59 53 60 54 61 65 62 55 63
REMARK SMILES IDX 64 64 56 65 57 66 61 67 58 68 60 69 59 70 62 71 63 72 4 73
REMARK SMILES IDX 2 74 1 76 3 77
REMARK H PARENT 31 24 18 32 20 34 33 36 35 38 37 40 40 44 7 46 44 49 46 52
REMARK H PARENT 48 56 4 75
REMARK Flexibility Score: inf
ROOT
ATOM      1  C   UNL     1      13.037  30.497  16.108  1.00  0.00     0.272 C 
ATOM      2  C   UNL     1      12.349  29.209  15.950  1.00  0.00     0.113 C 
ATOM      3  C   UNL     1      12.373  28.689  14.566  1.00  0.00     0.145 C 
ATOM      4  C   UNL     1      13.542  29.079  13.724  1.00  0.00     0.142 C 
ATOM      5  C   UNL     1      14.612  29.886  14.402  1.00  0.00     0.178 C 
ATOM      6  O   UNL     1      14.210  30.635  15.403  1.00  0.00    -0.332 OA
ENDROOT
BRANCH   1   7
ATOM      7  O   UNL     1      13.329  30.983  17.319  1.00  0.00    -0.338 OA
BRANCH   7   8
ATOM      8  C   UNL     1      14.250  31.750  17.813  1.00  0.00     0.199 C 
BRANCH   8   9
ATOM      9  C   UNL     1      14.352  31.432  19.309  1.00  0.00     0.179 C 
ATOM     10  C   UNL     1      13.281  30.501  21.077  1.00  0.00     0.282 C 
ATOM     11  O   UNL     1      13.109  31.224  19.841  1.00  0.00    -0.341 OA
ATOM     12  C   UNL     1      13.662  29.096  20.781  1.00  0.00     0.202 C 
ATOM     13  C   UNL     1      14.868  29.042  19.838  1.00  0.00     0.179 C 
ATOM     14  C   UNL     1      15.381  30.421  19.659  1.00  0.00     0.177 C 
BRANCH  10  15
ATOM     15  O   UNL     1      12.167  30.589  21.836  1.00  0.00    -0.341 OA
BRANCH  15  16
ATOM     16  C   UNL     1      12.058  31.715  22.603  1.00  0.00     0.184 C 
ATOM     17  C   UNL     1      13.466  32.342  22.819  1.00  0.00     0.178 C 
ATOM     18  O   UNL     1      13.813  32.168  24.158  1.00  0.00    -0.341 OA
ATOM     19  C   UNL     1      13.722  30.816  24.521  1.00  0.00     0.281 C 
ATOM     20  C   UNL     1      11.438  31.498  23.959  1.00  0.00     0.180 C 
ATOM     21  C   UNL     1      12.274  30.481  24.745  1.00  0.00     0.202 C 
BRANCH  17  22
ATOM     22  C   UNL     1      13.413  33.782  22.422  1.00  0.00     0.191 C 
BRANCH  22  23
ATOM     23  O   UNL     1      12.662  33.975  21.247  1.00  0.00    -0.394 OA
ATOM     24  H   UNL     1      12.195  33.152  20.968  1.00  0.00     0.210 HD
ENDBRANCH  22  23
ENDBRANCH  17  22
BRANCH  19  25
ATOM     25  O   UNL     1      14.492  30.657  25.650  1.00  0.00    -0.350 OA
BRANCH  25  26
ATOM     26  C   UNL     1      14.308  31.720  26.554  1.00  0.00     0.169 C 
BRANCH  26  27
ATOM     27  C   UNL     1      14.695  31.294  27.955  1.00  0.00     0.119 C 
BRANCH  27  28
ATOM     28  N   UNL     1      16.023  30.675  27.843  1.00  0.00    -0.092 NA
ATOM     29  N   UNL     1      16.706  30.675  28.900  1.00  0.00     0.001 N 
ATOM     30  N   UNL     1      17.555  30.950  29.762  1.00  0.00    -0.003 NA
ENDBRANCH  27  28
ENDBRANCH  26  27
ENDBRANCH  25  26
ENDBRANCH  19  25
BRANCH  20  31
ATOM     31  O   UNL     1      11.316  32.658  24.688  1.00  0.00    -0.387 OA
ATOM     32  H   UNL     1      11.343  32.585  25.656  1.00  0.00     0.211 HD
ENDBRANCH  20  31
BRANCH  21  33
ATOM     33  O   UNL     1      11.960  29.192  24.326  1.00  0.00    -0.385 OA
ATOM     34  H   UNL     1      10.981  29.177  24.145  1.00  0.00     0.211 HD
ENDBRANCH  21  33
ENDBRANCH  15  16
ENDBRANCH  10  15
BRANCH  12  35
ATOM     35  O   UNL     1      13.973  28.412  21.943  1.00  0.00    -0.385 OA
ATOM     36  H   UNL     1      14.021  27.428  21.708  1.00  0.00     0.211 HD
ENDBRANCH  12  35
BRANCH  13  37
ATOM     37  O   UNL     1      14.464  28.471  18.608  1.00  0.00    -0.387 OA
ATOM     38  H   UNL     1      13.844  27.707  18.776  1.00  0.00     0.211 HD
ENDBRANCH  13  37
BRANCH  14  39
ATOM     39  O   UNL     1      16.455  30.509  18.768  1.00  0.00    -0.387 OA
ATOM     40  H   UNL     1      16.112  30.641  17.827  1.00  0.00     0.211 HD
ENDBRANCH  14  39
ENDBRANCH   8   9
ENDBRANCH   7   8
ENDBRANCH   1   7
BRANCH   1  41
ATOM     41  C   UNL     1      12.095  31.531  15.492  1.00  0.00     0.364 C 
ATOM     42  O   UNL     1      10.956  31.746  15.869  1.00  0.00    -0.246 OA
BRANCH  41  43
ATOM     43  O   UNL     1      12.555  32.304  14.408  1.00  0.00    -0.477 OA
ATOM     44  H   UNL     1      12.487  31.992  13.451  1.00  0.00     0.296 HD
ENDBRANCH  41  43
ENDBRANCH   1  41
BRANCH   3  45
ATOM     45  O   UNL     1      12.176  27.295  14.557  1.00  0.00    -0.391 OA
ATOM     46  H   UNL     1      12.011  27.060  15.528  1.00  0.00     0.211 HD
ENDBRANCH   3  45
BRANCH   5  47
ATOM     47  C   UNL     1      15.842  29.000  14.754  1.00  0.00     0.176 C 
BRANCH  47  48
ATOM     48  O   UNL     1      15.760  28.771  16.160  1.00  0.00    -0.388 OA
ATOM     49  H   UNL     1      15.982  27.849  16.374  1.00  0.00     0.211 HD
ENDBRANCH  47  48
BRANCH  47  50
ATOM     50  C   UNL     1      17.139  29.573  14.502  1.00  0.00     0.165 C 
BRANCH  50  51
ATOM     51  O   UNL     1      18.124  28.724  13.941  1.00  0.00    -0.388 OA
ATOM     52  H   UNL     1      18.945  29.275  13.741  1.00  0.00     0.211 HD
ENDBRANCH  50  51
BRANCH  50  53
ATOM     53  C   UNL     1      17.822  30.147  15.702  1.00  0.00     0.154 C 
BRANCH  53  54
ATOM     54  N   UNL     1      18.413  29.300  16.661  1.00  0.00    -0.319 N 
ATOM     55  C   UNL     1      19.718  28.813  16.740  1.00  0.00     0.407 C 
ATOM     56  H   UNL     1      17.768  28.955  17.471  1.00  0.00     0.167 HD
ATOM     57  O   UNL     1      20.530  29.164  15.849  1.00  0.00    -0.225 OA
BRANCH  55  58
ATOM     58  O   UNL     1      20.082  27.963  17.803  1.00  0.00    -0.443 OA
BRANCH  58  59
ATOM     59  C   UNL     1      20.644  28.525  18.951  1.00  0.00     0.294 C 
BRANCH  59  60
ATOM     60  C   UNL     1      19.648  28.967  19.908  1.00  0.00     0.121 A 
ATOM     61  C   UNL     1      19.742  30.034  20.719  1.00  0.00     0.146 A 
ATOM     62  N   UNL     1      18.435  28.328  20.207  1.00  0.00    -0.131 NA
ATOM     63  N   UNL     1      18.675  30.104  21.505  1.00  0.00    -0.201 N 
ATOM     64  N   UNL     1      17.956  29.081  21.152  1.00  0.00    -0.060 NA
BRANCH  63  65
ATOM     65  C   UNL     1      18.295  31.064  22.468  1.00  0.00     0.173 A 
ATOM     66  N   UNL     1      18.366  30.657  23.763  1.00  0.00    -0.236 NA
ATOM     67  C   UNL     1      17.739  32.299  22.111  1.00  0.00     0.097 A 
ATOM     68  C   UNL     1      17.835  31.543  24.774  1.00  0.00     0.113 A 
ATOM     69  C   UNL     1      17.245  33.086  23.128  1.00  0.00     0.025 A 
ATOM     70  C   UNL     1      17.311  32.683  24.396  1.00  0.00     0.022 A 
BRANCH  67  71
ATOM     71  C   UNL     1      17.726  32.837  20.788  1.00  0.00     0.103 C 
ATOM     72  N   UNL     1      17.719  33.311  19.675  1.00  0.00    -0.192 NA
ENDBRANCH  67  71
ENDBRANCH  63  65
ENDBRANCH  59  60
ENDBRANCH  58  59
ENDBRANCH  55  58
ENDBRANCH  53  54
ENDBRANCH  50  53
ENDBRANCH  47  50
ENDBRANCH   5  47
BRANCH   4  73
ATOM     73  N   UNL     1      12.986  29.620  12.502  1.00  0.00    -0.348 N 
ATOM     74  C   UNL     1      12.336  28.932  11.474  1.00  0.00     0.217 C 
ATOM     75  H   UNL     1      13.085  30.686  12.336  1.00  0.00     0.163 HD
ATOM     76  C   UNL     1      11.770  29.680  10.282  1.00  0.00     0.114 C 
ATOM     77  O   UNL     1      12.161  27.694  11.435  1.00  0.00    -0.275 OA
ENDBRANCH   4  73
TORSDOF 31
