REMARK VINA RESULT:    -5.509      3.006      5.830
REMARK INTER + INTRA:         -22.030
REMARK INTER:                 -13.882
REMARK INTRA:                  -8.149
REMARK UNBOUND:                -8.149
REMARK SMILES CC(=O)N[C@@H]1[C@@H](O)C[C@](OC[C@H]2O[C@@H](O[C@H]3[C@H](O)[C@@H](O)[C@H](OCCN=[N+]=[N-])O[C@@H]3CO)[C@H](O)[C@@H](O)[C@H]2O)(C(=O)O)O[C@H]1C(O)[C@H](O)CNC(=O)OCc1cn(Cc2ccc3c(c2)OCO3)nn1
REMARK SMILES IDX 9 1 8 2 6 3 5 4 42 5 41 6 10 7 11 8 12 9 14 10 13 11 32 12
REMARK SMILES IDX 34 13 36 14 15 15 16 16 29 17 28 18 21 19 17 20 19 21 30 22
REMARK SMILES IDX 31 23 22 25 23 26 24 27 25 28 26 29 27 30 18 31 20 33 33 35
REMARK SMILES IDX 35 37 37 39 38 41 39 42 40 43 7 45 43 47 44 48 45 50 46 51
REMARK SMILES IDX 47 53 48 54 49 55 50 57 51 58 52 59 53 60 54 61 67 62 55 63
REMARK SMILES IDX 66 64 56 65 57 66 58 67 62 68 59 69 61 70 60 71 63 72 65 73
REMARK SMILES IDX 64 74 4 75 2 76 1 78 3 79
REMARK H PARENT 31 24 18 32 20 34 33 36 35 38 37 40 40 44 7 46 44 49 46 52
REMARK H PARENT 48 56 4 77
REMARK Flexibility Score: inf
ROOT
ATOM      1  C   UNL     1      17.102  30.650  23.143  1.00  0.00     0.272 C 
ATOM      2  C   UNL     1      17.493  32.112  23.049  1.00  0.00     0.113 C 
ATOM      3  C   UNL     1      18.947  32.218  22.701  1.00  0.00     0.145 C 
ATOM      4  C   UNL     1      19.720  31.570  23.881  1.00  0.00     0.142 C 
ATOM      5  C   UNL     1      19.177  30.199  24.065  1.00  0.00     0.178 C 
ATOM      6  O   UNL     1      18.207  29.835  23.134  1.00  0.00    -0.332 OA
ENDROOT
BRANCH   1   7
ATOM      7  O   UNL     1      16.205  30.314  22.116  1.00  0.00    -0.338 OA
BRANCH   7   8
ATOM      8  C   UNL     1      15.355  31.284  21.704  1.00  0.00     0.199 C 
BRANCH   8   9
ATOM      9  C   UNL     1      15.150  31.142  20.187  1.00  0.00     0.179 C 
ATOM     10  C   UNL     1      16.269  30.730  18.220  1.00  0.00     0.282 C 
ATOM     11  O   UNL     1      16.368  31.083  19.566  1.00  0.00    -0.341 OA
ATOM     12  C   UNL     1      15.764  29.286  18.140  1.00  0.00     0.202 C 
ATOM     13  C   UNL     1      14.888  28.890  19.273  1.00  0.00     0.179 C 
ATOM     14  C   UNL     1      14.179  30.068  19.850  1.00  0.00     0.177 C 
BRANCH  10  15
ATOM     15  O   UNL     1      17.486  30.751  17.665  1.00  0.00    -0.341 OA
BRANCH  15  16
ATOM     16  C   UNL     1      18.307  29.665  17.712  1.00  0.00     0.184 C 
ATOM     17  C   UNL     1      19.372  29.736  18.771  1.00  0.00     0.178 C 
ATOM     18  O   UNL     1      20.627  29.799  18.265  1.00  0.00    -0.341 OA
ATOM     19  C   UNL     1      21.032  28.700  17.479  1.00  0.00     0.281 C 
ATOM     20  C   UNL     1      18.928  29.458  16.356  1.00  0.00     0.180 C 
ATOM     21  C   UNL     1      19.956  28.351  16.476  1.00  0.00     0.202 C 
BRANCH  17  22
ATOM     22  C   UNL     1      19.239  28.541  19.682  1.00  0.00     0.191 C 
BRANCH  22  23
ATOM     23  O   UNL     1      18.226  28.768  20.650  1.00  0.00    -0.394 OA
ATOM     24  H   UNL     1      18.017  27.958  21.169  1.00  0.00     0.210 HD
ENDBRANCH  22  23
ENDBRANCH  17  22
BRANCH  19  25
ATOM     25  O   UNL     1      21.454  27.663  18.248  1.00  0.00    -0.350 OA
BRANCH  25  26
ATOM     26  C   UNL     1      22.664  27.595  18.798  1.00  0.00     0.169 C 
BRANCH  26  27
ATOM     27  C   UNL     1      22.725  27.557  20.293  1.00  0.00     0.119 C 
BRANCH  27  28
ATOM     28  N   UNL     1      23.967  27.910  20.882  1.00  0.00    -0.092 NA
ATOM     29  N   UNL     1      24.173  27.963  22.091  1.00  0.00     0.001 N 
ATOM     30  N   UNL     1      24.089  28.354  23.268  1.00  0.00    -0.003 NA
ENDBRANCH  27  28
ENDBRANCH  26  27
ENDBRANCH  25  26
ENDBRANCH  19  25
BRANCH  20  31
ATOM     31  O   UNL     1      17.926  29.045  15.482  1.00  0.00    -0.387 OA
ATOM     32  H   UNL     1      17.110  28.760  15.970  1.00  0.00     0.211 HD
ENDBRANCH  20  31
BRANCH  21  33
ATOM     33  O   UNL     1      20.506  28.196  15.206  1.00  0.00    -0.385 OA
ATOM     34  H   UNL     1      20.722  27.239  15.041  1.00  0.00     0.211 HD
ENDBRANCH  21  33
ENDBRANCH  15  16
ENDBRANCH  10  15
BRANCH  12  35
ATOM     35  O   UNL     1      15.130  29.066  16.919  1.00  0.00    -0.385 OA
ATOM     36  H   UNL     1      15.341  29.773  16.288  1.00  0.00     0.211 HD
ENDBRANCH  12  35
BRANCH  13  37
ATOM     37  O   UNL     1      15.538  28.146  20.245  1.00  0.00    -0.387 OA
ATOM     38  H   UNL     1      14.874  27.568  20.700  1.00  0.00     0.211 HD
ENDBRANCH  13  37
BRANCH  14  39
ATOM     39  O   UNL     1      13.481  29.632  20.985  1.00  0.00    -0.387 OA
ATOM     40  H   UNL     1      14.099  29.128  21.549  1.00  0.00     0.211 HD
ENDBRANCH  14  39
ENDBRANCH   8   9
ENDBRANCH   7   8
ENDBRANCH   1   7
BRANCH   1  41
ATOM     41  C   UNL     1      16.338  30.435  24.385  1.00  0.00     0.364 C 
ATOM     42  O   UNL     1      16.439  31.165  25.379  1.00  0.00    -0.246 OA
BRANCH  41  43
ATOM     43  O   UNL     1      15.440  29.370  24.505  1.00  0.00    -0.477 OA
ATOM     44  H   UNL     1      15.772  28.397  24.395  1.00  0.00     0.296 HD
ENDBRANCH  41  43
ENDBRANCH   1  41
BRANCH   3  45
ATOM     45  O   UNL     1      19.360  31.555  21.583  1.00  0.00    -0.391 OA
ATOM     46  H   UNL     1      18.869  30.714  21.403  1.00  0.00     0.211 HD
ENDBRANCH   3  45
BRANCH   5  47
ATOM     47  C   UNL     1      20.290  29.148  23.836  1.00  0.00     0.176 C 
BRANCH  47  48
ATOM     48  O   UNL     1      21.216  29.550  22.922  1.00  0.00    -0.388 OA
ATOM     49  H   UNL     1      22.078  29.105  23.095  1.00  0.00     0.211 HD
ENDBRANCH  47  48
BRANCH  47  50
ATOM     50  C   UNL     1      20.851  28.544  25.047  1.00  0.00     0.165 C 
BRANCH  50  51
ATOM     51  O   UNL     1      22.159  28.935  25.364  1.00  0.00    -0.388 OA
ATOM     52  H   UNL     1      22.170  29.861  25.720  1.00  0.00     0.211 HD
ENDBRANCH  50  51
BRANCH  50  53
ATOM     53  C   UNL     1      20.799  27.043  25.144  1.00  0.00     0.154 C 
BRANCH  53  54
ATOM     54  N   UNL     1      21.772  26.509  24.176  1.00  0.00    -0.319 N 
ATOM     55  C   UNL     1      21.555  25.277  23.495  1.00  0.00     0.407 C 
ATOM     56  H   UNL     1      22.623  27.054  24.001  1.00  0.00     0.167 HD
ATOM     57  O   UNL     1      20.490  24.658  23.756  1.00  0.00    -0.225 OA
BRANCH  55  58
ATOM     58  O   UNL     1      22.445  24.753  22.588  1.00  0.00    -0.443 OA
BRANCH  58  59
ATOM     59  C   UNL     1      23.761  24.427  22.966  1.00  0.00     0.294 C 
BRANCH  59  60
ATOM     60  C   UNL     1      24.583  24.287  21.741  1.00  0.00     0.120 A 
ATOM     61  C   UNL     1      25.934  23.975  21.644  1.00  0.00     0.138 A 
ATOM     62  N   UNL     1      24.179  24.447  20.465  1.00  0.00    -0.132 NA
ATOM     63  N   UNL     1      26.287  23.957  20.344  1.00  0.00    -0.248 N 
ATOM     64  N   UNL     1      25.211  24.245  19.657  1.00  0.00    -0.067 NA
BRANCH  63  65
ATOM     65  C   UNL     1      27.596  23.669  19.838  1.00  0.00     0.181 C 
BRANCH  65  66
ATOM     66  C   UNL     1      28.006  22.253  19.981  1.00  0.00    -0.023 A 
ATOM     67  C   UNL     1      28.029  21.435  18.894  1.00  0.00     0.010 A 
ATOM     68  C   UNL     1      28.368  21.749  21.235  1.00  0.00     0.056 A 
ATOM     69  C   UNL     1      28.410  20.126  19.049  1.00  0.00     0.051 A 
ATOM     70  C   UNL     1      28.748  20.446  21.404  1.00  0.00     0.166 A 
ATOM     71  C   UNL     1      28.762  19.641  20.279  1.00  0.00     0.165 A 
ATOM     72  O   UNL     1      29.153  19.652  22.460  1.00  0.00    -0.454 OA
ATOM     73  O   UNL     1      29.174  18.354  20.648  1.00  0.00    -0.454 OA
ATOM     74  C   UNL     1      29.762  18.479  21.925  1.00  0.00     0.468 C 
ENDBRANCH  65  66
ENDBRANCH  63  65
ENDBRANCH  59  60
ENDBRANCH  58  59
ENDBRANCH  55  58
ENDBRANCH  53  54
ENDBRANCH  50  53
ENDBRANCH  47  50
ENDBRANCH   5  47
BRANCH   4  75
ATOM     75  N   UNL     1      19.522  32.477  24.976  1.00  0.00    -0.348 N 
ATOM     76  C   UNL     1      20.562  32.592  25.958  1.00  0.00     0.217 C 
ATOM     77  H   UNL     1      18.697  33.078  25.150  1.00  0.00     0.163 HD
ATOM     78  C   UNL     1      20.378  33.531  27.117  1.00  0.00     0.114 C 
ATOM     79  O   UNL     1      21.613  31.917  25.850  1.00  0.00    -0.275 OA
ENDBRANCH   4  75
TORSDOF 31
