REMARK VINA RESULT:    -6.483      3.522      9.554
REMARK INTER + INTRA:         -20.974
REMARK INTER:                 -14.022
REMARK INTRA:                  -6.951
REMARK UNBOUND:                -5.017
REMARK SMILES CC(=O)N[C@@H]1[C@@H](O)C[C@](OC[C@H]2O[C@@H](O[C@H]3[C@H](O)[C@@H](O)[C@H](OCCN=[N+]=[N-])O[C@@H]3CO)[C@H](O)[C@@H](O)[C@H]2O)(C(=O)O)O[C@H]1C(O)[C@H](O)CNC(=O)OCc1cn(C2CCCCC2)nn1
REMARK SMILES IDX 9 1 8 2 6 3 5 4 42 5 41 6 10 7 11 8 12 9 14 10 13 11 32 12
REMARK SMILES IDX 34 13 36 14 15 15 16 16 29 17 28 18 21 19 17 20 19 21 30 22
REMARK SMILES IDX 31 23 22 25 23 26 24 27 25 28 26 29 27 30 18 31 20 33 33 35
REMARK SMILES IDX 35 37 37 39 38 41 39 42 40 43 7 45 43 47 44 48 45 50 46 51
REMARK SMILES IDX 47 53 48 54 49 55 50 57 51 58 52 59 53 60 54 61 63 62 55 63
REMARK SMILES IDX 62 64 56 65 57 66 61 67 58 68 60 69 59 70 4 71 2 72 1 74
REMARK SMILES IDX 3 75
REMARK H PARENT 31 24 18 32 20 34 33 36 35 38 37 40 40 44 7 46 44 49 46 52
REMARK H PARENT 48 56 4 73
REMARK Flexibility Score: inf
ROOT
ATOM      1  C   UNL     1      21.976  30.234  20.533  1.00  0.00     0.272 C 
ATOM      2  C   UNL     1      21.354  30.299  21.977  1.00  0.00     0.113 C 
ATOM      3  C   UNL     1      20.098  29.483  22.013  1.00  0.00     0.145 C 
ATOM      4  C   UNL     1      19.128  29.938  20.955  1.00  0.00     0.142 C 
ATOM      5  C   UNL     1      19.780  30.328  19.675  1.00  0.00     0.178 C 
ATOM      6  O   UNL     1      21.070  30.585  19.604  1.00  0.00    -0.332 OA
ENDROOT
BRANCH   1   7
ATOM      7  O   UNL     1      22.381  28.975  20.438  1.00  0.00    -0.338 OA
BRANCH   7   8
ATOM      8  C   UNL     1      22.858  28.235  19.496  1.00  0.00     0.199 C 
BRANCH   8   9
ATOM      9  C   UNL     1      23.642  26.962  19.768  1.00  0.00     0.179 C 
ATOM     10  C   UNL     1      24.004  26.120  21.927  1.00  0.00     0.282 C 
ATOM     11  O   UNL     1      24.353  27.018  20.924  1.00  0.00    -0.341 OA
ATOM     12  C   UNL     1      24.018  24.740  21.388  1.00  0.00     0.202 C 
ATOM     13  C   UNL     1      23.237  24.576  20.107  1.00  0.00     0.179 C 
ATOM     14  C   UNL     1      22.590  25.858  19.744  1.00  0.00     0.177 C 
BRANCH  10  15
ATOM     15  O   UNL     1      22.893  26.590  22.526  1.00  0.00    -0.341 OA
BRANCH  15  16
ATOM     16  C   UNL     1      22.839  26.712  23.876  1.00  0.00     0.184 C 
ATOM     17  C   UNL     1      21.627  25.947  24.365  1.00  0.00     0.178 C 
ATOM     18  O   UNL     1      21.635  25.766  25.735  1.00  0.00    -0.341 OA
ATOM     19  C   UNL     1      22.333  26.716  26.432  1.00  0.00     0.281 C 
ATOM     20  C   UNL     1      22.625  28.132  24.358  1.00  0.00     0.180 C 
ATOM     21  C   UNL     1      22.229  28.062  25.814  1.00  0.00     0.202 C 
BRANCH  17  22
ATOM     22  C   UNL     1      21.369  24.677  23.606  1.00  0.00     0.191 C 
BRANCH  22  23
ATOM     23  O   UNL     1      20.459  24.972  22.590  1.00  0.00    -0.394 OA
ATOM     24  H   UNL     1      20.025  24.162  22.232  1.00  0.00     0.210 HD
ENDBRANCH  22  23
ENDBRANCH  17  22
BRANCH  19  25
ATOM     25  O   UNL     1      23.597  26.258  26.692  1.00  0.00    -0.350 OA
BRANCH  25  26
ATOM     26  C   UNL     1      23.666  25.298  27.690  1.00  0.00     0.169 C 
BRANCH  26  27
ATOM     27  C   UNL     1      24.145  25.829  29.014  1.00  0.00     0.119 C 
BRANCH  27  28
ATOM     28  N   UNL     1      25.372  26.565  28.790  1.00  0.00    -0.092 NA
ATOM     29  N   UNL     1      26.423  25.915  28.882  1.00  0.00     0.001 N 
ATOM     30  N   UNL     1      27.477  25.562  29.440  1.00  0.00    -0.003 NA
ENDBRANCH  27  28
ENDBRANCH  26  27
ENDBRANCH  25  26
ENDBRANCH  19  25
BRANCH  20  31
ATOM     31  O   UNL     1      23.740  28.927  24.248  1.00  0.00    -0.387 OA
ATOM     32  H   UNL     1      24.336  28.665  23.504  1.00  0.00     0.211 HD
ENDBRANCH  20  31
BRANCH  21  33
ATOM     33  O   UNL     1      20.861  28.429  25.861  1.00  0.00    -0.385 OA
ATOM     34  H   UNL     1      20.287  27.643  25.691  1.00  0.00     0.211 HD
ENDBRANCH  21  33
ENDBRANCH  15  16
ENDBRANCH  10  15
BRANCH  12  35
ATOM     35  O   UNL     1      25.370  24.466  21.054  1.00  0.00    -0.385 OA
ATOM     36  H   UNL     1      25.888  25.292  20.939  1.00  0.00     0.211 HD
ENDBRANCH  12  35
BRANCH  13  37
ATOM     37  O   UNL     1      22.263  23.566  20.236  1.00  0.00    -0.387 OA
ATOM     38  H   UNL     1      22.465  22.858  19.604  1.00  0.00     0.211 HD
ENDBRANCH  13  37
BRANCH  14  39
ATOM     39  O   UNL     1      21.437  26.181  20.404  1.00  0.00    -0.387 OA
ATOM     40  H   UNL     1      21.461  27.145  20.614  1.00  0.00     0.211 HD
ENDBRANCH  14  39
ENDBRANCH   8   9
ENDBRANCH   7   8
ENDBRANCH   1   7
BRANCH   1  41
ATOM     41  C   UNL     1      23.015  31.320  20.578  1.00  0.00     0.364 C 
ATOM     42  O   UNL     1      24.220  31.138  20.455  1.00  0.00    -0.246 OA
BRANCH  41  43
ATOM     43  O   UNL     1      22.611  32.656  20.772  1.00  0.00    -0.477 OA
ATOM     44  H   UNL     1      23.122  33.255  21.401  1.00  0.00     0.296 HD
ENDBRANCH  41  43
ENDBRANCH   1  41
BRANCH   3  45
ATOM     45  O   UNL     1      20.368  28.123  21.928  1.00  0.00    -0.391 OA
ATOM     46  H   UNL     1      21.107  28.004  21.264  1.00  0.00     0.211 HD
ENDBRANCH   3  45
BRANCH   5  47
ATOM     47  C   UNL     1      19.470  29.262  18.579  1.00  0.00     0.176 C 
BRANCH  47  48
ATOM     48  O   UNL     1      19.279  28.017  19.210  1.00  0.00    -0.388 OA
ATOM     49  H   UNL     1      19.035  27.320  18.570  1.00  0.00     0.211 HD
ENDBRANCH  47  48
BRANCH  47  50
ATOM     50  C   UNL     1      18.300  29.653  17.743  1.00  0.00     0.165 C 
BRANCH  50  51
ATOM     51  O   UNL     1      17.748  30.809  18.343  1.00  0.00    -0.388 OA
ATOM     52  H   UNL     1      18.263  31.610  18.125  1.00  0.00     0.211 HD
ENDBRANCH  50  51
BRANCH  50  53
ATOM     53  C   UNL     1      17.197  28.669  17.626  1.00  0.00     0.154 C 
BRANCH  53  54
ATOM     54  N   UNL     1      16.045  28.917  18.452  1.00  0.00    -0.319 N 
ATOM     55  C   UNL     1      15.790  28.221  19.664  1.00  0.00     0.407 C 
ATOM     56  H   UNL     1      15.364  29.639  18.159  1.00  0.00     0.167 HD
ATOM     57  O   UNL     1      16.592  27.340  20.063  1.00  0.00    -0.225 OA
BRANCH  55  58
ATOM     58  O   UNL     1      14.686  28.477  20.429  1.00  0.00    -0.443 OA
BRANCH  58  59
ATOM     59  C   UNL     1      13.817  29.578  20.315  1.00  0.00     0.294 C 
BRANCH  59  60
ATOM     60  C   UNL     1      13.276  29.900  21.653  1.00  0.00     0.120 A 
ATOM     61  C   UNL     1      12.408  30.931  21.873  1.00  0.00     0.138 A 
ATOM     62  N   UNL     1      13.500  29.313  22.833  1.00  0.00    -0.132 NA
ATOM     63  N   UNL     1      12.110  30.961  23.193  1.00  0.00    -0.249 N 
ATOM     64  N   UNL     1      12.791  29.962  23.752  1.00  0.00    -0.067 NA
BRANCH  63  65
ATOM     65  C   UNL     1      11.226  31.904  23.849  1.00  0.00     0.109 C 
ATOM     66  C   UNL     1       9.816  31.356  23.649  1.00  0.00     0.027 C 
ATOM     67  C   UNL     1      11.310  33.258  23.180  1.00  0.00     0.027 C 
ATOM     68  C   UNL     1       8.827  32.252  24.394  1.00  0.00     0.002 C 
ATOM     69  C   UNL     1       9.950  33.796  22.785  1.00  0.00     0.002 C 
ATOM     70  C   UNL     1       8.981  33.661  23.920  1.00  0.00     0.000 C 
ENDBRANCH  63  65
ENDBRANCH  59  60
ENDBRANCH  58  59
ENDBRANCH  55  58
ENDBRANCH  53  54
ENDBRANCH  50  53
ENDBRANCH  47  50
ENDBRANCH   5  47
BRANCH   4  71
ATOM     71  N   UNL     1      18.199  30.913  21.462  1.00  0.00    -0.348 N 
ATOM     72  C   UNL     1      17.127  30.624  22.322  1.00  0.00     0.217 C 
ATOM     73  H   UNL     1      18.285  31.947  21.198  1.00  0.00     0.163 HD
ATOM     74  C   UNL     1      16.202  31.696  22.826  1.00  0.00     0.114 C 
ATOM     75  O   UNL     1      16.896  29.476  22.702  1.00  0.00    -0.275 OA
ENDBRANCH   4  71
TORSDOF 30
