REMARK VINA RESULT:    -5.344      2.909      5.567
REMARK INTER + INTRA:         -22.177
REMARK INTER:                 -13.940
REMARK INTRA:                  -8.236
REMARK UNBOUND:                -7.304
REMARK SMILES CC(=O)N[C@@H]1[C@@H](O)C[C@](OC[C@H]2O[C@@H](O[C@H]3[C@H](O)[C@@H](O)[C@H](OCCN=[N+]=[N-])O[C@@H]3CO)[C@H](O)[C@@H](O)[C@H]2O)(C(=O)O)O[C@H]1C(O)[C@H](O)CNC(=O)OCc1cn(CCCCCC(=O)O)nn1
REMARK SMILES IDX 47 1 45 2 43 3 42 4 9 5 8 6 41 7 6 8 5 9 10 10 11 11 12 12
REMARK SMILES IDX 14 13 13 14 32 15 34 16 36 17 15 18 16 19 29 20 28 21 21 22
REMARK SMILES IDX 17 23 19 24 30 25 31 26 22 28 23 29 24 30 25 31 26 32 27 33
REMARK SMILES IDX 18 34 20 36 33 38 35 40 37 42 38 44 39 45 40 46 7 48 4 50
REMARK SMILES IDX 2 51 1 53 3 54 44 55 46 57 48 59 49 60 50 62 51 63 52 64
REMARK SMILES IDX 53 65 54 66 65 67 55 68 64 69 56 70 57 71 58 72 59 73 60 74
REMARK SMILES IDX 61 75 62 76 63 77
REMARK H PARENT 31 27 18 35 20 37 33 39 35 41 37 43 40 47 7 49 4 52 44 56
REMARK H PARENT 46 58 48 61 63 78
REMARK Flexibility Score: inf
ROOT
ATOM      1  C   UNL     1      20.779  29.208  20.621  1.00  0.00     0.154 C 
ENDROOT
BRANCH   1   2
ATOM      2  C   UNL     1      20.119  29.921  21.776  1.00  0.00     0.165 C 
BRANCH   2   3
ATOM      3  C   UNL     1      20.877  29.543  23.007  1.00  0.00     0.176 C 
BRANCH   3   4
ATOM      4  C   UNL     1      22.022  28.611  22.813  1.00  0.00     0.178 C 
ATOM      5  C   UNL     1      22.688  26.459  22.816  1.00  0.00     0.272 C 
ATOM      6  C   UNL     1      23.825  27.005  22.014  1.00  0.00     0.113 C 
ATOM      7  O   UNL     1      21.916  27.402  23.480  1.00  0.00    -0.332 OA
ATOM      8  C   UNL     1      24.369  28.327  22.399  1.00  0.00     0.145 C 
ATOM      9  C   UNL     1      23.372  29.169  23.207  1.00  0.00     0.142 C 
BRANCH   5  10
ATOM     10  O   UNL     1      23.076  25.422  23.662  1.00  0.00    -0.338 OA
BRANCH  10  11
ATOM     11  C   UNL     1      22.126  24.892  24.475  1.00  0.00     0.199 C 
BRANCH  11  12
ATOM     12  C   UNL     1      22.664  24.985  25.891  1.00  0.00     0.179 C 
ATOM     13  C   UNL     1      24.437  25.081  27.251  1.00  0.00     0.282 C 
ATOM     14  O   UNL     1      23.953  25.489  25.973  1.00  0.00    -0.341 OA
ATOM     15  C   UNL     1      23.434  25.074  28.315  1.00  0.00     0.202 C 
ATOM     16  C   UNL     1      22.179  25.868  28.086  1.00  0.00     0.179 C 
ATOM     17  C   UNL     1      21.797  25.985  26.635  1.00  0.00     0.177 C 
BRANCH  13  18
ATOM     18  O   UNL     1      25.667  25.685  27.496  1.00  0.00    -0.341 OA
BRANCH  18  19
ATOM     19  C   UNL     1      25.738  26.440  28.606  1.00  0.00     0.184 C 
ATOM     20  C   UNL     1      26.133  27.860  28.333  1.00  0.00     0.178 C 
ATOM     21  O   UNL     1      25.772  28.576  29.494  1.00  0.00    -0.341 OA
ATOM     22  C   UNL     1      26.564  28.240  30.540  1.00  0.00     0.281 C 
ATOM     23  C   UNL     1      26.905  25.941  29.526  1.00  0.00     0.180 C 
ATOM     24  C   UNL     1      27.492  27.119  30.262  1.00  0.00     0.202 C 
BRANCH  20  25
ATOM     25  C   UNL     1      25.392  28.490  27.183  1.00  0.00     0.191 C 
BRANCH  25  26
ATOM     26  O   UNL     1      25.858  28.013  25.976  1.00  0.00    -0.394 OA
ATOM     27  H   UNL     1      25.399  27.149  25.798  1.00  0.00     0.210 HD
ENDBRANCH  25  26
ENDBRANCH  20  25
BRANCH  22  28
ATOM     28  O   UNL     1      25.855  28.013  31.727  1.00  0.00    -0.350 OA
BRANCH  28  29
ATOM     29  C   UNL     1      24.941  29.000  31.996  1.00  0.00     0.169 C 
BRANCH  29  30
ATOM     30  C   UNL     1      23.593  28.373  32.321  1.00  0.00     0.119 C 
BRANCH  30  31
ATOM     31  N   UNL     1      22.570  28.842  31.401  1.00  0.00    -0.092 NA
ATOM     32  N   UNL     1      21.445  28.308  31.410  1.00  0.00     0.001 N 
ATOM     33  N   UNL     1      20.523  27.577  31.045  1.00  0.00    -0.003 NA
ENDBRANCH  30  31
ENDBRANCH  29  30
ENDBRANCH  28  29
ENDBRANCH  22  28
BRANCH  23  34
ATOM     34  O   UNL     1      26.372  25.073  30.478  1.00  0.00    -0.387 OA
ATOM     35  H   UNL     1      27.121  24.561  30.902  1.00  0.00     0.211 HD
ENDBRANCH  23  34
BRANCH  24  36
ATOM     36  O   UNL     1      28.732  27.517  29.747  1.00  0.00    -0.385 OA
ATOM     37  H   UNL     1      29.368  26.762  29.672  1.00  0.00     0.211 HD
ENDBRANCH  24  36
ENDBRANCH  18  19
ENDBRANCH  13  18
BRANCH  15  38
ATOM     38  O   UNL     1      22.987  23.753  28.610  1.00  0.00    -0.385 OA
ATOM     39  H   UNL     1      23.460  23.104  28.058  1.00  0.00     0.211 HD
ENDBRANCH  15  38
BRANCH  16  40
ATOM     40  O   UNL     1      22.270  27.178  28.590  1.00  0.00    -0.387 OA
ATOM     41  H   UNL     1      21.982  27.249  29.518  1.00  0.00     0.211 HD
ENDBRANCH  16  40
BRANCH  17  42
ATOM     42  O   UNL     1      22.184  27.262  26.156  1.00  0.00    -0.387 OA
ATOM     43  H   UNL     1      22.955  27.079  25.532  1.00  0.00     0.211 HD
ENDBRANCH  17  42
ENDBRANCH  11  12
ENDBRANCH  10  11
ENDBRANCH   5  10
BRANCH   5  44
ATOM     44  C   UNL     1      21.756  25.822  21.844  1.00  0.00     0.364 C 
ATOM     45  O   UNL     1      20.527  26.053  21.890  1.00  0.00    -0.246 OA
BRANCH  44  46
ATOM     46  O   UNL     1      22.238  24.969  20.882  1.00  0.00    -0.477 OA
ATOM     47  H   UNL     1      22.665  25.295  19.999  1.00  0.00     0.296 HD
ENDBRANCH  44  46
ENDBRANCH   5  44
BRANCH   8  48
ATOM     48  O   UNL     1      25.631  28.307  22.986  1.00  0.00    -0.391 OA
ATOM     49  H   UNL     1      25.519  28.492  23.945  1.00  0.00     0.211 HD
ENDBRANCH   8  48
BRANCH   9  50
ATOM     50  N   UNL     1      23.542  30.559  22.968  1.00  0.00    -0.348 N 
ATOM     51  C   UNL     1      24.423  31.308  23.785  1.00  0.00     0.217 C 
ATOM     52  H   UNL     1      23.037  31.035  22.208  1.00  0.00     0.163 HD
ATOM     53  C   UNL     1      24.622  32.763  23.555  1.00  0.00     0.114 C 
ATOM     54  O   UNL     1      25.074  30.782  24.734  1.00  0.00    -0.275 OA
ENDBRANCH   9  50
ENDBRANCH   3   4
BRANCH   3  55
ATOM     55  O   UNL     1      20.015  29.003  23.989  1.00  0.00    -0.388 OA
ATOM     56  H   UNL     1      20.542  28.525  24.668  1.00  0.00     0.211 HD
ENDBRANCH   3  55
ENDBRANCH   2   3
BRANCH   2  57
ATOM     57  O   UNL     1      18.802  29.485  21.855  1.00  0.00    -0.388 OA
ATOM     58  H   UNL     1      18.763  28.814  22.582  1.00  0.00     0.211 HD
ENDBRANCH   2  57
ENDBRANCH   1   2
BRANCH   1  59
ATOM     59  N   UNL     1      19.927  28.291  19.932  1.00  0.00    -0.319 N 
ATOM     60  C   UNL     1      19.325  28.717  18.705  1.00  0.00     0.407 C 
ATOM     61  H   UNL     1      19.726  27.340  20.277  1.00  0.00     0.167 HD
ATOM     62  O   UNL     1      19.547  29.868  18.252  1.00  0.00    -0.225 OA
BRANCH  60  63
ATOM     63  O   UNL     1      18.490  27.899  17.981  1.00  0.00    -0.443 OA
BRANCH  63  64
ATOM     64  C   UNL     1      17.123  28.076  17.853  1.00  0.00     0.294 C 
BRANCH  64  65
ATOM     65  C   UNL     1      16.360  28.265  19.093  1.00  0.00     0.120 A 
ATOM     66  C   UNL     1      15.053  28.658  19.219  1.00  0.00     0.138 A 
ATOM     67  N   UNL     1      16.842  28.092  20.345  1.00  0.00    -0.132 NA
ATOM     68  N   UNL     1      14.772  28.715  20.523  1.00  0.00    -0.252 N 
ATOM     69  N   UNL     1      15.867  28.369  21.168  1.00  0.00    -0.067 NA
BRANCH  68  70
ATOM     70  C   UNL     1      13.488  29.082  21.103  1.00  0.00     0.146 C 
BRANCH  70  71
ATOM     71  C   UNL     1      13.265  30.573  20.854  1.00  0.00     0.024 C 
BRANCH  71  72
ATOM     72  C   UNL     1      13.515  31.378  22.095  1.00  0.00     0.002 C 
BRANCH  72  73
ATOM     73  C   UNL     1      14.390  32.554  21.773  1.00  0.00     0.012 C 
BRANCH  73  74
ATOM     74  C   UNL     1      15.232  32.352  20.557  1.00  0.00     0.122 C 
BRANCH  74  75
ATOM     75  C   UNL     1      16.574  31.847  20.959  1.00  0.00     0.303 C 
ATOM     76  O   UNL     1      16.980  32.017  22.130  1.00  0.00    -0.252 OA
BRANCH  75  77
ATOM     77  O   UNL     1      17.393  31.183  20.051  1.00  0.00    -0.481 OA
ATOM     78  H   UNL     1      17.832  31.707  19.291  1.00  0.00     0.296 HD
ENDBRANCH  75  77
ENDBRANCH  74  75
ENDBRANCH  73  74
ENDBRANCH  72  73
ENDBRANCH  71  72
ENDBRANCH  70  71
ENDBRANCH  68  70
ENDBRANCH  64  65
ENDBRANCH  63  64
ENDBRANCH  60  63
ENDBRANCH   1  59
TORSDOF 36
