REMARK VINA RESULT:    -5.361      3.114      6.592
REMARK INTER + INTRA:         -20.797
REMARK INTER:                 -13.717
REMARK INTRA:                  -7.080
REMARK UNBOUND:                -7.600
REMARK SMILES CC(=O)N[C@@H]1[C@@H](O)C[C@](OC[C@H]2O[C@@H](O[C@H]3[C@H](O)[C@@H](O)[C@H](OCCN=[N+]=[N-])O[C@@H]3CO)[C@H](O)[C@@H](O)[C@H]2O)(C(=O)O)O[C@H]1C(O)[C@H](O)CNC(=O)OCc1cn(-c2ccc(Cl)cc2)nn1
REMARK SMILES IDX 9 1 8 2 6 3 5 4 42 5 41 6 10 7 11 8 12 9 14 10 13 11 32 12
REMARK SMILES IDX 34 13 36 14 15 15 16 16 29 17 28 18 21 19 17 20 19 21 30 22
REMARK SMILES IDX 31 23 22 25 23 26 24 27 25 28 26 29 27 30 18 31 20 33 33 35
REMARK SMILES IDX 35 37 37 39 38 41 39 42 40 43 7 45 43 47 44 48 45 50 46 51
REMARK SMILES IDX 47 53 48 54 49 55 50 57 51 58 52 59 53 60 54 61 64 62 55 63
REMARK SMILES IDX 63 64 56 65 57 66 62 67 58 68 61 69 59 70 60 71 4 72 2 73
REMARK SMILES IDX 1 75 3 76
REMARK H PARENT 31 24 18 32 20 34 33 36 35 38 37 40 40 44 7 46 44 49 46 52
REMARK H PARENT 48 56 4 74
REMARK Flexibility Score: inf
ROOT
ATOM      1  C   UNL     1      21.329  29.134  21.460  1.00  0.00     0.272 C 
ATOM      2  C   UNL     1      22.362  30.096  21.039  1.00  0.00     0.113 C 
ATOM      3  C   UNL     1      22.406  31.437  21.649  1.00  0.00     0.145 C 
ATOM      4  C   UNL     1      21.433  31.522  22.805  1.00  0.00     0.142 C 
ATOM      5  C   UNL     1      20.130  30.895  22.262  1.00  0.00     0.178 C 
ATOM      6  O   UNL     1      20.431  29.508  22.425  1.00  0.00    -0.332 OA
ENDROOT
BRANCH   1   7
ATOM      7  O   UNL     1      22.008  27.966  21.908  1.00  0.00    -0.338 OA
BRANCH   7   8
ATOM      8  C   UNL     1      22.907  27.478  21.000  1.00  0.00     0.199 C 
BRANCH   8   9
ATOM      9  C   UNL     1      23.511  26.151  21.454  1.00  0.00     0.179 C 
ATOM     10  C   UNL     1      23.638  25.184  23.595  1.00  0.00     0.282 C 
ATOM     11  O   UNL     1      23.994  26.214  22.723  1.00  0.00    -0.341 OA
ATOM     12  C   UNL     1      22.171  25.163  23.708  1.00  0.00     0.202 C 
ATOM     13  C   UNL     1      21.563  24.880  22.341  1.00  0.00     0.179 C 
ATOM     14  C   UNL     1      22.555  25.002  21.228  1.00  0.00     0.177 C 
BRANCH  10  15
ATOM     15  O   UNL     1      24.361  25.480  24.749  1.00  0.00    -0.341 OA
BRANCH  15  16
ATOM     16  C   UNL     1      23.690  25.949  25.796  1.00  0.00     0.184 C 
ATOM     17  C   UNL     1      24.010  27.358  26.149  1.00  0.00     0.178 C 
ATOM     18  O   UNL     1      23.069  27.883  27.029  1.00  0.00    -0.341 OA
ATOM     19  C   UNL     1      22.942  27.230  28.213  1.00  0.00     0.281 C 
ATOM     20  C   UNL     1      23.885  25.145  27.097  1.00  0.00     0.180 C 
ATOM     21  C   UNL     1      23.806  26.024  28.293  1.00  0.00     0.202 C 
BRANCH  17  22
ATOM     22  C   UNL     1      24.191  28.318  25.015  1.00  0.00     0.191 C 
BRANCH  22  23
ATOM     23  O   UNL     1      22.981  28.662  24.413  1.00  0.00    -0.394 OA
ATOM     24  H   UNL     1      22.858  29.639  24.468  1.00  0.00     0.210 HD
ENDBRANCH  22  23
ENDBRANCH  17  22
BRANCH  19  25
ATOM     25  O   UNL     1      21.617  26.820  28.401  1.00  0.00    -0.350 OA
BRANCH  25  26
ATOM     26  C   UNL     1      21.380  26.444  29.715  1.00  0.00     0.169 C 
BRANCH  26  27
ATOM     27  C   UNL     1      20.291  27.227  30.383  1.00  0.00     0.119 C 
BRANCH  27  28
ATOM     28  N   UNL     1      20.183  28.498  29.671  1.00  0.00    -0.092 NA
ATOM     29  N   UNL     1      19.865  29.475  30.374  1.00  0.00     0.001 N 
ATOM     30  N   UNL     1      19.903  30.508  31.077  1.00  0.00    -0.003 NA
ENDBRANCH  27  28
ENDBRANCH  26  27
ENDBRANCH  25  26
ENDBRANCH  19  25
BRANCH  20  31
ATOM     31  O   UNL     1      22.864  24.210  27.137  1.00  0.00    -0.387 OA
ATOM     32  H   UNL     1      23.198  23.407  26.624  1.00  0.00     0.211 HD
ENDBRANCH  20  31
BRANCH  21  33
ATOM     33  O   UNL     1      25.078  26.389  28.779  1.00  0.00    -0.385 OA
ATOM     34  H   UNL     1      24.902  27.019  29.512  1.00  0.00     0.211 HD
ENDBRANCH  21  33
ENDBRANCH  15  16
ENDBRANCH  10  15
BRANCH  12  35
ATOM     35  O   UNL     1      21.650  24.231  24.607  1.00  0.00    -0.385 OA
ATOM     36  H   UNL     1      21.396  24.671  25.481  1.00  0.00     0.211 HD
ENDBRANCH  12  35
BRANCH  13  37
ATOM     37  O   UNL     1      20.448  25.700  22.186  1.00  0.00    -0.387 OA
ATOM     38  H   UNL     1      19.600  25.233  22.144  1.00  0.00     0.211 HD
ENDBRANCH  13  37
BRANCH  14  39
ATOM     39  O   UNL     1      21.879  25.316  20.024  1.00  0.00    -0.387 OA
ATOM     40  H   UNL     1      22.428  25.974  19.561  1.00  0.00     0.211 HD
ENDBRANCH  14  39
ENDBRANCH   8   9
ENDBRANCH   7   8
ENDBRANCH   1   7
BRANCH   1  41
ATOM     41  C   UNL     1      20.559  28.692  20.242  1.00  0.00     0.364 C 
ATOM     42  O   UNL     1      20.891  29.042  19.088  1.00  0.00    -0.246 OA
BRANCH  41  43
ATOM     43  O   UNL     1      19.462  27.883  20.401  1.00  0.00    -0.477 OA
ATOM     44  H   UNL     1      18.535  28.110  20.047  1.00  0.00     0.296 HD
ENDBRANCH  41  43
ENDBRANCH   1  41
BRANCH   3  45
ATOM     45  O   UNL     1      23.670  31.717  22.169  1.00  0.00    -0.391 OA
ATOM     46  H   UNL     1      23.806  32.682  22.132  1.00  0.00     0.211 HD
ENDBRANCH   3  45
BRANCH   5  47
ATOM     47  C   UNL     1      18.938  31.216  23.089  1.00  0.00     0.176 C 
BRANCH  47  48
ATOM     48  O   UNL     1      18.283  32.286  22.495  1.00  0.00    -0.388 OA
ATOM     49  H   UNL     1      17.617  32.731  23.074  1.00  0.00     0.211 HD
ENDBRANCH  47  48
BRANCH  47  50
ATOM     50  C   UNL     1      18.001  30.150  23.467  1.00  0.00     0.165 C 
BRANCH  50  51
ATOM     51  O   UNL     1      17.680  29.487  22.226  1.00  0.00    -0.388 OA
ATOM     52  H   UNL     1      18.482  29.036  21.872  1.00  0.00     0.211 HD
ENDBRANCH  50  51
BRANCH  50  53
ATOM     53  C   UNL     1      16.639  30.667  23.906  1.00  0.00     0.154 C 
BRANCH  53  54
ATOM     54  N   UNL     1      15.534  30.116  23.173  1.00  0.00    -0.319 N 
ATOM     55  C   UNL     1      14.822  30.954  22.277  1.00  0.00     0.407 C 
ATOM     56  H   UNL     1      15.218  29.121  23.266  1.00  0.00     0.167 HD
ATOM     57  O   UNL     1      15.124  32.175  22.118  1.00  0.00    -0.225 OA
BRANCH  55  58
ATOM     58  O   UNL     1      13.763  30.462  21.537  1.00  0.00    -0.443 OA
BRANCH  58  59
ATOM     59  C   UNL     1      13.674  29.086  21.158  1.00  0.00     0.294 C 
BRANCH  59  60
ATOM     60  C   UNL     1      14.844  28.710  20.312  1.00  0.00     0.121 A 
ATOM     61  C   UNL     1      15.037  29.102  18.995  1.00  0.00     0.144 A 
ATOM     62  N   UNL     1      15.894  27.948  20.646  1.00  0.00    -0.131 NA
ATOM     63  N   UNL     1      16.192  28.569  18.574  1.00  0.00    -0.220 N 
ATOM     64  N   UNL     1      16.678  27.890  19.573  1.00  0.00    -0.062 NA
BRANCH  63  65
ATOM     65  C   UNL     1      16.699  28.773  17.253  1.00  0.00     0.066 A 
ATOM     66  C   UNL     1      18.032  28.613  16.969  1.00  0.00     0.030 A 
ATOM     67  C   UNL     1      15.858  29.135  16.238  1.00  0.00     0.030 A 
ATOM     68  C   UNL     1      18.557  28.806  15.689  1.00  0.00     0.023 A 
ATOM     69  C   UNL     1      16.353  29.334  14.956  1.00  0.00     0.023 A 
ATOM     70  C   UNL     1      17.710  29.169  14.676  1.00  0.00     0.041 A 
ATOM     71  Cl  UNL     1      18.326  29.425  13.042  1.00  0.00    -0.084 Cl
ENDBRANCH  63  65
ENDBRANCH  59  60
ENDBRANCH  58  59
ENDBRANCH  55  58
ENDBRANCH  53  54
ENDBRANCH  50  53
ENDBRANCH  47  50
ENDBRANCH   5  47
BRANCH   4  72
ATOM     72  N   UNL     1      21.300  32.847  23.280  1.00  0.00    -0.348 N 
ATOM     73  C   UNL     1      21.642  33.152  24.645  1.00  0.00     0.217 C 
ATOM     74  H   UNL     1      20.981  33.651  22.716  1.00  0.00     0.163 HD
ATOM     75  C   UNL     1      21.515  34.539  25.177  1.00  0.00     0.114 C 
ATOM     76  O   UNL     1      22.054  32.217  25.378  1.00  0.00    -0.275 OA
ENDBRANCH   4  72
TORSDOF 30
