REMARK VINA RESULT:    -6.010     15.163     18.751
REMARK INTER + INTRA:         -23.658
REMARK INTER:                 -17.362
REMARK INTRA:                  -6.297
REMARK UNBOUND:                -6.934
REMARK SMILES CCOCCc1c(-c2ccccc2)nc(N)nc1-n1cc(COC(=O)NC[C@@H](O)C(O)[C@@H]2O[C@@](OC[C@H]3O[C@@H](O[C@H]4[C@H](O)[C@@H](O)[C@H](OCCN=[N+]=[N-])O[C@@H]4CO)[C@H](O)[C@@H](O)[C@H]3O)(C(=O)O)C[C@H](O)[C@H]2NC(C)=O)nn1
REMARK SMILES IDX 30 1 32 2 34 3 66 4 33 5 67 6 69 7 35 8 36 9 37 10 39 11
REMARK SMILES IDX 38 12 57 13 59 14 61 15 40 16 41 17 54 18 53 19 46 20 42 21
REMARK SMILES IDX 44 22 55 23 56 24 47 26 48 27 49 28 50 29 51 30 52 31 43 32
REMARK SMILES IDX 45 34 58 36 60 38 62 40 63 42 64 43 65 44 68 46 70 48 71 49
REMARK SMILES IDX 72 51 73 52 31 53 28 55 29 56 27 58 26 59 24 60 25 62 23 63
REMARK SMILES IDX 22 64 21 65 20 66 74 67 19 68 75 69 18 70 17 71 6 72 15 73
REMARK SMILES IDX 7 74 14 75 5 76 4 77 3 78 2 79 1 80 16 81 8 84 9 85 13 86
REMARK SMILES IDX 10 87 12 88 11 89
REMARK H PARENT 56 25 43 33 45 35 58 37 60 39 62 41 65 45 68 47 70 50 31 54
REMARK H PARENT 29 57 26 61 16 82 16 83
REMARK Flexibility Score: inf
ROOT
ATOM      1  C   UNL     1      17.507  31.142  23.366  1.00  0.00     0.176 C 
ENDROOT
BRANCH   1   2
ATOM      2  C   UNL     1      16.046  31.479  23.346  1.00  0.00     0.178 C 
ATOM      3  C   UNL     1      14.166  30.752  22.156  1.00  0.00     0.272 C 
ATOM      4  C   UNL     1      13.481  31.768  23.074  1.00  0.00     0.113 C 
ATOM      5  O   UNL     1      15.437  30.487  22.518  1.00  0.00    -0.332 OA
ATOM      6  C   UNL     1      14.219  33.071  23.136  1.00  0.00     0.145 C 
ATOM      7  C   UNL     1      15.666  32.797  22.767  1.00  0.00     0.142 C 
BRANCH   3   8
ATOM      8  O   UNL     1      14.005  31.204  20.865  1.00  0.00    -0.338 OA
BRANCH   8   9
ATOM      9  C   UNL     1      15.086  31.056  20.037  1.00  0.00     0.199 C 
BRANCH   9  10
ATOM     10  C   UNL     1      14.855  29.998  18.968  1.00  0.00     0.179 C 
ATOM     11  C   UNL     1      15.352  29.864  16.693  1.00  0.00     0.282 C 
ATOM     12  O   UNL     1      14.910  30.608  17.749  1.00  0.00    -0.341 OA
ATOM     13  C   UNL     1      16.764  29.390  17.062  1.00  0.00     0.202 C 
ATOM     14  C   UNL     1      16.525  28.297  18.103  1.00  0.00     0.179 C 
ATOM     15  C   UNL     1      15.579  28.729  19.168  1.00  0.00     0.177 C 
BRANCH  11  16
ATOM     16  O   UNL     1      15.336  30.617  15.541  1.00  0.00    -0.341 OA
BRANCH  16  17
ATOM     17  C   UNL     1      14.316  30.244  14.681  1.00  0.00     0.184 C 
ATOM     18  C   UNL     1      13.130  31.136  14.824  1.00  0.00     0.178 C 
ATOM     19  O   UNL     1      12.014  30.590  15.377  1.00  0.00    -0.341 OA
ATOM     20  C   UNL     1      11.625  29.348  14.985  1.00  0.00     0.281 C 
ATOM     21  C   UNL     1      13.996  28.785  14.804  1.00  0.00     0.180 C 
ATOM     22  C   UNL     1      12.623  28.524  14.242  1.00  0.00     0.202 C 
BRANCH  18  23
ATOM     23  C   UNL     1      12.828  31.888  13.527  1.00  0.00     0.191 C 
BRANCH  23  24
ATOM     24  O   UNL     1      11.556  32.433  13.543  1.00  0.00    -0.394 OA
ATOM     25  H   UNL     1      11.475  33.016  12.746  1.00  0.00     0.210 HD
ENDBRANCH  23  24
ENDBRANCH  18  23
BRANCH  20  26
ATOM     26  O   UNL     1      10.482  29.488  14.206  1.00  0.00    -0.350 OA
BRANCH  26  27
ATOM     27  C   UNL     1       9.452  30.150  14.828  1.00  0.00     0.169 C 
BRANCH  27  28
ATOM     28  C   UNL     1       8.443  30.752  13.880  1.00  0.00     0.119 C 
BRANCH  28  29
ATOM     29  N   UNL     1       9.031  30.809  12.543  1.00  0.00    -0.092 NA
ATOM     30  N   UNL     1       8.758  29.964  11.681  1.00  0.00     0.001 N 
ATOM     31  N   UNL     1       8.491  28.988  10.982  1.00  0.00    -0.003 NA
ENDBRANCH  28  29
ENDBRANCH  27  28
ENDBRANCH  26  27
ENDBRANCH  20  26
BRANCH  21  32
ATOM     32  O   UNL     1      14.906  27.980  14.112  1.00  0.00    -0.387 OA
ATOM     33  H   UNL     1      15.658  27.689  14.696  1.00  0.00     0.211 HD
ENDBRANCH  21  32
BRANCH  22  34
ATOM     34  O   UNL     1      12.331  27.178  14.454  1.00  0.00    -0.385 OA
ATOM     35  H   UNL     1      13.086  26.689  14.868  1.00  0.00     0.211 HD
ENDBRANCH  22  34
ENDBRANCH  16  17
ENDBRANCH  11  16
BRANCH  13  36
ATOM     36  O   UNL     1      17.448  28.872  15.989  1.00  0.00    -0.385 OA
ATOM     37  H   UNL     1      17.299  29.407  15.162  1.00  0.00     0.211 HD
ENDBRANCH  13  36
BRANCH  14  38
ATOM     38  O   UNL     1      17.688  27.715  18.553  1.00  0.00    -0.387 OA
ATOM     39  H   UNL     1      18.493  28.057  18.057  1.00  0.00     0.211 HD
ENDBRANCH  14  38
BRANCH  15  40
ATOM     40  O   UNL     1      16.309  28.808  20.373  1.00  0.00    -0.387 OA
ATOM     41  H   UNL     1      17.057  29.449  20.258  1.00  0.00     0.211 HD
ENDBRANCH  15  40
ENDBRANCH   9  10
ENDBRANCH   8   9
ENDBRANCH   3   8
BRANCH   3  42
ATOM     42  C   UNL     1      13.347  29.513  22.346  1.00  0.00     0.364 C 
ATOM     43  O   UNL     1      12.266  29.683  23.014  1.00  0.00    -0.246 OA
BRANCH  42  44
ATOM     44  O   UNL     1      13.661  28.271  21.875  1.00  0.00    -0.477 OA
ATOM     45  H   UNL     1      12.945  27.551  21.847  1.00  0.00     0.296 HD
ENDBRANCH  42  44
ENDBRANCH   3  42
BRANCH   6  46
ATOM     46  O   UNL     1      13.604  33.934  22.217  1.00  0.00    -0.391 OA
ATOM     47  H   UNL     1      13.737  33.639  21.295  1.00  0.00     0.211 HD
ENDBRANCH   6  46
BRANCH   7  48
ATOM     48  N   UNL     1      16.508  33.911  23.079  1.00  0.00    -0.348 N 
ATOM     49  C   UNL     1      17.265  34.624  22.113  1.00  0.00     0.217 C 
ATOM     50  H   UNL     1      16.539  34.210  24.077  1.00  0.00     0.163 HD
ATOM     51  C   UNL     1      18.100  35.761  22.549  1.00  0.00     0.114 C 
ATOM     52  O   UNL     1      17.219  34.288  20.911  1.00  0.00    -0.275 OA
ENDBRANCH   7  48
ENDBRANCH   1   2
BRANCH   1  53
ATOM     53  O   UNL     1      17.584  29.787  22.893  1.00  0.00    -0.388 OA
ATOM     54  H   UNL     1      16.660  29.462  22.880  1.00  0.00     0.211 HD
ENDBRANCH   1  53
BRANCH   1  55
ATOM     55  C   UNL     1      18.230  31.183  24.651  1.00  0.00     0.165 C 
BRANCH  55  56
ATOM     56  O   UNL     1      17.213  31.140  25.649  1.00  0.00    -0.388 OA
ATOM     57  H   UNL     1      17.614  31.408  26.500  1.00  0.00     0.211 HD
ENDBRANCH  55  56
BRANCH  55  58
ATOM     58  C   UNL     1      19.097  32.339  24.921  1.00  0.00     0.154 C 
BRANCH  58  59
ATOM     59  N   UNL     1      19.725  32.370  26.185  1.00  0.00    -0.319 N 
ATOM     60  C   UNL     1      21.061  32.733  26.438  1.00  0.00     0.407 C 
ATOM     61  H   UNL     1      19.185  32.098  27.088  1.00  0.00     0.167 HD
ATOM     62  O   UNL     1      21.848  33.074  25.527  1.00  0.00    -0.225 OA
BRANCH  60  63
ATOM     63  O   UNL     1      21.602  32.742  27.728  1.00  0.00    -0.443 OA
BRANCH  63  64
ATOM     64  C   UNL     1      22.479  31.732  28.180  1.00  0.00     0.294 C 
BRANCH  64  65
ATOM     65  C   UNL     1      21.892  30.381  28.006  1.00  0.00     0.121 A 
ATOM     66  C   UNL     1      22.525  29.259  27.540  1.00  0.00     0.146 A 
ATOM     67  N   UNL     1      20.619  29.995  28.248  1.00  0.00    -0.131 NA
ATOM     68  N   UNL     1      21.622  28.207  27.504  1.00  0.00    -0.202 N 
ATOM     69  N   UNL     1      20.509  28.716  27.940  1.00  0.00    -0.060 NA
BRANCH  68  70
ATOM     70  C   UNL     1      22.055  26.955  27.034  1.00  0.00     0.164 A 
ATOM     71  N   UNL     1      22.313  25.977  27.937  1.00  0.00    -0.193 NA
ATOM     72  C   UNL     1      22.166  26.614  25.678  1.00  0.00     0.026 A 
ATOM     73  C   UNL     1      22.656  24.733  27.600  1.00  0.00     0.222 A 
ATOM     74  C   UNL     1      22.511  25.348  25.310  1.00  0.00     0.081 A 
ATOM     75  N   UNL     1      22.751  24.429  26.304  1.00  0.00    -0.213 NA
BRANCH  72  76
ATOM     76  C   UNL     1      22.003  27.720  24.728  1.00  0.00     0.070 C 
BRANCH  76  77
ATOM     77  C   UNL     1      20.565  28.023  24.365  1.00  0.00     0.165 C 
BRANCH  77  78
ATOM     78  O   UNL     1      20.349  28.714  23.212  1.00  0.00    -0.381 OA
BRANCH  78  79
ATOM     79  C   UNL     1      21.263  28.595  22.210  1.00  0.00     0.156 C 
ATOM     80  C   UNL     1      20.590  28.195  20.885  1.00  0.00     0.035 C 
ENDBRANCH  78  79
ENDBRANCH  77  78
ENDBRANCH  76  77
ENDBRANCH  72  76
BRANCH  73  81
ATOM     81  N   UNL     1      22.921  23.736  28.593  1.00  0.00    -0.368 N 
ATOM     82  H   UNL     1      23.901  23.491  28.841  1.00  0.00     0.159 HD
ATOM     83  H   UNL     1      22.172  23.231  29.094  1.00  0.00     0.159 HD
ENDBRANCH  73  81
BRANCH  74  84
ATOM     84  C   UNL     1      22.622  24.910  23.937  1.00  0.00     0.001 A 
ATOM     85  C   UNL     1      23.895  24.639  23.439  1.00  0.00     0.010 A 
ATOM     86  C   UNL     1      21.519  24.729  23.122  1.00  0.00     0.010 A 
ATOM     87  C   UNL     1      24.080  24.189  22.139  1.00  0.00     0.001 A 
ATOM     88  C   UNL     1      21.725  24.283  21.838  1.00  0.00     0.001 A 
ATOM     89  C   UNL     1      22.975  24.012  21.339  1.00  0.00     0.000 A 
ENDBRANCH  74  84
ENDBRANCH  68  70
ENDBRANCH  64  65
ENDBRANCH  63  64
ENDBRANCH  60  63
ENDBRANCH  58  59
ENDBRANCH  55  58
ENDBRANCH   1  55
TORSDOF 36
