REMARK VINA RESULT:    -6.188     14.612     20.424
REMARK INTER + INTRA:         -22.009
REMARK INTER:                 -13.976
REMARK INTRA:                  -8.033
REMARK UNBOUND:                -6.778
REMARK SMILES CC(=O)N[C@@H]1[C@@H](O)C[C@](OC[C@H]2O[C@@H](O[C@H]3[C@H](O)[C@@H](O)[C@H](OCCN=[N+]=[N-])O[C@@H]3CO)[C@H](O)[C@@H](O)[C@H]2O)(C(=O)O)O[C@H]1C(O)[C@H](O)CNC(=O)OCc1cn(-c2ccc3c(c2)OCO3)nn1
REMARK SMILES IDX 9 1 8 2 6 3 5 4 42 5 41 6 10 7 11 8 12 9 14 10 13 11 32 12
REMARK SMILES IDX 34 13 36 14 15 15 16 16 29 17 28 18 21 19 17 20 19 21 30 22
REMARK SMILES IDX 31 23 22 25 23 26 24 27 25 28 26 29 27 30 18 31 20 33 33 35
REMARK SMILES IDX 35 37 37 39 38 41 39 42 40 43 7 45 43 47 44 48 45 50 46 51
REMARK SMILES IDX 47 53 48 54 49 55 50 57 51 58 52 59 53 60 54 61 66 62 55 63
REMARK SMILES IDX 65 64 56 65 57 66 61 67 58 68 60 69 59 70 62 71 64 72 63 73
REMARK SMILES IDX 4 74 2 75 1 77 3 78
REMARK H PARENT 31 24 18 32 20 34 33 36 35 38 37 40 40 44 7 46 44 49 46 52
REMARK H PARENT 48 56 4 76
REMARK Flexibility Score: inf
ROOT
ATOM      1  C   UNL     1       2.186  24.624  27.078  1.00  0.00     0.272 C 
ATOM      2  C   UNL     1       0.739  24.273  27.293  1.00  0.00     0.113 C 
ATOM      3  C   UNL     1       0.236  24.726  28.676  1.00  0.00     0.145 C 
ATOM      4  C   UNL     1       0.976  23.856  29.670  1.00  0.00     0.142 C 
ATOM      5  C   UNL     1       2.446  24.023  29.344  1.00  0.00     0.178 C 
ATOM      6  O   UNL     1       2.727  24.913  28.363  1.00  0.00    -0.332 OA
ENDROOT
BRANCH   1   7
ATOM      7  O   UNL     1       2.386  25.720  26.364  1.00  0.00    -0.338 OA
BRANCH   7   8
ATOM      8  C   UNL     1       2.801  25.944  25.156  1.00  0.00     0.199 C 
BRANCH   8   9
ATOM      9  C   UNL     1       3.999  26.808  24.865  1.00  0.00     0.179 C 
ATOM     10  C   UNL     1       4.833  28.894  25.478  1.00  0.00     0.282 C 
ATOM     11  O   UNL     1       3.749  28.067  25.347  1.00  0.00    -0.341 OA
ATOM     12  C   UNL     1       6.075  28.383  24.826  1.00  0.00     0.202 C 
ATOM     13  C   UNL     1       6.437  26.991  25.315  1.00  0.00     0.179 C 
ATOM     14  C   UNL     1       5.208  26.198  25.620  1.00  0.00     0.177 C 
BRANCH  10  15
ATOM     15  O   UNL     1       5.112  28.987  26.856  1.00  0.00    -0.341 OA
BRANCH  15  16
ATOM     16  C   UNL     1       4.738  30.187  27.403  1.00  0.00     0.184 C 
ATOM     17  C   UNL     1       5.612  30.493  28.591  1.00  0.00     0.178 C 
ATOM     18  O   UNL     1       5.171  29.934  29.767  1.00  0.00    -0.341 OA
ATOM     19  C   UNL     1       4.453  28.753  29.572  1.00  0.00     0.281 C 
ATOM     20  C   UNL     1       3.280  30.072  27.781  1.00  0.00     0.180 C 
ATOM     21  C   UNL     1       3.157  29.000  28.841  1.00  0.00     0.202 C 
BRANCH  17  22
ATOM     22  C   UNL     1       5.737  31.993  28.821  1.00  0.00     0.191 C 
BRANCH  22  23
ATOM     23  O   UNL     1       6.591  32.576  27.894  1.00  0.00    -0.394 OA
ATOM     24  H   UNL     1       7.403  32.985  28.326  1.00  0.00     0.210 HD
ENDBRANCH  22  23
ENDBRANCH  17  22
BRANCH  19  25
ATOM     25  O   UNL     1       4.145  28.287  30.843  1.00  0.00    -0.350 OA
BRANCH  25  26
ATOM     26  C   UNL     1       5.268  28.421  31.653  1.00  0.00     0.169 C 
BRANCH  26  27
ATOM     27  C   UNL     1       4.948  28.058  33.100  1.00  0.00     0.119 C 
BRANCH  27  28
ATOM     28  N   UNL     1       5.762  26.877  33.423  1.00  0.00    -0.092 NA
ATOM     29  N   UNL     1       6.832  27.037  34.049  1.00  0.00     0.001 N 
ATOM     30  N   UNL     1       7.870  27.410  34.623  1.00  0.00    -0.003 NA
ENDBRANCH  27  28
ENDBRANCH  26  27
ENDBRANCH  25  26
ENDBRANCH  19  25
BRANCH  20  31
ATOM     31  O   UNL     1       2.718  31.271  28.173  1.00  0.00    -0.387 OA
ATOM     32  H   UNL     1       3.211  31.725  28.917  1.00  0.00     0.211 HD
ENDBRANCH  20  31
BRANCH  21  33
ATOM     33  O   UNL     1       2.805  27.812  28.196  1.00  0.00    -0.385 OA
ATOM     34  H   UNL     1       2.724  27.915  27.215  1.00  0.00     0.211 HD
ENDBRANCH  21  33
ENDBRANCH  15  16
ENDBRANCH  10  15
BRANCH  12  35
ATOM     35  O   UNL     1       6.030  28.367  23.434  1.00  0.00    -0.385 OA
ATOM     36  H   UNL     1       5.070  28.233  23.159  1.00  0.00     0.211 HD
ENDBRANCH  12  35
BRANCH  13  37
ATOM     37  O   UNL     1       7.232  27.131  26.455  1.00  0.00    -0.387 OA
ATOM     38  H   UNL     1       7.050  26.469  27.148  1.00  0.00     0.211 HD
ENDBRANCH  13  37
BRANCH  14  39
ATOM     39  O   UNL     1       4.977  26.250  26.992  1.00  0.00    -0.387 OA
ATOM     40  H   UNL     1       5.299  27.061  27.417  1.00  0.00     0.211 HD
ENDBRANCH  14  39
ENDBRANCH   8   9
ENDBRANCH   7   8
ENDBRANCH   1   7
BRANCH   1  41
ATOM     41  C   UNL     1       2.956  23.436  26.586  1.00  0.00     0.364 C 
ATOM     42  O   UNL     1       2.250  22.442  26.194  1.00  0.00    -0.246 OA
BRANCH  41  43
ATOM     43  O   UNL     1       4.308  23.324  26.523  1.00  0.00    -0.477 OA
ATOM     44  H   UNL     1       4.797  22.458  26.363  1.00  0.00     0.296 HD
ENDBRANCH  41  43
ENDBRANCH   1  41
BRANCH   3  45
ATOM     45  O   UNL     1       0.625  26.067  28.789  1.00  0.00    -0.391 OA
ATOM     46  H   UNL     1       1.476  26.219  28.321  1.00  0.00     0.211 HD
ENDBRANCH   3  45
BRANCH   5  47
ATOM     47  C   UNL     1       3.060  24.622  30.626  1.00  0.00     0.176 C 
BRANCH  47  48
ATOM     48  O   UNL     1       4.149  25.409  30.383  1.00  0.00    -0.388 OA
ATOM     49  H   UNL     1       4.961  25.154  30.886  1.00  0.00     0.211 HD
ENDBRANCH  47  48
BRANCH  47  50
ATOM     50  C   UNL     1       2.020  25.406  31.416  1.00  0.00     0.165 C 
BRANCH  50  51
ATOM     51  O   UNL     1       1.958  26.711  31.060  1.00  0.00    -0.388 OA
ATOM     52  H   UNL     1       2.798  27.142  30.798  1.00  0.00     0.211 HD
ENDBRANCH  50  51
BRANCH  50  53
ATOM     53  C   UNL     1       2.374  25.232  32.860  1.00  0.00     0.154 C 
BRANCH  53  54
ATOM     54  N   UNL     1       3.566  24.465  33.044  1.00  0.00    -0.319 N 
ATOM     55  C   UNL     1       3.687  23.297  33.841  1.00  0.00     0.407 C 
ATOM     56  H   UNL     1       4.487  24.752  32.557  1.00  0.00     0.167 HD
ATOM     57  O   UNL     1       2.702  22.835  34.453  1.00  0.00    -0.225 OA
BRANCH  55  58
ATOM     58  O   UNL     1       4.906  22.627  33.969  1.00  0.00    -0.443 OA
BRANCH  58  59
ATOM     59  C   UNL     1       6.071  22.994  33.281  1.00  0.00     0.294 C 
BRANCH  59  60
ATOM     60  C   UNL     1       7.084  23.474  34.281  1.00  0.00     0.121 A 
ATOM     61  C   UNL     1       8.449  23.641  34.041  1.00  0.00     0.144 A 
ATOM     62  N   UNL     1       6.900  23.836  35.557  1.00  0.00    -0.131 NA
ATOM     63  N   UNL     1       9.033  24.093  35.172  1.00  0.00    -0.220 N 
ATOM     64  N   UNL     1       8.055  24.195  36.059  1.00  0.00    -0.062 NA
BRANCH  63  65
ATOM     65  C   UNL     1      10.387  24.405  35.388  1.00  0.00     0.070 A 
ATOM     66  C   UNL     1      11.193  23.556  36.094  1.00  0.00     0.032 A 
ATOM     67  C   UNL     1      10.922  25.567  34.887  1.00  0.00     0.079 A 
ATOM     68  C   UNL     1      12.543  23.879  36.298  1.00  0.00     0.053 A 
ATOM     69  C   UNL     1      12.246  25.900  35.078  1.00  0.00     0.167 A 
ATOM     70  C   UNL     1      13.051  25.047  35.787  1.00  0.00     0.165 A 
ATOM     71  O   UNL     1      12.981  26.992  34.674  1.00  0.00    -0.454 OA
ATOM     72  O   UNL     1      14.323  25.604  35.836  1.00  0.00    -0.454 OA
ATOM     73  C   UNL     1      14.212  26.933  35.406  1.00  0.00     0.468 C 
ENDBRANCH  63  65
ENDBRANCH  59  60
ENDBRANCH  58  59
ENDBRANCH  55  58
ENDBRANCH  53  54
ENDBRANCH  50  53
ENDBRANCH  47  50
ENDBRANCH   5  47
BRANCH   4  74
ATOM     74  N   UNL     1       0.499  22.511  29.570  1.00  0.00    -0.348 N 
ATOM     75  C   UNL     1       0.515  21.617  30.704  1.00  0.00     0.217 C 
ATOM     76  H   UNL     1       0.117  22.076  28.704  1.00  0.00     0.163 HD
ATOM     77  C   UNL     1       0.016  20.221  30.587  1.00  0.00     0.114 C 
ATOM     78  O   UNL     1       0.951  22.024  31.786  1.00  0.00    -0.275 OA
ENDBRANCH   4  74
TORSDOF 30
