REMARK VINA RESULT:    -6.453      3.005      9.584
REMARK INTER + INTRA:         -22.649
REMARK INTER:                 -15.403
REMARK INTRA:                  -7.246
REMARK UNBOUND:                -5.634
REMARK SMILES CC(=O)N[C@@H]1[C@@H](O)C[C@](OC[C@H]2O[C@@H](O[C@H]3[C@H](O)[C@@H](O)[C@H](OCCN=[N+]=[N-])O[C@@H]3CO)[C@H](O)[C@@H](O)[C@H]2O)(C(=O)O)O[C@H]1C(O)[C@H](O)CNC(=O)OCc1cn(Cc2ccccc2OC(C)=O)nn1
REMARK SMILES IDX 43 1 42 2 9 3 8 4 41 5 6 6 5 7 10 8 11 9 12 10 14 11 13 12
REMARK SMILES IDX 32 13 34 14 36 15 15 16 16 17 29 18 28 19 21 20 17 21 19 22
REMARK SMILES IDX 30 23 31 24 22 26 23 27 24 28 25 29 26 30 27 31 18 32 20 34
REMARK SMILES IDX 33 36 35 38 37 40 38 42 39 43 40 44 7 46 4 48 2 49 1 51 3 52
REMARK SMILES IDX 44 53 45 55 46 56 47 58 48 59 49 60 50 62 51 63 52 64 53 65
REMARK SMILES IDX 54 66 68 67 55 68 67 69 56 70 57 71 62 72 58 73 61 74 59 75
REMARK SMILES IDX 60 76 63 77 64 78 66 79 65 80
REMARK H PARENT 31 25 18 33 20 35 33 37 35 39 37 41 40 45 7 47 4 50 44 54
REMARK H PARENT 46 57 48 61
REMARK Flexibility Score: inf
ROOT
ATOM      1  C   UNL     1      22.085  27.324  19.945  1.00  0.00     0.176 C 
ENDROOT
BRANCH   1   2
ATOM      2  C   UNL     1      22.316  26.067  20.770  1.00  0.00     0.178 C 
ATOM      3  C   UNL     1      22.510  25.365  22.985  1.00  0.00     0.272 C 
ATOM      4  C   UNL     1      23.099  24.173  22.239  1.00  0.00     0.113 C 
ATOM      5  O   UNL     1      22.428  26.455  22.086  1.00  0.00    -0.332 OA
ATOM      6  C   UNL     1      24.234  24.723  21.391  1.00  0.00     0.145 C 
ATOM      7  C   UNL     1      23.633  25.474  20.266  1.00  0.00     0.142 C 
BRANCH   3   8
ATOM      8  O   UNL     1      23.288  25.793  24.019  1.00  0.00    -0.338 OA
BRANCH   8   9
ATOM      9  C   UNL     1      23.516  24.951  25.060  1.00  0.00     0.199 C 
BRANCH   9  10
ATOM     10  C   UNL     1      23.461  25.782  26.354  1.00  0.00     0.179 C 
ATOM     11  C   UNL     1      22.015  27.035  27.627  1.00  0.00     0.282 C 
ATOM     12  O   UNL     1      22.120  26.151  26.500  1.00  0.00    -0.341 OA
ATOM     13  C   UNL     1      22.163  26.158  28.819  1.00  0.00     0.202 C 
ATOM     14  C   UNL     1      23.615  25.648  28.799  1.00  0.00     0.179 C 
ATOM     15  C   UNL     1      23.949  24.972  27.512  1.00  0.00     0.177 C 
BRANCH  11  16
ATOM     16  O   UNL     1      20.809  27.667  27.441  1.00  0.00    -0.341 OA
BRANCH  16  17
ATOM     17  C   UNL     1      20.983  28.947  26.885  1.00  0.00     0.184 C 
ATOM     18  C   UNL     1      21.897  28.980  25.717  1.00  0.00     0.178 C 
ATOM     19  O   UNL     1      22.822  30.027  25.775  1.00  0.00    -0.341 OA
ATOM     20  C   UNL     1      22.271  31.255  26.114  1.00  0.00     0.281 C 
ATOM     21  C   UNL     1      21.737  29.788  27.982  1.00  0.00     0.180 C 
ATOM     22  C   UNL     1      21.642  31.212  27.505  1.00  0.00     0.202 C 
BRANCH  18  23
ATOM     23  C   UNL     1      21.251  28.880  24.370  1.00  0.00     0.191 C 
BRANCH  23  24
ATOM     24  O   UNL     1      19.955  28.409  24.518  1.00  0.00    -0.394 OA
ATOM     25  H   UNL     1      19.882  27.857  25.325  1.00  0.00     0.210 HD
ENDBRANCH  23  24
ENDBRANCH  18  23
BRANCH  20  26
ATOM     26  O   UNL     1      21.311  31.628  25.241  1.00  0.00    -0.350 OA
BRANCH  26  27
ATOM     27  C   UNL     1      21.594  32.392  24.169  1.00  0.00     0.169 C 
BRANCH  27  28
ATOM     28  C   UNL     1      20.890  32.122  22.889  1.00  0.00     0.119 C 
BRANCH  28  29
ATOM     29  N   UNL     1      19.493  31.941  23.096  1.00  0.00    -0.092 NA
ATOM     30  N   UNL     1      18.868  31.020  22.618  1.00  0.00     0.001 N 
ATOM     31  N   UNL     1      18.404  29.920  22.307  1.00  0.00    -0.003 NA
ENDBRANCH  28  29
ENDBRANCH  27  28
ENDBRANCH  26  27
ENDBRANCH  20  26
BRANCH  21  32
ATOM     32  O   UNL     1      21.157  29.564  29.206  1.00  0.00    -0.387 OA
ATOM     33  H   UNL     1      20.990  28.576  29.332  1.00  0.00     0.211 HD
ENDBRANCH  21  32
BRANCH  22  34
ATOM     34  O   UNL     1      22.210  32.105  28.386  1.00  0.00    -0.385 OA
ATOM     35  H   UNL     1      23.081  31.713  28.682  1.00  0.00     0.211 HD
ENDBRANCH  22  34
ENDBRANCH  16  17
ENDBRANCH  11  16
BRANCH  13  36
ATOM     36  O   UNL     1      22.038  26.828  30.025  1.00  0.00    -0.385 OA
ATOM     37  H   UNL     1      22.887  27.108  30.426  1.00  0.00     0.211 HD
ENDBRANCH  13  36
BRANCH  14  38
ATOM     38  O   UNL     1      23.847  24.828  29.905  1.00  0.00    -0.387 OA
ATOM     39  H   UNL     1      23.334  25.232  30.662  1.00  0.00     0.211 HD
ENDBRANCH  14  38
BRANCH  15  40
ATOM     40  O   UNL     1      23.407  23.689  27.541  1.00  0.00    -0.387 OA
ATOM     41  H   UNL     1      22.621  23.585  26.974  1.00  0.00     0.211 HD
ENDBRANCH  15  40
ENDBRANCH   9  10
ENDBRANCH   8   9
ENDBRANCH   3   8
BRANCH   3  42
ATOM     42  C   UNL     1      21.139  24.965  23.371  1.00  0.00     0.364 C 
ATOM     43  O   UNL     1      20.585  23.970  22.907  1.00  0.00    -0.246 OA
BRANCH  42  44
ATOM     44  O   UNL     1      20.451  25.750  24.299  1.00  0.00    -0.477 OA
ATOM     45  H   UNL     1      20.922  26.135  25.131  1.00  0.00     0.296 HD
ENDBRANCH  42  44
ENDBRANCH   3  42
BRANCH   6  46
ATOM     46  O   UNL     1      24.912  25.632  22.210  1.00  0.00    -0.391 OA
ATOM     47  H   UNL     1      25.887  25.489  22.235  1.00  0.00     0.211 HD
ENDBRANCH   6  46
BRANCH   7  48
ATOM     48  N   UNL     1      23.439  24.798  19.052  1.00  0.00    -0.348 N 
ATOM     49  C   UNL     1      24.356  24.828  17.964  1.00  0.00     0.217 C 
ATOM     50  H   UNL     1      22.551  24.229  18.942  1.00  0.00     0.163 HD
ATOM     51  C   UNL     1      24.117  24.105  16.704  1.00  0.00     0.114 C 
ATOM     52  O   UNL     1      25.384  25.500  18.122  1.00  0.00    -0.275 OA
ENDBRANCH   7  48
ENDBRANCH   1   2
BRANCH   1  53
ATOM     53  O   UNL     1      21.589  26.908  18.723  1.00  0.00    -0.388 OA
ATOM     54  H   UNL     1      21.908  26.030  18.428  1.00  0.00     0.211 HD
ENDBRANCH   1  53
BRANCH   1  55
ATOM     55  C   UNL     1      21.268  28.360  20.642  1.00  0.00     0.165 C 
BRANCH  55  56
ATOM     56  O   UNL     1      20.106  27.741  21.110  1.00  0.00    -0.388 OA
ATOM     57  H   UNL     1      19.382  27.783  20.467  1.00  0.00     0.211 HD
ENDBRANCH  55  56
BRANCH  55  58
ATOM     58  C   UNL     1      20.936  29.542  19.764  1.00  0.00     0.154 C 
BRANCH  58  59
ATOM     59  N   UNL     1      19.593  29.570  19.287  1.00  0.00    -0.319 N 
ATOM     60  C   UNL     1      19.203  29.212  17.971  1.00  0.00     0.407 C 
ATOM     61  H   UNL     1      18.821  29.872  19.942  1.00  0.00     0.167 HD
ATOM     62  O   UNL     1      20.102  28.852  17.171  1.00  0.00    -0.225 OA
BRANCH  60  63
ATOM     63  O   UNL     1      17.903  29.243  17.525  1.00  0.00    -0.443 OA
BRANCH  63  64
ATOM     64  C   UNL     1      16.903  30.065  18.125  1.00  0.00     0.294 C 
BRANCH  64  65
ATOM     65  C   UNL     1      16.236  29.376  19.239  1.00  0.00     0.120 A 
ATOM     66  C   UNL     1      15.069  29.811  19.823  1.00  0.00     0.138 A 
ATOM     67  N   UNL     1      16.575  28.256  19.888  1.00  0.00    -0.132 NA
ATOM     68  N   UNL     1      14.731  28.964  20.796  1.00  0.00    -0.248 N 
ATOM     69  N   UNL     1      15.685  28.013  20.809  1.00  0.00    -0.067 NA
BRANCH  68  70
ATOM     70  C   UNL     1      13.603  28.985  21.707  1.00  0.00     0.185 C 
BRANCH  70  71
ATOM     71  C   UNL     1      13.913  29.712  22.942  1.00  0.00     0.016 A 
ATOM     72  C   UNL     1      12.996  30.473  23.580  1.00  0.00     0.135 A 
ATOM     73  C   UNL     1      15.209  29.572  23.448  1.00  0.00     0.009 A 
ATOM     74  C   UNL     1      13.362  31.123  24.760  1.00  0.00     0.047 A 
ATOM     75  C   UNL     1      15.557  30.215  24.608  1.00  0.00     0.001 A 
ATOM     76  C   UNL     1      14.638  30.994  25.273  1.00  0.00     0.004 A 
BRANCH  72  77
ATOM     77  O   UNL     1      11.707  30.643  23.119  1.00  0.00    -0.426 OA
BRANCH  77  78
ATOM     78  C   UNL     1      10.658  30.193  23.928  1.00  0.00     0.308 C 
ATOM     79  O   UNL     1      10.748  29.063  24.455  1.00  0.00    -0.252 OA
ATOM     80  C   UNL     1       9.484  31.044  24.143  1.00  0.00     0.139 C 
ENDBRANCH  77  78
ENDBRANCH  72  77
ENDBRANCH  70  71
ENDBRANCH  68  70
ENDBRANCH  64  65
ENDBRANCH  63  64
ENDBRANCH  60  63
ENDBRANCH  58  59
ENDBRANCH  55  58
ENDBRANCH   1  55
TORSDOF 33
