REMARK VINA RESULT:    -5.357     12.305     17.922
REMARK INTER + INTRA:         -20.837
REMARK INTER:                 -14.923
REMARK INTRA:                  -5.915
REMARK UNBOUND:                -7.652
REMARK SMILES CC(=O)N[C@@H]1[C@@H](O)C[C@](OC[C@H]2O[C@@H](O[C@H]3[C@H](O)[C@@H](O)[C@H](OCCN=[N+]=[N-])O[C@@H]3CO)[C@H](O)[C@@H](O)[C@H]2O)(C(=O)O)O[C@H]1C(O)[C@H](O)CNC(=O)OCc1cn(-c2ccc(Br)cc2)nn1
REMARK SMILES IDX 9 1 8 2 6 3 5 4 42 5 41 6 10 7 11 8 12 9 14 10 13 11 32 12
REMARK SMILES IDX 34 13 36 14 15 15 16 16 29 17 28 18 21 19 17 20 19 21 30 22
REMARK SMILES IDX 31 23 22 25 23 26 24 27 25 28 26 29 27 30 18 31 20 33 33 35
REMARK SMILES IDX 35 37 37 39 38 41 39 42 40 43 7 45 43 47 44 48 45 50 46 51
REMARK SMILES IDX 47 53 48 54 49 55 50 57 51 58 52 59 53 60 54 61 64 62 55 63
REMARK SMILES IDX 63 64 56 65 57 66 62 67 58 68 61 69 59 70 60 71 4 72 2 73
REMARK SMILES IDX 1 75 3 76
REMARK H PARENT 31 24 18 32 20 34 33 36 35 38 37 40 40 44 7 46 44 49 46 52
REMARK H PARENT 48 56 4 74
REMARK Flexibility Score: inf
ROOT
ATOM      1  C   UNL     1      23.090  26.059  24.042  1.00  0.00     0.272 C 
ATOM      2  C   UNL     1      24.196  25.028  23.687  1.00  0.00     0.113 C 
ATOM      3  C   UNL     1      24.019  24.641  22.266  1.00  0.00     0.145 C 
ATOM      4  C   UNL     1      24.106  25.938  21.436  1.00  0.00     0.142 C 
ATOM      5  C   UNL     1      22.865  26.713  21.811  1.00  0.00     0.178 C 
ATOM      6  O   UNL     1      23.032  27.072  23.130  1.00  0.00    -0.332 OA
ENDROOT
BRANCH   1   7
ATOM      7  O   UNL     1      23.549  26.581  25.257  1.00  0.00    -0.338 OA
BRANCH   7   8
ATOM      8  C   UNL     1      24.680  26.012  25.758  1.00  0.00     0.199 C 
BRANCH   8   9
ATOM      9  C   UNL     1      24.780  26.456  27.232  1.00  0.00     0.179 C 
ATOM     10  C   UNL     1      23.680  27.938  28.646  1.00  0.00     0.282 C 
ATOM     11  O   UNL     1      24.238  27.695  27.415  1.00  0.00    -0.341 OA
ATOM     12  C   UNL     1      24.204  27.093  29.735  1.00  0.00     0.202 C 
ATOM     13  C   UNL     1      24.258  25.623  29.463  1.00  0.00     0.179 C 
ATOM     14  C   UNL     1      24.042  25.375  28.006  1.00  0.00     0.177 C 
BRANCH  10  15
ATOM     15  O   UNL     1      22.298  27.933  28.462  1.00  0.00    -0.341 OA
BRANCH  15  16
ATOM     16  C   UNL     1      21.809  29.193  28.166  1.00  0.00     0.184 C 
ATOM     17  C   UNL     1      20.760  29.629  29.137  1.00  0.00     0.178 C 
ATOM     18  O   UNL     1      20.420  30.931  28.905  1.00  0.00    -0.341 OA
ATOM     19  C   UNL     1      20.736  31.488  27.704  1.00  0.00     0.281 C 
ATOM     20  C   UNL     1      21.102  29.185  26.800  1.00  0.00     0.180 C 
ATOM     21  C   UNL     1      20.596  30.580  26.502  1.00  0.00     0.202 C 
BRANCH  17  22
ATOM     22  C   UNL     1      21.307  29.531  30.549  1.00  0.00     0.191 C 
BRANCH  22  23
ATOM     23  O   UNL     1      22.446  30.290  30.685  1.00  0.00    -0.394 OA
ATOM     24  H   UNL     1      22.334  31.172  30.289  1.00  0.00     0.210 HD
ENDBRANCH  22  23
ENDBRANCH  17  22
BRANCH  19  25
ATOM     25  O   UNL     1      21.955  32.156  27.711  1.00  0.00    -0.350 OA
BRANCH  25  26
ATOM     26  C   UNL     1      22.347  32.635  26.476  1.00  0.00     0.169 C 
BRANCH  26  27
ATOM     27  C   UNL     1      23.823  32.770  26.303  1.00  0.00     0.119 C 
BRANCH  27  28
ATOM     28  N   UNL     1      24.457  31.470  26.447  1.00  0.00    -0.092 NA
ATOM     29  N   UNL     1      24.353  30.686  25.500  1.00  0.00     0.001 N 
ATOM     30  N   UNL     1      24.406  29.878  24.549  1.00  0.00    -0.003 NA
ENDBRANCH  27  28
ENDBRANCH  26  27
ENDBRANCH  25  26
ENDBRANCH  19  25
BRANCH  20  31
ATOM     31  O   UNL     1      21.944  28.678  25.826  1.00  0.00    -0.387 OA
ATOM     32  H   UNL     1      21.667  28.969  24.917  1.00  0.00     0.211 HD
ENDBRANCH  20  31
BRANCH  21  33
ATOM     33  O   UNL     1      19.307  30.614  26.020  1.00  0.00    -0.385 OA
ATOM     34  H   UNL     1      18.829  29.817  26.352  1.00  0.00     0.211 HD
ENDBRANCH  21  33
ENDBRANCH  15  16
ENDBRANCH  10  15
BRANCH  12  35
ATOM     35  O   UNL     1      25.497  27.593  30.053  1.00  0.00    -0.385 OA
ATOM     36  H   UNL     1      25.416  28.546  30.349  1.00  0.00     0.211 HD
ENDBRANCH  12  35
BRANCH  13  37
ATOM     37  O   UNL     1      23.250  24.946  30.190  1.00  0.00    -0.387 OA
ATOM     38  H   UNL     1      22.509  24.815  29.547  1.00  0.00     0.211 HD
ENDBRANCH  13  37
BRANCH  14  39
ATOM     39  O   UNL     1      22.692  25.330  27.668  1.00  0.00    -0.387 OA
ATOM     40  H   UNL     1      22.574  25.325  26.685  1.00  0.00     0.211 HD
ENDBRANCH  14  39
ENDBRANCH   8   9
ENDBRANCH   7   8
ENDBRANCH   1   7
BRANCH   1  41
ATOM     41  C   UNL     1      21.870  25.291  24.283  1.00  0.00     0.364 C 
ATOM     42  O   UNL     1      21.829  24.252  24.984  1.00  0.00    -0.246 OA
BRANCH  41  43
ATOM     43  O   UNL     1      20.670  25.696  23.730  1.00  0.00    -0.477 OA
ATOM     44  H   UNL     1      20.492  25.742  22.728  1.00  0.00     0.296 HD
ENDBRANCH  41  43
ENDBRANCH   1  41
BRANCH   3  45
ATOM     45  O   UNL     1      25.060  23.847  21.808  1.00  0.00    -0.391 OA
ATOM     46  H   UNL     1      25.806  23.888  22.442  1.00  0.00     0.211 HD
ENDBRANCH   3  45
BRANCH   5  47
ATOM     47  C   UNL     1      22.641  27.964  21.032  1.00  0.00     0.176 C 
BRANCH  47  48
ATOM     48  O   UNL     1      22.856  29.023  21.959  1.00  0.00    -0.388 OA
ATOM     49  H   UNL     1      22.210  29.746  21.756  1.00  0.00     0.211 HD
ENDBRANCH  47  48
BRANCH  47  50
ATOM     50  C   UNL     1      21.204  28.179  20.579  1.00  0.00     0.165 C 
BRANCH  50  51
ATOM     51  O   UNL     1      20.510  27.090  21.174  1.00  0.00    -0.388 OA
ATOM     52  H   UNL     1      20.852  26.961  22.115  1.00  0.00     0.211 HD
ENDBRANCH  50  51
BRANCH  50  53
ATOM     53  C   UNL     1      21.055  28.019  19.106  1.00  0.00     0.154 C 
BRANCH  53  54
ATOM     54  N   UNL     1      19.981  28.805  18.588  1.00  0.00    -0.319 N 
ATOM     55  C   UNL     1      19.479  28.728  17.250  1.00  0.00     0.407 C 
ATOM     56  H   UNL     1      19.485  29.520  19.211  1.00  0.00     0.167 HD
ATOM     57  O   UNL     1      20.011  27.920  16.454  1.00  0.00    -0.225 OA
BRANCH  55  58
ATOM     58  O   UNL     1      18.433  29.509  16.817  1.00  0.00    -0.443 OA
BRANCH  58  59
ATOM     59  C   UNL     1      17.139  28.969  16.725  1.00  0.00     0.294 C 
BRANCH  59  60
ATOM     60  C   UNL     1      16.718  28.507  18.066  1.00  0.00     0.121 A 
ATOM     61  C   UNL     1      15.910  29.247  18.937  1.00  0.00     0.144 A 
ATOM     62  N   UNL     1      16.986  27.370  18.726  1.00  0.00    -0.131 NA
ATOM     63  N   UNL     1      15.730  28.536  20.064  1.00  0.00    -0.220 N 
ATOM     64  N   UNL     1      16.393  27.407  19.904  1.00  0.00    -0.062 NA
BRANCH  63  65
ATOM     65  C   UNL     1      14.960  28.994  21.168  1.00  0.00     0.066 A 
ATOM     66  C   UNL     1      13.604  29.046  21.204  1.00  0.00     0.029 A 
ATOM     67  C   UNL     1      15.679  29.407  22.285  1.00  0.00     0.029 A 
ATOM     68  C   UNL     1      12.977  29.503  22.344  1.00  0.00     0.018 A 
ATOM     69  C   UNL     1      15.039  29.861  23.416  1.00  0.00     0.018 A 
ATOM     70  C   UNL     1      13.661  29.916  23.461  1.00  0.00     0.018 A 
ATOM     71  Br  UNL     1      12.754  30.539  25.020  1.00  0.00    -0.051 Br
ENDBRANCH  63  65
ENDBRANCH  59  60
ENDBRANCH  58  59
ENDBRANCH  55  58
ENDBRANCH  53  54
ENDBRANCH  50  53
ENDBRANCH  47  50
ENDBRANCH   5  47
BRANCH   4  72
ATOM     72  N   UNL     1      24.182  25.535  20.065  1.00  0.00    -0.348 N 
ATOM     73  C   UNL     1      23.106  24.883  19.404  1.00  0.00     0.217 C 
ATOM     74  H   UNL     1      25.048  25.719  19.528  1.00  0.00     0.163 HD
ATOM     75  C   UNL     1      23.157  24.452  17.986  1.00  0.00     0.114 C 
ATOM     76  O   UNL     1      22.030  24.644  20.042  1.00  0.00    -0.275 OA
ENDBRANCH   4  72
TORSDOF 30
