REMARK VINA RESULT:    -5.897      8.596     12.945
REMARK INTER + INTRA:         -21.988
REMARK INTER:                 -14.619
REMARK INTRA:                  -7.369
REMARK UNBOUND:                -6.784
REMARK SMILES COc1ccc(Cn2cc(COC(=O)NC[C@@H](O)C(O)[C@@H]3O[C@@](OC[C@H]4O[C@@H](O[C@H]5[C@H](O)[C@@H](O)[C@H](OCCN=[N+]=[N-])O[C@@H]5CO)[C@H](O)[C@@H](O)[C@H]4O)(C(=O)O)C[C@H](O)[C@H]3NC(C)=O)nn2)cc1
REMARK SMILES IDX 23 1 55 2 56 3 58 4 21 5 22 6 24 7 25 8 26 9 28 10 27 11
REMARK SMILES IDX 46 12 48 13 50 14 29 15 30 16 43 17 42 18 35 19 31 20 33 21
REMARK SMILES IDX 44 22 45 23 36 25 37 26 38 27 39 28 40 29 41 30 32 31 34 33
REMARK SMILES IDX 47 35 49 37 51 39 52 41 53 42 54 43 57 45 19 47 20 48 17 50
REMARK SMILES IDX 18 51 16 53 15 54 13 55 14 57 12 58 11 59 10 60 9 61 63 62
REMARK SMILES IDX 8 63 64 64 7 65 6 66 5 67 65 68 4 69 66 70 3 71 2 72 1 73
REMARK SMILES IDX 59 74 60 75 61 77 62 78
REMARK H PARENT 45 24 32 32 34 34 47 36 49 38 51 40 54 44 57 46 20 49 18 52
REMARK H PARENT 15 56 59 76
REMARK Flexibility Score: inf
ROOT
ATOM      1  C   UNL     1      14.229  30.190  15.768  1.00  0.00     0.272 C 
ATOM      2  C   UNL     1      14.911  29.017  15.095  1.00  0.00     0.113 C 
ATOM      3  C   UNL     1      15.469  29.448  13.754  1.00  0.00     0.145 C 
ATOM      4  C   UNL     1      16.217  30.749  13.802  1.00  0.00     0.142 C 
ATOM      5  C   UNL     1      16.178  31.415  15.167  1.00  0.00     0.178 C 
ATOM      6  O   UNL     1      14.930  31.327  15.751  1.00  0.00    -0.332 OA
ENDROOT
BRANCH   1   7
ATOM      7  O   UNL     1      13.615  29.830  16.919  1.00  0.00    -0.338 OA
BRANCH   7   8
ATOM      8  C   UNL     1      13.678  30.542  18.050  1.00  0.00     0.199 C 
BRANCH   8   9
ATOM      9  C   UNL     1      14.452  29.848  19.150  1.00  0.00     0.179 C 
ATOM     10  C   UNL     1      16.497  29.988  20.141  1.00  0.00     0.282 C 
ATOM     11  O   UNL     1      15.393  30.757  19.711  1.00  0.00    -0.341 OA
ATOM     12  C   UNL     1      16.073  28.730  20.802  1.00  0.00     0.202 C 
ATOM     13  C   UNL     1      14.643  28.631  21.213  1.00  0.00     0.179 C 
ATOM     14  C   UNL     1      13.661  29.323  20.288  1.00  0.00     0.177 C 
BRANCH  10  15
ATOM     15  O   UNL     1      17.438  30.751  20.773  1.00  0.00    -0.341 OA
BRANCH  15  16
ATOM     16  C   UNL     1      17.287  30.928  22.132  1.00  0.00     0.184 C 
ATOM     17  C   UNL     1      17.155  32.364  22.577  1.00  0.00     0.178 C 
ATOM     18  O   UNL     1      17.644  32.529  23.873  1.00  0.00    -0.341 OA
ATOM     19  C   UNL     1      17.461  31.388  24.674  1.00  0.00     0.281 C 
ATOM     20  C   UNL     1      18.634  30.498  22.743  1.00  0.00     0.180 C 
ATOM     21  C   UNL     1      18.371  30.239  24.201  1.00  0.00     0.202 C 
BRANCH  17  22
ATOM     22  C   UNL     1      15.761  32.905  22.563  1.00  0.00     0.191 C 
BRANCH  22  23
ATOM     23  O   UNL     1      14.862  31.861  22.356  1.00  0.00    -0.394 OA
ATOM     24  H   UNL     1      15.335  31.170  21.811  1.00  0.00     0.210 HD
ENDBRANCH  22  23
ENDBRANCH  17  22
BRANCH  19  25
ATOM     25  O   UNL     1      16.173  30.976  24.783  1.00  0.00    -0.350 OA
BRANCH  25  26
ATOM     26  C   UNL     1      15.448  31.326  25.880  1.00  0.00     0.169 C 
BRANCH  26  27
ATOM     27  C   UNL     1      14.024  30.916  25.934  1.00  0.00     0.119 C 
BRANCH  27  28
ATOM     28  N   UNL     1      13.331  31.007  24.696  1.00  0.00    -0.092 NA
ATOM     29  N   UNL     1      12.292  30.388  24.425  1.00  0.00     0.001 N 
ATOM     30  N   UNL     1      11.078  30.182  24.198  1.00  0.00    -0.003 NA
ENDBRANCH  27  28
ENDBRANCH  26  27
ENDBRANCH  25  26
ENDBRANCH  19  25
BRANCH  20  31
ATOM     31  O   UNL     1      19.204  29.455  22.068  1.00  0.00    -0.387 OA
ATOM     32  H   UNL     1      18.605  29.104  21.334  1.00  0.00     0.211 HD
ENDBRANCH  20  31
BRANCH  21  33
ATOM     33  O   UNL     1      19.556  30.191  24.935  1.00  0.00    -0.385 OA
ATOM     34  H   UNL     1      20.213  30.815  24.527  1.00  0.00     0.211 HD
ENDBRANCH  21  33
ENDBRANCH  15  16
ENDBRANCH  10  15
BRANCH  12  35
ATOM     35  O   UNL     1      16.442  27.585  20.050  1.00  0.00    -0.385 OA
ATOM     36  H   UNL     1      15.706  27.370  19.399  1.00  0.00     0.211 HD
ENDBRANCH  12  35
BRANCH  13  37
ATOM     37  O   UNL     1      14.453  29.047  22.553  1.00  0.00    -0.387 OA
ATOM     38  H   UNL     1      13.671  28.556  22.914  1.00  0.00     0.211 HD
ENDBRANCH  13  37
BRANCH  14  39
ATOM     39  O   UNL     1      12.933  30.304  20.953  1.00  0.00    -0.387 OA
ATOM     40  H   UNL     1      12.784  31.105  20.393  1.00  0.00     0.211 HD
ENDBRANCH  14  39
ENDBRANCH   8   9
ENDBRANCH   7   8
ENDBRANCH   1   7
BRANCH   1  41
ATOM     41  C   UNL     1      12.965  30.375  14.864  1.00  0.00     0.364 C 
ATOM     42  O   UNL     1      12.727  31.492  14.358  1.00  0.00    -0.246 OA
BRANCH  41  43
ATOM     43  O   UNL     1      12.101  29.370  14.595  1.00  0.00    -0.477 OA
ATOM     44  H   UNL     1      12.075  28.755  13.820  1.00  0.00     0.296 HD
ENDBRANCH  41  43
ENDBRANCH   1  41
BRANCH   3  45
ATOM     45  O   UNL     1      16.362  28.392  13.407  1.00  0.00    -0.391 OA
ATOM     46  H   UNL     1      17.057  28.725  12.784  1.00  0.00     0.211 HD
ENDBRANCH   3  45
BRANCH   5  47
ATOM     47  C   UNL     1      17.345  30.930  15.935  1.00  0.00     0.176 C 
BRANCH  47  48
ATOM     48  O   UNL     1      17.190  31.049  17.347  1.00  0.00    -0.388 OA
ATOM     49  H   UNL     1      17.510  31.940  17.603  1.00  0.00     0.211 HD
ENDBRANCH  47  48
BRANCH  47  50
ATOM     50  C   UNL     1      18.605  31.833  15.794  1.00  0.00     0.165 C 
BRANCH  50  51
ATOM     51  O   UNL     1      19.344  31.702  14.687  1.00  0.00    -0.388 OA
ATOM     52  H   UNL     1      20.264  31.407  14.900  1.00  0.00     0.211 HD
ENDBRANCH  50  51
BRANCH  50  53
ATOM     53  C   UNL     1      19.450  31.594  17.064  1.00  0.00     0.154 C 
BRANCH  53  54
ATOM     54  N   UNL     1      19.987  30.274  17.132  1.00  0.00    -0.319 N 
ATOM     55  C   UNL     1      20.398  29.743  18.399  1.00  0.00     0.407 C 
ATOM     56  H   UNL     1      20.090  29.693  16.295  1.00  0.00     0.167 HD
ATOM     57  O   UNL     1      20.273  30.455  19.433  1.00  0.00    -0.225 OA
BRANCH  55  58
ATOM     58  O   UNL     1      20.917  28.462  18.434  1.00  0.00    -0.443 OA
BRANCH  58  59
ATOM     59  C   UNL     1      22.101  28.199  19.212  1.00  0.00     0.294 C 
BRANCH  59  60
ATOM     60  C   UNL     1      21.757  27.203  20.248  1.00  0.00     0.120 A 
ATOM     61  C   UNL     1      22.459  26.034  20.556  1.00  0.00     0.138 A 
ATOM     62  N   UNL     1      20.708  27.219  21.078  1.00  0.00    -0.132 NA
ATOM     63  N   UNL     1      21.794  25.421  21.543  1.00  0.00    -0.248 N 
ATOM     64  N   UNL     1      20.733  26.152  21.851  1.00  0.00    -0.067 NA
BRANCH  63  65
ATOM     65  C   UNL     1      22.165  24.176  22.168  1.00  0.00     0.181 C 
BRANCH  65  66
ATOM     66  C   UNL     1      22.703  24.454  23.518  1.00  0.00    -0.026 A 
ATOM     67  C   UNL     1      21.833  24.554  24.599  1.00  0.00     0.009 A 
ATOM     68  C   UNL     1      24.042  24.606  23.768  1.00  0.00     0.009 A 
ATOM     69  C   UNL     1      22.281  24.795  25.880  1.00  0.00     0.047 A 
ATOM     70  C   UNL     1      24.496  24.850  25.069  1.00  0.00     0.047 A 
ATOM     71  C   UNL     1      23.637  24.947  26.130  1.00  0.00     0.118 A 
BRANCH  71  72
ATOM     72  O   UNL     1      24.037  25.187  27.431  1.00  0.00    -0.497 OA
ATOM     73  C   UNL     1      23.173  25.346  28.518  1.00  0.00     0.278 C 
ENDBRANCH  71  72
ENDBRANCH  65  66
ENDBRANCH  63  65
ENDBRANCH  59  60
ENDBRANCH  58  59
ENDBRANCH  55  58
ENDBRANCH  53  54
ENDBRANCH  50  53
ENDBRANCH  47  50
ENDBRANCH   5  47
BRANCH   4  74
ATOM     74  N   UNL     1      15.907  31.676  12.735  1.00  0.00    -0.348 N 
ATOM     75  C   UNL     1      16.876  32.332  11.928  1.00  0.00     0.217 C 
ATOM     76  H   UNL     1      14.920  31.900  12.542  1.00  0.00     0.163 HD
ATOM     77  C   UNL     1      16.436  33.289  10.842  1.00  0.00     0.114 C 
ATOM     78  O   UNL     1      18.097  32.116  12.119  1.00  0.00    -0.275 OA
ENDBRANCH   4  74
TORSDOF 32
