REMARK VINA RESULT:    -5.974      4.057     12.184
REMARK INTER + INTRA:         -25.537
REMARK INTER:                 -18.311
REMARK INTRA:                  -7.226
REMARK UNBOUND:                -7.166
REMARK SMILES CC(=O)N[C@@H]1[C@@H](O)C[C@](OC[C@H]2O[C@@H](O[C@H]3[C@H](O)[C@@H](O)[C@H](OCCN=[N+]=[N-])O[C@@H]3CO)[C@H](O)[C@@H](O)[C@H]2O)(C(=O)O)O[C@H]1C(O)[C@H](O)CNC(=O)OCc1cn(CCCCCCCCCCC(=O)O)nn1
REMARK SMILES IDX 51 1 49 2 48 3 50 5 47 6 45 7 43 8 42 9 9 10 8 11 41 12 6 13
REMARK SMILES IDX 5 14 10 15 11 16 12 17 14 18 13 19 32 20 34 21 36 22 15 23
REMARK SMILES IDX 16 24 29 25 28 26 21 27 17 28 19 29 30 30 31 31 22 33 23 34
REMARK SMILES IDX 24 35 25 36 26 37 27 38 18 39 20 41 33 43 35 45 37 47 38 49
REMARK SMILES IDX 39 50 40 51 7 53 4 55 2 56 1 58 3 59 44 60 46 62 52 64 53 65
REMARK SMILES IDX 54 66 70 67 55 68 69 69 56 70 57 71 58 72 59 73 60 74 61 75
REMARK SMILES IDX 62 76 63 77 64 78 65 79 66 80 67 81 68 82
REMARK H PARENT 48 4 31 32 18 40 20 42 33 44 35 46 37 48 40 52 7 54 4 57 44 61
REMARK H PARENT 46 63 68 83
REMARK Flexibility Score: inf
ROOT
ATOM      1  O   UNL     1      19.307  29.435  18.639  1.00  0.00    -0.443 OA
ENDROOT
BRANCH   1   2
ATOM      2  C   UNL     1      20.534  28.836  19.000  1.00  0.00     0.407 C 
ATOM      3  N   UNL     1      21.729  29.596  19.044  1.00  0.00    -0.319 N 
ATOM      4  H   UNL     1      21.681  30.619  18.794  1.00  0.00     0.167 HD
ATOM      5  O   UNL     1      20.596  27.620  19.292  1.00  0.00    -0.225 OA
BRANCH   3   6
ATOM      6  C   UNL     1      22.991  29.031  19.414  1.00  0.00     0.154 C 
BRANCH   6   7
ATOM      7  C   UNL     1      23.367  29.232  20.878  1.00  0.00     0.165 C 
BRANCH   7   8
ATOM      8  C   UNL     1      24.564  28.380  21.116  1.00  0.00     0.176 C 
BRANCH   8   9
ATOM      9  C   UNL     1      24.450  26.937  20.682  1.00  0.00     0.178 C 
ATOM     10  C   UNL     1      23.591  24.917  21.448  1.00  0.00     0.272 C 
ATOM     11  C   UNL     1      24.786  24.261  20.789  1.00  0.00     0.113 C 
ATOM     12  O   UNL     1      23.942  26.223  21.731  1.00  0.00    -0.332 OA
ATOM     13  C   UNL     1      26.019  25.105  20.797  1.00  0.00     0.145 C 
ATOM     14  C   UNL     1      25.717  26.408  20.086  1.00  0.00     0.142 C 
BRANCH  10  15
ATOM     15  O   UNL     1      23.243  24.239  22.628  1.00  0.00    -0.338 OA
BRANCH  15  16
ATOM     16  C   UNL     1      23.392  24.919  23.789  1.00  0.00     0.199 C 
BRANCH  16  17
ATOM     17  C   UNL     1      22.087  24.709  24.586  1.00  0.00     0.179 C 
ATOM     18  C   UNL     1      22.584  25.032  26.877  1.00  0.00     0.282 C 
ATOM     19  O   UNL     1      22.287  24.236  25.822  1.00  0.00    -0.341 OA
ATOM     20  C   UNL     1      22.325  26.471  26.642  1.00  0.00     0.202 C 
ATOM     21  C   UNL     1      21.053  26.616  25.817  1.00  0.00     0.179 C 
ATOM     22  C   UNL     1      21.210  25.936  24.472  1.00  0.00     0.177 C 
BRANCH  18  23
ATOM     23  O   UNL     1      23.926  24.744  27.233  1.00  0.00    -0.341 OA
BRANCH  23  24
ATOM     24  C   UNL     1      24.454  25.890  27.813  1.00  0.00     0.184 C 
ATOM     25  C   UNL     1      25.730  26.378  27.210  1.00  0.00     0.178 C 
ATOM     26  O   UNL     1      26.257  27.396  27.950  1.00  0.00    -0.341 OA
ATOM     27  C   UNL     1      25.561  27.958  28.954  1.00  0.00     0.281 C 
ATOM     28  C   UNL     1      24.757  25.624  29.296  1.00  0.00     0.180 C 
ATOM     29  C   UNL     1      24.948  26.983  29.931  1.00  0.00     0.202 C 
BRANCH  25  30
ATOM     30  C   UNL     1      25.592  26.813  25.763  1.00  0.00     0.191 C 
BRANCH  30  31
ATOM     31  O   UNL     1      25.571  28.173  25.593  1.00  0.00    -0.394 OA
ATOM     32  H   UNL     1      24.992  28.568  26.296  1.00  0.00     0.210 HD
ENDBRANCH  30  31
ENDBRANCH  25  30
BRANCH  27  33
ATOM     33  O   UNL     1      24.543  28.755  28.447  1.00  0.00    -0.350 OA
BRANCH  33  34
ATOM     34  C   UNL     1      24.905  30.101  28.397  1.00  0.00     0.169 C 
BRANCH  34  35
ATOM     35  C   UNL     1      24.155  30.849  27.330  1.00  0.00     0.119 C 
BRANCH  35  36
ATOM     36  N   UNL     1      23.064  30.001  26.845  1.00  0.00    -0.092 NA
ATOM     37  N   UNL     1      22.939  29.758  25.625  1.00  0.00     0.001 N 
ATOM     38  N   UNL     1      23.046  29.702  24.381  1.00  0.00    -0.003 NA
ENDBRANCH  35  36
ENDBRANCH  34  35
ENDBRANCH  33  34
ENDBRANCH  27  33
BRANCH  28  39
ATOM     39  O   UNL     1      23.738  24.949  29.933  1.00  0.00    -0.387 OA
ATOM     40  H   UNL     1      23.849  24.897  30.916  1.00  0.00     0.211 HD
ENDBRANCH  28  39
BRANCH  29  41
ATOM     41  O   UNL     1      25.842  26.827  30.986  1.00  0.00    -0.385 OA
ATOM     42  H   UNL     1      26.613  27.453  30.818  1.00  0.00     0.211 HD
ENDBRANCH  29  41
ENDBRANCH  23  24
ENDBRANCH  18  23
BRANCH  20  43
ATOM     43  O   UNL     1      22.063  27.174  27.827  1.00  0.00    -0.385 OA
ATOM     44  H   UNL     1      21.632  28.032  27.539  1.00  0.00     0.211 HD
ENDBRANCH  20  43
BRANCH  21  45
ATOM     45  O   UNL     1      20.741  27.960  25.625  1.00  0.00    -0.387 OA
ATOM     46  H   UNL     1      20.400  28.294  26.493  1.00  0.00     0.211 HD
ENDBRANCH  21  45
BRANCH  22  47
ATOM     47  O   UNL     1      21.767  26.843  23.604  1.00  0.00    -0.387 OA
ATOM     48  H   UNL     1      21.977  26.377  22.755  1.00  0.00     0.211 HD
ENDBRANCH  22  47
ENDBRANCH  16  17
ENDBRANCH  15  16
ENDBRANCH  10  15
BRANCH  10  49
ATOM     49  C   UNL     1      22.392  24.850  20.610  1.00  0.00     0.364 C 
ATOM     50  O   UNL     1      22.369  24.277  19.508  1.00  0.00    -0.246 OA
BRANCH  49  51
ATOM     51  O   UNL     1      21.210  25.440  21.026  1.00  0.00    -0.477 OA
ATOM     52  H   UNL     1      20.716  25.138  21.870  1.00  0.00     0.296 HD
ENDBRANCH  49  51
ENDBRANCH  10  49
BRANCH  13  53
ATOM     53  O   UNL     1      26.604  25.297  22.029  1.00  0.00    -0.391 OA
ATOM     54  H   UNL     1      25.948  25.378  22.779  1.00  0.00     0.211 HD
ENDBRANCH  13  53
BRANCH  14  55
ATOM     55  N   UNL     1      25.663  26.131  18.689  1.00  0.00    -0.348 N 
ATOM     56  C   UNL     1      26.147  27.006  17.676  1.00  0.00     0.217 C 
ATOM     57  H   UNL     1      25.246  25.233  18.342  1.00  0.00     0.163 HD
ATOM     58  C   UNL     1      26.055  26.647  16.249  1.00  0.00     0.114 C 
ATOM     59  O   UNL     1      26.651  28.085  18.036  1.00  0.00    -0.275 OA
ENDBRANCH  14  55
ENDBRANCH   8   9
BRANCH   8  60
ATOM     60  O   UNL     1      24.987  28.553  22.406  1.00  0.00    -0.388 OA
ATOM     61  H   UNL     1      25.889  28.250  22.595  1.00  0.00     0.211 HD
ENDBRANCH   8  60
ENDBRANCH   7   8
BRANCH   7  62
ATOM     62  O   UNL     1      22.250  28.891  21.632  1.00  0.00    -0.388 OA
ATOM     63  H   UNL     1      22.393  28.069  22.161  1.00  0.00     0.211 HD
ENDBRANCH   7  62
ENDBRANCH   6   7
ENDBRANCH   3   6
ENDBRANCH   1   2
BRANCH   1  64
ATOM     64  C   UNL     1      18.298  28.559  18.118  1.00  0.00     0.294 C 
BRANCH  64  65
ATOM     65  C   UNL     1      17.170  28.579  19.074  1.00  0.00     0.120 A 
ATOM     66  C   UNL     1      15.975  29.245  18.874  1.00  0.00     0.138 A 
ATOM     67  N   UNL     1      17.085  27.973  20.266  1.00  0.00    -0.132 NA
ATOM     68  N   UNL     1      15.221  29.007  19.964  1.00  0.00    -0.252 N 
ATOM     69  N   UNL     1      15.925  28.224  20.805  1.00  0.00    -0.067 NA
BRANCH  68  70
ATOM     70  C   UNL     1      13.897  29.461  20.257  1.00  0.00     0.146 C 
BRANCH  70  71
ATOM     71  C   UNL     1      13.346  29.055  21.579  1.00  0.00     0.024 C 
BRANCH  71  72
ATOM     72  C   UNL     1      12.581  30.093  22.321  1.00  0.00     0.002 C 
BRANCH  72  73
ATOM     73  C   UNL     1      12.419  29.859  23.783  1.00  0.00     0.000 C 
BRANCH  73  74
ATOM     74  C   UNL     1      11.057  29.449  24.225  1.00  0.00     0.000 C 
BRANCH  74  75
ATOM     75  C   UNL     1      10.131  30.634  24.223  1.00  0.00     0.000 C 
BRANCH  75  76
ATOM     76  C   UNL     1       8.669  30.247  24.260  1.00  0.00     0.000 C 
BRANCH  76  77
ATOM     77  C   UNL     1       8.441  28.817  24.627  1.00  0.00     0.001 C 
BRANCH  77  78
ATOM     78  C   UNL     1       7.301  28.584  25.570  1.00  0.00     0.012 C 
BRANCH  78  79
ATOM     79  C   UNL     1       6.955  27.105  25.542  1.00  0.00     0.122 C 
BRANCH  79  80
ATOM     80  C   UNL     1       8.193  26.327  25.370  1.00  0.00     0.303 C 
ATOM     81  O   UNL     1       8.535  25.915  24.242  1.00  0.00    -0.252 OA
BRANCH  80  82
ATOM     82  O   UNL     1       9.015  26.026  26.448  1.00  0.00    -0.481 OA
ATOM     83  H   UNL     1       9.882  26.505  26.611  1.00  0.00     0.296 HD
ENDBRANCH  80  82
ENDBRANCH  79  80
ENDBRANCH  78  79
ENDBRANCH  77  78
ENDBRANCH  76  77
ENDBRANCH  75  76
ENDBRANCH  74  75
ENDBRANCH  73  74
ENDBRANCH  72  73
ENDBRANCH  71  72
ENDBRANCH  70  71
ENDBRANCH  68  70
ENDBRANCH  64  65
ENDBRANCH   1  64
TORSDOF 41
