REMARK VINA RESULT:    -5.801      3.736     10.445
REMARK INTER + INTRA:         -20.728
REMARK INTER:                 -13.811
REMARK INTRA:                  -6.917
REMARK UNBOUND:                -5.091
REMARK SMILES C=CCCCCn1cc(COC(=O)NC[C@@H](O)C(O)[C@@H]2O[C@@](OC[C@H]3O[C@@H](O[C@H]4[C@H](O)[C@@H](O)[C@H](OCCN=[N+]=[N-])O[C@@H]4CO)[C@H](O)[C@@H](O)[C@H]3O)(C(=O)O)C[C@H](O)[C@H]2NC(C)=O)nn1
REMARK SMILES IDX 18 1 20 2 22 3 54 4 21 5 55 6 57 7 23 8 24 9 25 10 27 11
REMARK SMILES IDX 26 12 45 13 47 14 49 15 28 16 29 17 42 18 41 19 34 20 30 21
REMARK SMILES IDX 32 22 43 23 44 24 35 26 36 27 37 28 38 29 39 30 40 31 31 32
REMARK SMILES IDX 33 34 46 36 48 38 50 40 51 42 52 43 53 44 56 46 58 48 59 49
REMARK SMILES IDX 60 51 61 52 19 53 16 55 17 56 15 58 14 59 12 60 13 62 11 63
REMARK SMILES IDX 10 64 9 65 8 66 62 67 7 68 63 69 6 70 5 71 4 72 3 73 2 74
REMARK SMILES IDX 1 75
REMARK H PARENT 44 25 31 33 33 35 46 37 48 39 50 41 53 45 56 47 58 50 19 54
REMARK H PARENT 17 57 14 61
REMARK Flexibility Score: inf
ROOT
ATOM      1  C   UNL     1      22.834  28.312  23.165  1.00  0.00     0.176 C 
ENDROOT
BRANCH   1   2
ATOM      2  C   UNL     1      23.191  26.851  22.880  1.00  0.00     0.178 C 
ATOM      3  C   UNL     1      22.912  24.733  23.732  1.00  0.00     0.272 C 
ATOM      4  C   UNL     1      24.292  24.385  23.358  1.00  0.00     0.113 C 
ATOM      5  O   UNL     1      22.907  26.155  24.000  1.00  0.00    -0.332 OA
ATOM      6  C   UNL     1      24.856  25.130  22.227  1.00  0.00     0.145 C 
ATOM      7  C   UNL     1      24.397  26.575  22.118  1.00  0.00     0.142 C 
BRANCH   3   8
ATOM      8  O   UNL     1      22.532  24.268  24.982  1.00  0.00    -0.338 OA
BRANCH   8   9
ATOM      9  C   UNL     1      22.050  25.046  25.930  1.00  0.00     0.199 C 
BRANCH   9  10
ATOM     10  C   UNL     1      22.672  25.124  27.271  1.00  0.00     0.179 C 
ATOM     11  C   UNL     1      24.603  25.959  28.301  1.00  0.00     0.282 C 
ATOM     12  O   UNL     1      24.045  25.448  27.162  1.00  0.00    -0.341 OA
ATOM     13  C   UNL     1      23.821  25.711  29.532  1.00  0.00     0.202 C 
ATOM     14  C   UNL     1      22.378  26.128  29.453  1.00  0.00     0.179 C 
ATOM     15  C   UNL     1      22.009  26.280  28.010  1.00  0.00     0.177 C 
BRANCH  11  16
ATOM     16  O   UNL     1      25.003  27.241  28.035  1.00  0.00    -0.341 OA
BRANCH  16  17
ATOM     17  C   UNL     1      25.903  27.417  27.027  1.00  0.00     0.184 C 
ATOM     18  C   UNL     1      26.985  28.363  27.492  1.00  0.00     0.178 C 
ATOM     19  O   UNL     1      27.364  29.240  26.462  1.00  0.00    -0.341 OA
ATOM     20  C   UNL     1      26.371  30.211  26.367  1.00  0.00     0.281 C 
ATOM     21  C   UNL     1      25.251  28.105  25.806  1.00  0.00     0.180 C 
ATOM     22  C   UNL     1      25.041  29.573  26.097  1.00  0.00     0.202 C 
BRANCH  18  23
ATOM     23  C   UNL     1      28.200  27.645  28.053  1.00  0.00     0.191 C 
BRANCH  23  24
ATOM     24  O   UNL     1      29.356  28.050  27.407  1.00  0.00    -0.394 OA
ATOM     25  H   UNL     1      29.605  28.947  27.734  1.00  0.00     0.210 HD
ENDBRANCH  23  24
ENDBRANCH  18  23
BRANCH  20  26
ATOM     26  O   UNL     1      26.735  31.051  25.314  1.00  0.00    -0.350 OA
BRANCH  26  27
ATOM     27  C   UNL     1      25.677  31.765  24.782  1.00  0.00     0.169 C 
BRANCH  27  28
ATOM     28  C   UNL     1      26.071  32.179  23.376  1.00  0.00     0.119 C 
BRANCH  28  29
ATOM     29  N   UNL     1      25.445  31.353  22.378  1.00  0.00    -0.092 NA
ATOM     30  N   UNL     1      24.243  31.420  22.152  1.00  0.00     0.001 N 
ATOM     31  N   UNL     1      23.074  31.712  21.899  1.00  0.00    -0.003 NA
ENDBRANCH  28  29
ENDBRANCH  27  28
ENDBRANCH  26  27
ENDBRANCH  20  26
BRANCH  21  32
ATOM     32  O   UNL     1      26.186  28.014  24.777  1.00  0.00    -0.387 OA
ATOM     33  H   UNL     1      25.944  28.509  23.968  1.00  0.00     0.211 HD
ENDBRANCH  21  32
BRANCH  22  34
ATOM     34  O   UNL     1      24.125  29.740  27.132  1.00  0.00    -0.385 OA
ATOM     35  H   UNL     1      24.567  29.428  27.968  1.00  0.00     0.211 HD
ENDBRANCH  22  34
ENDBRANCH  16  17
ENDBRANCH  11  16
BRANCH  13  36
ATOM     36  O   UNL     1      23.854  24.332  29.784  1.00  0.00    -0.385 OA
ATOM     37  H   UNL     1      23.819  23.802  28.967  1.00  0.00     0.211 HD
ENDBRANCH  13  36
BRANCH  14  38
ATOM     38  O   UNL     1      22.126  27.298  30.172  1.00  0.00    -0.387 OA
ATOM     39  H   UNL     1      22.576  28.028  29.700  1.00  0.00     0.211 HD
ENDBRANCH  14  38
BRANCH  15  40
ATOM     40  O   UNL     1      22.429  27.508  27.482  1.00  0.00    -0.387 OA
ATOM     41  H   UNL     1      22.975  28.026  28.101  1.00  0.00     0.211 HD
ENDBRANCH  15  40
ENDBRANCH   9  10
ENDBRANCH   8   9
ENDBRANCH   3   8
BRANCH   3  42
ATOM     42  C   UNL     1      21.968  24.564  22.635  1.00  0.00     0.364 C 
ATOM     43  O   UNL     1      20.833  25.087  22.673  1.00  0.00    -0.246 OA
BRANCH  42  44
ATOM     44  O   UNL     1      22.260  23.828  21.526  1.00  0.00    -0.477 OA
ATOM     45  H   UNL     1      22.836  24.181  20.783  1.00  0.00     0.296 HD
ENDBRANCH  42  44
ENDBRANCH   3  42
BRANCH   6  46
ATOM     46  O   UNL     1      26.270  25.084  22.314  1.00  0.00    -0.391 OA
ATOM     47  H   UNL     1      26.577  24.356  22.910  1.00  0.00     0.211 HD
ENDBRANCH   6  46
BRANCH   7  48
ATOM     48  N   UNL     1      24.172  26.890  20.694  1.00  0.00    -0.348 N 
ATOM     49  C   UNL     1      24.921  27.859  19.988  1.00  0.00     0.217 C 
ATOM     50  H   UNL     1      23.425  26.400  20.130  1.00  0.00     0.163 HD
ATOM     51  C   UNL     1      24.635  28.145  18.533  1.00  0.00     0.114 C 
ATOM     52  O   UNL     1      25.830  28.481  20.594  1.00  0.00    -0.275 OA
ENDBRANCH   7  48
ENDBRANCH   1   2
BRANCH   1  53
ATOM     53  O   UNL     1      22.087  28.717  21.937  1.00  0.00    -0.388 OA
ATOM     54  H   UNL     1      22.862  28.786  21.292  1.00  0.00     0.211 HD
ENDBRANCH   1  53
BRANCH   1  55
ATOM     55  C   UNL     1      21.812  28.526  24.188  1.00  0.00     0.165 C 
BRANCH  55  56
ATOM     56  O   UNL     1      20.689  27.672  24.116  1.00  0.00    -0.388 OA
ATOM     57  H   UNL     1      19.929  28.268  23.904  1.00  0.00     0.211 HD
ENDBRANCH  55  56
BRANCH  55  58
ATOM     58  C   UNL     1      21.367  29.892  24.505  1.00  0.00     0.154 C 
BRANCH  58  59
ATOM     59  N   UNL     1      20.582  30.535  23.523  1.00  0.00    -0.319 N 
ATOM     60  C   UNL     1      19.218  30.453  23.221  1.00  0.00     0.407 C 
ATOM     61  H   UNL     1      21.130  31.223  22.881  1.00  0.00     0.167 HD
ATOM     62  O   UNL     1      18.459  29.707  23.861  1.00  0.00    -0.225 OA
BRANCH  60  63
ATOM     63  O   UNL     1      18.653  31.209  22.184  1.00  0.00    -0.443 OA
BRANCH  63  64
ATOM     64  C   UNL     1      18.793  30.724  20.848  1.00  0.00     0.294 C 
BRANCH  64  65
ATOM     65  C   UNL     1      17.745  29.717  20.544  1.00  0.00     0.120 A 
ATOM     66  C   UNL     1      16.412  30.018  20.269  1.00  0.00     0.138 A 
ATOM     67  N   UNL     1      17.839  28.380  20.475  1.00  0.00    -0.132 NA
ATOM     68  N   UNL     1      15.777  28.863  20.050  1.00  0.00    -0.252 N 
ATOM     69  N   UNL     1      16.635  27.883  20.174  1.00  0.00    -0.067 NA
BRANCH  68  70
ATOM     70  C   UNL     1      14.347  28.772  19.725  1.00  0.00     0.146 C 
BRANCH  70  71
ATOM     71  C   UNL     1      13.585  29.712  20.620  1.00  0.00     0.024 C 
BRANCH  71  72
ATOM     72  C   UNL     1      13.211  28.969  21.884  1.00  0.00     0.006 C 
BRANCH  72  73
ATOM     73  C   UNL     1      12.806  29.953  22.958  1.00  0.00     0.027 C 
BRANCH  73  74
ATOM     74  C   UNL     1      12.038  31.084  22.392  1.00  0.00    -0.035 C 
ATOM     75  C   UNL     1      10.996  31.572  23.035  1.00  0.00     0.004 C 
ENDBRANCH  73  74
ENDBRANCH  72  73
ENDBRANCH  71  72
ENDBRANCH  70  71
ENDBRANCH  68  70
ENDBRANCH  64  65
ENDBRANCH  63  64
ENDBRANCH  60  63
ENDBRANCH  58  59
ENDBRANCH  55  58
ENDBRANCH   1  55
TORSDOF 34
