REMARK VINA RESULT:    -6.414      3.178      8.217
REMARK INTER + INTRA:         -20.804
REMARK INTER:                 -13.341
REMARK INTRA:                  -7.463
REMARK UNBOUND:                -5.017
REMARK SMILES CC(=O)N[C@@H]1[C@@H](O)C[C@](OC[C@H]2O[C@@H](O[C@H]3[C@H](O)[C@@H](O)[C@H](OCCN=[N+]=[N-])O[C@@H]3CO)[C@H](O)[C@@H](O)[C@H]2O)(C(=O)O)O[C@H]1C(O)[C@H](O)CNC(=O)OCc1cn(C2CCCCC2)nn1
REMARK SMILES IDX 9 1 8 2 6 3 5 4 42 5 41 6 10 7 11 8 12 9 14 10 13 11 32 12
REMARK SMILES IDX 34 13 36 14 15 15 16 16 29 17 28 18 21 19 17 20 19 21 30 22
REMARK SMILES IDX 31 23 22 25 23 26 24 27 25 28 26 29 27 30 18 31 20 33 33 35
REMARK SMILES IDX 35 37 37 39 38 41 39 42 40 43 7 45 43 47 44 48 45 50 46 51
REMARK SMILES IDX 47 53 48 54 49 55 50 57 51 58 52 59 53 60 54 61 63 62 55 63
REMARK SMILES IDX 62 64 56 65 57 66 61 67 58 68 60 69 59 70 4 71 2 72 1 74
REMARK SMILES IDX 3 75
REMARK H PARENT 31 24 18 32 20 34 33 36 35 38 37 40 40 44 7 46 44 49 46 52
REMARK H PARENT 48 56 4 73
REMARK Flexibility Score: inf
ROOT
ATOM      1  C   UNL     1      16.025  30.221  19.224  1.00  0.00     0.272 C 
ATOM      2  C   UNL     1      15.897  29.338  17.926  1.00  0.00     0.113 C 
ATOM      3  C   UNL     1      16.845  28.182  18.019  1.00  0.00     0.145 C 
ATOM      4  C   UNL     1      18.255  28.656  18.248  1.00  0.00     0.142 C 
ATOM      5  C   UNL     1      18.351  29.829  19.159  1.00  0.00     0.178 C 
ATOM      6  O   UNL     1      17.302  30.577  19.437  1.00  0.00    -0.332 OA
ENDROOT
BRANCH   1   7
ATOM      7  O   UNL     1      15.520  29.439  20.168  1.00  0.00    -0.338 OA
BRANCH   7   8
ATOM      8  C   UNL     1      15.633  29.363  21.451  1.00  0.00     0.199 C 
BRANCH   8   9
ATOM      9  C   UNL     1      14.443  29.123  22.366  1.00  0.00     0.179 C 
ATOM     10  C   UNL     1      14.310  29.989  24.542  1.00  0.00     0.282 C 
ATOM     11  O   UNL     1      14.797  29.018  23.673  1.00  0.00    -0.341 OA
ATOM     12  C   UNL     1      12.836  30.072  24.419  1.00  0.00     0.202 C 
ATOM     13  C   UNL     1      12.347  30.209  22.998  1.00  0.00     0.179 C 
ATOM     14  C   UNL     1      13.502  30.287  22.074  1.00  0.00     0.177 C 
BRANCH  10  15
ATOM     15  O   UNL     1      15.056  31.097  24.375  1.00  0.00    -0.341 OA
BRANCH  15  16
ATOM     16  C   UNL     1      16.214  31.256  25.062  1.00  0.00     0.184 C 
ATOM     17  C   UNL     1      16.300  32.702  25.503  1.00  0.00     0.178 C 
ATOM     18  O   UNL     1      17.288  32.910  26.445  1.00  0.00    -0.341 OA
ATOM     19  C   UNL     1      18.322  32.012  26.395  1.00  0.00     0.281 C 
ATOM     20  C   UNL     1      17.460  31.027  24.233  1.00  0.00     0.180 C 
ATOM     21  C   UNL     1      18.631  31.583  25.008  1.00  0.00     0.202 C 
BRANCH  17  22
ATOM     22  C   UNL     1      14.976  33.290  25.900  1.00  0.00     0.191 C 
BRANCH  22  23
ATOM     23  O   UNL     1      14.495  32.552  26.981  1.00  0.00    -0.394 OA
ATOM     24  H   UNL     1      14.607  31.581  26.849  1.00  0.00     0.210 HD
ENDBRANCH  22  23
ENDBRANCH  17  22
BRANCH  19  25
ATOM     25  O   UNL     1      18.110  31.017  27.312  1.00  0.00    -0.350 OA
BRANCH  25  26
ATOM     26  C   UNL     1      18.835  31.154  28.485  1.00  0.00     0.169 C 
BRANCH  26  27
ATOM     27  C   UNL     1      20.184  30.487  28.449  1.00  0.00     0.119 C 
BRANCH  27  28
ATOM     28  N   UNL     1      20.130  29.310  29.292  1.00  0.00    -0.092 NA
ATOM     29  N   UNL     1      19.606  29.459  30.405  1.00  0.00     0.001 N 
ATOM     30  N   UNL     1      19.619  29.573  31.643  1.00  0.00    -0.003 NA
ENDBRANCH  27  28
ENDBRANCH  26  27
ENDBRANCH  25  26
ENDBRANCH  19  25
BRANCH  20  31
ATOM     31  O   UNL     1      17.708  29.703  23.961  1.00  0.00    -0.387 OA
ATOM     32  H   UNL     1      16.911  29.126  24.064  1.00  0.00     0.211 HD
ENDBRANCH  20  31
BRANCH  21  33
ATOM     33  O   UNL     1      19.047  32.740  24.305  1.00  0.00    -0.385 OA
ATOM     34  H   UNL     1      18.612  33.546  24.677  1.00  0.00     0.211 HD
ENDBRANCH  21  33
ENDBRANCH  15  16
ENDBRANCH  10  15
BRANCH  12  35
ATOM     35  O   UNL     1      12.334  28.828  24.883  1.00  0.00    -0.385 OA
ATOM     36  H   UNL     1      11.352  28.810  24.878  1.00  0.00     0.211 HD
ENDBRANCH  12  35
BRANCH  13  37
ATOM     37  O   UNL     1      11.535  31.351  22.851  1.00  0.00    -0.387 OA
ATOM     38  H   UNL     1      11.207  31.382  21.938  1.00  0.00     0.211 HD
ENDBRANCH  13  37
BRANCH  14  39
ATOM     39  O   UNL     1      14.134  31.495  21.970  1.00  0.00    -0.387 OA
ATOM     40  H   UNL     1      15.060  31.334  21.672  1.00  0.00     0.211 HD
ENDBRANCH  14  39
ENDBRANCH   8   9
ENDBRANCH   7   8
ENDBRANCH   1   7
BRANCH   1  41
ATOM     41  C   UNL     1      15.270  31.465  18.844  1.00  0.00     0.364 C 
ATOM     42  O   UNL     1      14.452  31.535  17.935  1.00  0.00    -0.246 OA
BRANCH  41  43
ATOM     43  O   UNL     1      15.491  32.656  19.565  1.00  0.00    -0.477 OA
ATOM     44  H   UNL     1      14.721  33.138  19.999  1.00  0.00     0.296 HD
ENDBRANCH  41  43
ENDBRANCH   1  41
BRANCH   3  45
ATOM     45  O   UNL     1      16.437  27.262  18.977  1.00  0.00    -0.391 OA
ATOM     46  H   UNL     1      15.662  26.756  18.597  1.00  0.00     0.211 HD
ENDBRANCH   3  45
BRANCH   5  47
ATOM     47  C   UNL     1      18.968  29.390  20.522  1.00  0.00     0.176 C 
BRANCH  47  48
ATOM     48  O   UNL     1      18.914  27.985  20.603  1.00  0.00    -0.388 OA
ATOM     49  H   UNL     1      18.231  27.685  21.235  1.00  0.00     0.211 HD
ENDBRANCH  47  48
BRANCH  47  50
ATOM     50  C   UNL     1      20.354  29.910  20.694  1.00  0.00     0.165 C 
BRANCH  50  51
ATOM     51  O   UNL     1      21.221  28.907  20.201  1.00  0.00    -0.388 OA
ATOM     52  H   UNL     1      20.820  28.416  19.458  1.00  0.00     0.211 HD
ENDBRANCH  50  51
BRANCH  50  53
ATOM     53  C   UNL     1      20.795  30.207  22.078  1.00  0.00     0.154 C 
BRANCH  53  54
ATOM     54  N   UNL     1      20.574  29.164  23.045  1.00  0.00    -0.319 N 
ATOM     55  C   UNL     1      21.628  28.462  23.688  1.00  0.00     0.407 C 
ATOM     56  H   UNL     1      19.602  28.909  23.295  1.00  0.00     0.167 HD
ATOM     57  O   UNL     1      22.823  28.741  23.422  1.00  0.00    -0.225 OA
BRANCH  55  58
ATOM     58  O   UNL     1      21.389  27.474  24.603  1.00  0.00    -0.443 OA
BRANCH  58  59
ATOM     59  C   UNL     1      21.234  26.100  24.340  1.00  0.00     0.294 C 
BRANCH  59  60
ATOM     60  C   UNL     1      21.469  25.859  22.900  1.00  0.00     0.120 A 
ATOM     61  C   UNL     1      22.526  25.132  22.432  1.00  0.00     0.138 A 
ATOM     62  N   UNL     1      20.767  26.266  21.837  1.00  0.00    -0.132 NA
ATOM     63  N   UNL     1      22.456  25.103  21.081  1.00  0.00    -0.249 N 
ATOM     64  N   UNL     1      21.374  25.803  20.747  1.00  0.00    -0.067 NA
BRANCH  63  65
ATOM     65  C   UNL     1      23.389  24.440  20.191  1.00  0.00     0.109 C 
ATOM     66  C   UNL     1      24.693  25.225  20.300  1.00  0.00     0.027 C 
ATOM     67  C   UNL     1      22.903  24.521  18.762  1.00  0.00     0.027 C 
ATOM     68  C   UNL     1      25.761  24.531  19.456  1.00  0.00     0.002 C 
ATOM     69  C   UNL     1      23.953  25.074  17.821  1.00  0.00     0.002 C 
ATOM     70  C   UNL     1      25.271  24.399  18.050  1.00  0.00     0.000 C 
ENDBRANCH  63  65
ENDBRANCH  59  60
ENDBRANCH  58  59
ENDBRANCH  55  58
ENDBRANCH  53  54
ENDBRANCH  50  53
ENDBRANCH  47  50
ENDBRANCH   5  47
BRANCH   4  71
ATOM     71  N   UNL     1      18.976  28.811  17.012  1.00  0.00    -0.348 N 
ATOM     72  C   UNL     1      20.277  28.335  16.780  1.00  0.00     0.217 C 
ATOM     73  H   UNL     1      18.537  29.318  16.177  1.00  0.00     0.163 HD
ATOM     74  C   UNL     1      20.966  28.520  15.457  1.00  0.00     0.114 C 
ATOM     75  O   UNL     1      20.912  27.743  17.652  1.00  0.00    -0.275 OA
ENDBRANCH   4  71
TORSDOF 30
