REMARK VINA RESULT:    -5.530     21.241     27.094
REMARK INTER + INTRA:         -24.151
REMARK INTER:                 -17.251
REMARK INTRA:                  -6.900
REMARK UNBOUND:                -9.245
REMARK SMILES CC(=O)N[C@@H]1[C@@H](O)C[C@](OC[C@H]2O[C@@H](O[C@H]3[C@H](O)[C@@H](O)[C@H](OCCN=[N+]=[N-])O[C@@H]3CO)[C@H](O)[C@@H](O)[C@H]2O)(C(=O)O)O[C@H]1C(O)[C@H](O)CNC(=O)OCc1cn([C@@H](C)C(=O)OCc2ccccc2)nn1
REMARK SMILES IDX 43 1 42 2 9 3 8 4 41 5 6 6 5 7 10 8 11 9 12 10 14 11 13 12
REMARK SMILES IDX 32 13 34 14 36 15 15 16 16 17 29 18 28 19 21 20 17 21 19 22
REMARK SMILES IDX 30 23 31 24 22 26 23 27 24 28 25 29 26 30 27 31 18 32 20 34
REMARK SMILES IDX 33 36 35 38 37 40 38 42 39 43 40 44 7 46 4 48 2 49 1 51 3 52
REMARK SMILES IDX 44 53 45 55 46 56 47 58 48 59 49 60 50 62 51 63 52 64 53 65
REMARK SMILES IDX 54 66 69 67 55 68 68 69 56 70 57 71 58 72 59 73 60 74 61 75
REMARK SMILES IDX 62 76 63 77 67 78 64 79 66 80 65 81
REMARK H PARENT 31 25 18 33 20 35 33 37 35 39 37 41 40 45 7 47 4 50 44 54
REMARK H PARENT 46 57 48 61
REMARK Flexibility Score: inf
ROOT
ATOM      1  C   UNL     1       3.414  21.095  31.975  1.00  0.00     0.176 C 
ENDROOT
BRANCH   1   2
ATOM      2  C   UNL     1       2.413  20.487  32.877  1.00  0.00     0.178 C 
ATOM      3  C   UNL     1       1.032  22.293  33.407  1.00  0.00     0.272 C 
ATOM      4  C   UNL     1       1.505  22.210  34.807  1.00  0.00     0.113 C 
ATOM      5  O   UNL     1       1.142  20.991  32.800  1.00  0.00    -0.332 OA
ATOM      6  C   UNL     1       2.911  21.675  34.946  1.00  0.00     0.145 C 
ATOM      7  C   UNL     1       2.966  20.338  34.270  1.00  0.00     0.142 C 
BRANCH   3   8
ATOM      8  O   UNL     1       1.573  23.118  32.548  1.00  0.00    -0.338 OA
BRANCH   8   9
ATOM      9  C   UNL     1       1.317  24.347  32.205  1.00  0.00     0.199 C 
BRANCH   9  10
ATOM     10  C   UNL     1       2.326  25.457  32.289  1.00  0.00     0.179 C 
ATOM     11  C   UNL     1       4.274  25.964  33.457  1.00  0.00     0.282 C 
ATOM     12  O   UNL     1       3.030  25.339  33.451  1.00  0.00    -0.341 OA
ATOM     13  C   UNL     1       4.377  27.049  32.447  1.00  0.00     0.202 C 
ATOM     14  C   UNL     1       4.229  26.506  31.052  1.00  0.00     0.179 C 
ATOM     15  C   UNL     1       3.260  25.380  31.061  1.00  0.00     0.177 C 
BRANCH  11  16
ATOM     16  O   UNL     1       5.219  24.976  33.409  1.00  0.00    -0.341 OA
BRANCH  16  17
ATOM     17  C   UNL     1       6.377  25.231  34.081  1.00  0.00     0.184 C 
ATOM     18  C   UNL     1       7.039  23.927  34.447  1.00  0.00     0.178 C 
ATOM     19  O   UNL     1       8.146  24.168  35.268  1.00  0.00    -0.341 OA
ATOM     20  C   UNL     1       7.604  24.291  36.573  1.00  0.00     0.281 C 
ATOM     21  C   UNL     1       6.154  25.993  35.377  1.00  0.00     0.180 C 
ATOM     22  C   UNL     1       6.434  25.223  36.613  1.00  0.00     0.202 C 
BRANCH  18  23
ATOM     23  C   UNL     1       7.392  23.060  33.275  1.00  0.00     0.191 C 
BRANCH  23  24
ATOM     24  O   UNL     1       6.297  23.095  32.408  1.00  0.00    -0.394 OA
ATOM     25  H   UNL     1       6.547  22.951  31.464  1.00  0.00     0.210 HD
ENDBRANCH  23  24
ENDBRANCH  18  23
BRANCH  20  26
ATOM     26  O   UNL     1       8.620  24.618  37.413  1.00  0.00    -0.350 OA
BRANCH  26  27
ATOM     27  C   UNL     1       8.944  23.772  38.421  1.00  0.00     0.169 C 
BRANCH  27  28
ATOM     28  C   UNL     1       9.784  22.589  38.098  1.00  0.00     0.119 C 
BRANCH  28  29
ATOM     29  N   UNL     1      10.028  21.655  39.138  1.00  0.00    -0.092 NA
ATOM     30  N   UNL     1       9.155  21.302  39.922  1.00  0.00     0.001 N 
ATOM     31  N   UNL     1       8.281  20.777  40.636  1.00  0.00    -0.003 NA
ENDBRANCH  28  29
ENDBRANCH  27  28
ENDBRANCH  26  27
ENDBRANCH  20  26
BRANCH  21  32
ATOM     32  O   UNL     1       6.896  27.177  35.405  1.00  0.00    -0.387 OA
ATOM     33  H   UNL     1       7.695  27.119  35.976  1.00  0.00     0.211 HD
ENDBRANCH  21  32
BRANCH  22  34
ATOM     34  O   UNL     1       5.258  24.604  37.050  1.00  0.00    -0.385 OA
ATOM     35  H   UNL     1       5.103  24.917  37.982  1.00  0.00     0.211 HD
ENDBRANCH  22  34
ENDBRANCH  16  17
ENDBRANCH  11  16
BRANCH  13  36
ATOM     36  O   UNL     1       3.373  28.008  32.724  1.00  0.00    -0.385 OA
ATOM     37  H   UNL     1       2.559  27.459  32.941  1.00  0.00     0.211 HD
ENDBRANCH  13  36
BRANCH  14  38
ATOM     38  O   UNL     1       5.477  26.163  30.573  1.00  0.00    -0.387 OA
ATOM     39  H   UNL     1       5.607  26.434  29.624  1.00  0.00     0.211 HD
ENDBRANCH  14  38
BRANCH  15  40
ATOM     40  O   UNL     1       3.876  24.140  30.970  1.00  0.00    -0.387 OA
ATOM     41  H   UNL     1       3.181  23.419  31.072  1.00  0.00     0.211 HD
ENDBRANCH  15  40
ENDBRANCH   9  10
ENDBRANCH   8   9
ENDBRANCH   3   8
BRANCH   3  42
ATOM     42  C   UNL     1      -0.480  22.397  33.447  1.00  0.00     0.364 C 
ATOM     43  O   UNL     1      -1.069  22.924  34.401  1.00  0.00    -0.246 OA
BRANCH  42  44
ATOM     44  O   UNL     1      -1.255  21.899  32.402  1.00  0.00    -0.477 OA
ATOM     45  H   UNL     1      -1.567  22.458  31.614  1.00  0.00     0.296 HD
ENDBRANCH  42  44
ENDBRANCH   3  42
BRANCH   6  46
ATOM     46  O   UNL     1       3.877  22.558  34.471  1.00  0.00    -0.391 OA
ATOM     47  H   UNL     1       4.217  22.179  33.628  1.00  0.00     0.211 HD
ENDBRANCH   6  46
BRANCH   7  48
ATOM     48  N   UNL     1       2.188  19.388  35.054  1.00  0.00    -0.348 N 
ATOM     49  C   UNL     1       2.857  18.634  36.069  1.00  0.00     0.217 C 
ATOM     50  H   UNL     1       1.171  19.223  34.919  1.00  0.00     0.163 HD
ATOM     51  C   UNL     1       2.059  17.659  36.872  1.00  0.00     0.114 C 
ATOM     52  O   UNL     1       4.091  18.797  36.272  1.00  0.00    -0.275 OA
ENDBRANCH   7  48
ENDBRANCH   1   2
BRANCH   1  53
ATOM     53  O   UNL     1       4.707  20.776  32.456  1.00  0.00    -0.388 OA
ATOM     54  H   UNL     1       4.698  19.888  32.907  1.00  0.00     0.211 HD
ENDBRANCH   1  53
BRANCH   1  55
ATOM     55  C   UNL     1       3.404  20.505  30.556  1.00  0.00     0.165 C 
BRANCH  55  56
ATOM     56  O   UNL     1       4.656  20.293  30.070  1.00  0.00    -0.388 OA
ATOM     57  H   UNL     1       5.150  21.141  29.973  1.00  0.00     0.211 HD
ENDBRANCH  55  56
BRANCH  55  58
ATOM     58  C   UNL     1       2.478  21.269  29.666  1.00  0.00     0.154 C 
BRANCH  58  59
ATOM     59  N   UNL     1       3.214  22.090  28.746  1.00  0.00    -0.319 N 
ATOM     60  C   UNL     1       2.660  22.962  27.780  1.00  0.00     0.407 C 
ATOM     61  H   UNL     1       4.284  22.077  28.753  1.00  0.00     0.167 HD
ATOM     62  O   UNL     1       1.439  23.070  27.643  1.00  0.00    -0.225 OA
BRANCH  60  63
ATOM     63  O   UNL     1       3.482  23.735  26.945  1.00  0.00    -0.443 OA
BRANCH  63  64
ATOM     64  C   UNL     1       3.084  24.993  26.462  1.00  0.00     0.294 C 
BRANCH  64  65
ATOM     65  C   UNL     1       4.222  25.924  26.642  1.00  0.00     0.120 A 
ATOM     66  C   UNL     1       5.302  26.118  25.811  1.00  0.00     0.139 A 
ATOM     67  N   UNL     1       4.389  26.748  27.683  1.00  0.00    -0.132 NA
ATOM     68  N   UNL     1       6.109  27.063  26.369  1.00  0.00    -0.238 N 
ATOM     69  N   UNL     1       5.532  27.425  27.499  1.00  0.00    -0.066 NA
BRANCH  68  70
ATOM     70  C   UNL     1       7.338  27.489  25.747  1.00  0.00     0.215 C 
ATOM     71  C   UNL     1       7.961  26.368  24.935  1.00  0.00     0.046 C 
BRANCH  70  72
ATOM     72  C   UNL     1       7.092  28.677  24.854  1.00  0.00     0.331 C 
ATOM     73  O   UNL     1       7.386  29.811  25.266  1.00  0.00    -0.250 OA
BRANCH  72  74
ATOM     74  O   UNL     1       6.550  28.529  23.598  1.00  0.00    -0.459 OA
BRANCH  74  75
ATOM     75  C   UNL     1       5.486  29.290  23.082  1.00  0.00     0.268 C 
BRANCH  75  76
ATOM     76  C   UNL     1       5.775  29.899  21.767  1.00  0.00    -0.011 A 
ATOM     77  C   UNL     1       6.249  31.179  21.638  1.00  0.00     0.007 A 
ATOM     78  C   UNL     1       5.567  29.179  20.617  1.00  0.00     0.007 A 
ATOM     79  C   UNL     1       6.516  31.751  20.414  1.00  0.00     0.000 A 
ATOM     80  C   UNL     1       5.821  29.708  19.373  1.00  0.00     0.000 A 
ATOM     81  C   UNL     1       6.300  31.009  19.281  1.00  0.00     0.000 A 
ENDBRANCH  75  76
ENDBRANCH  74  75
ENDBRANCH  72  74
ENDBRANCH  70  72
ENDBRANCH  68  70
ENDBRANCH  64  65
ENDBRANCH  63  64
ENDBRANCH  60  63
ENDBRANCH  58  59
ENDBRANCH  55  58
ENDBRANCH   1  55
TORSDOF 34
