REMARK VINA RESULT:    -5.962     16.409     21.442
REMARK INTER + INTRA:         -19.892
REMARK INTER:                 -14.067
REMARK INTRA:                  -5.825
REMARK UNBOUND:                -5.215
REMARK SMILES CC(=O)N[C@@H]1[C@@H](O)C[C@](OC[C@H]2O[C@@H](O[C@H]3[C@H](O)[C@@H](O)[C@H](OCCN=[N+]=[N-])O[C@@H]3CO)[C@H](O)[C@@H](O)[C@H]2O)(C(=O)O)O[C@H]1C(O)[C@H](O)CNC(=O)OCc1cn(C2CCCC2)nn1
REMARK SMILES IDX 9 1 8 2 6 3 5 4 42 5 41 6 10 7 11 8 12 9 14 10 13 11 32 12
REMARK SMILES IDX 34 13 36 14 15 15 16 16 29 17 28 18 21 19 17 20 19 21 30 22
REMARK SMILES IDX 31 23 22 25 23 26 24 27 25 28 26 29 27 30 18 31 20 33 33 35
REMARK SMILES IDX 35 37 37 39 38 41 39 42 40 43 7 45 43 47 44 48 45 50 46 51
REMARK SMILES IDX 47 53 48 54 49 55 50 57 51 58 52 59 53 60 54 61 62 62 55 63
REMARK SMILES IDX 61 64 56 65 57 66 60 67 58 68 59 69 4 70 2 71 1 73 3 74
REMARK H PARENT 31 24 18 32 20 34 33 36 35 38 37 40 40 44 7 46 44 49 46 52
REMARK H PARENT 48 56 4 72
REMARK Flexibility Score: inf
ROOT
ATOM      1  C   UNL     1       2.651  21.599  30.576  1.00  0.00     0.272 C 
ATOM      2  C   UNL     1       1.455  21.372  31.423  1.00  0.00     0.113 C 
ATOM      3  C   UNL     1       0.991  22.569  32.177  1.00  0.00     0.145 C 
ATOM      4  C   UNL     1       2.181  23.230  32.913  1.00  0.00     0.142 C 
ATOM      5  C   UNL     1       3.393  22.416  32.625  1.00  0.00     0.178 C 
ATOM      6  O   UNL     1       3.536  22.509  31.198  1.00  0.00    -0.332 OA
ENDROOT
BRANCH   1   7
ATOM      7  O   UNL     1       2.372  22.076  29.346  1.00  0.00    -0.338 OA
BRANCH   7   8
ATOM      8  C   UNL     1       1.607  21.333  28.485  1.00  0.00     0.199 C 
BRANCH   8   9
ATOM      9  C   UNL     1       0.326  22.121  28.221  1.00  0.00     0.179 C 
ATOM     10  C   UNL     1       1.005  23.714  26.664  1.00  0.00     0.282 C 
ATOM     11  O   UNL     1       0.534  23.433  27.941  1.00  0.00    -0.341 OA
ATOM     12  C   UNL     1       0.520  22.768  25.622  1.00  0.00     0.202 C 
ATOM     13  C   UNL     1      -0.752  22.061  25.971  1.00  0.00     0.179 C 
ATOM     14  C   UNL     1      -0.547  21.364  27.293  1.00  0.00     0.177 C 
BRANCH  10  15
ATOM     15  O   UNL     1       2.385  23.902  26.653  1.00  0.00    -0.341 OA
BRANCH  15  16
ATOM     16  C   UNL     1       2.738  25.226  26.912  1.00  0.00     0.184 C 
ATOM     17  C   UNL     1       3.531  25.875  25.828  1.00  0.00     0.178 C 
ATOM     18  O   UNL     1       3.888  27.156  26.242  1.00  0.00    -0.341 OA
ATOM     19  C   UNL     1       4.925  27.082  27.156  1.00  0.00     0.281 C 
ATOM     20  C   UNL     1       3.629  25.184  28.146  1.00  0.00     0.180 C 
ATOM     21  C   UNL     1       4.336  26.473  28.415  1.00  0.00     0.202 C 
BRANCH  17  22
ATOM     22  C   UNL     1       2.746  26.083  24.537  1.00  0.00     0.191 C 
BRANCH  22  23
ATOM     23  O   UNL     1       3.591  26.833  23.703  1.00  0.00    -0.394 OA
ATOM     24  H   UNL     1       4.386  26.329  23.461  1.00  0.00     0.210 HD
ENDBRANCH  22  23
ENDBRANCH  17  22
BRANCH  19  25
ATOM     25  O   UNL     1       5.336  28.373  27.478  1.00  0.00    -0.350 OA
BRANCH  25  26
ATOM     26  C   UNL     1       6.411  28.747  26.654  1.00  0.00     0.169 C 
BRANCH  26  27
ATOM     27  C   UNL     1       5.904  29.439  25.401  1.00  0.00     0.119 C 
BRANCH  27  28
ATOM     28  N   UNL     1       6.275  28.712  24.223  1.00  0.00    -0.092 NA
ATOM     29  N   UNL     1       5.960  29.099  23.079  1.00  0.00     0.001 N 
ATOM     30  N   UNL     1       5.243  29.255  22.094  1.00  0.00    -0.003 NA
ENDBRANCH  27  28
ENDBRANCH  26  27
ENDBRANCH  25  26
ENDBRANCH  19  25
BRANCH  20  31
ATOM     31  O   UNL     1       2.788  24.908  29.222  1.00  0.00    -0.387 OA
ATOM     32  H   UNL     1       2.065  25.574  29.327  1.00  0.00     0.211 HD
ENDBRANCH  20  31
BRANCH  21  33
ATOM     33  O   UNL     1       5.413  26.207  29.276  1.00  0.00    -0.385 OA
ATOM     34  H   UNL     1       5.249  26.759  30.083  1.00  0.00     0.211 HD
ENDBRANCH  21  33
ENDBRANCH  15  16
ENDBRANCH  10  15
BRANCH  12  35
ATOM     35  O   UNL     1       0.267  23.438  24.401  1.00  0.00    -0.385 OA
ATOM     36  H   UNL     1       1.133  23.629  23.993  1.00  0.00     0.211 HD
ENDBRANCH  12  35
BRANCH  13  37
ATOM     37  O   UNL     1      -1.027  21.106  25.010  1.00  0.00    -0.387 OA
ATOM     38  H   UNL     1      -1.116  21.563  24.145  1.00  0.00     0.211 HD
ENDBRANCH  13  37
BRANCH  14  39
ATOM     39  O   UNL     1      -0.120  20.067  27.040  1.00  0.00    -0.387 OA
ATOM     40  H   UNL     1      -0.512  19.414  27.638  1.00  0.00     0.211 HD
ENDBRANCH  14  39
ENDBRANCH   8   9
ENDBRANCH   7   8
ENDBRANCH   1   7
BRANCH   1  41
ATOM     41  C   UNL     1       3.453  20.318  30.527  1.00  0.00     0.364 C 
ATOM     42  O   UNL     1       2.960  19.210  30.791  1.00  0.00    -0.246 OA
BRANCH  41  43
ATOM     43  O   UNL     1       4.796  20.457  30.164  1.00  0.00    -0.477 OA
ATOM     44  H   UNL     1       5.305  19.631  29.823  1.00  0.00     0.296 HD
ENDBRANCH  41  43
ENDBRANCH   1  41
BRANCH   3  45
ATOM     45  O   UNL     1       0.265  23.485  31.459  1.00  0.00    -0.391 OA
ATOM     46  H   UNL     1       0.784  23.799  30.683  1.00  0.00     0.211 HD
ENDBRANCH   3  45
BRANCH   5  47
ATOM     47  C   UNL     1       4.690  22.981  33.150  1.00  0.00     0.176 C 
BRANCH  47  48
ATOM     48  O   UNL     1       4.556  22.972  34.601  1.00  0.00    -0.388 OA
ATOM     49  H   UNL     1       4.018  23.779  34.768  1.00  0.00     0.211 HD
ENDBRANCH  47  48
BRANCH  47  50
ATOM     50  C   UNL     1       4.931  24.438  32.873  1.00  0.00     0.165 C 
BRANCH  50  51
ATOM     51  O   UNL     1       5.533  24.775  31.714  1.00  0.00    -0.388 OA
ATOM     52  H   UNL     1       6.279  25.410  31.788  1.00  0.00     0.211 HD
ENDBRANCH  50  51
BRANCH  50  53
ATOM     53  C   UNL     1       5.771  24.994  34.017  1.00  0.00     0.154 C 
BRANCH  53  54
ATOM     54  N   UNL     1       7.112  24.400  33.927  1.00  0.00    -0.319 N 
ATOM     55  C   UNL     1       7.731  23.820  35.063  1.00  0.00     0.407 C 
ATOM     56  H   UNL     1       7.648  24.392  33.022  1.00  0.00     0.167 HD
ATOM     57  O   UNL     1       7.114  23.816  36.160  1.00  0.00    -0.225 OA
BRANCH  55  58
ATOM     58  O   UNL     1       8.987  23.261  34.995  1.00  0.00    -0.443 OA
BRANCH  58  59
ATOM     59  C   UNL     1      10.167  24.037  35.070  1.00  0.00     0.294 C 
BRANCH  59  60
ATOM     60  C   UNL     1      10.770  24.050  36.423  1.00  0.00     0.120 A 
ATOM     61  C   UNL     1      10.304  24.574  37.607  1.00  0.00     0.138 A 
ATOM     62  N   UNL     1      11.967  23.507  36.732  1.00  0.00    -0.132 NA
ATOM     63  N   UNL     1      11.203  24.342  38.568  1.00  0.00    -0.249 N 
ATOM     64  N   UNL     1      12.203  23.689  37.999  1.00  0.00    -0.067 NA
BRANCH  63  65
ATOM     65  C   UNL     1      11.142  24.712  39.977  1.00  0.00     0.109 C 
ATOM     66  C   UNL     1       9.744  24.876  40.474  1.00  0.00     0.027 C 
ATOM     67  C   UNL     1      11.703  23.569  40.796  1.00  0.00     0.027 C 
ATOM     68  C   UNL     1       9.312  23.562  41.072  1.00  0.00     0.002 C 
ATOM     69  C   UNL     1      10.543  22.698  41.170  1.00  0.00     0.002 C 
ENDBRANCH  63  65
ENDBRANCH  59  60
ENDBRANCH  58  59
ENDBRANCH  55  58
ENDBRANCH  53  54
ENDBRANCH  50  53
ENDBRANCH  47  50
ENDBRANCH   5  47
BRANCH   4  70
ATOM     70  N   UNL     1       1.825  23.390  34.304  1.00  0.00    -0.348 N 
ATOM     71  C   UNL     1       1.627  24.716  34.852  1.00  0.00     0.217 C 
ATOM     72  H   UNL     1       1.677  22.594  34.958  1.00  0.00     0.163 HD
ATOM     73  C   UNL     1       1.261  24.904  36.277  1.00  0.00     0.114 C 
ATOM     74  O   UNL     1       1.763  25.739  34.127  1.00  0.00    -0.275 OA
ENDBRANCH   4  70
TORSDOF 30
