REMARK VINA RESULT:    -5.469     15.353     20.300
REMARK INTER + INTRA:         -21.278
REMARK INTER:                 -13.782
REMARK INTRA:                  -7.496
REMARK UNBOUND:                -7.496
REMARK SMILES CC(=O)N[C@@H]1[C@@H](O)C[C@](OC[C@H]2O[C@@H](O[C@H]3[C@H](O)[C@@H](O)[C@H](OCCN=[N+]=[N-])O[C@@H]3CO)[C@H](O)[C@@H](O)[C@H]2O)(C(=O)O)O[C@H]1C(O)[C@H](O)CNC(=O)OCc1cn(-c2ccccc2C(N)=O)nn1
REMARK SMILES IDX 9 1 8 2 6 3 5 4 42 5 41 6 10 7 11 8 12 9 14 10 13 11 32 12
REMARK SMILES IDX 34 13 36 14 15 15 16 16 29 17 28 18 21 19 17 20 19 21 30 22
REMARK SMILES IDX 31 23 22 25 23 26 24 27 25 28 26 29 27 30 18 31 20 33 33 35
REMARK SMILES IDX 35 37 37 39 38 41 39 42 40 43 7 45 43 47 44 48 45 50 46 51
REMARK SMILES IDX 47 53 48 54 49 55 50 57 51 58 52 59 53 60 54 61 66 62 55 63
REMARK SMILES IDX 65 64 56 65 61 66 57 67 60 68 58 69 59 70 62 71 64 72 63 73
REMARK SMILES IDX 4 76 2 77 1 79 3 80
REMARK H PARENT 31 24 18 32 20 34 33 36 35 38 37 40 40 44 7 46 44 49 46 52
REMARK H PARENT 48 56 63 74 63 75 4 78
REMARK Flexibility Score: inf
ROOT
ATOM      1  C   UNL     1       2.363  20.234  31.399  1.00  0.00     0.272 C 
ATOM      2  C   UNL     1       2.480  18.685  31.324  1.00  0.00     0.113 C 
ATOM      3  C   UNL     1       1.331  18.162  32.139  1.00  0.00     0.145 C 
ATOM      4  C   UNL     1       1.586  18.408  33.572  1.00  0.00     0.142 C 
ATOM      5  C   UNL     1       2.370  19.730  33.656  1.00  0.00     0.178 C 
ATOM      6  O   UNL     1       1.951  20.602  32.669  1.00  0.00    -0.332 OA
ENDROOT
BRANCH   1   7
ATOM      7  O   UNL     1       1.384  20.532  30.470  1.00  0.00    -0.338 OA
BRANCH   7   8
ATOM      8  C   UNL     1       1.043  21.850  30.396  1.00  0.00     0.199 C 
BRANCH   8   9
ATOM      9  C   UNL     1       0.678  22.285  28.988  1.00  0.00     0.179 C 
ATOM     10  C   UNL     1       1.119  24.057  27.540  1.00  0.00     0.282 C 
ATOM     11  O   UNL     1       1.406  23.449  28.753  1.00  0.00    -0.341 OA
ATOM     12  C   UNL     1       0.218  23.298  26.638  1.00  0.00     0.202 C 
ATOM     13  C   UNL     1       0.401  21.809  26.635  1.00  0.00     0.179 C 
ATOM     14  C   UNL     1       1.044  21.296  27.931  1.00  0.00     0.177 C 
BRANCH  10  15
ATOM     15  O   UNL     1       2.328  24.301  26.914  1.00  0.00    -0.341 OA
BRANCH  15  16
ATOM     16  C   UNL     1       2.696  25.636  26.930  1.00  0.00     0.184 C 
ATOM     17  C   UNL     1       2.542  26.182  25.527  1.00  0.00     0.178 C 
ATOM     18  O   UNL     1       3.702  26.184  24.832  1.00  0.00    -0.341 OA
ATOM     19  C   UNL     1       4.650  27.006  25.323  1.00  0.00     0.281 C 
ATOM     20  C   UNL     1       4.167  25.672  27.329  1.00  0.00     0.180 C 
ATOM     21  C   UNL     1       4.857  26.868  26.779  1.00  0.00     0.202 C 
BRANCH  17  22
ATOM     22  C   UNL     1       1.945  27.562  25.576  1.00  0.00     0.191 C 
BRANCH  22  23
ATOM     23  O   UNL     1       0.572  27.520  25.842  1.00  0.00    -0.394 OA
ATOM     24  H   UNL     1       0.192  26.851  25.196  1.00  0.00     0.210 HD
ENDBRANCH  22  23
ENDBRANCH  17  22
BRANCH  19  25
ATOM     25  O   UNL     1       4.516  28.340  24.912  1.00  0.00    -0.350 OA
BRANCH  25  26
ATOM     26  C   UNL     1       5.510  28.765  24.066  1.00  0.00     0.169 C 
BRANCH  26  27
ATOM     27  C   UNL     1       6.598  29.432  24.839  1.00  0.00     0.119 C 
BRANCH  27  28
ATOM     28  N   UNL     1       7.875  28.913  24.419  1.00  0.00    -0.092 NA
ATOM     29  N   UNL     1       8.178  27.718  24.527  1.00  0.00     0.001 N 
ATOM     30  N   UNL     1       8.179  26.485  24.544  1.00  0.00    -0.003 NA
ENDBRANCH  27  28
ENDBRANCH  26  27
ENDBRANCH  25  26
ENDBRANCH  19  25
BRANCH  20  31
ATOM     31  O   UNL     1       4.284  25.675  28.716  1.00  0.00    -0.387 OA
ATOM     32  H   UNL     1       5.175  25.294  28.992  1.00  0.00     0.211 HD
ENDBRANCH  20  31
BRANCH  21  33
ATOM     33  O   UNL     1       6.243  26.709  27.027  1.00  0.00    -0.385 OA
ATOM     34  H   UNL     1       6.345  26.149  27.851  1.00  0.00     0.211 HD
ENDBRANCH  21  33
ENDBRANCH  15  16
ENDBRANCH  10  15
BRANCH  12  35
ATOM     35  O   UNL     1      -1.137  23.648  26.815  1.00  0.00    -0.385 OA
ATOM     36  H   UNL     1      -1.667  22.904  26.454  1.00  0.00     0.211 HD
ENDBRANCH  12  35
BRANCH  13  37
ATOM     37  O   UNL     1       1.238  21.416  25.590  1.00  0.00    -0.387 OA
ATOM     38  H   UNL     1       2.140  21.127  25.928  1.00  0.00     0.211 HD
ENDBRANCH  13  37
BRANCH  14  39
ATOM     39  O   UNL     1       2.441  21.320  27.776  1.00  0.00    -0.387 OA
ATOM     40  H   UNL     1       2.932  21.114  28.587  1.00  0.00     0.211 HD
ENDBRANCH  14  39
ENDBRANCH   8   9
ENDBRANCH   7   8
ENDBRANCH   1   7
BRANCH   1  41
ATOM     41  C   UNL     1       3.667  20.832  31.101  1.00  0.00     0.364 C 
ATOM     42  O   UNL     1       4.214  21.641  31.926  1.00  0.00    -0.246 OA
BRANCH  41  43
ATOM     43  O   UNL     1       4.328  20.522  29.909  1.00  0.00    -0.477 OA
ATOM     44  H   UNL     1       4.388  21.269  29.222  1.00  0.00     0.296 HD
ENDBRANCH  41  43
ENDBRANCH   1  41
BRANCH   3  45
ATOM     45  O   UNL     1       0.211  18.959  31.788  1.00  0.00    -0.391 OA
ATOM     46  H   UNL     1       0.535  19.844  31.477  1.00  0.00     0.211 HD
ENDBRANCH   3  45
BRANCH   5  47
ATOM     47  C   UNL     1       2.321  20.279  35.052  1.00  0.00     0.176 C 
BRANCH  47  48
ATOM     48  O   UNL     1       3.538  19.924  35.665  1.00  0.00    -0.388 OA
ATOM     49  H   UNL     1       3.362  19.336  36.448  1.00  0.00     0.211 HD
ENDBRANCH  47  48
BRANCH  47  50
ATOM     50  C   UNL     1       2.323  21.811  35.044  1.00  0.00     0.165 C 
BRANCH  50  51
ATOM     51  O   UNL     1       3.603  22.252  34.670  1.00  0.00    -0.388 OA
ATOM     52  H   UNL     1       4.229  21.844  35.325  1.00  0.00     0.211 HD
ENDBRANCH  50  51
BRANCH  50  53
ATOM     53  C   UNL     1       1.981  22.385  36.376  1.00  0.00     0.154 C 
BRANCH  53  54
ATOM     54  N   UNL     1       3.010  23.274  36.847  1.00  0.00    -0.319 N 
ATOM     55  C   UNL     1       4.089  22.872  37.672  1.00  0.00     0.407 C 
ATOM     56  H   UNL     1       2.944  24.291  36.552  1.00  0.00     0.167 HD
ATOM     57  O   UNL     1       4.302  21.728  38.078  1.00  0.00    -0.225 OA
BRANCH  55  58
ATOM     58  O   UNL     1       5.030  23.843  38.090  1.00  0.00    -0.443 OA
BRANCH  58  59
ATOM     59  C   UNL     1       6.284  23.945  37.410  1.00  0.00     0.294 C 
BRANCH  59  60
ATOM     60  C   UNL     1       6.089  24.350  36.006  1.00  0.00     0.121 A 
ATOM     61  C   UNL     1       5.702  25.573  35.512  1.00  0.00     0.144 A 
ATOM     62  N   UNL     1       6.257  23.571  34.924  1.00  0.00    -0.131 NA
ATOM     63  N   UNL     1       5.643  25.517  34.164  1.00  0.00    -0.220 N 
ATOM     64  N   UNL     1       5.991  24.269  33.839  1.00  0.00    -0.062 NA
BRANCH  63  65
ATOM     65  C   UNL     1       5.287  26.532  33.243  1.00  0.00     0.079 A 
ATOM     66  C   UNL     1       4.043  26.493  32.667  1.00  0.00     0.065 A 
ATOM     67  C   UNL     1       6.165  27.547  32.918  1.00  0.00     0.029 A 
ATOM     68  C   UNL     1       3.640  27.463  31.755  1.00  0.00     0.016 A 
ATOM     69  C   UNL     1       5.779  28.530  32.004  1.00  0.00     0.002 A 
ATOM     70  C   UNL     1       4.526  28.472  31.437  1.00  0.00     0.001 A 
BRANCH  66  71
ATOM     71  C   UNL     1       3.127  25.425  33.012  1.00  0.00     0.250 C 
ATOM     72  O   UNL     1       2.319  25.602  33.958  1.00  0.00    -0.269 OA
ATOM     73  N   UNL     1       3.083  24.181  32.349  1.00  0.00    -0.366 N 
ATOM     74  H   UNL     1       2.212  23.875  31.890  1.00  0.00     0.159 HD
ATOM     75  H   UNL     1       3.921  23.583  32.325  1.00  0.00     0.159 HD
ENDBRANCH  66  71
ENDBRANCH  63  65
ENDBRANCH  59  60
ENDBRANCH  58  59
ENDBRANCH  55  58
ENDBRANCH  53  54
ENDBRANCH  50  53
ENDBRANCH  47  50
ENDBRANCH   5  47
BRANCH   4  76
ATOM     76  N   UNL     1       2.319  17.433  34.281  1.00  0.00    -0.348 N 
ATOM     77  C   UNL     1       1.754  16.626  35.301  1.00  0.00     0.217 C 
ATOM     78  H   UNL     1       3.330  17.293  34.049  1.00  0.00     0.163 HD
ATOM     79  C   UNL     1       2.489  15.596  36.065  1.00  0.00     0.114 C 
ATOM     80  O   UNL     1       0.521  16.850  35.528  1.00  0.00    -0.275 OA
ENDBRANCH   4  76
TORSDOF 31
