REMARK VINA RESULT:    -6.419      0.000      0.000
REMARK INTER + INTRA:         -23.812
REMARK INTER:                 -17.822
REMARK INTRA:                  -5.990
REMARK UNBOUND:                -6.885
REMARK SMILES CCOC(=O)c1cccc(-n2cc(COC(=O)NC[C@@H](O)C(O)[C@@H]3O[C@@](OC[C@H]4O[C@@H](O[C@H]5[C@H](O)[C@@H](O)[C@H](OCCN=[N+]=[N-])O[C@@H]5CO)[C@H](O)[C@@H](O)[C@H]4O)(C(=O)O)C[C@H](O)[C@H]3NC(C)=O)nn2)c1
REMARK SMILES IDX 22 1 24 2 26 3 58 4 25 5 59 6 61 7 27 8 28 9 29 10 31 11
REMARK SMILES IDX 30 12 49 13 51 14 53 15 32 16 33 17 46 18 45 19 38 20 34 21
REMARK SMILES IDX 36 22 47 23 48 24 39 26 40 27 41 28 42 29 43 30 44 31 35 32
REMARK SMILES IDX 37 34 50 36 52 38 54 40 55 42 56 43 57 44 60 46 62 48 63 49
REMARK SMILES IDX 64 51 65 52 23 53 20 55 21 56 19 58 18 59 16 60 17 62 15 63
REMARK SMILES IDX 14 64 13 65 12 66 66 67 11 68 67 69 10 70 68 71 9 72 6 73
REMARK SMILES IDX 8 74 7 75 4 76 5 77 3 78 2 79 1 80
REMARK H PARENT 48 25 35 33 37 35 50 37 52 39 54 41 57 45 60 47 62 50 23 54
REMARK H PARENT 21 57 18 61
REMARK Flexibility Score: inf
ROOT
ATOM      1  C   UNL     1       4.679  22.989  32.666  1.00  0.00     0.176 C 
ENDROOT
BRANCH   1   2
ATOM      2  C   UNL     1       4.367  23.586  33.973  1.00  0.00     0.178 C 
ATOM      3  C   UNL     1       5.635  24.352  35.816  1.00  0.00     0.272 C 
ATOM      4  C   UNL     1       4.242  24.657  36.263  1.00  0.00     0.113 C 
ATOM      5  O   UNL     1       5.437  23.318  34.831  1.00  0.00    -0.332 OA
ATOM      6  C   UNL     1       3.302  23.466  36.168  1.00  0.00     0.145 C 
ATOM      7  C   UNL     1       3.114  23.151  34.646  1.00  0.00     0.142 C 
BRANCH   3   8
ATOM      8  O   UNL     1       6.339  23.757  36.816  1.00  0.00    -0.338 OA
BRANCH   8   9
ATOM      9  C   UNL     1       7.461  24.175  37.346  1.00  0.00     0.199 C 
BRANCH   9  10
ATOM     10  C   UNL     1       8.817  23.663  37.107  1.00  0.00     0.179 C 
ATOM     11  C   UNL     1      10.812  24.055  35.949  1.00  0.00     0.282 C 
ATOM     12  O   UNL     1       9.404  24.179  36.008  1.00  0.00    -0.341 OA
ATOM     13  C   UNL     1      11.310  23.032  36.923  1.00  0.00     0.202 C 
ATOM     14  C   UNL     1      10.881  23.290  38.331  1.00  0.00     0.179 C 
ATOM     15  C   UNL     1       9.656  24.137  38.336  1.00  0.00     0.177 C 
BRANCH  11  16
ATOM     16  O   UNL     1      11.288  25.324  36.102  1.00  0.00    -0.341 OA
BRANCH  16  17
ATOM     17  C   UNL     1      11.886  25.941  35.058  1.00  0.00     0.184 C 
ATOM     18  C   UNL     1      13.070  26.716  35.575  1.00  0.00     0.178 C 
ATOM     19  O   UNL     1      13.764  27.339  34.536  1.00  0.00    -0.341 OA
ATOM     20  C   UNL     1      12.931  28.372  34.024  1.00  0.00     0.281 C 
ATOM     21  C   UNL     1      10.964  26.960  34.366  1.00  0.00     0.180 C 
ATOM     22  C   UNL     1      11.815  27.660  33.310  1.00  0.00     0.202 C 
BRANCH  18  23
ATOM     23  C   UNL     1      14.025  25.821  36.311  1.00  0.00     0.191 C 
BRANCH  23  24
ATOM     24  O   UNL     1      13.615  25.673  37.662  1.00  0.00    -0.394 OA
ATOM     25  H   UNL     1      13.073  24.851  37.767  1.00  0.00     0.210 HD
ENDBRANCH  23  24
ENDBRANCH  18  23
BRANCH  20  26
ATOM     26  O   UNL     1      13.698  29.170  33.226  1.00  0.00    -0.350 OA
BRANCH  26  27
ATOM     27  C   UNL     1      15.034  29.168  33.600  1.00  0.00     0.169 C 
BRANCH  27  28
ATOM     28  C   UNL     1      15.983  29.097  32.441  1.00  0.00     0.119 C 
BRANCH  28  29
ATOM     29  N   UNL     1      17.171  28.333  32.841  1.00  0.00    -0.092 NA
ATOM     30  N   UNL     1      17.807  27.756  31.949  1.00  0.00     0.001 N 
ATOM     31  N   UNL     1      18.674  27.335  31.157  1.00  0.00    -0.003 NA
ENDBRANCH  28  29
ENDBRANCH  27  28
ENDBRANCH  26  27
ENDBRANCH  20  26
BRANCH  21  32
ATOM     32  O   UNL     1       9.956  26.322  33.658  1.00  0.00    -0.387 OA
ATOM     33  H   UNL     1      10.043  26.595  32.714  1.00  0.00     0.211 HD
ENDBRANCH  21  32
BRANCH  22  34
ATOM     34  O   UNL     1      11.042  28.529  32.546  1.00  0.00    -0.385 OA
ATOM     35  H   UNL     1      10.781  29.362  33.042  1.00  0.00     0.211 HD
ENDBRANCH  22  34
ENDBRANCH  16  17
ENDBRANCH  11  16
BRANCH  13  36
ATOM     36  O   UNL     1      10.935  21.751  36.473  1.00  0.00    -0.385 OA
ATOM     37  H   UNL     1      11.415  21.487  35.656  1.00  0.00     0.211 HD
ENDBRANCH  13  36
BRANCH  14  38
ATOM     38  O   UNL     1      11.902  23.711  39.153  1.00  0.00    -0.387 OA
ATOM     39  H   UNL     1      11.873  24.705  39.166  1.00  0.00     0.211 HD
ENDBRANCH  14  38
BRANCH  15  40
ATOM     40  O   UNL     1       9.924  25.469  38.286  1.00  0.00    -0.387 OA
ATOM     41  H   UNL     1      10.230  25.781  39.174  1.00  0.00     0.211 HD
ENDBRANCH  15  40
ENDBRANCH   9  10
ENDBRANCH   8   9
ENDBRANCH   3   8
BRANCH   3  42
ATOM     42  C   UNL     1       6.349  25.434  35.152  1.00  0.00     0.364 C 
ATOM     43  O   UNL     1       6.147  26.629  35.417  1.00  0.00    -0.246 OA
BRANCH  42  44
ATOM     44  O   UNL     1       7.305  25.156  34.174  1.00  0.00    -0.477 OA
ATOM     45  H   UNL     1       8.288  25.259  34.313  1.00  0.00     0.296 HD
ENDBRANCH  42  44
ENDBRANCH   3  42
BRANCH   6  46
ATOM     46  O   UNL     1       3.930  22.371  36.706  1.00  0.00    -0.391 OA
ATOM     47  H   UNL     1       4.902  22.538  36.753  1.00  0.00     0.211 HD
ENDBRANCH   6  46
BRANCH   7  48
ATOM     48  N   UNL     1       1.950  23.898  34.231  1.00  0.00    -0.348 N 
ATOM     49  C   UNL     1       0.997  23.423  33.272  1.00  0.00     0.217 C 
ATOM     50  H   UNL     1       1.730  24.862  34.625  1.00  0.00     0.163 HD
ATOM     51  C   UNL     1      -0.191  24.220  32.866  1.00  0.00     0.114 C 
ATOM     52  O   UNL     1       1.155  22.302  32.747  1.00  0.00    -0.275 OA
ENDBRANCH   7  48
ENDBRANCH   1   2
BRANCH   1  53
ATOM     53  O   UNL     1       5.808  23.441  32.038  1.00  0.00    -0.388 OA
ATOM     54  H   UNL     1       6.439  23.880  32.655  1.00  0.00     0.211 HD
ENDBRANCH   1  53
BRANCH   1  55
ATOM     55  C   UNL     1       4.549  21.491  32.551  1.00  0.00     0.165 C 
BRANCH  55  56
ATOM     56  O   UNL     1       5.688  20.858  33.057  1.00  0.00    -0.388 OA
ATOM     57  H   UNL     1       5.459  19.952  33.387  1.00  0.00     0.211 HD
ENDBRANCH  55  56
BRANCH  55  58
ATOM     58  C   UNL     1       4.095  21.000  31.210  1.00  0.00     0.154 C 
BRANCH  58  59
ATOM     59  N   UNL     1       3.315  21.987  30.500  1.00  0.00    -0.319 N 
ATOM     60  C   UNL     1       2.471  21.626  29.427  1.00  0.00     0.407 C 
ATOM     61  H   UNL     1       3.363  23.016  30.779  1.00  0.00     0.167 HD
ATOM     62  O   UNL     1       2.307  20.463  28.996  1.00  0.00    -0.225 OA
BRANCH  60  63
ATOM     63  O   UNL     1       1.736  22.614  28.742  1.00  0.00    -0.443 OA
BRANCH  63  64
ATOM     64  C   UNL     1       2.216  23.365  27.670  1.00  0.00     0.294 C 
BRANCH  64  65
ATOM     65  C   UNL     1       2.991  24.563  28.018  1.00  0.00     0.121 A 
ATOM     66  C   UNL     1       3.647  25.404  27.125  1.00  0.00     0.144 A 
ATOM     67  N   UNL     1       3.211  25.065  29.227  1.00  0.00    -0.131 NA
ATOM     68  N   UNL     1       4.232  26.369  27.835  1.00  0.00    -0.220 N 
ATOM     69  N   UNL     1       3.963  26.158  29.104  1.00  0.00    -0.062 NA
BRANCH  68  70
ATOM     70  C   UNL     1       4.998  27.430  27.308  1.00  0.00     0.067 A 
ATOM     71  C   UNL     1       5.728  27.289  26.130  1.00  0.00     0.044 A 
ATOM     72  C   UNL     1       5.055  28.654  27.919  1.00  0.00     0.028 A 
ATOM     73  C   UNL     1       6.476  28.291  25.575  1.00  0.00     0.062 A 
ATOM     74  C   UNL     1       5.801  29.695  27.388  1.00  0.00     0.003 A 
ATOM     75  C   UNL     1       6.510  29.521  26.223  1.00  0.00     0.016 A 
BRANCH  73  76
ATOM     76  C   UNL     1       7.214  28.076  24.348  1.00  0.00     0.338 C 
ATOM     77  O   UNL     1       6.966  28.780  23.350  1.00  0.00    -0.246 OA
BRANCH  76  78
ATOM     78  O   UNL     1       8.180  27.105  24.287  1.00  0.00    -0.462 OA
BRANCH  78  79
ATOM     79  C   UNL     1       9.264  27.009  25.183  1.00  0.00     0.230 C 
ATOM     80  C   UNL     1      10.235  28.144  24.940  1.00  0.00     0.049 C 
ENDBRANCH  78  79
ENDBRANCH  76  78
ENDBRANCH  73  76
ENDBRANCH  68  70
ENDBRANCH  64  65
ENDBRANCH  63  64
ENDBRANCH  60  63
ENDBRANCH  58  59
ENDBRANCH  55  58
ENDBRANCH   1  55
TORSDOF 33
