REMARK VINA RESULT:    -5.522      3.995      9.596
REMARK INTER + INTRA:         -23.299
REMARK INTER:                 -14.650
REMARK INTRA:                  -8.650
REMARK UNBOUND:                -8.417
REMARK SMILES CC(=O)N[C@@H]1[C@@H](O)C[C@](OC[C@H]2O[C@@H](O[C@H]3[C@H](O)[C@@H](O)[C@H](OCCN=[N+]=[N-])O[C@@H]3CO)[C@H](O)[C@@H](O)[C@H]2O)(C(=O)O)O[C@H]1C(O)[C@H](O)CNC(=O)OCc1cn(CCNC(=O)NCc2ccco2)nn1
REMARK SMILES IDX 43 1 42 2 9 3 8 4 41 5 6 6 5 7 10 8 11 9 12 10 14 11 13 12
REMARK SMILES IDX 32 13 34 14 36 15 15 16 16 17 29 18 28 19 21 20 17 21 19 22
REMARK SMILES IDX 30 23 31 24 22 26 23 27 24 28 25 29 26 30 27 31 18 32 20 34
REMARK SMILES IDX 33 36 35 38 37 40 38 42 39 43 40 44 7 46 4 48 2 49 1 51 3 52
REMARK SMILES IDX 44 53 45 55 46 56 47 58 48 59 49 60 50 62 51 63 52 64 53 65
REMARK SMILES IDX 54 66 69 67 55 68 68 69 56 70 57 71 58 72 59 73 60 75 61 76
REMARK SMILES IDX 62 78 63 79 64 80 67 81 65 82 66 83
REMARK H PARENT 31 25 18 33 20 35 33 37 35 39 37 41 40 45 7 47 4 50 44 54
REMARK H PARENT 46 57 48 61 58 74 61 77
REMARK Flexibility Score: inf
ROOT
ATOM      1  C   UNL     1      21.818  28.322  19.115  1.00  0.00     0.176 C 
ENDROOT
BRANCH   1   2
ATOM      2  C   UNL     1      22.255  27.736  17.811  1.00  0.00     0.178 C 
ATOM      3  C   UNL     1      22.950  25.501  18.231  1.00  0.00     0.272 C 
ATOM      4  C   UNL     1      24.245  26.232  18.714  1.00  0.00     0.113 C 
ATOM      5  O   UNL     1      22.075  26.390  17.719  1.00  0.00    -0.332 OA
ATOM      6  C   UNL     1      24.667  27.311  17.799  1.00  0.00     0.145 C 
ATOM      7  C   UNL     1      23.564  28.207  17.290  1.00  0.00     0.142 C 
BRANCH   3   8
ATOM      8  O   UNL     1      22.421  24.991  19.397  1.00  0.00    -0.338 OA
BRANCH   8   9
ATOM      9  C   UNL     1      23.206  24.553  20.377  1.00  0.00     0.199 C 
BRANCH   9  10
ATOM     10  C   UNL     1      23.133  24.896  21.784  1.00  0.00     0.179 C 
ATOM     11  C   UNL     1      23.579  26.349  23.502  1.00  0.00     0.282 C 
ATOM     12  O   UNL     1      23.433  26.205  22.122  1.00  0.00    -0.341 OA
ATOM     13  C   UNL     1      22.919  25.302  24.320  1.00  0.00     0.202 C 
ATOM     14  C   UNL     1      21.673  24.700  23.738  1.00  0.00     0.179 C 
ATOM     15  C   UNL     1      21.672  24.707  22.238  1.00  0.00     0.177 C 
BRANCH  11  16
ATOM     16  O   UNL     1      23.179  27.600  23.943  1.00  0.00    -0.341 OA
BRANCH  16  17
ATOM     17  C   UNL     1      22.603  28.378  22.918  1.00  0.00     0.184 C 
ATOM     18  C   UNL     1      23.494  29.568  22.707  1.00  0.00     0.178 C 
ATOM     19  O   UNL     1      22.778  30.708  22.351  1.00  0.00    -0.341 OA
ATOM     20  C   UNL     1      22.017  31.059  23.460  1.00  0.00     0.281 C 
ATOM     21  C   UNL     1      21.200  28.690  23.321  1.00  0.00     0.180 C 
ATOM     22  C   UNL     1      20.875  30.109  23.599  1.00  0.00     0.202 C 
BRANCH  18  23
ATOM     23  C   UNL     1      24.417  29.263  21.528  1.00  0.00     0.191 C 
BRANCH  23  24
ATOM     24  O   UNL     1      25.486  28.491  22.033  1.00  0.00    -0.394 OA
ATOM     25  H   UNL     1      26.203  28.577  21.338  1.00  0.00     0.210 HD
ENDBRANCH  23  24
ENDBRANCH  18  23
BRANCH  20  26
ATOM     26  O   UNL     1      21.484  32.321  23.183  1.00  0.00    -0.350 OA
BRANCH  26  27
ATOM     27  C   UNL     1      22.198  33.330  23.830  1.00  0.00     0.169 C 
BRANCH  27  28
ATOM     28  C   UNL     1      21.203  34.041  24.751  1.00  0.00     0.119 C 
BRANCH  28  29
ATOM     29  N   UNL     1      21.904  34.290  25.999  1.00  0.00    -0.092 NA
ATOM     30  N   UNL     1      21.329  34.831  26.954  1.00  0.00     0.001 N 
ATOM     31  N   UNL     1      20.661  35.080  27.973  1.00  0.00    -0.003 NA
ENDBRANCH  28  29
ENDBRANCH  27  28
ENDBRANCH  26  27
ENDBRANCH  20  26
BRANCH  21  32
ATOM     32  O   UNL     1      20.357  28.192  22.307  1.00  0.00    -0.387 OA
ATOM     33  H   UNL     1      19.428  28.136  22.594  1.00  0.00     0.211 HD
ENDBRANCH  21  32
BRANCH  22  34
ATOM     34  O   UNL     1      20.448  30.207  24.947  1.00  0.00    -0.385 OA
ATOM     35  H   UNL     1      19.857  31.019  24.973  1.00  0.00     0.211 HD
ENDBRANCH  22  34
ENDBRANCH  16  17
ENDBRANCH  11  16
BRANCH  13  36
ATOM     36  O   UNL     1      23.812  24.323  24.778  1.00  0.00    -0.385 OA
ATOM     37  H   UNL     1      23.345  23.513  25.083  1.00  0.00     0.211 HD
ENDBRANCH  13  36
BRANCH  14  38
ATOM     38  O   UNL     1      20.515  25.314  24.235  1.00  0.00    -0.387 OA
ATOM     39  H   UNL     1      19.782  25.010  23.632  1.00  0.00     0.211 HD
ENDBRANCH  14  38
BRANCH  15  40
ATOM     40  O   UNL     1      20.851  25.658  21.682  1.00  0.00    -0.387 OA
ATOM     41  H   UNL     1      21.410  26.331  21.252  1.00  0.00     0.211 HD
ENDBRANCH  15  40
ENDBRANCH   9  10
ENDBRANCH   8   9
ENDBRANCH   3   8
BRANCH   3  42
ATOM     42  C   UNL     1      23.464  24.447  17.360  1.00  0.00     0.364 C 
ATOM     43  O   UNL     1      24.625  24.027  17.465  1.00  0.00    -0.246 OA
BRANCH  42  44
ATOM     44  O   UNL     1      22.702  23.839  16.357  1.00  0.00    -0.477 OA
ATOM     45  H   UNL     1      23.134  23.656  15.450  1.00  0.00     0.296 HD
ENDBRANCH  42  44
ENDBRANCH   3  42
BRANCH   6  46
ATOM     46  O   UNL     1      25.607  28.103  18.484  1.00  0.00    -0.391 OA
ATOM     47  H   UNL     1      26.435  27.576  18.621  1.00  0.00     0.211 HD
ENDBRANCH   6  46
BRANCH   7  48
ATOM     48  N   UNL     1      23.596  28.198  15.827  1.00  0.00    -0.348 N 
ATOM     49  C   UNL     1      23.531  29.388  15.090  1.00  0.00     0.217 C 
ATOM     50  H   UNL     1      23.671  27.277  15.346  1.00  0.00     0.163 HD
ATOM     51  C   UNL     1      23.558  29.431  13.597  1.00  0.00     0.114 C 
ATOM     52  O   UNL     1      23.441  30.476  15.743  1.00  0.00    -0.275 OA
ENDBRANCH   7  48
ENDBRANCH   1   2
BRANCH   1  53
ATOM     53  O   UNL     1      20.649  27.600  19.548  1.00  0.00    -0.388 OA
ATOM     54  H   UNL     1      20.384  28.019  20.381  1.00  0.00     0.211 HD
ENDBRANCH   1  53
BRANCH   1  55
ATOM     55  C   UNL     1      21.330  29.741  19.079  1.00  0.00     0.165 C 
BRANCH  55  56
ATOM     56  O   UNL     1      20.618  30.181  20.170  1.00  0.00    -0.388 OA
ATOM     57  H   UNL     1      19.650  29.978  20.121  1.00  0.00     0.211 HD
ENDBRANCH  55  56
BRANCH  55  58
ATOM     58  C   UNL     1      20.563  30.030  17.784  1.00  0.00     0.154 C 
BRANCH  58  59
ATOM     59  N   UNL     1      19.139  29.934  17.995  1.00  0.00    -0.319 N 
ATOM     60  C   UNL     1      18.362  28.836  17.558  1.00  0.00     0.407 C 
ATOM     61  H   UNL     1      18.662  30.709  18.495  1.00  0.00     0.167 HD
ATOM     62  O   UNL     1      18.924  27.885  16.955  1.00  0.00    -0.225 OA
BRANCH  60  63
ATOM     63  O   UNL     1      16.989  28.772  17.774  1.00  0.00    -0.443 OA
BRANCH  63  64
ATOM     64  C   UNL     1      16.497  27.924  18.807  1.00  0.00     0.294 C 
BRANCH  64  65
ATOM     65  C   UNL     1      16.809  28.639  20.083  1.00  0.00     0.120 A 
ATOM     66  C   UNL     1      15.887  29.230  20.904  1.00  0.00     0.138 A 
ATOM     67  N   UNL     1      18.034  28.817  20.636  1.00  0.00    -0.132 NA
ATOM     68  N   UNL     1      16.568  29.745  21.917  1.00  0.00    -0.250 N 
ATOM     69  N   UNL     1      17.866  29.492  21.750  1.00  0.00    -0.067 NA
BRANCH  68  70
ATOM     70  C   UNL     1      15.973  30.483  23.031  1.00  0.00     0.167 C 
BRANCH  70  71
ATOM     71  C   UNL     1      15.224  29.464  23.891  1.00  0.00     0.141 C 
BRANCH  71  72
ATOM     72  N   UNL     1      13.880  29.405  23.395  1.00  0.00    -0.336 N 
ATOM     73  C   UNL     1      12.741  29.708  24.169  1.00  0.00     0.315 C 
ATOM     74  H   UNL     1      13.764  29.112  22.388  1.00  0.00     0.165 HD
ATOM     75  O   UNL     1      12.843  30.036  25.371  1.00  0.00    -0.249 OA
ATOM     76  N   UNL     1      11.448  29.636  23.550  1.00  0.00    -0.331 N 
ATOM     77  H   UNL     1      11.410  29.356  22.537  1.00  0.00     0.165 HD
BRANCH  76  78
ATOM     78  C   UNL     1      10.264  29.940  24.305  1.00  0.00     0.193 C 
BRANCH  78  79
ATOM     79  C   UNL     1       9.564  28.688  24.697  1.00  0.00     0.122 A 
ATOM     80  C   UNL     1       8.183  28.537  24.720  1.00  0.00     0.047 A 
ATOM     81  O   UNL     1      10.105  27.577  25.066  1.00  0.00    -0.467 OA
ATOM     82  C   UNL     1       7.952  27.257  25.129  1.00  0.00     0.042 A 
ATOM     83  C   UNL     1       9.178  26.685  25.337  1.00  0.00     0.195 A 
ENDBRANCH  78  79
ENDBRANCH  76  78
ENDBRANCH  71  72
ENDBRANCH  70  71
ENDBRANCH  68  70
ENDBRANCH  64  65
ENDBRANCH  63  64
ENDBRANCH  60  63
ENDBRANCH  58  59
ENDBRANCH  55  58
ENDBRANCH   1  55
TORSDOF 34
