REMARK VINA RESULT:    -5.102      1.898      2.383
REMARK INTER + INTRA:         -21.941
REMARK INTER:                 -16.918
REMARK INTRA:                  -5.023
REMARK UNBOUND:                -8.936
REMARK SMILES CC(=O)N[C@@H]1[C@@H](O)C[C@](OC[C@H]2O[C@@H](O[C@H]3[C@H](O)[C@@H](O)[C@H](OCCN=[N+]=[N-])O[C@@H]3CO)[C@H](O)[C@@H](O)[C@H]2O)(C(=O)O)O[C@H]1C(O)[C@H](O)CNC(=O)OCc1cn(-c2ccc(S(N)(=O)=O)cc2)nn1
REMARK SMILES IDX 9 1 8 2 6 3 5 4 42 5 41 6 10 7 11 8 12 9 14 10 13 11 32 12
REMARK SMILES IDX 34 13 36 14 15 15 16 16 29 17 28 18 21 19 17 20 19 21 30 22
REMARK SMILES IDX 31 23 22 25 23 26 24 27 25 28 26 29 27 30 18 31 20 33 33 35
REMARK SMILES IDX 35 37 37 39 38 41 39 42 40 43 7 45 43 47 44 48 45 50 46 51
REMARK SMILES IDX 47 53 48 54 49 55 50 57 51 58 52 59 53 60 54 61 67 62 55 63
REMARK SMILES IDX 66 64 56 65 57 66 65 67 58 68 64 69 59 70 60 71 62 72 63 73
REMARK SMILES IDX 61 74 4 77 2 78 1 80 3 81
REMARK H PARENT 31 24 18 32 20 34 33 36 35 38 37 40 40 44 7 46 44 49 46 52
REMARK H PARENT 48 56 61 75 61 76 4 79
REMARK Flexibility Score: inf
ROOT
ATOM      1  C   UNL     1      15.784  29.968  21.795  1.00  0.00     0.272 C 
ATOM      2  C   UNL     1      15.038  28.777  21.173  1.00  0.00     0.113 C 
ATOM      3  C   UNL     1      15.599  28.394  19.849  1.00  0.00     0.145 C 
ATOM      4  C   UNL     1      15.956  29.642  19.084  1.00  0.00     0.142 C 
ATOM      5  C   UNL     1      15.117  30.757  19.720  1.00  0.00     0.178 C 
ATOM      6  O   UNL     1      15.735  31.040  20.936  1.00  0.00    -0.332 OA
ENDROOT
BRANCH   1   7
ATOM      7  O   UNL     1      17.064  29.504  22.066  1.00  0.00    -0.338 OA
BRANCH   7   8
ATOM      8  C   UNL     1      17.924  30.453  22.544  1.00  0.00     0.199 C 
BRANCH   8   9
ATOM      9  C   UNL     1      19.317  30.145  21.968  1.00  0.00     0.179 C 
ATOM     10  C   UNL     1      20.381  28.297  21.007  1.00  0.00     0.282 C 
ATOM     11  O   UNL     1      19.451  28.793  21.973  1.00  0.00    -0.341 OA
ATOM     12  C   UNL     1      19.724  28.616  19.695  1.00  0.00     0.202 C 
ATOM     13  C   UNL     1      19.739  30.122  19.466  1.00  0.00     0.179 C 
ATOM     14  C   UNL     1      19.613  30.890  20.731  1.00  0.00     0.177 C 
BRANCH  10  15
ATOM     15  O   UNL     1      20.487  26.965  21.206  1.00  0.00    -0.341 OA
BRANCH  15  16
ATOM     16  C   UNL     1      21.749  26.528  21.690  1.00  0.00     0.184 C 
ATOM     17  C   UNL     1      22.089  25.281  21.011  1.00  0.00     0.178 C 
ATOM     18  O   UNL     1      22.679  24.292  21.771  1.00  0.00    -0.341 OA
ATOM     19  C   UNL     1      23.353  24.693  22.889  1.00  0.00     0.281 C 
ATOM     20  C   UNL     1      21.708  26.469  23.199  1.00  0.00     0.180 C 
ATOM     21  C   UNL     1      22.347  25.296  23.833  1.00  0.00     0.202 C 
BRANCH  17  22
ATOM     22  C   UNL     1      22.969  25.458  19.790  1.00  0.00     0.191 C 
BRANCH  22  23
ATOM     23  O   UNL     1      22.262  26.068  18.762  1.00  0.00    -0.394 OA
ATOM     24  H   UNL     1      22.836  26.261  17.980  1.00  0.00     0.210 HD
ENDBRANCH  22  23
ENDBRANCH  17  22
BRANCH  19  25
ATOM     25  O   UNL     1      24.443  25.504  22.681  1.00  0.00    -0.350 OA
BRANCH  25  26
ATOM     26  C   UNL     1      25.609  24.748  22.675  1.00  0.00     0.169 C 
BRANCH  26  27
ATOM     27  C   UNL     1      26.213  24.834  21.276  1.00  0.00     0.119 C 
BRANCH  27  28
ATOM     28  N   UNL     1      26.585  23.508  20.865  1.00  0.00    -0.092 NA
ATOM     29  N   UNL     1      27.250  22.747  21.603  1.00  0.00     0.001 N 
ATOM     30  N   UNL     1      28.311  22.212  21.966  1.00  0.00    -0.003 NA
ENDBRANCH  27  28
ENDBRANCH  26  27
ENDBRANCH  25  26
ENDBRANCH  19  25
BRANCH  20  31
ATOM     31  O   UNL     1      22.269  27.618  23.762  1.00  0.00    -0.387 OA
ATOM     32  H   UNL     1      22.178  28.366  23.127  1.00  0.00     0.211 HD
ENDBRANCH  20  31
BRANCH  21  33
ATOM     33  O   UNL     1      21.456  24.318  24.258  1.00  0.00    -0.385 OA
ATOM     34  H   UNL     1      21.026  24.710  25.084  1.00  0.00     0.211 HD
ENDBRANCH  21  33
ENDBRANCH  15  16
ENDBRANCH  10  15
BRANCH  12  35
ATOM     35  O   UNL     1      20.175  27.906  18.622  1.00  0.00    -0.385 OA
ATOM     36  H   UNL     1      21.109  27.623  18.665  1.00  0.00     0.211 HD
ENDBRANCH  12  35
BRANCH  13  37
ATOM     37  O   UNL     1      18.861  30.491  18.461  1.00  0.00    -0.387 OA
ATOM     38  H   UNL     1      18.662  31.448  18.407  1.00  0.00     0.211 HD
ENDBRANCH  13  37
BRANCH  14  39
ATOM     39  O   UNL     1      18.568  31.829  20.543  1.00  0.00    -0.387 OA
ATOM     40  H   UNL     1      17.765  31.277  20.317  1.00  0.00     0.211 HD
ENDBRANCH  14  39
ENDBRANCH   8   9
ENDBRANCH   7   8
ENDBRANCH   1   7
BRANCH   1  41
ATOM     41  C   UNL     1      15.034  30.230  23.080  1.00  0.00     0.364 C 
ATOM     42  O   UNL     1      15.005  31.376  23.590  1.00  0.00    -0.246 OA
BRANCH  41  43
ATOM     43  O   UNL     1      14.356  29.220  23.733  1.00  0.00    -0.477 OA
ATOM     44  H   UNL     1      14.891  28.565  24.283  1.00  0.00     0.296 HD
ENDBRANCH  41  43
ENDBRANCH   1  41
BRANCH   3  45
ATOM     45  O   UNL     1      16.682  27.542  20.052  1.00  0.00    -0.391 OA
ATOM     46  H   UNL     1      17.338  27.675  19.329  1.00  0.00     0.211 HD
ENDBRANCH   3  45
BRANCH   5  47
ATOM     47  C   UNL     1      15.129  31.994  18.863  1.00  0.00     0.176 C 
BRANCH  47  48
ATOM     48  O   UNL     1      16.192  32.064  17.985  1.00  0.00    -0.388 OA
ATOM     49  H   UNL     1      16.696  31.214  17.919  1.00  0.00     0.211 HD
ENDBRANCH  47  48
BRANCH  47  50
ATOM     50  C   UNL     1      13.829  32.119  18.102  1.00  0.00     0.165 C 
BRANCH  50  51
ATOM     51  O   UNL     1      13.974  33.032  17.035  1.00  0.00    -0.388 OA
ATOM     52  H   UNL     1      14.678  32.710  16.402  1.00  0.00     0.211 HD
ENDBRANCH  50  51
BRANCH  50  53
ATOM     53  C   UNL     1      12.693  32.553  18.993  1.00  0.00     0.154 C 
BRANCH  53  54
ATOM     54  N   UNL     1      12.937  32.223  20.377  1.00  0.00    -0.319 N 
ATOM     55  C   UNL     1      11.887  32.342  21.325  1.00  0.00     0.407 C 
ATOM     56  H   UNL     1      13.863  31.898  20.718  1.00  0.00     0.167 HD
ATOM     57  O   UNL     1      10.754  32.741  20.927  1.00  0.00    -0.225 OA
BRANCH  55  58
ATOM     58  O   UNL     1      12.017  32.048  22.671  1.00  0.00    -0.443 OA
BRANCH  58  59
ATOM     59  C   UNL     1      10.952  32.177  23.582  1.00  0.00     0.294 C 
BRANCH  59  60
ATOM     60  C   UNL     1      10.487  30.822  23.979  1.00  0.00     0.121 A 
ATOM     61  C   UNL     1       9.163  30.454  24.246  1.00  0.00     0.144 A 
ATOM     62  N   UNL     1      11.188  29.691  24.169  1.00  0.00    -0.131 NA
ATOM     63  N   UNL     1       9.126  29.140  24.580  1.00  0.00    -0.220 N 
ATOM     64  N   UNL     1      10.350  28.707  24.526  1.00  0.00    -0.062 NA
BRANCH  63  65
ATOM     65  C   UNL     1       7.964  28.378  24.928  1.00  0.00     0.066 A 
ATOM     66  C   UNL     1       6.854  28.981  25.473  1.00  0.00     0.030 A 
ATOM     67  C   UNL     1       7.921  27.017  24.725  1.00  0.00     0.030 A 
ATOM     68  C   UNL     1       5.724  28.237  25.809  1.00  0.00     0.024 A 
ATOM     69  C   UNL     1       6.796  26.264  25.056  1.00  0.00     0.024 A 
ATOM     70  C   UNL     1       5.684  26.873  25.603  1.00  0.00     0.082 A 
BRANCH  70  71
ATOM     71  S   UNL     1       4.239  25.961  26.037  1.00  0.00     0.238 S 
ATOM     72  O   UNL     1       3.633  26.484  27.316  1.00  0.00    -0.207 OA
ATOM     73  O   UNL     1       3.198  26.092  24.967  1.00  0.00    -0.207 OA
BRANCH  71  74
ATOM     74  N   UNL     1       4.608  24.276  26.237  1.00  0.00    -0.225 NA
ATOM     75  H   UNL     1       4.814  24.119  27.264  1.00  0.00     0.137 HD
ATOM     76  H   UNL     1       5.422  23.976  25.651  1.00  0.00     0.137 HD
ENDBRANCH  71  74
ENDBRANCH  70  71
ENDBRANCH  63  65
ENDBRANCH  59  60
ENDBRANCH  58  59
ENDBRANCH  55  58
ENDBRANCH  53  54
ENDBRANCH  50  53
ENDBRANCH  47  50
ENDBRANCH   5  47
BRANCH   4  77
ATOM     77  N   UNL     1      15.713  29.562  17.668  1.00  0.00    -0.348 N 
ATOM     78  C   UNL     1      16.590  28.835  16.836  1.00  0.00     0.217 C 
ATOM     79  H   UNL     1      14.894  30.032  17.240  1.00  0.00     0.163 HD
ATOM     80  C   UNL     1      16.306  28.777  15.381  1.00  0.00     0.114 C 
ATOM     81  O   UNL     1      17.601  28.236  17.272  1.00  0.00    -0.275 OA
ENDBRANCH   4  77
TORSDOF 32
