REMARK VINA RESULT:    -5.752      9.965     17.235
REMARK INTER + INTRA:         -22.718
REMARK INTER:                 -16.269
REMARK INTRA:                  -6.450
REMARK UNBOUND:                -8.561
REMARK SMILES CC(=O)N[C@@H]1[C@@H](O)C[C@](OC[C@H]2O[C@@H](O[C@H]3[C@H](O)[C@@H](O)[C@H](OCCN=[N+]=[N-])O[C@@H]3CO)[C@H](O)[C@@H](O)[C@H]2O)(C(=O)O)O[C@H]1C(O)[C@H](O)CNC(=O)OCc1cn(-c2cnc3ccccc3c2)nn1
REMARK SMILES IDX 9 1 8 2 6 3 5 4 42 5 41 6 10 7 11 8 12 9 14 10 13 11 32 12
REMARK SMILES IDX 34 13 36 14 15 15 16 16 29 17 28 18 21 19 17 20 19 21 30 22
REMARK SMILES IDX 31 23 22 25 23 26 24 27 25 28 26 29 27 30 18 31 20 33 33 35
REMARK SMILES IDX 35 37 37 39 38 41 39 42 40 43 7 45 43 47 44 48 45 50 46 51
REMARK SMILES IDX 47 53 48 54 49 55 50 57 51 58 52 59 53 60 54 61 67 62 55 63
REMARK SMILES IDX 66 64 56 65 57 66 65 67 58 68 64 69 59 70 63 71 60 72 62 73
REMARK SMILES IDX 61 74 4 75 2 76 1 78 3 79
REMARK H PARENT 31 24 18 32 20 34 33 36 35 38 37 40 40 44 7 46 44 49 46 52
REMARK H PARENT 48 56 4 77
REMARK Flexibility Score: inf
ROOT
ATOM      1  C   UNL     1      33.837  25.203  28.458  1.00  0.00     0.272 C 
ATOM      2  C   UNL     1      35.022  24.978  29.327  1.00  0.00     0.113 C 
ATOM      3  C   UNL     1      34.860  25.609  30.696  1.00  0.00     0.145 C 
ATOM      4  C   UNL     1      33.485  25.155  31.187  1.00  0.00     0.142 C 
ATOM      5  C   UNL     1      32.466  25.845  30.267  1.00  0.00     0.178 C 
ATOM      6  O   UNL     1      32.613  25.133  29.058  1.00  0.00    -0.332 OA
ENDROOT
BRANCH   1   7
ATOM      7  O   UNL     1      33.783  24.254  27.415  1.00  0.00    -0.338 OA
BRANCH   7   8
ATOM      8  C   UNL     1      34.172  22.994  27.775  1.00  0.00     0.199 C 
BRANCH   8   9
ATOM      9  C   UNL     1      33.372  21.995  26.966  1.00  0.00     0.179 C 
ATOM     10  C   UNL     1      33.183  19.793  26.350  1.00  0.00     0.282 C 
ATOM     11  O   UNL     1      33.598  20.683  27.327  1.00  0.00    -0.341 OA
ATOM     12  C   UNL     1      32.076  20.344  25.499  1.00  0.00     0.202 C 
ATOM     13  C   UNL     1      31.176  21.290  26.210  1.00  0.00     0.179 C 
ATOM     14  C   UNL     1      31.976  22.421  26.790  1.00  0.00     0.177 C 
BRANCH  10  15
ATOM     15  O   UNL     1      32.865  18.587  26.936  1.00  0.00    -0.341 OA
BRANCH  15  16
ATOM     16  C   UNL     1      33.403  18.446  28.215  1.00  0.00     0.184 C 
ATOM     17  C   UNL     1      34.547  17.464  28.269  1.00  0.00     0.178 C 
ATOM     18  O   UNL     1      34.487  16.540  29.265  1.00  0.00    -0.341 OA
ATOM     19  C   UNL     1      34.136  16.969  30.515  1.00  0.00     0.281 C 
ATOM     20  C   UNL     1      32.347  18.204  29.257  1.00  0.00     0.180 C 
ATOM     21  C   UNL     1      32.993  17.933  30.578  1.00  0.00     0.202 C 
BRANCH  17  22
ATOM     22  C   UNL     1      35.889  18.192  28.176  1.00  0.00     0.191 C 
BRANCH  22  23
ATOM     23  O   UNL     1      35.789  19.526  28.561  1.00  0.00    -0.394 OA
ATOM     24  H   UNL     1      34.864  19.819  28.686  1.00  0.00     0.210 HD
ENDBRANCH  22  23
ENDBRANCH  17  22
BRANCH  19  25
ATOM     25  O   UNL     1      35.226  17.408  31.271  1.00  0.00    -0.350 OA
BRANCH  25  26
ATOM     26  C   UNL     1      35.030  18.665  31.804  1.00  0.00     0.169 C 
BRANCH  26  27
ATOM     27  C   UNL     1      36.334  19.396  32.025  1.00  0.00     0.119 C 
BRANCH  27  28
ATOM     28  N   UNL     1      36.096  20.742  32.503  1.00  0.00    -0.092 NA
ATOM     29  N   UNL     1      36.800  21.694  32.168  1.00  0.00     0.001 N 
ATOM     30  N   UNL     1      37.225  22.666  31.542  1.00  0.00    -0.003 NA
ENDBRANCH  27  28
ENDBRANCH  26  27
ENDBRANCH  25  26
ENDBRANCH  19  25
BRANCH  20  31
ATOM     31  O   UNL     1      31.590  19.390  29.389  1.00  0.00    -0.387 OA
ATOM     32  H   UNL     1      32.196  20.180  29.398  1.00  0.00     0.211 HD
ENDBRANCH  20  31
BRANCH  21  33
ATOM     33  O   UNL     1      31.970  17.489  31.449  1.00  0.00    -0.385 OA
ATOM     34  H   UNL     1      32.355  17.336  32.362  1.00  0.00     0.211 HD
ENDBRANCH  21  33
ENDBRANCH  15  16
ENDBRANCH  10  15
BRANCH  12  35
ATOM     35  O   UNL     1      32.522  20.944  24.325  1.00  0.00    -0.385 OA
ATOM     36  H   UNL     1      33.331  21.489  24.473  1.00  0.00     0.211 HD
ENDBRANCH  12  35
BRANCH  13  37
ATOM     37  O   UNL     1      30.429  20.629  27.188  1.00  0.00    -0.387 OA
ATOM     38  H   UNL     1      30.974  19.947  27.614  1.00  0.00     0.211 HD
ENDBRANCH  13  37
BRANCH  14  39
ATOM     39  O   UNL     1      31.338  22.811  27.962  1.00  0.00    -0.387 OA
ATOM     40  H   UNL     1      31.414  22.157  28.682  1.00  0.00     0.211 HD
ENDBRANCH  14  39
ENDBRANCH   8   9
ENDBRANCH   7   8
ENDBRANCH   1   7
BRANCH   1  41
ATOM     41  C   UNL     1      33.948  26.578  27.858  1.00  0.00     0.364 C 
ATOM     42  O   UNL     1      35.063  27.193  27.844  1.00  0.00    -0.246 OA
BRANCH  41  43
ATOM     43  O   UNL     1      32.897  27.265  27.295  1.00  0.00    -0.477 OA
ATOM     44  H   UNL     1      32.908  28.285  27.146  1.00  0.00     0.296 HD
ENDBRANCH  41  43
ENDBRANCH   1  41
BRANCH   3  45
ATOM     45  O   UNL     1      35.860  25.245  31.566  1.00  0.00    -0.391 OA
ATOM     46  H   UNL     1      36.107  24.316  31.378  1.00  0.00     0.211 HD
ENDBRANCH   3  45
BRANCH   5  47
ATOM     47  C   UNL     1      31.054  25.582  30.715  1.00  0.00     0.176 C 
BRANCH  47  48
ATOM     48  O   UNL     1      30.358  25.049  29.597  1.00  0.00    -0.388 OA
ATOM     49  H   UNL     1      29.604  25.637  29.338  1.00  0.00     0.211 HD
ENDBRANCH  47  48
BRANCH  47  50
ATOM     50  C   UNL     1      30.276  26.825  31.122  1.00  0.00     0.165 C 
BRANCH  50  51
ATOM     51  O   UNL     1      31.288  27.617  31.773  1.00  0.00    -0.388 OA
ATOM     52  H   UNL     1      30.816  28.303  32.299  1.00  0.00     0.211 HD
ENDBRANCH  50  51
BRANCH  50  53
ATOM     53  C   UNL     1      29.330  26.504  32.259  1.00  0.00     0.154 C 
BRANCH  53  54
ATOM     54  N   UNL     1      27.972  26.849  32.070  1.00  0.00    -0.319 N 
ATOM     55  C   UNL     1      27.038  26.075  31.348  1.00  0.00     0.407 C 
ATOM     56  H   UNL     1      27.639  27.766  32.508  1.00  0.00     0.167 HD
ATOM     57  O   UNL     1      27.414  25.011  30.818  1.00  0.00    -0.225 OA
BRANCH  55  58
ATOM     58  O   UNL     1      25.745  26.535  31.258  1.00  0.00    -0.443 OA
BRANCH  58  59
ATOM     59  C   UNL     1      24.630  25.698  31.403  1.00  0.00     0.294 C 
BRANCH  59  60
ATOM     60  C   UNL     1      23.878  25.623  30.110  1.00  0.00     0.121 A 
ATOM     61  C   UNL     1      24.350  25.320  28.877  1.00  0.00     0.144 A 
ATOM     62  N   UNL     1      22.552  25.869  29.993  1.00  0.00    -0.131 NA
ATOM     63  N   UNL     1      23.296  25.389  28.041  1.00  0.00    -0.219 N 
ATOM     64  N   UNL     1      22.204  25.725  28.732  1.00  0.00    -0.062 NA
BRANCH  63  65
ATOM     65  C   UNL     1      23.364  25.141  26.639  1.00  0.00     0.085 A 
ATOM     66  C   UNL     1      24.572  24.988  26.037  1.00  0.00     0.140 A 
ATOM     67  C   UNL     1      22.183  25.053  25.921  1.00  0.00     0.040 A 
ATOM     68  N   UNL     1      24.619  24.747  24.711  1.00  0.00    -0.254 NA
ATOM     69  C   UNL     1      22.250  24.808  24.580  1.00  0.00     0.002 A 
ATOM     70  C   UNL     1      23.482  24.661  24.010  1.00  0.00     0.070 A 
ATOM     71  C   UNL     1      21.087  24.716  23.843  1.00  0.00     0.010 A 
ATOM     72  C   UNL     1      23.543  24.410  22.639  1.00  0.00     0.029 A 
ATOM     73  C   UNL     1      21.172  24.467  22.484  1.00  0.00     0.001 A 
ATOM     74  C   UNL     1      22.417  24.311  21.872  1.00  0.00     0.002 A 
ENDBRANCH  63  65
ENDBRANCH  59  60
ENDBRANCH  58  59
ENDBRANCH  55  58
ENDBRANCH  53  54
ENDBRANCH  50  53
ENDBRANCH  47  50
ENDBRANCH   5  47
BRANCH   4  75
ATOM     75  N   UNL     1      33.310  25.385  32.570  1.00  0.00    -0.348 N 
ATOM     76  C   UNL     1      33.482  24.311  33.521  1.00  0.00     0.217 C 
ATOM     77  H   UNL     1      33.072  26.305  32.993  1.00  0.00     0.163 HD
ATOM     78  C   UNL     1      33.305  24.532  34.957  1.00  0.00     0.114 C 
ATOM     79  O   UNL     1      33.792  23.177  33.047  1.00  0.00    -0.275 OA
ENDBRANCH   4  75
TORSDOF 30
