REMARK VINA RESULT:    -6.148      2.934      7.393
REMARK INTER + INTRA:         -22.989
REMARK INTER:                 -15.265
REMARK INTRA:                  -7.724
REMARK UNBOUND:                -7.496
REMARK SMILES CC(=O)N[C@@H]1[C@@H](O)C[C@](OC[C@H]2O[C@@H](O[C@H]3[C@H](O)[C@@H](O)[C@H](OCCN=[N+]=[N-])O[C@@H]3CO)[C@H](O)[C@@H](O)[C@H]2O)(C(=O)O)O[C@H]1C(O)[C@H](O)CNC(=O)OCc1cn(-c2ccccc2C(N)=O)nn1
REMARK SMILES IDX 9 1 8 2 6 3 5 4 42 5 41 6 10 7 11 8 12 9 14 10 13 11 32 12
REMARK SMILES IDX 34 13 36 14 15 15 16 16 29 17 28 18 21 19 17 20 19 21 30 22
REMARK SMILES IDX 31 23 22 25 23 26 24 27 25 28 26 29 27 30 18 31 20 33 33 35
REMARK SMILES IDX 35 37 37 39 38 41 39 42 40 43 7 45 43 47 44 48 45 50 46 51
REMARK SMILES IDX 47 53 48 54 49 55 50 57 51 58 52 59 53 60 54 61 66 62 55 63
REMARK SMILES IDX 65 64 56 65 61 66 57 67 60 68 58 69 59 70 62 71 64 72 63 73
REMARK SMILES IDX 4 76 2 77 1 79 3 80
REMARK H PARENT 31 24 18 32 20 34 33 36 35 38 37 40 40 44 7 46 44 49 46 52
REMARK H PARENT 48 56 63 74 63 75 4 78
REMARK Flexibility Score: inf
ROOT
ATOM      1  C   UNL     1      15.656  29.465  20.209  1.00  0.00     0.272 C 
ATOM      2  C   UNL     1      14.169  29.020  20.108  1.00  0.00     0.113 C 
ATOM      3  C   UNL     1      13.390  30.075  20.841  1.00  0.00     0.145 C 
ATOM      4  C   UNL     1      13.636  29.956  22.292  1.00  0.00     0.142 C 
ATOM      5  C   UNL     1      15.089  29.475  22.451  1.00  0.00     0.178 C 
ATOM      6  O   UNL     1      15.886  30.015  21.459  1.00  0.00    -0.332 OA
ENDROOT
BRANCH   1   7
ATOM      7  O   UNL     1      15.772  30.433  19.229  1.00  0.00    -0.338 OA
BRANCH   7   8
ATOM      8  C   UNL     1      16.655  30.140  18.233  1.00  0.00     0.199 C 
BRANCH   8   9
ATOM      9  C   UNL     1      17.805  31.128  18.156  1.00  0.00     0.179 C 
ATOM     10  C   UNL     1      19.920  31.421  19.090  1.00  0.00     0.282 C 
ATOM     11  O   UNL     1      18.815  30.595  18.954  1.00  0.00    -0.341 OA
ATOM     12  C   UNL     1      19.915  32.644  18.251  1.00  0.00     0.202 C 
ATOM     13  C   UNL     1      19.338  32.490  16.876  1.00  0.00     0.179 C 
ATOM     14  C   UNL     1      18.359  31.311  16.781  1.00  0.00     0.177 C 
BRANCH  10  15
ATOM     15  O   UNL     1      21.035  30.652  18.811  1.00  0.00    -0.341 OA
BRANCH  15  16
ATOM     16  C   UNL     1      21.061  29.450  19.497  1.00  0.00     0.184 C 
ATOM     17  C   UNL     1      22.273  29.453  20.404  1.00  0.00     0.178 C 
ATOM     18  O   UNL     1      23.339  28.821  19.863  1.00  0.00    -0.341 OA
ATOM     19  C   UNL     1      23.167  27.498  19.671  1.00  0.00     0.281 C 
ATOM     20  C   UNL     1      21.220  28.358  18.445  1.00  0.00     0.180 C 
ATOM     21  C   UNL     1      21.898  27.156  18.998  1.00  0.00     0.202 C 
BRANCH  17  22
ATOM     22  C   UNL     1      21.916  28.858  21.739  1.00  0.00     0.191 C 
BRANCH  22  23
ATOM     23  O   UNL     1      20.538  28.653  21.860  1.00  0.00    -0.394 OA
ATOM     24  H   UNL     1      20.434  27.742  22.271  1.00  0.00     0.210 HD
ENDBRANCH  22  23
ENDBRANCH  17  22
BRANCH  19  25
ATOM     25  O   UNL     1      23.410  26.720  20.813  1.00  0.00    -0.350 OA
BRANCH  25  26
ATOM     26  C   UNL     1      24.392  25.777  20.647  1.00  0.00     0.169 C 
BRANCH  26  27
ATOM     27  C   UNL     1      23.841  24.409  20.871  1.00  0.00     0.119 C 
BRANCH  27  28
ATOM     28  N   UNL     1      24.468  23.820  22.027  1.00  0.00    -0.092 NA
ATOM     29  N   UNL     1      25.658  23.478  22.039  1.00  0.00     0.001 N 
ATOM     30  N   UNL     1      26.880  23.408  21.888  1.00  0.00    -0.003 NA
ENDBRANCH  27  28
ENDBRANCH  26  27
ENDBRANCH  25  26
ENDBRANCH  19  25
BRANCH  20  31
ATOM     31  O   UNL     1      19.972  27.991  17.950  1.00  0.00    -0.387 OA
ATOM     32  H   UNL     1      19.246  28.265  18.593  1.00  0.00     0.211 HD
ENDBRANCH  20  31
BRANCH  21  33
ATOM     33  O   UNL     1      22.179  26.291  17.911  1.00  0.00    -0.385 OA
ATOM     34  H   UNL     1      22.567  26.843  17.172  1.00  0.00     0.211 HD
ENDBRANCH  21  33
ENDBRANCH  15  16
ENDBRANCH  10  15
BRANCH  12  35
ATOM     35  O   UNL     1      19.354  33.752  18.922  1.00  0.00    -0.385 OA
ATOM     36  H   UNL     1      20.027  34.056  19.570  1.00  0.00     0.211 HD
ENDBRANCH  12  35
BRANCH  13  37
ATOM     37  O   UNL     1      20.345  32.251  15.940  1.00  0.00    -0.387 OA
ATOM     38  H   UNL     1      20.110  32.630  15.039  1.00  0.00     0.211 HD
ENDBRANCH  13  37
BRANCH  14  39
ATOM     39  O   UNL     1      19.086  30.154  16.445  1.00  0.00    -0.387 OA
ATOM     40  H   UNL     1      20.040  30.301  16.350  1.00  0.00     0.211 HD
ENDBRANCH  14  39
ENDBRANCH   8   9
ENDBRANCH   7   8
ENDBRANCH   1   7
BRANCH   1  41
ATOM     41  C   UNL     1      16.523  28.303  20.003  1.00  0.00     0.364 C 
ATOM     42  O   UNL     1      16.065  27.237  19.465  1.00  0.00    -0.246 OA
BRANCH  41  43
ATOM     43  O   UNL     1      17.865  28.348  20.393  1.00  0.00    -0.477 OA
ATOM     44  H   UNL     1      18.039  28.463  21.389  1.00  0.00     0.296 HD
ENDBRANCH  41  43
ENDBRANCH   1  41
BRANCH   3  45
ATOM     45  O   UNL     1      13.945  31.317  20.440  1.00  0.00    -0.391 OA
ATOM     46  H   UNL     1      14.070  31.884  21.244  1.00  0.00     0.211 HD
ENDBRANCH   3  45
BRANCH   5  47
ATOM     47  C   UNL     1      15.569  29.716  23.853  1.00  0.00     0.176 C 
BRANCH  47  48
ATOM     48  O   UNL     1      16.959  29.486  23.844  1.00  0.00    -0.388 OA
ATOM     49  H   UNL     1      17.377  29.923  24.635  1.00  0.00     0.211 HD
ENDBRANCH  47  48
BRANCH  47  50
ATOM     50  C   UNL     1      15.423  31.191  24.241  1.00  0.00     0.165 C 
BRANCH  50  51
ATOM     51  O   UNL     1      16.013  31.977  23.237  1.00  0.00    -0.388 OA
ATOM     52  H   UNL     1      16.897  32.253  23.599  1.00  0.00     0.211 HD
ENDBRANCH  50  51
BRANCH  50  53
ATOM     53  C   UNL     1      16.074  31.501  25.546  1.00  0.00     0.154 C 
BRANCH  53  54
ATOM     54  N   UNL     1      17.470  31.804  25.379  1.00  0.00    -0.319 N 
ATOM     55  C   UNL     1      18.459  31.557  26.364  1.00  0.00     0.407 C 
ATOM     56  H   UNL     1      17.766  32.240  24.458  1.00  0.00     0.167 HD
ATOM     57  O   UNL     1      18.268  31.043  27.467  1.00  0.00    -0.225 OA
BRANCH  55  58
ATOM     58  O   UNL     1      19.801  31.917  26.092  1.00  0.00    -0.443 OA
BRANCH  58  59
ATOM     59  C   UNL     1      20.487  31.302  24.999  1.00  0.00     0.294 C 
BRANCH  59  60
ATOM     60  C   UNL     1      20.569  29.842  25.186  1.00  0.00     0.121 A 
ATOM     61  C   UNL     1      21.403  29.129  26.014  1.00  0.00     0.144 A 
ATOM     62  N   UNL     1      19.823  28.917  24.558  1.00  0.00    -0.131 NA
ATOM     63  N   UNL     1      21.155  27.808  25.877  1.00  0.00    -0.220 N 
ATOM     64  N   UNL     1      20.176  27.717  24.972  1.00  0.00    -0.062 NA
BRANCH  63  65
ATOM     65  C   UNL     1      21.773  26.711  26.525  1.00  0.00     0.079 A 
ATOM     66  C   UNL     1      22.546  25.857  25.780  1.00  0.00     0.065 A 
ATOM     67  C   UNL     1      21.610  26.491  27.878  1.00  0.00     0.029 A 
ATOM     68  C   UNL     1      23.176  24.762  26.364  1.00  0.00     0.016 A 
ATOM     69  C   UNL     1      22.235  25.397  28.482  1.00  0.00     0.002 A 
ATOM     70  C   UNL     1      23.006  24.552  27.717  1.00  0.00     0.001 A 
BRANCH  66  71
ATOM     71  C   UNL     1      22.711  26.094  24.361  1.00  0.00     0.250 C 
ATOM     72  O   UNL     1      23.683  26.790  23.973  1.00  0.00    -0.269 OA
ATOM     73  N   UNL     1      21.843  25.588  23.372  1.00  0.00    -0.366 N 
ATOM     74  H   UNL     1      22.210  24.972  22.631  1.00  0.00     0.159 HD
ATOM     75  H   UNL     1      20.843  25.837  23.393  1.00  0.00     0.159 HD
ENDBRANCH  66  71
ENDBRANCH  63  65
ENDBRANCH  59  60
ENDBRANCH  58  59
ENDBRANCH  55  58
ENDBRANCH  53  54
ENDBRANCH  50  53
ENDBRANCH  47  50
ENDBRANCH   5  47
BRANCH   4  76
ATOM     76  N   UNL     1      12.814  29.074  23.024  1.00  0.00    -0.348 N 
ATOM     77  C   UNL     1      11.788  29.514  23.898  1.00  0.00     0.217 C 
ATOM     78  H   UNL     1      12.962  28.042  22.921  1.00  0.00     0.163 HD
ATOM     79  C   UNL     1      10.907  28.620  24.681  1.00  0.00     0.114 C 
ATOM     80  O   UNL     1      11.664  30.779  23.972  1.00  0.00    -0.275 OA
ENDBRANCH   4  76
TORSDOF 31
