REMARK VINA RESULT:    -5.693      4.481     10.193
REMARK INTER + INTRA:         -23.146
REMARK INTER:                 -14.991
REMARK INTRA:                  -8.155
REMARK UNBOUND:                -7.304
REMARK SMILES CC(=O)N[C@@H]1[C@@H](O)C[C@](OC[C@H]2O[C@@H](O[C@H]3[C@H](O)[C@@H](O)[C@H](OCCN=[N+]=[N-])O[C@@H]3CO)[C@H](O)[C@@H](O)[C@H]2O)(C(=O)O)O[C@H]1C(O)[C@H](O)CNC(=O)OCc1cn(CCCCCC(=O)O)nn1
REMARK SMILES IDX 47 1 45 2 43 3 42 4 9 5 8 6 41 7 6 8 5 9 10 10 11 11 12 12
REMARK SMILES IDX 14 13 13 14 32 15 34 16 36 17 15 18 16 19 29 20 28 21 21 22
REMARK SMILES IDX 17 23 19 24 30 25 31 26 22 28 23 29 24 30 25 31 26 32 27 33
REMARK SMILES IDX 18 34 20 36 33 38 35 40 37 42 38 44 39 45 40 46 7 48 4 50
REMARK SMILES IDX 2 51 1 53 3 54 44 55 46 57 48 59 49 60 50 62 51 63 52 64
REMARK SMILES IDX 53 65 54 66 65 67 55 68 64 69 56 70 57 71 58 72 59 73 60 74
REMARK SMILES IDX 61 75 62 76 63 77
REMARK H PARENT 31 27 18 35 20 37 33 39 35 41 37 43 40 47 7 49 4 52 44 56
REMARK H PARENT 46 58 48 61 63 78
REMARK Flexibility Score: inf
ROOT
ATOM      1  C   UNL     1      23.158  25.576  19.730  1.00  0.00     0.154 C 
ENDROOT
BRANCH   1   2
ATOM      2  C   UNL     1      22.195  24.861  20.646  1.00  0.00     0.165 C 
BRANCH   2   3
ATOM      3  C   UNL     1      21.800  25.837  21.706  1.00  0.00     0.176 C 
BRANCH   3   4
ATOM      4  C   UNL     1      22.877  26.259  22.644  1.00  0.00     0.178 C 
ATOM      5  C   UNL     1      24.699  25.605  23.797  1.00  0.00     0.272 C 
ATOM      6  C   UNL     1      24.971  27.074  23.837  1.00  0.00     0.113 C 
ATOM      7  O   UNL     1      23.414  25.243  23.418  1.00  0.00    -0.332 OA
ATOM      8  C   UNL     1      23.817  27.984  24.022  1.00  0.00     0.145 C 
ATOM      9  C   UNL     1      22.482  27.342  23.624  1.00  0.00     0.142 C 
BRANCH   5  10
ATOM     10  O   UNL     1      25.095  24.953  24.963  1.00  0.00    -0.338 OA
BRANCH  10  11
ATOM     11  C   UNL     1      24.155  24.229  25.624  1.00  0.00     0.199 C 
BRANCH  11  12
ATOM     12  C   UNL     1      23.994  24.870  26.990  1.00  0.00     0.179 C 
ATOM     13  C   UNL     1      24.709  26.372  28.484  1.00  0.00     0.282 C 
ATOM     14  O   UNL     1      24.545  26.138  27.087  1.00  0.00    -0.341 OA
ATOM     15  C   UNL     1      23.656  25.813  29.330  1.00  0.00     0.202 C 
ATOM     16  C   UNL     1      22.356  25.454  28.666  1.00  0.00     0.179 C 
ATOM     17  C   UNL     1      22.506  25.063  27.220  1.00  0.00     0.177 C 
BRANCH  13  18
ATOM     18  O   UNL     1      25.101  27.692  28.690  1.00  0.00    -0.341 OA
BRANCH  18  19
ATOM     19  C   UNL     1      26.380  27.872  29.065  1.00  0.00     0.184 C 
ATOM     20  C   UNL     1      26.551  28.956  30.087  1.00  0.00     0.178 C 
ATOM     21  O   UNL     1      27.828  28.740  30.646  1.00  0.00    -0.341 OA
ATOM     22  C   UNL     1      28.806  29.014  29.751  1.00  0.00     0.281 C 
ATOM     23  C   UNL     1      27.226  28.412  27.861  1.00  0.00     0.180 C 
ATOM     24  C   UNL     1      28.312  29.316  28.387  1.00  0.00     0.202 C 
BRANCH  20  25
ATOM     25  C   UNL     1      25.560  28.891  31.219  1.00  0.00     0.191 C 
BRANCH  25  26
ATOM     26  O   UNL     1      25.465  27.610  31.718  1.00  0.00    -0.394 OA
ATOM     27  H   UNL     1      26.324  27.148  31.526  1.00  0.00     0.210 HD
ENDBRANCH  25  26
ENDBRANCH  20  25
BRANCH  22  28
ATOM     28  O   UNL     1      29.813  28.041  29.709  1.00  0.00    -0.350 OA
BRANCH  28  29
ATOM     29  C   UNL     1      29.736  27.151  30.749  1.00  0.00     0.169 C 
BRANCH  29  30
ATOM     30  C   UNL     1      30.020  25.745  30.241  1.00  0.00     0.119 C 
BRANCH  30  31
ATOM     31  N   UNL     1      28.789  25.079  29.846  1.00  0.00    -0.092 NA
ATOM     32  N   UNL     1      27.747  25.278  30.500  1.00  0.00     0.001 N 
ATOM     33  N   UNL     1      26.846  25.058  31.311  1.00  0.00    -0.003 NA
ENDBRANCH  30  31
ENDBRANCH  29  30
ENDBRANCH  28  29
ENDBRANCH  22  28
BRANCH  23  34
ATOM     34  O   UNL     1      27.845  27.328  27.240  1.00  0.00    -0.387 OA
ATOM     35  H   UNL     1      27.262  27.012  26.491  1.00  0.00     0.211 HD
ENDBRANCH  23  34
BRANCH  24  36
ATOM     36  O   UNL     1      28.044  30.673  28.163  1.00  0.00    -0.385 OA
ATOM     37  H   UNL     1      27.091  30.898  28.309  1.00  0.00     0.211 HD
ENDBRANCH  24  36
ENDBRANCH  18  19
ENDBRANCH  13  18
BRANCH  15  38
ATOM     38  O   UNL     1      24.081  24.618  29.980  1.00  0.00    -0.385 OA
ATOM     39  H   UNL     1      24.904  24.287  29.577  1.00  0.00     0.211 HD
ENDBRANCH  15  38
BRANCH  16  40
ATOM     40  O   UNL     1      21.421  26.502  28.711  1.00  0.00    -0.387 OA
ATOM     41  H   UNL     1      21.685  27.223  29.311  1.00  0.00     0.211 HD
ENDBRANCH  16  40
BRANCH  17  42
ATOM     42  O   UNL     1      22.128  26.161  26.405  1.00  0.00    -0.387 OA
ATOM     43  H   UNL     1      21.119  26.149  26.411  1.00  0.00     0.211 HD
ENDBRANCH  17  42
ENDBRANCH  11  12
ENDBRANCH  10  11
ENDBRANCH   5  10
BRANCH   5  44
ATOM     44  C   UNL     1      25.580  25.043  22.735  1.00  0.00     0.364 C 
ATOM     45  O   UNL     1      25.415  23.875  22.319  1.00  0.00    -0.246 OA
BRANCH  44  46
ATOM     46  O   UNL     1      26.588  25.806  22.199  1.00  0.00    -0.477 OA
ATOM     47  H   UNL     1      26.625  26.074  21.201  1.00  0.00     0.296 HD
ENDBRANCH  44  46
ENDBRANCH   5  44
BRANCH   8  48
ATOM     48  O   UNL     1      23.745  28.613  25.262  1.00  0.00    -0.391 OA
ATOM     49  H   UNL     1      24.339  28.129  25.879  1.00  0.00     0.211 HD
ENDBRANCH   8  48
BRANCH   9  50
ATOM     50  N   UNL     1      21.565  28.304  23.120  1.00  0.00    -0.348 N 
ATOM     51  C   UNL     1      20.596  28.868  23.983  1.00  0.00     0.217 C 
ATOM     52  H   UNL     1      21.592  28.602  22.135  1.00  0.00     0.163 HD
ATOM     53  C   UNL     1      19.627  29.879  23.483  1.00  0.00     0.114 C 
ATOM     54  O   UNL     1      20.511  28.545  25.204  1.00  0.00    -0.275 OA
ENDBRANCH   9  50
ENDBRANCH   3   4
BRANCH   3  55
ATOM     55  O   UNL     1      20.706  25.356  22.460  1.00  0.00    -0.388 OA
ATOM     56  H   UNL     1      19.902  25.320  21.895  1.00  0.00     0.211 HD
ENDBRANCH   3  55
ENDBRANCH   2   3
BRANCH   2  57
ATOM     57  O   UNL     1      22.858  23.773  21.202  1.00  0.00    -0.388 OA
ATOM     58  H   UNL     1      23.828  23.925  21.065  1.00  0.00     0.211 HD
ENDBRANCH   2  57
ENDBRANCH   1   2
BRANCH   1  59
ATOM     59  N   UNL     1      24.311  24.811  19.375  1.00  0.00    -0.319 N 
ATOM     60  C   UNL     1      25.377  25.472  18.685  1.00  0.00     0.407 C 
ATOM     61  H   UNL     1      24.410  23.807  19.592  1.00  0.00     0.167 HD
ATOM     62  O   UNL     1      25.293  26.694  18.404  1.00  0.00    -0.225 OA
BRANCH  60  63
ATOM     63  O   UNL     1      26.520  24.809  18.304  1.00  0.00    -0.443 OA
BRANCH  63  64
ATOM     64  C   UNL     1      26.852  23.520  18.685  1.00  0.00     0.294 C 
BRANCH  64  65
ATOM     65  C   UNL     1      27.717  23.379  19.863  1.00  0.00     0.120 A 
ATOM     66  C   UNL     1      27.936  22.251  20.610  1.00  0.00     0.138 A 
ATOM     67  N   UNL     1      28.445  24.371  20.425  1.00  0.00    -0.132 NA
ATOM     68  N   UNL     1      28.778  22.575  21.593  1.00  0.00    -0.252 N 
ATOM     69  N   UNL     1      29.063  23.853  21.451  1.00  0.00    -0.067 NA
BRANCH  68  70
ATOM     70  C   UNL     1      29.284  21.669  22.615  1.00  0.00     0.146 C 
BRANCH  70  71
ATOM     71  C   UNL     1      28.531  20.345  22.488  1.00  0.00     0.024 C 
BRANCH  71  72
ATOM     72  C   UNL     1      29.408  19.271  21.914  1.00  0.00     0.002 C 
BRANCH  72  73
ATOM     73  C   UNL     1      28.658  18.509  20.860  1.00  0.00     0.012 C 
BRANCH  73  74
ATOM     74  C   UNL     1      29.008  18.920  19.468  1.00  0.00     0.122 C 
BRANCH  74  75
ATOM     75  C   UNL     1      30.362  18.404  19.123  1.00  0.00     0.303 C 
ATOM     76  O   UNL     1      30.556  17.172  19.031  1.00  0.00    -0.252 OA
BRANCH  75  77
ATOM     77  O   UNL     1      31.424  19.273  18.896  1.00  0.00    -0.481 OA
ATOM     78  H   UNL     1      31.243  20.201  18.508  1.00  0.00     0.296 HD
ENDBRANCH  75  77
ENDBRANCH  74  75
ENDBRANCH  73  74
ENDBRANCH  72  73
ENDBRANCH  71  72
ENDBRANCH  70  71
ENDBRANCH  68  70
ENDBRANCH  64  65
ENDBRANCH  63  64
ENDBRANCH  60  63
ENDBRANCH   1  59
TORSDOF 36
