REMARK VINA RESULT:    -7.077      0.000      0.000
REMARK INTER + INTRA:         -24.074
REMARK INTER:                 -16.334
REMARK INTRA:                  -7.740
REMARK UNBOUND:                -6.033
REMARK SMILES CC(=O)N[C@@H]1[C@@H](O)C[C@](OC[C@H]2O[C@@H](O[C@H]3[C@H](O)[C@@H](O)[C@H](OCCN=[N+]=[N-])O[C@@H]3CO)[C@H](O)[C@@H](O)[C@H]2O)(C(=O)O)O[C@H]1C(O)[C@H](O)CNC(=O)OCc1cn(-c2cccc(S(N)(=O)=O)c2)nn1
REMARK SMILES IDX 9 1 8 2 6 3 5 4 42 5 41 6 10 7 11 8 12 9 14 10 13 11 32 12
REMARK SMILES IDX 34 13 36 14 15 15 16 16 29 17 28 18 21 19 17 20 19 21 30 22
REMARK SMILES IDX 31 23 22 25 23 26 24 27 25 28 26 29 27 30 18 31 20 33 33 35
REMARK SMILES IDX 35 37 37 39 38 41 39 42 40 43 7 45 43 47 44 48 45 50 46 51
REMARK SMILES IDX 47 53 48 54 49 55 50 57 51 58 52 59 53 60 54 61 67 62 55 63
REMARK SMILES IDX 66 64 56 65 65 66 57 67 60 68 58 69 59 70 61 71 63 72 64 73
REMARK SMILES IDX 62 74 4 77 2 78 1 80 3 81
REMARK H PARENT 31 24 18 32 20 34 33 36 35 38 37 40 40 44 7 46 44 49 46 52
REMARK H PARENT 48 56 62 75 62 76 4 79
REMARK Flexibility Score: inf
ROOT
ATOM      1  C   UNL     1       1.555  23.415  33.700  1.00  0.00     0.272 C 
ATOM      2  C   UNL     1       2.408  23.266  34.974  1.00  0.00     0.113 C 
ATOM      3  C   UNL     1       2.453  21.822  35.331  1.00  0.00     0.145 C 
ATOM      4  C   UNL     1       3.031  21.016  34.222  1.00  0.00     0.142 C 
ATOM      5  C   UNL     1       2.722  21.566  32.875  1.00  0.00     0.178 C 
ATOM      6  O   UNL     1       2.155  22.766  32.706  1.00  0.00    -0.332 OA
ENDROOT
BRANCH   1   7
ATOM      7  O   UNL     1       1.558  24.820  33.485  1.00  0.00    -0.338 OA
BRANCH   7   8
ATOM      8  C   UNL     1       1.659  25.057  32.149  1.00  0.00     0.199 C 
BRANCH   8   9
ATOM      9  C   UNL     1       2.860  25.903  31.788  1.00  0.00     0.179 C 
ATOM     10  C   UNL     1       4.738  26.701  32.705  1.00  0.00     0.282 C 
ATOM     11  O   UNL     1       3.997  25.511  32.491  1.00  0.00    -0.341 OA
ATOM     12  C   UNL     1       4.864  27.505  31.463  1.00  0.00     0.202 C 
ATOM     13  C   UNL     1       4.456  26.794  30.197  1.00  0.00     0.179 C 
ATOM     14  C   UNL     1       3.192  25.970  30.348  1.00  0.00     0.177 C 
BRANCH  10  15
ATOM     15  O   UNL     1       5.897  26.451  33.394  1.00  0.00    -0.341 OA
BRANCH  15  16
ATOM     16  C   UNL     1       5.749  25.722  34.551  1.00  0.00     0.184 C 
ATOM     17  C   UNL     1       6.086  26.596  35.734  1.00  0.00     0.178 C 
ATOM     18  O   UNL     1       6.851  25.893  36.673  1.00  0.00    -0.341 OA
ATOM     19  C   UNL     1       8.121  25.757  36.167  1.00  0.00     0.281 C 
ATOM     20  C   UNL     1       6.697  24.547  34.453  1.00  0.00     0.180 C 
ATOM     21  C   UNL     1       8.063  24.843  34.986  1.00  0.00     0.202 C 
BRANCH  17  22
ATOM     22  C   UNL     1       4.888  27.121  36.461  1.00  0.00     0.191 C 
BRANCH  22  23
ATOM     23  O   UNL     1       3.720  26.431  36.080  1.00  0.00    -0.394 OA
ATOM     24  H   UNL     1       3.759  25.485  36.356  1.00  0.00     0.210 HD
ENDBRANCH  22  23
ENDBRANCH  17  22
BRANCH  19  25
ATOM     25  O   UNL     1       9.015  25.226  37.097  1.00  0.00    -0.350 OA
BRANCH  25  26
ATOM     26  C   UNL     1       9.032  23.860  37.168  1.00  0.00     0.169 C 
BRANCH  26  27
ATOM     27  C   UNL     1       8.867  23.300  38.565  1.00  0.00     0.119 C 
BRANCH  27  28
ATOM     28  N   UNL     1       7.573  23.641  39.124  1.00  0.00    -0.092 NA
ATOM     29  N   UNL     1       6.517  23.311  38.593  1.00  0.00     0.001 N 
ATOM     30  N   UNL     1       5.416  23.044  38.143  1.00  0.00    -0.003 NA
ENDBRANCH  27  28
ENDBRANCH  26  27
ENDBRANCH  25  26
ENDBRANCH  19  25
BRANCH  20  31
ATOM     31  O   UNL     1       6.168  23.486  35.210  1.00  0.00    -0.387 OA
ATOM     32  H   UNL     1       6.720  22.668  35.143  1.00  0.00     0.211 HD
ENDBRANCH  20  31
BRANCH  21  33
ATOM     33  O   UNL     1       8.865  25.413  33.970  1.00  0.00    -0.385 OA
ATOM     34  H   UNL     1       8.404  25.252  33.114  1.00  0.00     0.211 HD
ENDBRANCH  21  33
ENDBRANCH  15  16
ENDBRANCH  10  15
BRANCH  12  35
ATOM     35  O   UNL     1       4.227  28.767  31.549  1.00  0.00    -0.385 OA
ATOM     36  H   UNL     1       3.482  28.606  32.211  1.00  0.00     0.211 HD
ENDBRANCH  12  35
BRANCH  13  37
ATOM     37  O   UNL     1       5.508  26.095  29.633  1.00  0.00    -0.387 OA
ATOM     38  H   UNL     1       6.128  26.790  29.244  1.00  0.00     0.211 HD
ENDBRANCH  13  37
BRANCH  14  39
ATOM     39  O   UNL     1       3.487  24.681  29.891  1.00  0.00    -0.387 OA
ATOM     40  H   UNL     1       4.233  24.680  29.241  1.00  0.00     0.211 HD
ENDBRANCH  14  39
ENDBRANCH   8   9
ENDBRANCH   7   8
ENDBRANCH   1   7
BRANCH   1  41
ATOM     41  C   UNL     1       0.189  22.977  34.081  1.00  0.00     0.364 C 
ATOM     42  O   UNL     1      -0.415  23.626  35.011  1.00  0.00    -0.246 OA
BRANCH  41  43
ATOM     43  O   UNL     1      -0.517  21.941  33.544  1.00  0.00    -0.477 OA
ATOM     44  H   UNL     1      -1.472  21.701  33.841  1.00  0.00     0.296 HD
ENDBRANCH  41  43
ENDBRANCH   1  41
BRANCH   3  45
ATOM     45  O   UNL     1       3.270  21.742  36.494  1.00  0.00    -0.391 OA
ATOM     46  H   UNL     1       3.015  22.563  37.021  1.00  0.00     0.211 HD
ENDBRANCH   3  45
BRANCH   5  47
ATOM     47  C   UNL     1       4.020  21.484  32.036  1.00  0.00     0.176 C 
BRANCH  47  48
ATOM     48  O   UNL     1       4.362  22.760  31.630  1.00  0.00    -0.388 OA
ATOM     49  H   UNL     1       5.293  23.010  31.753  1.00  0.00     0.211 HD
ENDBRANCH  47  48
BRANCH  47  50
ATOM     50  C   UNL     1       3.885  20.470  30.967  1.00  0.00     0.165 C 
BRANCH  50  51
ATOM     51  O   UNL     1       4.992  20.544  30.125  1.00  0.00    -0.388 OA
ATOM     52  H   UNL     1       5.768  20.290  30.701  1.00  0.00     0.211 HD
ENDBRANCH  50  51
BRANCH  50  53
ATOM     53  C   UNL     1       2.649  20.687  30.110  1.00  0.00     0.154 C 
BRANCH  53  54
ATOM     54  N   UNL     1       2.929  21.760  29.186  1.00  0.00    -0.319 N 
ATOM     55  C   UNL     1       2.211  21.824  27.934  1.00  0.00     0.407 C 
ATOM     56  H   UNL     1       3.640  22.501  29.381  1.00  0.00     0.167 HD
ATOM     57  O   UNL     1       1.347  20.959  27.636  1.00  0.00    -0.225 OA
BRANCH  55  58
ATOM     58  O   UNL     1       2.525  22.878  27.100  1.00  0.00    -0.443 OA
BRANCH  58  59
ATOM     59  C   UNL     1       1.558  23.804  26.704  1.00  0.00     0.294 C 
BRANCH  59  60
ATOM     60  C   UNL     1       2.057  25.185  26.776  1.00  0.00     0.121 A 
ATOM     61  C   UNL     1       3.377  25.554  26.475  1.00  0.00     0.144 A 
ATOM     62  N   UNL     1       1.423  26.302  27.112  1.00  0.00    -0.131 NA
ATOM     63  N   UNL     1       3.464  26.869  26.647  1.00  0.00    -0.220 N 
ATOM     64  N   UNL     1       2.292  27.292  27.025  1.00  0.00    -0.062 NA
BRANCH  63  65
ATOM     65  C   UNL     1       4.664  27.623  26.425  1.00  0.00     0.068 A 
ATOM     66  C   UNL     1       5.799  26.958  25.955  1.00  0.00     0.050 A 
ATOM     67  C   UNL     1       4.704  28.963  26.664  1.00  0.00     0.028 A 
ATOM     68  C   UNL     1       6.971  27.634  25.725  1.00  0.00     0.084 A 
ATOM     69  C   UNL     1       5.858  29.643  26.440  1.00  0.00     0.004 A 
ATOM     70  C   UNL     1       7.006  29.000  25.971  1.00  0.00     0.022 A 
BRANCH  68  71
ATOM     71  S   UNL     1       8.422  26.871  25.139  1.00  0.00     0.238 S 
ATOM     72  O   UNL     1       9.407  27.940  24.757  1.00  0.00    -0.207 OA
ATOM     73  O   UNL     1       8.123  26.040  23.933  1.00  0.00    -0.207 OA
BRANCH  71  74
ATOM     74  N   UNL     1       9.078  25.880  26.409  1.00  0.00    -0.225 NA
ATOM     75  H   UNL     1       8.329  25.717  27.119  1.00  0.00     0.137 HD
ATOM     76  H   UNL     1       9.956  26.281  26.798  1.00  0.00     0.137 HD
ENDBRANCH  71  74
ENDBRANCH  68  71
ENDBRANCH  63  65
ENDBRANCH  59  60
ENDBRANCH  58  59
ENDBRANCH  55  58
ENDBRANCH  53  54
ENDBRANCH  50  53
ENDBRANCH  47  50
ENDBRANCH   5  47
BRANCH   4  77
ATOM     77  N   UNL     1       2.445  19.670  34.322  1.00  0.00    -0.348 N 
ATOM     78  C   UNL     1       3.022  18.638  35.110  1.00  0.00     0.217 C 
ATOM     79  H   UNL     1       1.573  19.458  33.796  1.00  0.00     0.163 HD
ATOM     80  C   UNL     1       2.383  17.299  35.173  1.00  0.00     0.114 C 
ATOM     81  O   UNL     1       4.085  18.900  35.745  1.00  0.00    -0.275 OA
ENDBRANCH   4  77
TORSDOF 32
