REMARK VINA RESULT:    -6.275     11.423     17.107
REMARK INTER + INTRA:         -21.007
REMARK INTER:                 -11.893
REMARK INTRA:                  -9.113
REMARK UNBOUND:                -4.828
REMARK SMILES CC(=O)N[C@@H]1[C@@H](O)C[C@](OC[C@H]2O[C@@H](O[C@H]3[C@H](O)[C@@H](O)[C@H](OCCN=[N+]=[N-])O[C@@H]3CO)[C@H](O)[C@@H](O)[C@H]2O)(C(=O)O)O[C@H]1C(O)[C@H](O)CNC(=O)OCc1cn(CCN2CCCC2)nn1
REMARK SMILES IDX 9 1 8 2 6 3 5 4 42 5 41 6 10 7 11 8 12 9 14 10 13 11 32 12
REMARK SMILES IDX 34 13 36 14 15 15 16 16 29 17 28 18 21 19 17 20 19 21 30 22
REMARK SMILES IDX 31 23 22 25 23 26 24 27 25 28 26 29 27 30 18 31 20 33 33 35
REMARK SMILES IDX 35 37 37 39 38 41 39 42 40 43 7 45 43 47 44 48 45 50 46 51
REMARK SMILES IDX 47 53 48 54 49 55 50 57 51 58 52 59 53 60 54 61 64 62 55 63
REMARK SMILES IDX 63 64 56 65 57 66 58 67 59 68 62 69 60 70 61 71 4 72 2 73
REMARK SMILES IDX 1 75 3 76
REMARK H PARENT 31 24 18 32 20 34 33 36 35 38 37 40 40 44 7 46 44 49 46 52
REMARK H PARENT 48 56 4 74
REMARK Flexibility Score: inf
ROOT
ATOM      1  C   UNL     1      19.750  19.437  10.522  1.00  0.00     0.272 C 
ATOM      2  C   UNL     1      20.191  20.815  10.141  1.00  0.00     0.113 C 
ATOM      3  C   UNL     1      21.718  20.877  10.003  1.00  0.00     0.145 C 
ATOM      4  C   UNL     1      22.270  20.606  11.432  1.00  0.00     0.142 C 
ATOM      5  C   UNL     1      21.684  19.317  11.877  1.00  0.00     0.178 C 
ATOM      6  O   UNL     1      20.908  18.731  10.872  1.00  0.00    -0.332 OA
ENDROOT
BRANCH   1   7
ATOM      7  O   UNL     1      19.271  18.720   9.423  1.00  0.00    -0.338 OA
BRANCH   7   8
ATOM      8  C   UNL     1      19.799  17.504   9.182  1.00  0.00     0.199 C 
BRANCH   8   9
ATOM      9  C   UNL     1      20.439  17.392   7.801  1.00  0.00     0.179 C 
ATOM     10  C   UNL     1      20.854  18.548   5.864  1.00  0.00     0.282 C 
ATOM     11  O   UNL     1      20.717  18.620   7.225  1.00  0.00    -0.341 OA
ATOM     12  C   UNL     1      21.578  17.305   5.473  1.00  0.00     0.202 C 
ATOM     13  C   UNL     1      22.475  16.873   6.619  1.00  0.00     0.179 C 
ATOM     14  C   UNL     1      21.666  16.504   7.846  1.00  0.00     0.177 C 
BRANCH  10  15
ATOM     15  O   UNL     1      21.288  19.688   5.256  1.00  0.00    -0.341 OA
BRANCH  15  16
ATOM     16  C   UNL     1      21.341  20.861   5.879  1.00  0.00     0.184 C 
ATOM     17  C   UNL     1      20.474  21.981   5.342  1.00  0.00     0.178 C 
ATOM     18  O   UNL     1      20.263  22.871   6.400  1.00  0.00    -0.341 OA
ATOM     19  C   UNL     1      21.478  23.605   6.524  1.00  0.00     0.281 C 
ATOM     20  C   UNL     1      22.721  21.474   6.041  1.00  0.00     0.180 C 
ATOM     21  C   UNL     1      22.518  22.619   7.015  1.00  0.00     0.202 C 
BRANCH  17  22
ATOM     22  C   UNL     1      19.183  21.535   4.744  1.00  0.00     0.191 C 
BRANCH  22  23
ATOM     23  O   UNL     1      19.451  21.016   3.480  1.00  0.00    -0.394 OA
ATOM     24  H   UNL     1      19.917  20.139   3.563  1.00  0.00     0.210 HD
ENDBRANCH  22  23
ENDBRANCH  17  22
BRANCH  19  25
ATOM     25  O   UNL     1      21.259  24.507   7.516  1.00  0.00    -0.350 OA
BRANCH  25  26
ATOM     26  C   UNL     1      20.548  24.154   8.610  1.00  0.00     0.169 C 
BRANCH  26  27
ATOM     27  C   UNL     1      21.088  24.526   9.947  1.00  0.00     0.119 C 
BRANCH  27  28
ATOM     28  N   UNL     1      22.521  24.690   9.992  1.00  0.00    -0.092 NA
ATOM     29  N   UNL     1      23.016  25.421  10.838  1.00  0.00     0.001 N 
ATOM     30  N   UNL     1      23.393  26.115  11.788  1.00  0.00    -0.003 NA
ENDBRANCH  27  28
ENDBRANCH  26  27
ENDBRANCH  25  26
ENDBRANCH  19  25
BRANCH  20  31
ATOM     31  O   UNL     1      23.599  20.590   6.651  1.00  0.00    -0.387 OA
ATOM     32  H   UNL     1      24.244  20.178   6.044  1.00  0.00     0.211 HD
ENDBRANCH  20  31
BRANCH  21  33
ATOM     33  O   UNL     1      23.694  23.223   7.393  1.00  0.00    -0.385 OA
ATOM     34  H   UNL     1      23.926  23.175   8.336  1.00  0.00     0.211 HD
ENDBRANCH  21  33
ENDBRANCH  15  16
ENDBRANCH  10  15
BRANCH  12  35
ATOM     35  O   UNL     1      20.726  16.229   5.199  1.00  0.00    -0.385 OA
ATOM     36  H   UNL     1      19.796  16.434   5.507  1.00  0.00     0.211 HD
ENDBRANCH  12  35
BRANCH  13  37
ATOM     37  O   UNL     1      23.313  17.929   6.988  1.00  0.00    -0.387 OA
ATOM     38  H   UNL     1      24.214  17.820   6.546  1.00  0.00     0.211 HD
ENDBRANCH  13  37
BRANCH  14  39
ATOM     39  O   UNL     1      22.468  16.784   8.950  1.00  0.00    -0.387 OA
ATOM     40  H   UNL     1      23.386  16.926   8.576  1.00  0.00     0.211 HD
ENDBRANCH  14  39
ENDBRANCH   8   9
ENDBRANCH   7   8
ENDBRANCH   1   7
BRANCH   1  41
ATOM     41  C   UNL     1      18.777  19.399  11.645  1.00  0.00     0.364 C 
ATOM     42  O   UNL     1      18.462  20.501  12.189  1.00  0.00    -0.246 OA
BRANCH  41  43
ATOM     43  O   UNL     1      18.182  18.277  12.159  1.00  0.00    -0.477 OA
ATOM     44  H   UNL     1      18.614  17.435  12.460  1.00  0.00     0.296 HD
ENDBRANCH  41  43
ENDBRANCH   1  41
BRANCH   3  45
ATOM     45  O   UNL     1      22.193  19.865   9.207  1.00  0.00    -0.391 OA
ATOM     46  H   UNL     1      22.103  18.965   9.622  1.00  0.00     0.211 HD
ENDBRANCH   3  45
BRANCH   5  47
ATOM     47  C   UNL     1      22.767  18.295  12.130  1.00  0.00     0.176 C 
BRANCH  47  48
ATOM     48  O   UNL     1      23.595  18.054  11.050  1.00  0.00    -0.388 OA
ATOM     49  H   UNL     1      24.487  17.708  11.269  1.00  0.00     0.211 HD
ENDBRANCH  47  48
BRANCH  47  50
ATOM     50  C   UNL     1      23.531  18.365  13.394  1.00  0.00     0.165 C 
BRANCH  50  51
ATOM     51  O   UNL     1      22.987  19.119  14.407  1.00  0.00    -0.388 OA
ATOM     52  H   UNL     1      22.439  19.886  14.126  1.00  0.00     0.211 HD
ENDBRANCH  50  51
BRANCH  50  53
ATOM     53  C   UNL     1      25.020  18.327  13.289  1.00  0.00     0.154 C 
BRANCH  53  54
ATOM     54  N   UNL     1      25.619  19.599  13.131  1.00  0.00    -0.319 N 
ATOM     55  C   UNL     1      26.280  20.002  11.919  1.00  0.00     0.407 C 
ATOM     56  H   UNL     1      25.591  20.299  13.912  1.00  0.00     0.167 HD
ATOM     57  O   UNL     1      26.375  19.265  10.920  1.00  0.00    -0.225 OA
BRANCH  55  58
ATOM     58  O   UNL     1      26.850  21.272  11.819  1.00  0.00    -0.443 OA
BRANCH  58  59
ATOM     59  C   UNL     1      28.210  21.479  12.215  1.00  0.00     0.294 C 
BRANCH  59  60
ATOM     60  C   UNL     1      28.353  21.365  13.680  1.00  0.00     0.120 A 
ATOM     61  C   UNL     1      29.317  20.817  14.476  1.00  0.00     0.138 A 
ATOM     62  N   UNL     1      27.425  21.852  14.555  1.00  0.00    -0.132 NA
ATOM     63  N   UNL     1      28.981  20.973  15.757  1.00  0.00    -0.251 N 
ATOM     64  N   UNL     1      27.797  21.620  15.777  1.00  0.00    -0.067 NA
BRANCH  63  65
ATOM     65  C   UNL     1      29.662  20.571  16.947  1.00  0.00     0.161 C 
BRANCH  65  66
ATOM     66  C   UNL     1      29.078  19.387  17.624  1.00  0.00     0.108 C 
BRANCH  66  67
ATOM     67  N   UNL     1      28.487  19.529  18.888  1.00  0.00    -0.301 NA
ATOM     68  C   UNL     1      28.912  18.744  19.977  1.00  0.00     0.084 C 
ATOM     69  C   UNL     1      28.202  20.869  19.303  1.00  0.00     0.084 C 
ATOM     70  C   UNL     1      29.121  19.669  21.166  1.00  0.00     0.017 C 
ATOM     71  C   UNL     1      28.430  20.945  20.781  1.00  0.00     0.017 C 
ENDBRANCH  66  67
ENDBRANCH  65  66
ENDBRANCH  63  65
ENDBRANCH  59  60
ENDBRANCH  58  59
ENDBRANCH  55  58
ENDBRANCH  53  54
ENDBRANCH  50  53
ENDBRANCH  47  50
ENDBRANCH   5  47
BRANCH   4  72
ATOM     72  N   UNL     1      21.889  21.758  12.228  1.00  0.00    -0.348 N 
ATOM     73  C   UNL     1      22.722  22.343  13.224  1.00  0.00     0.217 C 
ATOM     74  H   UNL     1      20.966  22.209  12.092  1.00  0.00     0.163 HD
ATOM     75  C   UNL     1      22.221  23.532  13.998  1.00  0.00     0.114 C 
ATOM     76  O   UNL     1      23.838  21.866  13.437  1.00  0.00    -0.275 OA
ENDBRANCH   4  72
TORSDOF 32
