REMARK VINA RESULT:    -6.352      4.208      8.463
REMARK INTER + INTRA:         -22.384
REMARK INTER:                 -15.255
REMARK INTRA:                  -7.129
REMARK UNBOUND:                -5.634
REMARK SMILES CC(=O)N[C@@H]1[C@@H](O)C[C@](OC[C@H]2O[C@@H](O[C@H]3[C@H](O)[C@@H](O)[C@H](OCCN=[N+]=[N-])O[C@@H]3CO)[C@H](O)[C@@H](O)[C@H]2O)(C(=O)O)O[C@H]1C(O)[C@H](O)CNC(=O)OCc1cn(Cc2ccccc2OC(C)=O)nn1
REMARK SMILES IDX 43 1 42 2 9 3 8 4 41 5 6 6 5 7 10 8 11 9 12 10 14 11 13 12
REMARK SMILES IDX 32 13 34 14 36 15 15 16 16 17 29 18 28 19 21 20 17 21 19 22
REMARK SMILES IDX 30 23 31 24 22 26 23 27 24 28 25 29 26 30 27 31 18 32 20 34
REMARK SMILES IDX 33 36 35 38 37 40 38 42 39 43 40 44 7 46 4 48 2 49 1 51 3 52
REMARK SMILES IDX 44 53 45 55 46 56 47 58 48 59 49 60 50 62 51 63 52 64 53 65
REMARK SMILES IDX 54 66 68 67 55 68 67 69 56 70 57 71 62 72 58 73 61 74 59 75
REMARK SMILES IDX 60 76 63 77 64 78 66 79 65 80
REMARK H PARENT 31 25 18 33 20 35 33 37 35 39 37 41 40 45 7 47 4 50 44 54
REMARK H PARENT 46 57 48 61
REMARK Flexibility Score: inf
ROOT
ATOM      1  C   UNL     1      16.665  28.562  20.047  1.00  0.00     0.176 C 
ENDROOT
BRANCH   1   2
ATOM      2  C   UNL     1      17.307  29.692  20.836  1.00  0.00     0.178 C 
ATOM      3  C   UNL     1      19.273  30.218  21.974  1.00  0.00     0.272 C 
ATOM      4  C   UNL     1      18.324  31.289  22.502  1.00  0.00     0.113 C 
ATOM      5  O   UNL     1      18.502  29.221  21.330  1.00  0.00    -0.332 OA
ATOM      6  C   UNL     1      17.138  30.548  23.097  1.00  0.00     0.145 C 
ATOM      7  C   UNL     1      16.337  30.008  21.976  1.00  0.00     0.142 C 
BRANCH   3   8
ATOM      8  O   UNL     1      19.963  29.577  22.958  1.00  0.00    -0.338 OA
BRANCH   8   9
ATOM      9  C   UNL     1      21.320  29.636  22.952  1.00  0.00     0.199 C 
BRANCH   9  10
ATOM     10  C   UNL     1      21.850  28.261  23.397  1.00  0.00     0.179 C 
ATOM     11  C   UNL     1      21.535  26.645  25.001  1.00  0.00     0.282 C 
ATOM     12  O   UNL     1      21.020  27.870  24.453  1.00  0.00    -0.341 OA
ATOM     13  C   UNL     1      21.179  25.600  24.004  1.00  0.00     0.202 C 
ATOM     14  C   UNL     1      22.017  25.901  22.749  1.00  0.00     0.179 C 
ATOM     15  C   UNL     1      21.803  27.293  22.260  1.00  0.00     0.177 C 
BRANCH  11  16
ATOM     16  O   UNL     1      20.955  26.570  26.244  1.00  0.00    -0.341 OA
BRANCH  16  17
ATOM     17  C   UNL     1      21.846  26.989  27.250  1.00  0.00     0.184 C 
ATOM     18  C   UNL     1      22.092  25.972  28.301  1.00  0.00     0.178 C 
ATOM     19  O   UNL     1      22.033  26.498  29.596  1.00  0.00    -0.341 OA
ATOM     20  C   UNL     1      22.737  27.684  29.760  1.00  0.00     0.281 C 
ATOM     21  C   UNL     1      21.110  28.154  28.011  1.00  0.00     0.180 C 
ATOM     22  C   UNL     1      22.175  28.786  28.864  1.00  0.00     0.202 C 
BRANCH  18  23
ATOM     23  C   UNL     1      23.292  25.098  28.107  1.00  0.00     0.191 C 
BRANCH  23  24
ATOM     24  O   UNL     1      23.619  24.497  29.313  1.00  0.00    -0.394 OA
ATOM     25  H   UNL     1      24.371  23.880  29.195  1.00  0.00     0.210 HD
ENDBRANCH  23  24
ENDBRANCH  18  23
BRANCH  20  26
ATOM     26  O   UNL     1      24.044  27.533  29.456  1.00  0.00    -0.350 OA
BRANCH  26  27
ATOM     27  C   UNL     1      25.000  27.638  30.397  1.00  0.00     0.169 C 
BRANCH  27  28
ATOM     28  C   UNL     1      26.365  27.134  30.093  1.00  0.00     0.119 C 
BRANCH  28  29
ATOM     29  N   UNL     1      26.455  25.729  30.301  1.00  0.00    -0.092 NA
ATOM     30  N   UNL     1      27.205  25.227  31.109  1.00  0.00     0.001 N 
ATOM     31  N   UNL     1      27.799  24.858  32.126  1.00  0.00    -0.003 NA
ENDBRANCH  28  29
ENDBRANCH  27  28
ENDBRANCH  26  27
ENDBRANCH  20  26
BRANCH  21  32
ATOM     32  O   UNL     1      20.540  29.006  27.098  1.00  0.00    -0.387 OA
ATOM     33  H   UNL     1      19.595  28.712  26.896  1.00  0.00     0.211 HD
ENDBRANCH  21  32
BRANCH  22  34
ATOM     34  O   UNL     1      21.714  29.875  29.569  1.00  0.00    -0.385 OA
ATOM     35  H   UNL     1      20.935  29.565  30.114  1.00  0.00     0.211 HD
ENDBRANCH  22  34
ENDBRANCH  16  17
ENDBRANCH  11  16
BRANCH  13  36
ATOM     36  O   UNL     1      21.551  24.319  24.381  1.00  0.00    -0.385 OA
ATOM     37  H   UNL     1      21.132  24.000  25.208  1.00  0.00     0.211 HD
ENDBRANCH  13  36
BRANCH  14  38
ATOM     38  O   UNL     1      21.759  24.946  21.764  1.00  0.00    -0.387 OA
ATOM     39  H   UNL     1      22.592  24.399  21.682  1.00  0.00     0.211 HD
ENDBRANCH  14  38
BRANCH  15  40
ATOM     40  O   UNL     1      20.595  27.330  21.567  1.00  0.00    -0.387 OA
ATOM     41  H   UNL     1      19.998  28.044  21.861  1.00  0.00     0.211 HD
ENDBRANCH  15  40
ENDBRANCH   9  10
ENDBRANCH   8   9
ENDBRANCH   3   8
BRANCH   3  42
ATOM     42  C   UNL     1      20.120  30.890  20.964  1.00  0.00     0.364 C 
ATOM     43  O   UNL     1      20.385  32.089  21.014  1.00  0.00    -0.246 OA
BRANCH  42  44
ATOM     44  O   UNL     1      20.638  30.126  19.915  1.00  0.00    -0.477 OA
ATOM     45  H   UNL     1      20.888  30.554  19.011  1.00  0.00     0.296 HD
ENDBRANCH  42  44
ENDBRANCH   3  42
BRANCH   6  46
ATOM     46  O   UNL     1      17.681  29.472  23.805  1.00  0.00    -0.391 OA
ATOM     47  H   UNL     1      17.353  29.403  24.732  1.00  0.00     0.211 HD
ENDBRANCH   6  46
BRANCH   7  48
ATOM     48  N   UNL     1      15.256  30.772  21.510  1.00  0.00    -0.348 N 
ATOM     49  C   UNL     1      13.892  30.490  21.800  1.00  0.00     0.217 C 
ATOM     50  H   UNL     1      15.474  31.613  20.902  1.00  0.00     0.163 HD
ATOM     51  C   UNL     1      12.785  31.316  21.292  1.00  0.00     0.114 C 
ATOM     52  O   UNL     1      13.668  29.503  22.513  1.00  0.00    -0.275 OA
ENDBRANCH   7  48
ENDBRANCH   1   2
BRANCH   1  53
ATOM     53  O   UNL     1      15.657  28.047  20.842  1.00  0.00    -0.388 OA
ATOM     54  H   UNL     1      15.631  28.406  21.754  1.00  0.00     0.211 HD
ENDBRANCH   1  53
BRANCH   1  55
ATOM     55  C   UNL     1      16.248  28.951  18.668  1.00  0.00     0.165 C 
BRANCH  55  56
ATOM     56  O   UNL     1      14.911  28.578  18.506  1.00  0.00    -0.388 OA
ATOM     57  H   UNL     1      14.810  27.625  18.365  1.00  0.00     0.211 HD
ENDBRANCH  55  56
BRANCH  55  58
ATOM     58  C   UNL     1      17.115  28.342  17.593  1.00  0.00     0.154 C 
BRANCH  58  59
ATOM     59  N   UNL     1      18.508  28.611  17.729  1.00  0.00    -0.319 N 
ATOM     60  C   UNL     1      19.238  29.492  16.890  1.00  0.00     0.407 C 
ATOM     61  H   UNL     1      19.052  28.135  18.499  1.00  0.00     0.167 HD
ATOM     62  O   UNL     1      18.616  30.069  15.964  1.00  0.00    -0.225 OA
BRANCH  60  63
ATOM     63  O   UNL     1      20.582  29.744  17.033  1.00  0.00    -0.443 OA
BRANCH  63  64
ATOM     64  C   UNL     1      21.587  28.886  16.495  1.00  0.00     0.294 C 
BRANCH  64  65
ATOM     65  C   UNL     1      21.864  27.754  17.391  1.00  0.00     0.120 A 
ATOM     66  C   UNL     1      22.555  26.627  17.014  1.00  0.00     0.138 A 
ATOM     67  N   UNL     1      21.540  27.571  18.677  1.00  0.00    -0.132 NA
ATOM     68  N   UNL     1      22.634  25.799  18.057  1.00  0.00    -0.248 N 
ATOM     69  N   UNL     1      21.995  26.415  19.069  1.00  0.00    -0.067 NA
BRANCH  68  70
ATOM     70  C   UNL     1      23.246  24.489  18.169  1.00  0.00     0.185 C 
BRANCH  70  71
ATOM     71  C   UNL     1      24.700  24.549  17.983  1.00  0.00     0.016 A 
ATOM     72  C   UNL     1      25.312  24.005  16.908  1.00  0.00     0.135 A 
ATOM     73  C   UNL     1      25.436  25.213  18.969  1.00  0.00     0.009 A 
ATOM     74  C   UNL     1      26.699  24.115  16.793  1.00  0.00     0.047 A 
ATOM     75  C   UNL     1      26.797  25.315  18.846  1.00  0.00     0.001 A 
ATOM     76  C   UNL     1      27.439  24.768  17.759  1.00  0.00     0.004 A 
BRANCH  72  77
ATOM     77  O   UNL     1      24.629  23.339  15.910  1.00  0.00    -0.426 OA
BRANCH  77  78
ATOM     78  C   UNL     1      24.068  24.101  14.880  1.00  0.00     0.308 C 
ATOM     79  O   UNL     1      24.769  24.981  14.334  1.00  0.00    -0.252 OA
ATOM     80  C   UNL     1      22.685  23.858  14.462  1.00  0.00     0.139 C 
ENDBRANCH  77  78
ENDBRANCH  72  77
ENDBRANCH  70  71
ENDBRANCH  68  70
ENDBRANCH  64  65
ENDBRANCH  63  64
ENDBRANCH  60  63
ENDBRANCH  58  59
ENDBRANCH  55  58
ENDBRANCH   1  55
TORSDOF 33
