REMARK VINA RESULT:    -6.510      1.870      2.602
REMARK INTER + INTRA:         -22.736
REMARK INTER:                 -16.217
REMARK INTRA:                  -6.518
REMARK UNBOUND:                -6.520
REMARK SMILES CC(=O)N[C@@H]1[C@@H](O)C[C@](OC[C@H]2O[C@@H](O[C@H]3[C@H](O)[C@@H](O)[C@H](OCCN=[N+]=[N-])O[C@@H]3CO)[C@H](O)[C@@H](O)[C@H]2O)(C(=O)O)O[C@H]1C(O)[C@H](O)CNC(=O)OCc1cn(-c2nc(C)nc(N)n2)nn1
REMARK SMILES IDX 9 1 8 2 6 3 5 4 42 5 41 6 10 7 11 8 12 9 14 10 13 11 32 12
REMARK SMILES IDX 34 13 36 14 15 15 16 16 29 17 28 18 21 19 17 20 19 21 30 22
REMARK SMILES IDX 31 23 22 25 23 26 24 27 25 28 26 29 27 30 18 31 20 33 33 35
REMARK SMILES IDX 35 37 37 39 38 41 39 42 40 43 7 45 43 47 44 48 45 50 46 51
REMARK SMILES IDX 47 53 48 54 49 55 50 57 51 58 52 59 53 60 54 61 65 62 55 63
REMARK SMILES IDX 64 64 56 65 63 66 57 67 61 68 58 69 60 70 59 71 62 72 4 75
REMARK SMILES IDX 2 76 1 78 3 79
REMARK H PARENT 31 24 18 32 20 34 33 36 35 38 37 40 40 44 7 46 44 49 46 52
REMARK H PARENT 48 56 62 73 62 74 4 77
REMARK Flexibility Score: inf
ROOT
ATOM      1  C   UNL     1      17.838  29.313  20.493  1.00  0.00     0.272 C 
ATOM      2  C   UNL     1      16.459  28.774  20.656  1.00  0.00     0.113 C 
ATOM      3  C   UNL     1      15.938  28.200  19.374  1.00  0.00     0.145 C 
ATOM      4  C   UNL     1      16.004  29.264  18.309  1.00  0.00     0.142 C 
ATOM      5  C   UNL     1      17.316  30.012  18.300  1.00  0.00     0.178 C 
ATOM      6  O   UNL     1      17.785  30.342  19.514  1.00  0.00    -0.332 OA
ENDROOT
BRANCH   1   7
ATOM      7  O   UNL     1      18.827  28.500  20.361  1.00  0.00    -0.338 OA
BRANCH   7   8
ATOM      8  C   UNL     1      20.087  28.425  20.164  1.00  0.00     0.199 C 
BRANCH   8   9
ATOM      9  C   UNL     1      21.067  27.466  20.749  1.00  0.00     0.179 C 
ATOM     10  C   UNL     1      21.561  25.995  22.340  1.00  0.00     0.282 C 
ATOM     11  O   UNL     1      20.493  26.660  21.677  1.00  0.00    -0.341 OA
ATOM     12  C   UNL     1      21.939  24.888  21.389  1.00  0.00     0.202 C 
ATOM     13  C   UNL     1      22.514  25.492  20.131  1.00  0.00     0.179 C 
ATOM     14  C   UNL     1      22.050  26.857  19.804  1.00  0.00     0.177 C 
BRANCH  10  15
ATOM     15  O   UNL     1      21.166  25.502  23.554  1.00  0.00    -0.341 OA
BRANCH  15  16
ATOM     16  C   UNL     1      21.903  25.981  24.623  1.00  0.00     0.184 C 
ATOM     17  C   UNL     1      22.564  24.938  25.460  1.00  0.00     0.178 C 
ATOM     18  O   UNL     1      22.252  25.037  26.809  1.00  0.00    -0.341 OA
ATOM     19  C   UNL     1      22.444  26.302  27.349  1.00  0.00     0.281 C 
ATOM     20  C   UNL     1      20.887  26.744  25.495  1.00  0.00     0.180 C 
ATOM     21  C   UNL     1      21.667  27.365  26.629  1.00  0.00     0.202 C 
BRANCH  17  22
ATOM     22  C   UNL     1      24.048  24.806  25.249  1.00  0.00     0.191 C 
BRANCH  22  23
ATOM     23  O   UNL     1      24.511  23.872  26.202  1.00  0.00    -0.394 OA
ATOM     24  H   UNL     1      25.423  24.067  26.507  1.00  0.00     0.210 HD
ENDBRANCH  22  23
ENDBRANCH  17  22
BRANCH  19  25
ATOM     25  O   UNL     1      23.757  26.675  27.414  1.00  0.00    -0.350 OA
BRANCH  25  26
ATOM     26  C   UNL     1      24.420  26.449  28.584  1.00  0.00     0.169 C 
BRANCH  26  27
ATOM     27  C   UNL     1      25.877  26.124  28.400  1.00  0.00     0.119 C 
BRANCH  27  28
ATOM     28  N   UNL     1      26.415  25.701  29.701  1.00  0.00    -0.092 NA
ATOM     29  N   UNL     1      27.639  25.636  29.797  1.00  0.00     0.001 N 
ATOM     30  N   UNL     1      28.725  25.076  30.061  1.00  0.00    -0.003 NA
ENDBRANCH  27  28
ENDBRANCH  26  27
ENDBRANCH  25  26
ENDBRANCH  19  25
BRANCH  20  31
ATOM     31  O   UNL     1      20.219  27.675  24.728  1.00  0.00    -0.387 OA
ATOM     32  H   UNL     1      20.157  27.384  23.777  1.00  0.00     0.211 HD
ENDBRANCH  20  31
BRANCH  21  33
ATOM     33  O   UNL     1      20.744  27.994  27.465  1.00  0.00    -0.385 OA
ATOM     34  H   UNL     1      21.194  28.446  28.221  1.00  0.00     0.211 HD
ENDBRANCH  21  33
ENDBRANCH  15  16
ENDBRANCH  10  15
BRANCH  12  35
ATOM     35  O   UNL     1      22.825  23.971  21.951  1.00  0.00    -0.385 OA
ATOM     36  H   UNL     1      23.360  23.579  21.217  1.00  0.00     0.211 HD
ENDBRANCH  12  35
BRANCH  13  37
ATOM     37  O   UNL     1      22.308  24.565  19.106  1.00  0.00    -0.387 OA
ATOM     38  H   UNL     1      23.011  23.870  19.069  1.00  0.00     0.211 HD
ENDBRANCH  13  37
BRANCH  14  39
ATOM     39  O   UNL     1      21.704  26.932  18.459  1.00  0.00    -0.387 OA
ATOM     40  H   UNL     1      21.097  27.728  18.378  1.00  0.00     0.211 HD
ENDBRANCH  14  39
ENDBRANCH   8   9
ENDBRANCH   7   8
ENDBRANCH   1   7
BRANCH   1  41
ATOM     41  C   UNL     1      18.004  30.192  21.765  1.00  0.00     0.364 C 
ATOM     42  O   UNL     1      17.756  31.384  21.636  1.00  0.00    -0.246 OA
BRANCH  41  43
ATOM     43  O   UNL     1      18.406  29.634  22.938  1.00  0.00    -0.477 OA
ATOM     44  H   UNL     1      18.989  30.122  23.633  1.00  0.00     0.296 HD
ENDBRANCH  41  43
ENDBRANCH   1  41
BRANCH   3  45
ATOM     45  O   UNL     1      16.648  27.118  18.905  1.00  0.00    -0.391 OA
ATOM     46  H   UNL     1      16.077  26.403  18.573  1.00  0.00     0.211 HD
ENDBRANCH   3  45
BRANCH   5  47
ATOM     47  C   UNL     1      18.340  29.419  17.363  1.00  0.00     0.176 C 
BRANCH  47  48
ATOM     48  O   UNL     1      17.755  28.486  16.524  1.00  0.00    -0.388 OA
ATOM     49  H   UNL     1      16.978  28.026  16.888  1.00  0.00     0.211 HD
ENDBRANCH  47  48
BRANCH  47  50
ATOM     50  C   UNL     1      18.990  30.518  16.584  1.00  0.00     0.165 C 
BRANCH  50  51
ATOM     51  O   UNL     1      18.568  30.430  15.245  1.00  0.00    -0.388 OA
ATOM     52  H   UNL     1      19.203  30.913  14.689  1.00  0.00     0.211 HD
ENDBRANCH  50  51
BRANCH  50  53
ATOM     53  C   UNL     1      20.481  30.516  16.598  1.00  0.00     0.154 C 
BRANCH  53  54
ATOM     54  N   UNL     1      21.034  29.180  16.596  1.00  0.00    -0.319 N 
ATOM     55  C   UNL     1      21.371  28.461  15.433  1.00  0.00     0.407 C 
ATOM     56  H   UNL     1      21.210  28.678  17.516  1.00  0.00     0.167 HD
ATOM     57  O   UNL     1      21.205  28.960  14.317  1.00  0.00    -0.225 OA
BRANCH  55  58
ATOM     58  O   UNL     1      21.896  27.174  15.489  1.00  0.00    -0.443 OA
BRANCH  58  59
ATOM     59  C   UNL     1      23.225  26.854  15.165  1.00  0.00     0.294 C 
BRANCH  59  60
ATOM     60  C   UNL     1      23.763  25.768  16.038  1.00  0.00     0.121 A 
ATOM     61  C   UNL     1      24.761  25.896  16.981  1.00  0.00     0.148 A 
ATOM     62  N   UNL     1      23.379  24.477  16.065  1.00  0.00    -0.131 NA
ATOM     63  N   UNL     1      24.953  24.692  17.547  1.00  0.00    -0.185 N 
ATOM     64  N   UNL     1      24.108  23.858  16.977  1.00  0.00    -0.059 NA
BRANCH  63  65
ATOM     65  C   UNL     1      25.907  24.436  18.568  1.00  0.00     0.257 A 
ATOM     66  N   UNL     1      25.484  24.196  19.824  1.00  0.00    -0.175 NA
ATOM     67  N   UNL     1      27.237  24.413  18.365  1.00  0.00    -0.196 NA
ATOM     68  C   UNL     1      26.351  23.943  20.838  1.00  0.00     0.225 A 
ATOM     69  C   UNL     1      28.120  24.168  19.338  1.00  0.00     0.133 A 
ATOM     70  N   UNL     1      27.675  23.935  20.569  1.00  0.00    -0.198 NA
ATOM     71  C   UNL     1      29.600  24.153  19.064  1.00  0.00     0.090 C 
BRANCH  68  72
ATOM     72  N   UNL     1      25.854  23.697  22.138  1.00  0.00    -0.368 N 
ATOM     73  H   UNL     1      25.452  24.458  22.719  1.00  0.00     0.159 HD
ATOM     74  H   UNL     1      25.881  22.741  22.542  1.00  0.00     0.159 HD
ENDBRANCH  68  72
ENDBRANCH  63  65
ENDBRANCH  59  60
ENDBRANCH  58  59
ENDBRANCH  55  58
ENDBRANCH  53  54
ENDBRANCH  50  53
ENDBRANCH  47  50
ENDBRANCH   5  47
BRANCH   4  75
ATOM     75  N   UNL     1      14.905  30.185  18.507  1.00  0.00    -0.348 N 
ATOM     76  C   UNL     1      14.003  30.484  17.447  1.00  0.00     0.217 C 
ATOM     77  H   UNL     1      14.730  30.666  19.425  1.00  0.00     0.163 HD
ATOM     78  C   UNL     1      12.894  31.422  17.665  1.00  0.00     0.114 C 
ATOM     79  O   UNL     1      14.161  29.942  16.331  1.00  0.00    -0.275 OA
ENDBRANCH   4  75
TORSDOF 31
