REMARK VINA RESULT:    -6.373     10.004     14.569
REMARK INTER + INTRA:         -21.544
REMARK INTER:                 -14.106
REMARK INTRA:                  -7.437
REMARK UNBOUND:                -5.485
REMARK SMILES CC(=O)N[C@@H]1[C@@H](O)C[C@](OC[C@H]2O[C@@H](O[C@H]3[C@H](O)[C@@H](O)[C@H](OCCN=[N+]=[N-])O[C@@H]3CO)[C@H](O)[C@@H](O)[C@H]2O)(C(=O)O)O[C@H]1C(O)[C@H](O)CNC(=O)OCc1cn(Cc2ccc(Br)cc2)nn1
REMARK SMILES IDX 9 1 8 2 6 3 5 4 42 5 41 6 10 7 11 8 12 9 14 10 13 11 32 12
REMARK SMILES IDX 34 13 36 14 15 15 16 16 29 17 28 18 21 19 17 20 19 21 30 22
REMARK SMILES IDX 31 23 22 25 23 26 24 27 25 28 26 29 27 30 18 31 20 33 33 35
REMARK SMILES IDX 35 37 37 39 38 41 39 42 40 43 7 45 43 47 44 48 45 50 46 51
REMARK SMILES IDX 47 53 48 54 49 55 50 57 51 58 52 59 53 60 54 61 65 62 55 63
REMARK SMILES IDX 64 64 56 65 57 66 58 67 63 68 59 69 62 70 60 71 61 72 4 73
REMARK SMILES IDX 2 74 1 76 3 77
REMARK H PARENT 31 24 18 32 20 34 33 36 35 38 37 40 40 44 7 46 44 49 46 52
REMARK H PARENT 48 56 4 75
REMARK Flexibility Score: inf
ROOT
ATOM      1  C   UNL     1      34.102  16.578  25.560  1.00  0.00     0.272 C 
ATOM      2  C   UNL     1      35.217  16.689  24.585  1.00  0.00     0.113 C 
ATOM      3  C   UNL     1      35.505  18.006  23.982  1.00  0.00     0.145 C 
ATOM      4  C   UNL     1      34.320  19.006  24.061  1.00  0.00     0.142 C 
ATOM      5  C   UNL     1      33.127  18.089  24.043  1.00  0.00     0.178 C 
ATOM      6  O   UNL     1      33.119  17.564  25.366  1.00  0.00    -0.332 OA
ENDROOT
BRANCH   1   7
ATOM      7  O   UNL     1      34.341  16.319  26.841  1.00  0.00    -0.338 OA
BRANCH   7   8
ATOM      8  C   UNL     1      35.225  16.621  27.714  1.00  0.00     0.199 C 
BRANCH   8   9
ATOM      9  C   UNL     1      34.750  17.406  28.914  1.00  0.00     0.179 C 
ATOM     10  C   UNL     1      34.287  19.469  29.735  1.00  0.00     0.282 C 
ATOM     11  O   UNL     1      34.900  18.759  28.764  1.00  0.00    -0.341 OA
ATOM     12  C   UNL     1      33.819  18.694  30.953  1.00  0.00     0.202 C 
ATOM     13  C   UNL     1      33.023  17.469  30.563  1.00  0.00     0.179 C 
ATOM     14  C   UNL     1      33.244  17.154  29.091  1.00  0.00     0.177 C 
BRANCH  10  15
ATOM     15  O   UNL     1      33.275  20.296  29.377  1.00  0.00    -0.341 OA
BRANCH  15  16
ATOM     16  C   UNL     1      33.436  21.434  28.689  1.00  0.00     0.184 C 
ATOM     17  C   UNL     1      33.188  22.711  29.424  1.00  0.00     0.178 C 
ATOM     18  O   UNL     1      32.129  23.433  28.947  1.00  0.00    -0.341 OA
ATOM     19  C   UNL     1      32.262  23.847  27.629  1.00  0.00     0.281 C 
ATOM     20  C   UNL     1      32.559  21.403  27.455  1.00  0.00     0.180 C 
ATOM     21  C   UNL     1      32.728  22.717  26.733  1.00  0.00     0.202 C 
BRANCH  17  22
ATOM     22  C   UNL     1      34.461  23.524  29.455  1.00  0.00     0.191 C 
BRANCH  22  23
ATOM     23  O   UNL     1      34.304  24.695  30.224  1.00  0.00    -0.394 OA
ATOM     24  H   UNL     1      35.091  24.868  30.770  1.00  0.00     0.210 HD
ENDBRANCH  22  23
ENDBRANCH  17  22
BRANCH  19  25
ATOM     25  O   UNL     1      33.050  24.974  27.465  1.00  0.00    -0.350 OA
BRANCH  25  26
ATOM     26  C   UNL     1      32.440  26.042  26.864  1.00  0.00     0.169 C 
BRANCH  26  27
ATOM     27  C   UNL     1      33.375  26.931  26.098  1.00  0.00     0.119 C 
BRANCH  27  28
ATOM     28  N   UNL     1      33.926  26.211  24.957  1.00  0.00    -0.092 NA
ATOM     29  N   UNL     1      33.173  25.715  24.122  1.00  0.00     0.001 N 
ATOM     30  N   UNL     1      32.534  24.984  23.331  1.00  0.00    -0.003 NA
ENDBRANCH  27  28
ENDBRANCH  26  27
ENDBRANCH  25  26
ENDBRANCH  19  25
BRANCH  20  31
ATOM     31  O   UNL     1      33.086  20.402  26.614  1.00  0.00    -0.387 OA
ATOM     32  H   UNL     1      32.649  19.528  26.816  1.00  0.00     0.211 HD
ENDBRANCH  20  31
BRANCH  21  33
ATOM     33  O   UNL     1      32.079  22.729  25.504  1.00  0.00    -0.385 OA
ATOM     34  H   UNL     1      32.777  22.644  24.805  1.00  0.00     0.211 HD
ENDBRANCH  21  33
ENDBRANCH  15  16
ENDBRANCH  10  15
BRANCH  12  35
ATOM     35  O   UNL     1      34.847  18.319  31.801  1.00  0.00    -0.385 OA
ATOM     36  H   UNL     1      35.593  18.959  31.853  1.00  0.00     0.211 HD
ENDBRANCH  12  35
BRANCH  13  37
ATOM     37  O   UNL     1      31.667  17.585  30.845  1.00  0.00    -0.387 OA
ATOM     38  H   UNL     1      31.217  17.834  30.001  1.00  0.00     0.211 HD
ENDBRANCH  13  37
BRANCH  14  39
ATOM     39  O   UNL     1      32.597  18.082  28.266  1.00  0.00    -0.387 OA
ATOM     40  H   UNL     1      31.920  18.564  28.780  1.00  0.00     0.211 HD
ENDBRANCH  14  39
ENDBRANCH   8   9
ENDBRANCH   7   8
ENDBRANCH   1   7
BRANCH   1  41
ATOM     41  C   UNL     1      33.337  15.314  25.133  1.00  0.00     0.364 C 
ATOM     42  O   UNL     1      33.807  14.636  24.222  1.00  0.00    -0.246 OA
BRANCH  41  43
ATOM     43  O   UNL     1      32.165  14.924  25.726  1.00  0.00    -0.477 OA
ATOM     44  H   UNL     1      32.140  14.049  26.274  1.00  0.00     0.296 HD
ENDBRANCH  41  43
ENDBRANCH   1  41
BRANCH   3  45
ATOM     45  O   UNL     1      36.690  18.615  24.361  1.00  0.00    -0.391 OA
ATOM     46  H   UNL     1      36.590  18.944  25.280  1.00  0.00     0.211 HD
ENDBRANCH   3  45
BRANCH   5  47
ATOM     47  C   UNL     1      31.803  18.683  23.741  1.00  0.00     0.176 C 
BRANCH  47  48
ATOM     48  O   UNL     1      31.630  19.914  24.281  1.00  0.00    -0.388 OA
ATOM     49  H   UNL     1      32.053  20.015  25.141  1.00  0.00     0.211 HD
ENDBRANCH  47  48
BRANCH  47  50
ATOM     50  C   UNL     1      31.218  18.516  22.401  1.00  0.00     0.165 C 
BRANCH  50  51
ATOM     51  O   UNL     1      31.875  19.282  21.425  1.00  0.00    -0.388 OA
ATOM     52  H   UNL     1      32.223  20.130  21.738  1.00  0.00     0.211 HD
ENDBRANCH  50  51
BRANCH  50  53
ATOM     53  C   UNL     1      29.755  18.556  22.222  1.00  0.00     0.154 C 
BRANCH  53  54
ATOM     54  N   UNL     1      29.266  19.598  21.335  1.00  0.00    -0.319 N 
ATOM     55  C   UNL     1      28.948  20.896  21.811  1.00  0.00     0.407 C 
ATOM     56  H   UNL     1      29.126  19.446  20.304  1.00  0.00     0.167 HD
ATOM     57  O   UNL     1      29.102  21.174  23.043  1.00  0.00    -0.225 OA
BRANCH  55  58
ATOM     58  O   UNL     1      28.462  21.915  20.997  1.00  0.00    -0.443 OA
BRANCH  58  59
ATOM     59  C   UNL     1      28.763  23.289  21.305  1.00  0.00     0.294 C 
BRANCH  59  60
ATOM     60  C   UNL     1      27.556  24.129  21.359  1.00  0.00     0.120 A 
ATOM     61  C   UNL     1      26.308  23.704  21.772  1.00  0.00     0.138 A 
ATOM     62  N   UNL     1      27.434  25.414  21.026  1.00  0.00    -0.132 NA
ATOM     63  N   UNL     1      25.468  24.742  21.678  1.00  0.00    -0.248 N 
ATOM     64  N   UNL     1      26.175  25.757  21.225  1.00  0.00    -0.067 NA
BRANCH  63  65
ATOM     65  C   UNL     1      24.060  24.798  22.016  1.00  0.00     0.181 C 
BRANCH  65  66
ATOM     66  C   UNL     1      23.794  24.788  23.472  1.00  0.00    -0.026 A 
ATOM     67  C   UNL     1      22.468  24.655  23.894  1.00  0.00     0.007 A 
ATOM     68  C   UNL     1      24.760  24.885  24.432  1.00  0.00     0.007 A 
ATOM     69  C   UNL     1      22.167  24.626  25.245  1.00  0.00     0.016 A 
ATOM     70  C   UNL     1      24.470  24.857  25.797  1.00  0.00     0.016 A 
ATOM     71  C   UNL     1      23.168  24.725  26.195  1.00  0.00     0.017 A 
ATOM     72  Br  UNL     1      22.711  24.677  28.064  1.00  0.00    -0.051 Br
ENDBRANCH  65  66
ENDBRANCH  63  65
ENDBRANCH  59  60
ENDBRANCH  58  59
ENDBRANCH  55  58
ENDBRANCH  53  54
ENDBRANCH  50  53
ENDBRANCH  47  50
ENDBRANCH   5  47
BRANCH   4  73
ATOM     73  N   UNL     1      34.426  19.953  23.013  1.00  0.00    -0.348 N 
ATOM     74  C   UNL     1      34.699  21.314  23.296  1.00  0.00     0.217 C 
ATOM     75  H   UNL     1      34.322  19.658  22.027  1.00  0.00     0.163 HD
ATOM     76  C   UNL     1      34.837  22.374  22.295  1.00  0.00     0.114 C 
ATOM     77  O   UNL     1      34.842  21.654  24.525  1.00  0.00    -0.275 OA
ENDBRANCH   4  73
TORSDOF 31
