REMARK VINA RESULT:    -4.872      5.827      8.905
REMARK INTER + INTRA:         -21.628
REMARK INTER:                 -13.804
REMARK INTRA:                  -7.824
REMARK UNBOUND:                -8.780
REMARK SMILES COc1ccc(Cn2cc(COC(=O)NC[C@@H](O)C(O)[C@@H]3O[C@@](OC[C@H]4O[C@@H](O[C@H]5[C@H](O)[C@@H](O)[C@H](OCCN=[N+]=[N-])O[C@@H]5CO)[C@H](O)[C@@H](O)[C@H]4O)(C(=O)O)C[C@H](O)[C@H]3NC(C)=O)nn2)cc1OC
REMARK SMILES IDX 23 1 55 2 56 3 58 4 21 5 22 6 24 7 25 8 26 9 28 10 27 11
REMARK SMILES IDX 46 12 48 13 50 14 29 15 30 16 43 17 42 18 35 19 31 20 33 21
REMARK SMILES IDX 44 22 45 23 36 25 37 26 38 27 39 28 40 29 41 30 32 31 34 33
REMARK SMILES IDX 47 35 49 37 51 39 52 41 53 42 54 43 57 45 19 47 20 48 17 50
REMARK SMILES IDX 18 51 16 53 15 54 13 55 14 57 12 58 11 59 10 60 9 61 63 62
REMARK SMILES IDX 8 63 64 64 7 65 6 66 65 67 5 68 66 69 4 70 3 71 67 72 68 73
REMARK SMILES IDX 2 74 1 75 59 76 60 77 61 79 62 80
REMARK H PARENT 45 24 32 32 34 34 47 36 49 38 51 40 54 44 57 46 20 49 18 52
REMARK H PARENT 15 56 59 78
REMARK Flexibility Score: inf
ROOT
ATOM      1  C   UNL     1      20.155  30.741  23.089  1.00  0.00     0.272 C 
ATOM      2  C   UNL     1      21.326  31.264  22.276  1.00  0.00     0.113 C 
ATOM      3  C   UNL     1      22.083  30.310  21.425  1.00  0.00     0.145 C 
ATOM      4  C   UNL     1      21.867  28.887  21.933  1.00  0.00     0.142 C 
ATOM      5  C   UNL     1      21.678  29.017  23.392  1.00  0.00     0.178 C 
ATOM      6  O   UNL     1      20.399  29.472  23.650  1.00  0.00    -0.332 OA
ENDROOT
BRANCH   1   7
ATOM      7  O   UNL     1      19.126  30.609  22.165  1.00  0.00    -0.338 OA
BRANCH   7   8
ATOM      8  C   UNL     1      18.051  31.433  22.299  1.00  0.00     0.199 C 
BRANCH   8   9
ATOM      9  C   UNL     1      16.778  30.730  21.915  1.00  0.00     0.179 C 
ATOM     10  C   UNL     1      15.822  29.094  20.660  1.00  0.00     0.282 C 
ATOM     11  O   UNL     1      17.046  29.478  21.333  1.00  0.00    -0.341 OA
ATOM     12  C   UNL     1      14.821  28.708  21.648  1.00  0.00     0.202 C 
ATOM     13  C   UNL     1      14.741  29.681  22.813  1.00  0.00     0.179 C 
ATOM     14  C   UNL     1      16.005  30.351  23.186  1.00  0.00     0.177 C 
BRANCH  10  15
ATOM     15  O   UNL     1      16.175  28.112  19.758  1.00  0.00    -0.341 OA
BRANCH  15  16
ATOM     16  C   UNL     1      16.257  28.643  18.471  1.00  0.00     0.184 C 
ATOM     17  C   UNL     1      17.581  29.212  18.149  1.00  0.00     0.178 C 
ATOM     18  O   UNL     1      17.626  29.448  16.777  1.00  0.00    -0.341 OA
ATOM     19  C   UNL     1      16.459  29.898  16.270  1.00  0.00     0.281 C 
ATOM     20  C   UNL     1      15.185  29.736  18.373  1.00  0.00     0.180 C 
ATOM     21  C   UNL     1      15.579  30.674  17.224  1.00  0.00     0.202 C 
BRANCH  17  22
ATOM     22  C   UNL     1      18.729  28.339  18.599  1.00  0.00     0.191 C 
BRANCH  22  23
ATOM     23  O   UNL     1      19.200  28.890  19.790  1.00  0.00    -0.394 OA
ATOM     24  H   UNL     1      18.680  28.499  20.554  1.00  0.00     0.210 HD
ENDBRANCH  22  23
ENDBRANCH  17  22
BRANCH  19  25
ATOM     25  O   UNL     1      15.677  28.755  15.872  1.00  0.00    -0.350 OA
BRANCH  25  26
ATOM     26  C   UNL     1      15.751  28.687  14.467  1.00  0.00     0.169 C 
BRANCH  26  27
ATOM     27  C   UNL     1      14.531  29.279  13.784  1.00  0.00     0.119 C 
BRANCH  27  28
ATOM     28  N   UNL     1      13.466  28.315  13.816  1.00  0.00    -0.092 NA
ATOM     29  N   UNL     1      12.477  28.450  14.541  1.00  0.00     0.001 N 
ATOM     30  N   UNL     1      11.723  28.766  15.484  1.00  0.00    -0.003 NA
ENDBRANCH  27  28
ENDBRANCH  26  27
ENDBRANCH  25  26
ENDBRANCH  19  25
BRANCH  20  31
ATOM     31  O   UNL     1      14.000  29.118  18.007  1.00  0.00    -0.387 OA
ATOM     32  H   UNL     1      14.069  28.866  17.038  1.00  0.00     0.211 HD
ENDBRANCH  20  31
BRANCH  21  33
ATOM     33  O   UNL     1      16.284  31.729  17.754  1.00  0.00    -0.385 OA
ATOM     34  H   UNL     1      15.709  32.527  17.914  1.00  0.00     0.211 HD
ENDBRANCH  21  33
ENDBRANCH  15  16
ENDBRANCH  10  15
BRANCH  12  35
ATOM     35  O   UNL     1      13.549  28.662  21.102  1.00  0.00    -0.385 OA
ATOM     36  H   UNL     1      13.502  29.134  20.221  1.00  0.00     0.211 HD
ENDBRANCH  12  35
BRANCH  13  37
ATOM     37  O   UNL     1      14.191  28.975  23.915  1.00  0.00    -0.387 OA
ATOM     38  H   UNL     1      13.645  29.630  24.424  1.00  0.00     0.211 HD
ENDBRANCH  13  37
BRANCH  14  39
ATOM     39  O   UNL     1      16.863  29.481  23.895  1.00  0.00    -0.387 OA
ATOM     40  H   UNL     1      17.833  29.766  23.784  1.00  0.00     0.211 HD
ENDBRANCH  14  39
ENDBRANCH   8   9
ENDBRANCH   7   8
ENDBRANCH   1   7
BRANCH   1  41
ATOM     41  C   UNL     1      19.898  31.698  24.195  1.00  0.00     0.364 C 
ATOM     42  O   UNL     1      20.409  32.820  24.213  1.00  0.00    -0.246 OA
BRANCH  41  43
ATOM     43  O   UNL     1      19.062  31.403  25.306  1.00  0.00    -0.477 OA
ATOM     44  H   UNL     1      18.056  31.237  25.072  1.00  0.00     0.296 HD
ENDBRANCH  41  43
ENDBRANCH   1  41
BRANCH   3  45
ATOM     45  O   UNL     1      21.682  30.367  20.112  1.00  0.00    -0.391 OA
ATOM     46  H   UNL     1      21.156  31.202  19.946  1.00  0.00     0.211 HD
ENDBRANCH   3  45
BRANCH   5  47
ATOM     47  C   UNL     1      22.154  27.879  24.170  1.00  0.00     0.176 C 
BRANCH  47  48
ATOM     48  O   UNL     1      22.134  28.020  25.552  1.00  0.00    -0.388 OA
ATOM     49  H   UNL     1      21.359  27.661  25.998  1.00  0.00     0.211 HD
ENDBRANCH  47  48
BRANCH  47  50
ATOM     50  C   UNL     1      21.026  26.716  24.062  1.00  0.00     0.165 C 
BRANCH  50  51
ATOM     51  O   UNL     1      20.035  27.048  24.901  1.00  0.00    -0.388 OA
ATOM     52  H   UNL     1      20.301  27.738  25.578  1.00  0.00     0.211 HD
ENDBRANCH  50  51
BRANCH  50  53
ATOM     53  C   UNL     1      21.651  25.415  24.041  1.00  0.00     0.154 C 
BRANCH  53  54
ATOM     54  N   UNL     1      21.937  24.629  25.194  1.00  0.00    -0.319 N 
ATOM     55  C   UNL     1      23.243  24.750  25.729  1.00  0.00     0.407 C 
ATOM     56  H   UNL     1      21.309  23.981  25.662  1.00  0.00     0.167 HD
ATOM     57  O   UNL     1      24.100  25.520  25.182  1.00  0.00    -0.225 OA
BRANCH  55  58
ATOM     58  O   UNL     1      23.718  24.080  26.852  1.00  0.00    -0.443 OA
BRANCH  58  59
ATOM     59  C   UNL     1      22.810  24.029  28.006  1.00  0.00     0.294 C 
BRANCH  59  60
ATOM     60  C   UNL     1      23.214  25.234  28.787  1.00  0.00     0.120 A 
ATOM     61  C   UNL     1      22.346  25.989  29.611  1.00  0.00     0.138 A 
ATOM     62  N   UNL     1      24.429  25.754  28.913  1.00  0.00    -0.132 NA
ATOM     63  N   UNL     1      23.129  26.930  30.190  1.00  0.00    -0.248 N 
ATOM     64  N   UNL     1      24.340  26.788  29.778  1.00  0.00    -0.067 NA
BRANCH  63  65
ATOM     65  C   UNL     1      22.641  27.914  31.194  1.00  0.00     0.181 C 
BRANCH  65  66
ATOM     66  C   UNL     1      21.672  28.773  30.380  1.00  0.00    -0.023 A 
ATOM     67  C   UNL     1      21.998  29.270  29.137  1.00  0.00     0.056 A 
ATOM     68  C   UNL     1      20.417  28.928  30.874  1.00  0.00     0.010 A 
ATOM     69  C   UNL     1      20.940  29.928  28.447  1.00  0.00     0.161 A 
ATOM     70  C   UNL     1      19.369  29.593  30.165  1.00  0.00     0.051 A 
ATOM     71  C   UNL     1      19.703  30.077  28.929  1.00  0.00     0.160 A 
BRANCH  69  72
ATOM     72  O   UNL     1      21.207  30.462  27.185  1.00  0.00    -0.493 OA
ATOM     73  C   UNL     1      22.351  31.288  26.941  1.00  0.00     0.278 C 
ENDBRANCH  69  72
BRANCH  71  74
ATOM     74  O   UNL     1      18.720  30.729  28.133  1.00  0.00    -0.493 OA
ATOM     75  C   UNL     1      18.179  31.979  28.613  1.00  0.00     0.278 C 
ENDBRANCH  71  74
ENDBRANCH  65  66
ENDBRANCH  63  65
ENDBRANCH  59  60
ENDBRANCH  58  59
ENDBRANCH  55  58
ENDBRANCH  53  54
ENDBRANCH  50  53
ENDBRANCH  47  50
ENDBRANCH   5  47
BRANCH   4  76
ATOM     76  N   UNL     1      22.991  28.085  21.531  1.00  0.00    -0.348 N 
ATOM     77  C   UNL     1      22.792  27.005  20.664  1.00  0.00     0.217 C 
ATOM     78  H   UNL     1      23.985  28.275  21.838  1.00  0.00     0.163 HD
ATOM     79  C   UNL     1      23.844  26.063  20.173  1.00  0.00     0.114 C 
ATOM     80  O   UNL     1      21.624  26.704  20.185  1.00  0.00    -0.275 OA
ENDBRANCH   4  76
TORSDOF 33
