REMARK VINA RESULT:    -4.542     12.622     16.998
REMARK INTER + INTRA:         -21.452
REMARK INTER:                 -13.933
REMARK INTRA:                  -7.519
REMARK UNBOUND:                -8.679
REMARK SMILES CCOC(CCn1cc(COC(=O)NC[C@@H](O)C(O)[C@@H]2O[C@@](OC[C@H]3O[C@@H](O[C@H]4[C@H](O)[C@@H](O)[C@H](OCCN=[N+]=[N-])O[C@@H]4CO)[C@H](O)[C@@H](O)[C@H]3O)(C(=O)O)C[C@H](O)[C@H]2NC(C)=O)nn1)OCC
REMARK SMILES IDX 18 1 20 2 22 3 54 4 21 5 55 6 57 7 23 8 24 9 25 10 27 11
REMARK SMILES IDX 26 12 45 13 47 14 49 15 28 16 29 17 42 18 41 19 34 20 30 21
REMARK SMILES IDX 32 22 43 23 44 24 35 26 36 27 37 28 38 29 39 30 40 31 31 32
REMARK SMILES IDX 33 34 46 36 48 38 50 40 51 42 52 43 53 44 56 46 58 48 59 49
REMARK SMILES IDX 60 51 61 52 19 53 16 55 17 56 15 58 14 59 12 60 13 62 11 63
REMARK SMILES IDX 10 64 9 65 8 66 62 67 7 68 63 69 6 70 5 71 4 72 3 73 2 74
REMARK SMILES IDX 1 75 64 76 65 77 66 78
REMARK H PARENT 44 25 31 33 33 35 46 37 48 39 50 41 53 45 56 47 58 50 19 54
REMARK H PARENT 17 57 14 61
REMARK Flexibility Score: inf
ROOT
ATOM      1  C   UNL     1      10.404  23.245  37.407  1.00  0.00     0.176 C 
ENDROOT
BRANCH   1   2
ATOM      2  C   UNL     1       9.179  23.930  36.878  1.00  0.00     0.178 C 
ATOM      3  C   UNL     1       8.050  24.533  34.951  1.00  0.00     0.272 C 
ATOM      4  C   UNL     1       7.066  24.956  35.983  1.00  0.00     0.113 C 
ATOM      5  O   UNL     1       9.229  23.974  35.494  1.00  0.00    -0.332 OA
ATOM      6  C   UNL     1       7.613  25.716  37.141  1.00  0.00     0.145 C 
ATOM      7  C   UNL     1       9.104  25.397  37.314  1.00  0.00     0.142 C 
BRANCH   3   8
ATOM      8  O   UNL     1       8.409  25.409  34.009  1.00  0.00    -0.338 OA
BRANCH   8   9
ATOM      9  C   UNL     1       9.378  26.321  34.211  1.00  0.00     0.199 C 
BRANCH   9  10
ATOM     10  C   UNL     1       8.900  27.714  33.868  1.00  0.00     0.179 C 
ATOM     11  C   UNL     1       7.167  29.017  33.284  1.00  0.00     0.282 C 
ATOM     12  O   UNL     1       7.550  27.911  34.089  1.00  0.00    -0.341 OA
ATOM     13  C   UNL     1       7.752  30.243  33.880  1.00  0.00     0.202 C 
ATOM     14  C   UNL     1       9.252  30.096  33.980  1.00  0.00     0.179 C 
ATOM     15  C   UNL     1       9.702  28.793  34.588  1.00  0.00     0.177 C 
BRANCH  11  16
ATOM     16  O   UNL     1       5.774  29.021  33.159  1.00  0.00    -0.341 OA
BRANCH  16  17
ATOM     17  C   UNL     1       5.438  28.550  31.929  1.00  0.00     0.184 C 
ATOM     18  C   UNL     1       4.387  29.250  31.158  1.00  0.00     0.178 C 
ATOM     19  O   UNL     1       4.493  28.849  29.819  1.00  0.00    -0.341 OA
ATOM     20  C   UNL     1       4.140  27.497  29.686  1.00  0.00     0.281 C 
ATOM     21  C   UNL     1       4.921  27.079  32.030  1.00  0.00     0.180 C 
ATOM     22  C   UNL     1       4.970  26.595  30.574  1.00  0.00     0.202 C 
BRANCH  18  23
ATOM     23  C   UNL     1       4.561  30.738  31.214  1.00  0.00     0.191 C 
BRANCH  23  24
ATOM     24  O   UNL     1       5.834  31.139  30.808  1.00  0.00    -0.394 OA
ATOM     25  H   UNL     1       5.993  32.091  30.936  1.00  0.00     0.210 HD
ENDBRANCH  23  24
ENDBRANCH  18  23
BRANCH  20  26
ATOM     26  O   UNL     1       4.393  27.151  28.371  1.00  0.00    -0.350 OA
BRANCH  26  27
ATOM     27  C   UNL     1       5.372  27.850  27.732  1.00  0.00     0.169 C 
BRANCH  27  28
ATOM     28  C   UNL     1       5.151  27.822  26.243  1.00  0.00     0.119 C 
BRANCH  28  29
ATOM     29  N   UNL     1       5.877  26.690  25.672  1.00  0.00    -0.092 NA
ATOM     30  N   UNL     1       7.027  26.959  25.270  1.00  0.00     0.001 N 
ATOM     31  N   UNL     1       7.978  27.074  24.492  1.00  0.00    -0.003 NA
ENDBRANCH  28  29
ENDBRANCH  27  28
ENDBRANCH  26  27
ENDBRANCH  20  26
BRANCH  21  32
ATOM     32  O   UNL     1       5.740  26.319  32.821  1.00  0.00    -0.387 OA
ATOM     33  H   UNL     1       5.272  25.924  33.597  1.00  0.00     0.211 HD
ENDBRANCH  21  32
BRANCH  22  34
ATOM     34  O   UNL     1       4.514  25.309  30.463  1.00  0.00    -0.385 OA
ATOM     35  H   UNL     1       4.972  24.904  29.663  1.00  0.00     0.211 HD
ENDBRANCH  22  34
ENDBRANCH  16  17
ENDBRANCH  11  16
BRANCH  13  36
ATOM     36  O   UNL     1       7.534  31.364  33.064  1.00  0.00    -0.385 OA
ATOM     37  H   UNL     1       7.215  32.136  33.584  1.00  0.00     0.211 HD
ENDBRANCH  13  36
BRANCH  14  38
ATOM     38  O   UNL     1       9.843  31.197  34.589  1.00  0.00    -0.387 OA
ATOM     39  H   UNL     1      10.269  30.947  35.452  1.00  0.00     0.211 HD
ENDBRANCH  14  38
BRANCH  15  40
ATOM     40  O   UNL     1       9.447  28.724  35.949  1.00  0.00    -0.387 OA
ATOM     41  H   UNL     1      10.193  29.099  36.468  1.00  0.00     0.211 HD
ENDBRANCH  15  40
ENDBRANCH   9  10
ENDBRANCH   8   9
ENDBRANCH   3   8
BRANCH   3  42
ATOM     42  C   UNL     1       7.432  23.373  34.233  1.00  0.00     0.364 C 
ATOM     43  O   UNL     1       8.112  22.590  33.545  1.00  0.00    -0.246 OA
BRANCH  42  44
ATOM     44  O   UNL     1       6.065  23.123  34.306  1.00  0.00    -0.477 OA
ATOM     45  H   UNL     1       5.759  22.164  34.434  1.00  0.00     0.296 HD
ENDBRANCH  42  44
ENDBRANCH   3  42
BRANCH   6  46
ATOM     46  O   UNL     1       7.404  27.072  37.096  1.00  0.00    -0.391 OA
ATOM     47  H   UNL     1       6.948  27.441  37.893  1.00  0.00     0.211 HD
ENDBRANCH   6  46
BRANCH   7  48
ATOM     48  N   UNL     1       9.557  25.618  38.648  1.00  0.00    -0.348 N 
ATOM     49  C   UNL     1      10.595  26.569  38.858  1.00  0.00     0.217 C 
ATOM     50  H   UNL     1       9.168  25.122  39.474  1.00  0.00     0.163 HD
ATOM     51  C   UNL     1      11.089  26.821  40.236  1.00  0.00     0.114 C 
ATOM     52  O   UNL     1      11.111  27.213  37.883  1.00  0.00    -0.275 OA
ENDBRANCH   7  48
ENDBRANCH   1   2
BRANCH   1  53
ATOM     53  O   UNL     1       9.985  21.993  37.891  1.00  0.00    -0.388 OA
ATOM     54  H   UNL     1      10.516  21.736  38.700  1.00  0.00     0.211 HD
ENDBRANCH   1  53
BRANCH   1  55
ATOM     55  C   UNL     1      11.327  22.974  36.235  1.00  0.00     0.165 C 
BRANCH  55  56
ATOM     56  O   UNL     1      11.734  21.671  36.217  1.00  0.00    -0.388 OA
ATOM     57  H   UNL     1      11.119  21.039  36.667  1.00  0.00     0.211 HD
ENDBRANCH  55  56
BRANCH  55  58
ATOM     58  C   UNL     1      12.511  23.900  36.276  1.00  0.00     0.154 C 
BRANCH  58  59
ATOM     59  N   UNL     1      12.310  25.193  35.689  1.00  0.00    -0.319 N 
ATOM     60  C   UNL     1      13.317  26.141  35.455  1.00  0.00     0.407 C 
ATOM     61  H   UNL     1      11.304  25.422  35.420  1.00  0.00     0.167 HD
ATOM     62  O   UNL     1      14.512  25.947  35.733  1.00  0.00    -0.225 OA
BRANCH  60  63
ATOM     63  O   UNL     1      13.001  27.392  34.877  1.00  0.00    -0.443 OA
BRANCH  63  64
ATOM     64  C   UNL     1      13.678  28.565  35.353  1.00  0.00     0.294 C 
BRANCH  64  65
ATOM     65  C   UNL     1      13.258  29.720  34.517  1.00  0.00     0.120 A 
ATOM     66  C   UNL     1      13.105  29.753  33.152  1.00  0.00     0.138 A 
ATOM     67  N   UNL     1      12.964  30.944  34.962  1.00  0.00    -0.132 NA
ATOM     68  N   UNL     1      12.722  31.006  32.830  1.00  0.00    -0.252 N 
ATOM     69  N   UNL     1      12.645  31.701  33.950  1.00  0.00    -0.067 NA
BRANCH  68  70
ATOM     70  C   UNL     1      12.456  31.447  31.492  1.00  0.00     0.151 C 
BRANCH  70  71
ATOM     71  C   UNL     1      12.927  30.513  30.416  1.00  0.00     0.086 C 
BRANCH  71  72
ATOM     72  C   UNL     1      14.017  31.204  29.597  1.00  0.00     0.251 C 
BRANCH  72  73
ATOM     73  O   UNL     1      13.409  31.672  28.448  1.00  0.00    -0.353 OA
BRANCH  73  74
ATOM     74  C   UNL     1      14.274  31.692  27.362  1.00  0.00     0.160 C 
ATOM     75  C   UNL     1      13.646  31.052  26.140  1.00  0.00     0.035 C 
ENDBRANCH  73  74
ENDBRANCH  72  73
BRANCH  72  76
ATOM     76  O   UNL     1      15.109  30.410  29.416  1.00  0.00    -0.353 OA
BRANCH  76  77
ATOM     77  C   UNL     1      16.108  30.491  30.349  1.00  0.00     0.160 C 
ATOM     78  C   UNL     1      16.327  29.127  30.961  1.00  0.00     0.035 C 
ENDBRANCH  76  77
ENDBRANCH  72  76
ENDBRANCH  71  72
ENDBRANCH  70  71
ENDBRANCH  68  70
ENDBRANCH  64  65
ENDBRANCH  63  64
ENDBRANCH  60  63
ENDBRANCH  58  59
ENDBRANCH  55  58
ENDBRANCH   1  55
TORSDOF 36
