REMARK VINA RESULT:    -5.802      2.983      7.551
REMARK INTER + INTRA:         -21.058
REMARK INTER:                 -13.615
REMARK INTRA:                  -7.443
REMARK UNBOUND:                -6.268
REMARK SMILES CC(=O)N[C@@H]1[C@@H](O)C[C@](OC[C@H]2O[C@@H](O[C@H]3[C@H](O)[C@@H](O)[C@H](OCCN=[N+]=[N-])O[C@@H]3CO)[C@H](O)[C@@H](O)[C@H]2O)(C(=O)O)O[C@H]1C(O)[C@H](O)CNC(=O)OCc1cn(C(C)(C)CO)nn1
REMARK SMILES IDX 9 1 8 2 6 3 5 4 42 5 41 6 10 7 11 8 12 9 14 10 13 11 32 12
REMARK SMILES IDX 34 13 36 14 15 15 16 16 29 17 28 18 21 19 17 20 19 21 30 22
REMARK SMILES IDX 31 23 22 25 23 26 24 27 25 28 26 29 27 30 18 31 20 33 33 35
REMARK SMILES IDX 35 37 37 39 38 41 39 42 40 43 7 45 43 47 44 48 45 50 46 51
REMARK SMILES IDX 47 53 48 54 49 55 50 57 51 58 52 59 53 60 54 61 62 62 55 63
REMARK SMILES IDX 61 64 56 65 57 66 58 67 59 68 60 69 4 71 2 72 1 74 3 75
REMARK H PARENT 31 24 18 32 20 34 33 36 35 38 37 40 40 44 7 46 44 49 46 52
REMARK H PARENT 48 56 60 70 4 73
REMARK Flexibility Score: inf
ROOT
ATOM      1  C   UNL     1      20.931  29.218  24.546  1.00  0.00     0.272 C 
ATOM      2  C   UNL     1      20.218  30.439  25.064  1.00  0.00     0.113 C 
ATOM      3  C   UNL     1      18.973  30.630  24.231  1.00  0.00     0.145 C 
ATOM      4  C   UNL     1      19.483  31.094  22.847  1.00  0.00     0.142 C 
ATOM      5  C   UNL     1      20.478  30.069  22.393  1.00  0.00     0.178 C 
ATOM      6  O   UNL     1      20.496  28.945  23.195  1.00  0.00    -0.332 OA
ENDROOT
BRANCH   1   7
ATOM      7  O   UNL     1      20.607  28.069  25.191  1.00  0.00    -0.338 OA
BRANCH   7   8
ATOM      8  C   UNL     1      21.087  27.717  26.372  1.00  0.00     0.199 C 
BRANCH   8   9
ATOM      9  C   UNL     1      22.021  26.604  26.620  1.00  0.00     0.179 C 
ATOM     10  C   UNL     1      22.876  24.739  25.565  1.00  0.00     0.282 C 
ATOM     11  O   UNL     1      22.280  25.957  25.365  1.00  0.00    -0.341 OA
ATOM     12  C   UNL     1      23.550  24.538  26.876  1.00  0.00     0.202 C 
ATOM     13  C   UNL     1      24.146  25.796  27.466  1.00  0.00     0.179 C 
ATOM     14  C   UNL     1      23.422  27.032  27.040  1.00  0.00     0.177 C 
BRANCH  10  15
ATOM     15  O   UNL     1      23.703  24.485  24.468  1.00  0.00    -0.341 OA
BRANCH  15  16
ATOM     16  C   UNL     1      23.402  25.239  23.358  1.00  0.00     0.184 C 
ATOM     17  C   UNL     1      22.692  24.462  22.271  1.00  0.00     0.178 C 
ATOM     18  O   UNL     1      23.206  24.683  21.010  1.00  0.00    -0.341 OA
ATOM     19  C   UNL     1      24.513  24.324  20.824  1.00  0.00     0.281 C 
ATOM     20  C   UNL     1      24.754  25.709  22.789  1.00  0.00     0.180 C 
ATOM     21  C   UNL     1      25.311  24.478  22.099  1.00  0.00     0.202 C 
BRANCH  17  22
ATOM     22  C   UNL     1      21.261  24.985  22.254  1.00  0.00     0.191 C 
BRANCH  22  23
ATOM     23  O   UNL     1      21.240  26.301  22.718  1.00  0.00    -0.394 OA
ATOM     24  H   UNL     1      21.288  26.375  23.689  1.00  0.00     0.210 HD
ENDBRANCH  22  23
ENDBRANCH  17  22
BRANCH  19  25
ATOM     25  O   UNL     1      25.014  25.095  19.789  1.00  0.00    -0.350 OA
BRANCH  25  26
ATOM     26  C   UNL     1      26.266  24.778  19.366  1.00  0.00     0.169 C 
BRANCH  26  27
ATOM     27  C   UNL     1      27.181  25.978  19.177  1.00  0.00     0.119 C 
BRANCH  27  28
ATOM     28  N   UNL     1      27.959  26.235  20.375  1.00  0.00    -0.092 NA
ATOM     29  N   UNL     1      28.441  27.369  20.507  1.00  0.00     0.001 N 
ATOM     30  N   UNL     1      28.653  28.534  20.909  1.00  0.00    -0.003 NA
ENDBRANCH  27  28
ENDBRANCH  26  27
ENDBRANCH  25  26
ENDBRANCH  19  25
BRANCH  20  31
ATOM     31  O   UNL     1      24.437  26.724  21.881  1.00  0.00    -0.387 OA
ATOM     32  H   UNL     1      24.786  27.561  22.287  1.00  0.00     0.211 HD
ENDBRANCH  20  31
BRANCH  21  33
ATOM     33  O   UNL     1      25.003  23.375  22.912  1.00  0.00    -0.385 OA
ATOM     34  H   UNL     1      25.553  22.582  22.637  1.00  0.00     0.211 HD
ENDBRANCH  21  33
ENDBRANCH  15  16
ENDBRANCH  10  15
BRANCH  12  35
ATOM     35  O   UNL     1      22.786  23.848  27.818  1.00  0.00    -0.385 OA
ATOM     36  H   UNL     1      21.891  23.746  27.436  1.00  0.00     0.211 HD
ENDBRANCH  12  35
BRANCH  13  37
ATOM     37  O   UNL     1      25.518  25.887  27.175  1.00  0.00    -0.387 OA
ATOM     38  H   UNL     1      25.664  26.289  26.278  1.00  0.00     0.211 HD
ENDBRANCH  13  37
BRANCH  14  39
ATOM     39  O   UNL     1      24.068  27.495  25.871  1.00  0.00    -0.387 OA
ATOM     40  H   UNL     1      23.875  28.447  25.739  1.00  0.00     0.211 HD
ENDBRANCH  14  39
ENDBRANCH   8   9
ENDBRANCH   7   8
ENDBRANCH   1   7
BRANCH   1  41
ATOM     41  C   UNL     1      22.369  29.428  24.379  1.00  0.00     0.364 C 
ATOM     42  O   UNL     1      23.059  28.730  23.632  1.00  0.00    -0.246 OA
BRANCH  41  43
ATOM     43  O   UNL     1      23.065  30.441  25.063  1.00  0.00    -0.477 OA
ATOM     44  H   UNL     1      22.889  31.396  24.771  1.00  0.00     0.296 HD
ENDBRANCH  41  43
ENDBRANCH   1  41
BRANCH   3  45
ATOM     45  O   UNL     1      18.426  29.366  24.000  1.00  0.00    -0.391 OA
ATOM     46  H   UNL     1      18.465  28.808  24.803  1.00  0.00     0.211 HD
ENDBRANCH   3  45
BRANCH   5  47
ATOM     47  C   UNL     1      19.952  29.546  21.043  1.00  0.00     0.176 C 
BRANCH  47  48
ATOM     48  O   UNL     1      19.701  28.158  21.177  1.00  0.00    -0.388 OA
ATOM     49  H   UNL     1      19.872  27.841  22.079  1.00  0.00     0.211 HD
ENDBRANCH  47  48
BRANCH  47  50
ATOM     50  C   UNL     1      21.009  29.625  19.954  1.00  0.00     0.165 C 
BRANCH  50  51
ATOM     51  O   UNL     1      21.828  30.699  20.075  1.00  0.00    -0.388 OA
ATOM     52  H   UNL     1      22.732  30.522  20.426  1.00  0.00     0.211 HD
ENDBRANCH  50  51
BRANCH  50  53
ATOM     53  C   UNL     1      20.349  29.593  18.591  1.00  0.00     0.154 C 
BRANCH  53  54
ATOM     54  N   UNL     1      18.937  29.703  18.580  1.00  0.00    -0.319 N 
ATOM     55  C   UNL     1      18.070  28.739  18.055  1.00  0.00     0.407 C 
ATOM     56  H   UNL     1      18.476  30.582  19.000  1.00  0.00     0.167 HD
ATOM     57  O   UNL     1      18.478  27.679  17.554  1.00  0.00    -0.225 OA
BRANCH  55  58
ATOM     58  O   UNL     1      16.666  28.926  18.069  1.00  0.00    -0.443 OA
BRANCH  58  59
ATOM     59  C   UNL     1      15.834  28.164  18.914  1.00  0.00     0.294 C 
BRANCH  59  60
ATOM     60  C   UNL     1      15.705  28.721  20.276  1.00  0.00     0.120 A 
ATOM     61  C   UNL     1      14.559  29.191  20.885  1.00  0.00     0.139 A 
ATOM     62  N   UNL     1      16.682  28.874  21.185  1.00  0.00    -0.132 NA
ATOM     63  N   UNL     1      14.865  29.614  22.137  1.00  0.00    -0.244 N 
ATOM     64  N   UNL     1      16.163  29.409  22.293  1.00  0.00    -0.066 NA
BRANCH  63  65
ATOM     65  C   UNL     1      13.934  30.168  23.086  1.00  0.00     0.082 C 
ATOM     66  C   UNL     1      14.256  29.669  24.464  1.00  0.00     0.039 C 
ATOM     67  C   UNL     1      12.509  29.695  22.764  1.00  0.00     0.039 C 
BRANCH  65  68
ATOM     68  C   UNL     1      13.903  31.669  23.100  1.00  0.00     0.186 C 
BRANCH  68  69
ATOM     69  O   UNL     1      14.948  32.249  22.418  1.00  0.00    -0.394 OA
ATOM     70  H   UNL     1      14.866  33.203  22.263  1.00  0.00     0.210 HD
ENDBRANCH  68  69
ENDBRANCH  65  68
ENDBRANCH  63  65
ENDBRANCH  59  60
ENDBRANCH  58  59
ENDBRANCH  55  58
ENDBRANCH  53  54
ENDBRANCH  50  53
ENDBRANCH  47  50
ENDBRANCH   5  47
BRANCH   4  71
ATOM     71  N   UNL     1      20.002  32.409  23.051  1.00  0.00    -0.348 N 
ATOM     72  C   UNL     1      21.340  32.823  22.846  1.00  0.00     0.217 C 
ATOM     73  H   UNL     1      19.355  33.181  23.392  1.00  0.00     0.163 HD
ATOM     74  C   UNL     1      21.787  34.220  23.089  1.00  0.00     0.114 C 
ATOM     75  O   UNL     1      22.178  31.996  22.450  1.00  0.00    -0.275 OA
ENDBRANCH   4  71
TORSDOF 32
