REMARK VINA RESULT:    -6.187     16.173     21.025
REMARK INTER + INTRA:         -21.767
REMARK INTER:                 -15.858
REMARK INTRA:                  -5.910
REMARK UNBOUND:                -5.091
REMARK SMILES C=CCCCCn1cc(COC(=O)NC[C@@H](O)C(O)[C@@H]2O[C@@](OC[C@H]3O[C@@H](O[C@H]4[C@H](O)[C@@H](O)[C@H](OCCN=[N+]=[N-])O[C@@H]4CO)[C@H](O)[C@@H](O)[C@H]3O)(C(=O)O)C[C@H](O)[C@H]2NC(C)=O)nn1
REMARK SMILES IDX 18 1 20 2 22 3 54 4 21 5 55 6 57 7 23 8 24 9 25 10 27 11
REMARK SMILES IDX 26 12 45 13 47 14 49 15 28 16 29 17 42 18 41 19 34 20 30 21
REMARK SMILES IDX 32 22 43 23 44 24 35 26 36 27 37 28 38 29 39 30 40 31 31 32
REMARK SMILES IDX 33 34 46 36 48 38 50 40 51 42 52 43 53 44 56 46 58 48 59 49
REMARK SMILES IDX 60 51 61 52 19 53 16 55 17 56 15 58 14 59 12 60 13 62 11 63
REMARK SMILES IDX 10 64 9 65 8 66 62 67 7 68 63 69 6 70 5 71 4 72 3 73 2 74
REMARK SMILES IDX 1 75
REMARK H PARENT 44 25 31 33 33 35 46 37 48 39 50 41 53 45 56 47 58 50 19 54
REMARK H PARENT 17 57 14 61
REMARK Flexibility Score: inf
ROOT
ATOM      1  C   UNL     1       5.199  21.744  32.208  1.00  0.00     0.176 C 
ENDROOT
BRANCH   1   2
ATOM      2  C   UNL     1       4.205  22.484  33.108  1.00  0.00     0.178 C 
ATOM      3  C   UNL     1       3.529  24.608  33.673  1.00  0.00     0.272 C 
ATOM      4  C   UNL     1       3.387  24.203  35.081  1.00  0.00     0.113 C 
ATOM      5  O   UNL     1       4.576  23.781  33.114  1.00  0.00    -0.332 OA
ATOM      6  C   UNL     1       3.108  22.782  35.314  1.00  0.00     0.145 C 
ATOM      7  C   UNL     1       3.765  21.830  34.328  1.00  0.00     0.142 C 
BRANCH   3   8
ATOM      8  O   UNL     1       4.111  25.855  33.500  1.00  0.00    -0.338 OA
BRANCH   8   9
ATOM      9  C   UNL     1       4.211  26.749  34.462  1.00  0.00     0.199 C 
BRANCH   9  10
ATOM     10  C   UNL     1       5.521  27.255  34.930  1.00  0.00     0.179 C 
ATOM     11  C   UNL     1       7.253  26.651  36.388  1.00  0.00     0.282 C 
ATOM     12  O   UNL     1       5.915  26.587  36.114  1.00  0.00    -0.341 OA
ATOM     13  C   UNL     1       7.977  27.714  35.659  1.00  0.00     0.202 C 
ATOM     14  C   UNL     1       7.774  27.704  34.168  1.00  0.00     0.179 C 
ATOM     15  C   UNL     1       6.550  26.894  33.865  1.00  0.00     0.177 C 
BRANCH  11  16
ATOM     16  O   UNL     1       7.754  25.378  36.343  1.00  0.00    -0.341 OA
BRANCH  16  17
ATOM     17  C   UNL     1       9.038  25.199  36.762  1.00  0.00     0.184 C 
ATOM     18  C   UNL     1       9.587  23.936  36.139  1.00  0.00     0.178 C 
ATOM     19  O   UNL     1      10.383  23.228  37.054  1.00  0.00    -0.341 OA
ATOM     20  C   UNL     1       9.519  22.578  37.930  1.00  0.00     0.281 C 
ATOM     21  C   UNL     1       9.104  24.967  38.289  1.00  0.00     0.180 C 
ATOM     22  C   UNL     1       8.627  23.570  38.615  1.00  0.00     0.202 C 
BRANCH  18  23
ATOM     23  C   UNL     1      10.355  24.194  34.854  1.00  0.00     0.191 C 
BRANCH  23  24
ATOM     24  O   UNL     1       9.491  24.454  33.805  1.00  0.00    -0.394 OA
ATOM     25  H   UNL     1       9.897  24.126  32.968  1.00  0.00     0.210 HD
ENDBRANCH  23  24
ENDBRANCH  18  23
BRANCH  20  26
ATOM     26  O   UNL     1      10.319  21.913  38.860  1.00  0.00    -0.350 OA
BRANCH  26  27
ATOM     27  C   UNL     1       9.600  21.264  39.847  1.00  0.00     0.169 C 
BRANCH  27  28
ATOM     28  C   UNL     1      10.348  21.459  41.154  1.00  0.00     0.119 C 
BRANCH  28  29
ATOM     29  N   UNL     1       9.787  22.528  41.937  1.00  0.00    -0.092 NA
ATOM     30  N   UNL     1      10.248  23.662  41.899  1.00  0.00     0.001 N 
ATOM     31  N   UNL     1      10.685  24.782  41.633  1.00  0.00    -0.003 NA
ENDBRANCH  28  29
ENDBRANCH  27  28
ENDBRANCH  26  27
ENDBRANCH  20  26
BRANCH  21  32
ATOM     32  O   UNL     1      10.454  25.034  38.623  1.00  0.00    -0.387 OA
ATOM     33  H   UNL     1      11.047  24.564  38.002  1.00  0.00     0.211 HD
ENDBRANCH  21  32
BRANCH  22  34
ATOM     34  O   UNL     1       7.281  23.424  38.289  1.00  0.00    -0.385 OA
ATOM     35  H   UNL     1       7.242  23.061  37.363  1.00  0.00     0.211 HD
ENDBRANCH  22  34
ENDBRANCH  16  17
ENDBRANCH  11  16
BRANCH  13  36
ATOM     36  O   UNL     1       7.520  28.948  36.143  1.00  0.00    -0.385 OA
ATOM     37  H   UNL     1       8.248  29.530  36.429  1.00  0.00     0.211 HD
ENDBRANCH  13  36
BRANCH  14  38
ATOM     38  O   UNL     1       8.890  27.218  33.485  1.00  0.00    -0.387 OA
ATOM     39  H   UNL     1       9.682  27.560  33.949  1.00  0.00     0.211 HD
ENDBRANCH  14  38
BRANCH  15  40
ATOM     40  O   UNL     1       6.809  25.518  33.875  1.00  0.00    -0.387 OA
ATOM     41  H   UNL     1       7.209  25.208  34.708  1.00  0.00     0.211 HD
ENDBRANCH  15  40
ENDBRANCH   9  10
ENDBRANCH   8   9
ENDBRANCH   3   8
BRANCH   3  42
ATOM     42  C   UNL     1       2.351  24.299  32.873  1.00  0.00     0.364 C 
ATOM     43  O   UNL     1       1.236  24.116  33.408  1.00  0.00    -0.246 OA
BRANCH  42  44
ATOM     44  O   UNL     1       2.399  24.183  31.516  1.00  0.00    -0.477 OA
ATOM     45  H   UNL     1       2.717  23.347  31.058  1.00  0.00     0.296 HD
ENDBRANCH  42  44
ENDBRANCH   3  42
BRANCH   6  46
ATOM     46  O   UNL     1       3.506  22.453  36.633  1.00  0.00    -0.391 OA
ATOM     47  H   UNL     1       3.037  23.007  37.307  1.00  0.00     0.211 HD
ENDBRANCH   6  46
BRANCH   7  48
ATOM     48  N   UNL     1       2.808  20.756  34.002  1.00  0.00    -0.348 N 
ATOM     49  C   UNL     1       3.018  19.401  34.347  1.00  0.00     0.217 C 
ATOM     50  H   UNL     1       1.908  20.954  33.485  1.00  0.00     0.163 HD
ATOM     51  C   UNL     1       2.004  18.345  33.976  1.00  0.00     0.114 C 
ATOM     52  O   UNL     1       4.066  19.089  34.968  1.00  0.00    -0.275 OA
ENDBRANCH   7  48
ENDBRANCH   1   2
BRANCH   1  53
ATOM     53  O   UNL     1       5.839  20.775  33.147  1.00  0.00    -0.388 OA
ATOM     54  H   UNL     1       6.649  20.527  32.596  1.00  0.00     0.211 HD
ENDBRANCH   1  53
BRANCH   1  55
ATOM     55  C   UNL     1       4.610  20.829  31.232  1.00  0.00     0.165 C 
BRANCH  55  56
ATOM     56  O   UNL     1       5.458  20.445  30.168  1.00  0.00    -0.388 OA
ATOM     57  H   UNL     1       5.744  19.525  30.389  1.00  0.00     0.211 HD
ENDBRANCH  55  56
BRANCH  55  58
ATOM     58  C   UNL     1       3.258  21.082  30.712  1.00  0.00     0.154 C 
BRANCH  58  59
ATOM     59  N   UNL     1       3.173  21.921  29.579  1.00  0.00    -0.319 N 
ATOM     60  C   UNL     1       2.415  21.827  28.406  1.00  0.00     0.407 C 
ATOM     61  H   UNL     1       3.810  22.804  29.617  1.00  0.00     0.167 HD
ATOM     62  O   UNL     1       1.644  20.873  28.211  1.00  0.00    -0.225 OA
BRANCH  60  63
ATOM     63  O   UNL     1       2.495  22.806  27.405  1.00  0.00    -0.443 OA
BRANCH  63  64
ATOM     64  C   UNL     1       2.296  24.169  27.785  1.00  0.00     0.294 C 
BRANCH  64  65
ATOM     65  C   UNL     1       3.239  25.058  27.060  1.00  0.00     0.120 A 
ATOM     66  C   UNL     1       3.325  26.437  27.241  1.00  0.00     0.138 A 
ATOM     67  N   UNL     1       4.155  24.753  26.129  1.00  0.00    -0.132 NA
ATOM     68  N   UNL     1       4.278  26.890  26.420  1.00  0.00    -0.252 N 
ATOM     69  N   UNL     1       4.773  25.878  25.755  1.00  0.00    -0.067 NA
BRANCH  68  70
ATOM     70  C   UNL     1       4.662  28.305  26.326  1.00  0.00     0.146 C 
BRANCH  70  71
ATOM     71  C   UNL     1       6.142  28.424  26.574  1.00  0.00     0.024 C 
BRANCH  71  72
ATOM     72  C   UNL     1       6.774  29.092  25.372  1.00  0.00     0.006 C 
BRANCH  72  73
ATOM     73  C   UNL     1       7.903  28.236  24.844  1.00  0.00     0.027 C 
BRANCH  73  74
ATOM     74  C   UNL     1       8.174  27.089  25.740  1.00  0.00    -0.035 C 
ATOM     75  C   UNL     1       8.721  25.987  25.267  1.00  0.00     0.004 C 
ENDBRANCH  73  74
ENDBRANCH  72  73
ENDBRANCH  71  72
ENDBRANCH  70  71
ENDBRANCH  68  70
ENDBRANCH  64  65
ENDBRANCH  63  64
ENDBRANCH  60  63
ENDBRANCH  58  59
ENDBRANCH  55  58
ENDBRANCH   1  55
TORSDOF 34
