REMARK VINA RESULT:    -5.232     14.851     20.796
REMARK INTER + INTRA:         -20.701
REMARK INTER:                 -12.026
REMARK INTRA:                  -8.675
REMARK UNBOUND:                -7.364
REMARK SMILES CC(=O)N[C@@H]1[C@@H](O)C[C@](OC[C@H]2O[C@@H](O[C@H]3[C@H](O)[C@@H](O)[C@H](OCCN=[N+]=[N-])O[C@@H]3CO)[C@H](O)[C@@H](O)[C@H]2O)(C(=O)O)O[C@H]1C(O)[C@H](O)CNC(=O)OCc1cn([C@@H](C)C(=O)O)nn1
REMARK SMILES IDX 9 1 8 2 6 3 5 4 42 5 41 6 10 7 11 8 12 9 14 10 13 11 32 12
REMARK SMILES IDX 34 13 36 14 15 15 16 16 29 17 28 18 21 19 17 20 19 21 30 22
REMARK SMILES IDX 31 23 22 25 23 26 24 27 25 28 26 29 27 30 18 31 20 33 33 35
REMARK SMILES IDX 35 37 37 39 38 41 39 42 40 43 7 45 43 47 44 48 45 50 46 51
REMARK SMILES IDX 47 53 48 54 49 55 50 57 51 58 52 59 53 60 54 61 62 62 55 63
REMARK SMILES IDX 61 64 56 65 57 66 58 67 59 68 60 69 4 71 2 72 1 74 3 75
REMARK H PARENT 31 24 18 32 20 34 33 36 35 38 37 40 40 44 7 46 44 49 46 52
REMARK H PARENT 48 56 60 70 4 73
REMARK Flexibility Score: inf
ROOT
ATOM      1  C   UNL     1      23.557  25.387  21.973  1.00  0.00     0.272 C 
ATOM      2  C   UNL     1      23.912  24.252  21.093  1.00  0.00     0.113 C 
ATOM      3  C   UNL     1      24.977  24.745  20.140  1.00  0.00     0.145 C 
ATOM      4  C   UNL     1      24.164  25.672  19.167  1.00  0.00     0.142 C 
ATOM      5  C   UNL     1      23.232  26.502  19.910  1.00  0.00     0.178 C 
ATOM      6  O   UNL     1      23.383  26.583  21.269  1.00  0.00    -0.332 OA
ENDROOT
BRANCH   1   7
ATOM      7  O   UNL     1      24.428  25.550  23.005  1.00  0.00    -0.338 OA
BRANCH   7   8
ATOM      8  C   UNL     1      24.530  24.592  23.944  1.00  0.00     0.199 C 
BRANCH   8   9
ATOM      9  C   UNL     1      24.615  25.210  25.362  1.00  0.00     0.179 C 
ATOM     10  C   UNL     1      24.553  27.278  26.385  1.00  0.00     0.282 C 
ATOM     11  O   UNL     1      24.349  26.546  25.220  1.00  0.00    -0.341 OA
ATOM     12  C   UNL     1      24.795  26.407  27.583  1.00  0.00     0.202 C 
ATOM     13  C   UNL     1      23.789  25.273  27.634  1.00  0.00     0.179 C 
ATOM     14  C   UNL     1      23.655  24.561  26.298  1.00  0.00     0.177 C 
BRANCH  10  15
ATOM     15  O   UNL     1      23.474  28.117  26.696  1.00  0.00    -0.341 OA
BRANCH  15  16
ATOM     16  C   UNL     1      22.660  28.337  25.595  1.00  0.00     0.184 C 
ATOM     17  C   UNL     1      22.810  29.745  25.114  1.00  0.00     0.178 C 
ATOM     18  O   UNL     1      21.667  30.510  25.345  1.00  0.00    -0.341 OA
ATOM     19  C   UNL     1      21.261  30.421  26.680  1.00  0.00     0.281 C 
ATOM     20  C   UNL     1      21.234  28.069  26.015  1.00  0.00     0.180 C 
ATOM     21  C   UNL     1      20.700  29.066  27.006  1.00  0.00     0.202 C 
BRANCH  17  22
ATOM     22  C   UNL     1      23.116  29.810  23.635  1.00  0.00     0.191 C 
BRANCH  22  23
ATOM     23  O   UNL     1      23.382  28.551  23.100  1.00  0.00    -0.394 OA
ATOM     24  H   UNL     1      24.222  28.574  22.600  1.00  0.00     0.210 HD
ENDBRANCH  22  23
ENDBRANCH  17  22
BRANCH  19  25
ATOM     25  O   UNL     1      20.265  31.368  26.847  1.00  0.00    -0.350 OA
BRANCH  25  26
ATOM     26  C   UNL     1      19.963  31.933  25.627  1.00  0.00     0.169 C 
BRANCH  26  27
ATOM     27  C   UNL     1      18.487  31.787  25.321  1.00  0.00     0.119 C 
BRANCH  27  28
ATOM     28  N   UNL     1      18.273  30.483  24.699  1.00  0.00    -0.092 NA
ATOM     29  N   UNL     1      18.768  30.186  23.611  1.00  0.00     0.001 N 
ATOM     30  N   UNL     1      19.488  29.902  22.670  1.00  0.00    -0.003 NA
ENDBRANCH  27  28
ENDBRANCH  26  27
ENDBRANCH  25  26
ENDBRANCH  19  25
BRANCH  20  31
ATOM     31  O   UNL     1      20.371  27.994  24.923  1.00  0.00    -0.387 OA
ATOM     32  H   UNL     1      20.830  27.893  24.062  1.00  0.00     0.211 HD
ENDBRANCH  20  31
BRANCH  21  33
ATOM     33  O   UNL     1      21.100  28.724  28.296  1.00  0.00    -0.385 OA
ATOM     34  H   UNL     1      21.768  28.000  28.285  1.00  0.00     0.211 HD
ENDBRANCH  21  33
ENDBRANCH  15  16
ENDBRANCH  10  15
BRANCH  12  35
ATOM     35  O   UNL     1      26.095  25.988  27.729  1.00  0.00    -0.385 OA
ATOM     36  H   UNL     1      26.513  25.841  26.824  1.00  0.00     0.211 HD
ENDBRANCH  12  35
BRANCH  13  37
ATOM     37  O   UNL     1      22.545  25.852  27.965  1.00  0.00    -0.387 OA
ATOM     38  H   UNL     1      22.659  26.800  28.241  1.00  0.00     0.211 HD
ENDBRANCH  13  37
BRANCH  14  39
ATOM     39  O   UNL     1      22.346  24.639  25.823  1.00  0.00    -0.387 OA
ATOM     40  H   UNL     1      22.213  23.968  25.105  1.00  0.00     0.211 HD
ENDBRANCH  14  39
ENDBRANCH   8   9
ENDBRANCH   7   8
ENDBRANCH   1   7
BRANCH   1  41
ATOM     41  C   UNL     1      22.198  25.123  22.515  1.00  0.00     0.364 C 
ATOM     42  O   UNL     1      21.637  25.968  23.227  1.00  0.00    -0.246 OA
BRANCH  41  43
ATOM     43  O   UNL     1      21.532  23.937  22.243  1.00  0.00    -0.477 OA
ATOM     44  H   UNL     1      21.730  23.083  22.786  1.00  0.00     0.296 HD
ENDBRANCH  41  43
ENDBRANCH   1  41
BRANCH   3  45
ATOM     45  O   UNL     1      25.809  25.610  20.840  1.00  0.00    -0.391 OA
ATOM     46  H   UNL     1      26.073  26.395  20.330  1.00  0.00     0.211 HD
ENDBRANCH   3  45
BRANCH   5  47
ATOM     47  C   UNL     1      23.041  27.924  19.408  1.00  0.00     0.176 C 
BRANCH  47  48
ATOM     48  O   UNL     1      23.986  28.741  20.127  1.00  0.00    -0.388 OA
ATOM     49  H   UNL     1      24.446  29.323  19.501  1.00  0.00     0.211 HD
ENDBRANCH  47  48
BRANCH  47  50
ATOM     50  C   UNL     1      21.710  28.539  19.794  1.00  0.00     0.165 C 
BRANCH  50  51
ATOM     51  O   UNL     1      21.171  28.102  20.964  1.00  0.00    -0.388 OA
ATOM     52  H   UNL     1      20.195  27.984  20.996  1.00  0.00     0.211 HD
ENDBRANCH  50  51
BRANCH  50  53
ATOM     53  C   UNL     1      20.775  28.639  18.637  1.00  0.00     0.154 C 
BRANCH  53  54
ATOM     54  N   UNL     1      19.390  28.703  18.922  1.00  0.00    -0.319 N 
ATOM     55  C   UNL     1      18.316  28.380  18.052  1.00  0.00     0.407 C 
ATOM     56  H   UNL     1      19.126  29.031  19.902  1.00  0.00     0.167 HD
ATOM     57  O   UNL     1      18.564  27.985  16.906  1.00  0.00    -0.225 OA
BRANCH  55  58
ATOM     58  O   UNL     1      16.991  28.515  18.501  1.00  0.00    -0.443 OA
BRANCH  58  59
ATOM     59  C   UNL     1      16.602  28.006  19.749  1.00  0.00     0.294 C 
BRANCH  59  60
ATOM     60  C   UNL     1      16.048  29.025  20.648  1.00  0.00     0.120 A 
ATOM     61  C   UNL     1      14.945  28.957  21.471  1.00  0.00     0.139 A 
ATOM     62  N   UNL     1      16.593  30.261  20.798  1.00  0.00    -0.132 NA
ATOM     63  N   UNL     1      14.853  30.135  22.090  1.00  0.00    -0.238 N 
ATOM     64  N   UNL     1      15.842  30.924  21.689  1.00  0.00    -0.066 NA
BRANCH  63  65
ATOM     65  C   UNL     1      13.835  30.507  23.051  1.00  0.00     0.215 C 
ATOM     66  C   UNL     1      12.552  29.810  22.723  1.00  0.00     0.046 C 
BRANCH  65  67
ATOM     67  C   UNL     1      14.254  30.183  24.435  1.00  0.00     0.328 C 
ATOM     68  O   UNL     1      13.400  30.249  25.351  1.00  0.00    -0.250 OA
BRANCH  67  69
ATOM     69  O   UNL     1      15.552  29.809  24.749  1.00  0.00    -0.480 OA
ATOM     70  H   UNL     1      16.203  30.452  25.183  1.00  0.00     0.296 HD
ENDBRANCH  67  69
ENDBRANCH  65  67
ENDBRANCH  63  65
ENDBRANCH  59  60
ENDBRANCH  58  59
ENDBRANCH  55  58
ENDBRANCH  53  54
ENDBRANCH  50  53
ENDBRANCH  47  50
ENDBRANCH   5  47
BRANCH   4  71
ATOM     71  N   UNL     1      23.592  24.818  18.143  1.00  0.00    -0.348 N 
ATOM     72  C   UNL     1      24.151  24.501  16.906  1.00  0.00     0.217 C 
ATOM     73  H   UNL     1      22.646  24.397  18.374  1.00  0.00     0.163 HD
ATOM     74  C   UNL     1      23.462  23.614  15.937  1.00  0.00     0.114 C 
ATOM     75  O   UNL     1      25.261  24.977  16.603  1.00  0.00    -0.275 OA
ENDBRANCH   4  71
TORSDOF 32
