REMARK VINA RESULT:    -5.574      2.890     10.084
REMARK INTER + INTRA:         -22.817
REMARK INTER:                 -13.735
REMARK INTRA:                  -9.082
REMARK UNBOUND:                -7.304
REMARK SMILES CC(=O)N[C@@H]1[C@@H](O)C[C@](OC[C@H]2O[C@@H](O[C@H]3[C@H](O)[C@@H](O)[C@H](OCCN=[N+]=[N-])O[C@@H]3CO)[C@H](O)[C@@H](O)[C@H]2O)(C(=O)O)O[C@H]1C(O)[C@H](O)CNC(=O)OCc1cn(CCCCCC(=O)O)nn1
REMARK SMILES IDX 47 1 45 2 43 3 42 4 9 5 8 6 41 7 6 8 5 9 10 10 11 11 12 12
REMARK SMILES IDX 14 13 13 14 32 15 34 16 36 17 15 18 16 19 29 20 28 21 21 22
REMARK SMILES IDX 17 23 19 24 30 25 31 26 22 28 23 29 24 30 25 31 26 32 27 33
REMARK SMILES IDX 18 34 20 36 33 38 35 40 37 42 38 44 39 45 40 46 7 48 4 50
REMARK SMILES IDX 2 51 1 53 3 54 44 55 46 57 48 59 49 60 50 62 51 63 52 64
REMARK SMILES IDX 53 65 54 66 65 67 55 68 64 69 56 70 57 71 58 72 59 73 60 74
REMARK SMILES IDX 61 75 62 76 63 77
REMARK H PARENT 31 27 18 35 20 37 33 39 35 41 37 43 40 47 7 49 4 52 44 56
REMARK H PARENT 46 58 48 61 63 78
REMARK Flexibility Score: inf
ROOT
ATOM      1  C   UNL     1      21.023  30.722  21.753  1.00  0.00     0.154 C 
ENDROOT
BRANCH   1   2
ATOM      2  C   UNL     1      20.962  29.251  21.416  1.00  0.00     0.165 C 
BRANCH   2   3
ATOM      3  C   UNL     1      20.056  29.115  20.236  1.00  0.00     0.176 C 
BRANCH   3   4
ATOM      4  C   UNL     1      18.679  29.658  20.399  1.00  0.00     0.178 C 
ATOM      5  C   UNL     1      16.897  29.824  21.767  1.00  0.00     0.272 C 
ATOM      6  C   UNL     1      16.555  30.974  20.876  1.00  0.00     0.113 C 
ATOM      7  O   UNL     1      17.875  28.964  21.288  1.00  0.00    -0.332 OA
ATOM      8  C   UNL     1      16.822  30.826  19.426  1.00  0.00     0.145 C 
ATOM      9  C   UNL     1      17.875  29.752  19.121  1.00  0.00     0.142 C 
BRANCH   5  10
ATOM     10  O   UNL     1      15.771  29.131  22.207  1.00  0.00    -0.338 OA
BRANCH  10  11
ATOM     11  C   UNL     1      14.565  29.531  21.728  1.00  0.00     0.199 C 
BRANCH  11  12
ATOM     12  C   UNL     1      13.658  29.714  22.930  1.00  0.00     0.179 C 
ATOM     13  C   UNL     1      13.446  30.262  25.088  1.00  0.00     0.282 C 
ATOM     14  O   UNL     1      14.168  30.567  23.897  1.00  0.00    -0.341 OA
ATOM     15  C   UNL     1      12.040  29.918  24.884  1.00  0.00     0.202 C 
ATOM     16  C   UNL     1      11.413  30.322  23.579  1.00  0.00     0.179 C 
ATOM     17  C   UNL     1      12.390  30.386  22.436  1.00  0.00     0.177 C 
BRANCH  13  18
ATOM     18  O   UNL     1      13.771  31.187  26.077  1.00  0.00    -0.341 OA
BRANCH  18  19
ATOM     19  C   UNL     1      14.238  32.371  25.642  1.00  0.00     0.184 C 
ATOM     20  C   UNL     1      15.317  32.939  26.513  1.00  0.00     0.178 C 
ATOM     21  O   UNL     1      15.950  33.924  25.726  1.00  0.00    -0.341 OA
ATOM     22  C   UNL     1      15.135  34.986  25.526  1.00  0.00     0.281 C 
ATOM     23  C   UNL     1      13.119  33.464  25.741  1.00  0.00     0.180 C 
ATOM     24  C   UNL     1      13.757  34.798  26.036  1.00  0.00     0.202 C 
BRANCH  20  25
ATOM     25  C   UNL     1      16.376  31.942  26.902  1.00  0.00     0.191 C 
BRANCH  25  26
ATOM     26  O   UNL     1      16.500  30.955  25.948  1.00  0.00    -0.394 OA
ATOM     27  H   UNL     1      16.215  31.343  25.078  1.00  0.00     0.210 HD
ENDBRANCH  25  26
ENDBRANCH  20  25
BRANCH  22  28
ATOM     28  O   UNL     1      15.115  35.432  24.198  1.00  0.00    -0.350 OA
BRANCH  28  29
ATOM     29  C   UNL     1      15.549  34.481  23.311  1.00  0.00     0.169 C 
BRANCH  29  30
ATOM     30  C   UNL     1      16.329  35.147  22.187  1.00  0.00     0.119 C 
BRANCH  30  31
ATOM     31  N   UNL     1      15.512  35.267  20.991  1.00  0.00    -0.092 NA
ATOM     32  N   UNL     1      14.724  34.350  20.691  1.00  0.00     0.001 N 
ATOM     33  N   UNL     1      14.296  33.357  20.102  1.00  0.00    -0.003 NA
ENDBRANCH  30  31
ENDBRANCH  29  30
ENDBRANCH  28  29
ENDBRANCH  22  28
BRANCH  23  34
ATOM     34  O   UNL     1      12.491  33.562  24.500  1.00  0.00    -0.387 OA
ATOM     35  H   UNL     1      12.973  32.974  23.849  1.00  0.00     0.211 HD
ENDBRANCH  23  34
BRANCH  24  36
ATOM     36  O   UNL     1      13.578  35.203  27.365  1.00  0.00    -0.385 OA
ATOM     37  H   UNL     1      14.076  34.633  28.003  1.00  0.00     0.211 HD
ENDBRANCH  24  36
ENDBRANCH  18  19
ENDBRANCH  13  18
BRANCH  15  38
ATOM     38  O   UNL     1      11.822  28.513  24.979  1.00  0.00    -0.385 OA
ATOM     39  H   UNL     1      11.400  28.293  25.830  1.00  0.00     0.211 HD
ENDBRANCH  15  38
BRANCH  16  40
ATOM     40  O   UNL     1      10.785  31.579  23.649  1.00  0.00    -0.387 OA
ATOM     41  H   UNL     1      10.339  31.827  22.819  1.00  0.00     0.211 HD
ENDBRANCH  16  40
BRANCH  17  42
ATOM     42  O   UNL     1      12.737  31.740  22.200  1.00  0.00    -0.387 OA
ATOM     43  H   UNL     1      13.344  31.713  21.395  1.00  0.00     0.211 HD
ENDBRANCH  17  42
ENDBRANCH  11  12
ENDBRANCH  10  11
ENDBRANCH   5  10
BRANCH   5  44
ATOM     44  C   UNL     1      17.483  30.412  23.005  1.00  0.00     0.364 C 
ATOM     45  O   UNL     1      17.344  31.628  23.263  1.00  0.00    -0.246 OA
BRANCH  44  46
ATOM     46  O   UNL     1      18.186  29.621  23.879  1.00  0.00    -0.477 OA
ATOM     47  H   UNL     1      18.880  29.995  24.548  1.00  0.00     0.296 HD
ENDBRANCH  44  46
ENDBRANCH   5  44
BRANCH   8  48
ATOM     48  O   UNL     1      15.694  30.694  18.621  1.00  0.00    -0.391 OA
ATOM     49  H   UNL     1      15.745  29.821  18.173  1.00  0.00     0.211 HD
ENDBRANCH   8  48
BRANCH   9  50
ATOM     50  N   UNL     1      18.628  30.068  17.958  1.00  0.00    -0.348 N 
ATOM     51  C   UNL     1      18.877  29.065  16.991  1.00  0.00     0.217 C 
ATOM     52  H   UNL     1      18.995  31.017  17.802  1.00  0.00     0.163 HD
ATOM     53  C   UNL     1      19.658  29.370  15.763  1.00  0.00     0.114 C 
ATOM     54  O   UNL     1      18.453  27.880  17.123  1.00  0.00    -0.275 OA
ENDBRANCH   9  50
ENDBRANCH   3   4
BRANCH   3  55
ATOM     55  O   UNL     1      19.965  27.768  19.817  1.00  0.00    -0.388 OA
ATOM     56  H   UNL     1      20.183  27.701  18.860  1.00  0.00     0.211 HD
ENDBRANCH   3  55
ENDBRANCH   2   3
BRANCH   2  57
ATOM     57  O   UNL     1      20.442  28.580  22.516  1.00  0.00    -0.388 OA
ATOM     58  H   UNL     1      21.027  28.792  23.287  1.00  0.00     0.211 HD
ENDBRANCH   2  57
ENDBRANCH   1   2
BRANCH   1  59
ATOM     59  N   UNL     1      21.505  31.005  23.067  1.00  0.00    -0.319 N 
ATOM     60  C   UNL     1      21.025  32.183  23.725  1.00  0.00     0.407 C 
ATOM     61  H   UNL     1      22.180  30.402  23.562  1.00  0.00     0.167 HD
ATOM     62  O   UNL     1      20.202  32.941  23.155  1.00  0.00    -0.225 OA
BRANCH  60  63
ATOM     63  O   UNL     1      21.441  32.531  24.989  1.00  0.00    -0.443 OA
BRANCH  63  64
ATOM     64  C   UNL     1      21.188  31.797  26.136  1.00  0.00     0.294 C 
BRANCH  64  65
ATOM     65  C   UNL     1      21.304  30.338  26.029  1.00  0.00     0.120 A 
ATOM     66  C   UNL     1      22.412  29.567  26.267  1.00  0.00     0.138 A 
ATOM     67  N   UNL     1      20.313  29.498  25.653  1.00  0.00    -0.132 NA
ATOM     68  N   UNL     1      22.077  28.296  26.035  1.00  0.00    -0.252 N 
ATOM     69  N   UNL     1      20.812  28.291  25.669  1.00  0.00    -0.067 NA
BRANCH  68  70
ATOM     70  C   UNL     1      22.956  27.144  26.176  1.00  0.00     0.146 C 
BRANCH  70  71
ATOM     71  C   UNL     1      22.115  25.964  26.663  1.00  0.00     0.024 C 
BRANCH  71  72
ATOM     72  C   UNL     1      22.645  24.662  26.139  1.00  0.00     0.002 C 
BRANCH  72  73
ATOM     73  C   UNL     1      22.623  24.669  24.637  1.00  0.00     0.012 C 
BRANCH  73  74
ATOM     74  C   UNL     1      21.245  24.638  24.064  1.00  0.00     0.122 C 
BRANCH  74  75
ATOM     75  C   UNL     1      21.315  24.845  22.590  1.00  0.00     0.303 C 
ATOM     76  O   UNL     1      22.131  24.189  21.906  1.00  0.00    -0.252 OA
BRANCH  75  77
ATOM     77  O   UNL     1      20.482  25.759  21.954  1.00  0.00    -0.481 OA
ATOM     78  H   UNL     1      19.951  26.431  22.512  1.00  0.00     0.296 HD
ENDBRANCH  75  77
ENDBRANCH  74  75
ENDBRANCH  73  74
ENDBRANCH  72  73
ENDBRANCH  71  72
ENDBRANCH  70  71
ENDBRANCH  68  70
ENDBRANCH  64  65
ENDBRANCH  63  64
ENDBRANCH  60  63
ENDBRANCH   1  59
TORSDOF 36
