REMARK VINA RESULT:    -5.956     19.571     25.448
REMARK INTER + INTRA:         -20.875
REMARK INTER:                 -15.743
REMARK INTRA:                  -5.132
REMARK UNBOUND:                -5.342
REMARK SMILES CC(=O)N[C@@H]1[C@@H](O)C[C@](OC[C@H]2O[C@@H](O[C@H]3[C@H](O)[C@@H](O)[C@H](OCCN=[N+]=[N-])O[C@@H]3CO)[C@H](O)[C@@H](O)[C@H]2O)(C(=O)O)O[C@H]1C(O)[C@H](O)CNC(=O)OCc1cn(CCC(=O)O)nn1
REMARK SMILES IDX 43 1 42 2 9 3 8 4 41 5 6 6 5 7 10 8 11 9 12 10 14 11 13 12
REMARK SMILES IDX 32 13 34 14 36 15 15 16 16 17 29 18 28 19 21 20 17 21 19 22
REMARK SMILES IDX 30 23 31 24 22 26 23 27 24 28 25 29 26 30 27 31 18 32 20 34
REMARK SMILES IDX 33 36 35 38 37 40 38 42 39 43 40 44 7 46 4 48 2 49 1 51 3 52
REMARK SMILES IDX 44 53 45 55 46 56 47 58 48 59 49 60 50 62 51 63 52 64 53 65
REMARK SMILES IDX 54 66 62 67 55 68 61 69 56 70 57 71 58 72 59 73 60 74
REMARK H PARENT 31 25 18 33 20 35 33 37 35 39 37 41 40 45 7 47 4 50 44 54
REMARK H PARENT 46 57 48 61 60 75
REMARK Flexibility Score: inf
ROOT
ATOM      1  C   UNL     1      22.914  19.334  13.417  1.00  0.00     0.176 C 
ENDROOT
BRANCH   1   2
ATOM      2  C   UNL     1      22.508  20.569  12.648  1.00  0.00     0.178 C 
ATOM      3  C   UNL     1      22.919  22.876  12.540  1.00  0.00     0.272 C 
ATOM      4  C   UNL     1      22.059  22.590  11.322  1.00  0.00     0.113 C 
ATOM      5  O   UNL     1      22.652  21.724  13.372  1.00  0.00    -0.332 OA
ATOM      6  C   UNL     1      20.731  21.916  11.724  1.00  0.00     0.145 C 
ATOM      7  C   UNL     1      21.048  20.511  12.220  1.00  0.00     0.142 C 
BRANCH   3   8
ATOM      8  O   UNL     1      22.492  23.981  13.178  1.00  0.00    -0.338 OA
BRANCH   8   9
ATOM      9  C   UNL     1      22.170  24.142  14.432  1.00  0.00     0.199 C 
BRANCH   9  10
ATOM     10  C   UNL     1      22.915  24.883  15.456  1.00  0.00     0.179 C 
ATOM     11  C   UNL     1      22.977  25.992  17.467  1.00  0.00     0.282 C 
ATOM     12  O   UNL     1      22.206  25.430  16.490  1.00  0.00    -0.341 OA
ATOM     13  C   UNL     1      24.462  25.955  17.237  1.00  0.00     0.202 C 
ATOM     14  C   UNL     1      24.932  24.586  16.784  1.00  0.00     0.179 C 
ATOM     15  C   UNL     1      23.801  23.795  16.167  1.00  0.00     0.177 C 
BRANCH  11  16
ATOM     16  O   UNL     1      22.760  25.448  18.732  1.00  0.00    -0.341 OA
BRANCH  16  17
ATOM     17  C   UNL     1      23.479  26.086  19.740  1.00  0.00     0.184 C 
ATOM     18  C   UNL     1      23.717  25.116  20.844  1.00  0.00     0.178 C 
ATOM     19  O   UNL     1      23.047  25.437  22.037  1.00  0.00    -0.341 OA
ATOM     20  C   UNL     1      21.702  25.618  21.657  1.00  0.00     0.281 C 
ATOM     21  C   UNL     1      22.703  27.306  20.141  1.00  0.00     0.180 C 
ATOM     22  C   UNL     1      21.617  27.034  21.134  1.00  0.00     0.202 C 
BRANCH  18  23
ATOM     23  C   UNL     1      25.199  24.988  21.161  1.00  0.00     0.191 C 
BRANCH  23  24
ATOM     24  O   UNL     1      25.703  23.800  20.639  1.00  0.00    -0.394 OA
ATOM     25  H   UNL     1      24.969  23.145  20.592  1.00  0.00     0.210 HD
ENDBRANCH  23  24
ENDBRANCH  18  23
BRANCH  20  26
ATOM     26  O   UNL     1      20.838  25.393  22.701  1.00  0.00    -0.350 OA
BRANCH  26  27
ATOM     27  C   UNL     1      21.525  24.772  23.741  1.00  0.00     0.169 C 
BRANCH  27  28
ATOM     28  C   UNL     1      21.563  25.705  24.944  1.00  0.00     0.119 C 
BRANCH  28  29
ATOM     29  N   UNL     1      22.744  25.348  25.702  1.00  0.00    -0.092 NA
ATOM     30  N   UNL     1      22.598  24.786  26.786  1.00  0.00     0.001 N 
ATOM     31  N   UNL     1      22.740  24.137  27.844  1.00  0.00    -0.003 NA
ENDBRANCH  28  29
ENDBRANCH  27  28
ENDBRANCH  26  27
ENDBRANCH  20  26
BRANCH  21  32
ATOM     32  O   UNL     1      23.603  28.204  20.704  1.00  0.00    -0.387 OA
ATOM     33  H   UNL     1      24.490  28.025  20.336  1.00  0.00     0.211 HD
ENDBRANCH  21  32
BRANCH  22  34
ATOM     34  O   UNL     1      20.359  27.291  20.584  1.00  0.00    -0.385 OA
ATOM     35  H   UNL     1      19.707  26.596  20.875  1.00  0.00     0.211 HD
ENDBRANCH  22  34
ENDBRANCH  16  17
ENDBRANCH  11  16
BRANCH  13  36
ATOM     36  O   UNL     1      24.916  26.971  16.384  1.00  0.00    -0.385 OA
ATOM     37  H   UNL     1      25.756  26.705  15.976  1.00  0.00     0.211 HD
ENDBRANCH  13  36
BRANCH  14  38
ATOM     38  O   UNL     1      25.555  23.923  17.817  1.00  0.00    -0.387 OA
ATOM     39  H   UNL     1      26.096  24.536  18.355  1.00  0.00     0.211 HD
ENDBRANCH  14  38
BRANCH  15  40
ATOM     40  O   UNL     1      22.982  23.216  17.105  1.00  0.00    -0.387 OA
ATOM     41  H   UNL     1      22.957  23.673  17.978  1.00  0.00     0.211 HD
ENDBRANCH  15  40
ENDBRANCH   9  10
ENDBRANCH   8   9
ENDBRANCH   3   8
BRANCH   3  42
ATOM     42  C   UNL     1      24.360  22.844  12.275  1.00  0.00     0.364 C 
ATOM     43  O   UNL     1      24.783  22.837  11.092  1.00  0.00    -0.246 OA
BRANCH  42  44
ATOM     44  O   UNL     1      25.277  22.822  13.295  1.00  0.00    -0.477 OA
ATOM     45  H   UNL     1      25.252  23.391  14.117  1.00  0.00     0.296 HD
ENDBRANCH  42  44
ENDBRANCH   3  42
BRANCH   6  46
ATOM     46  O   UNL     1      20.211  22.642  12.773  1.00  0.00    -0.391 OA
ATOM     47  H   UNL     1      19.559  22.058  13.259  1.00  0.00     0.211 HD
ENDBRANCH   6  46
BRANCH   7  48
ATOM     48  N   UNL     1      20.821  19.549  11.192  1.00  0.00    -0.348 N 
ATOM     49  C   UNL     1      19.526  18.988  11.033  1.00  0.00     0.217 C 
ATOM     50  H   UNL     1      21.570  19.229  10.541  1.00  0.00     0.163 HD
ATOM     51  C   UNL     1      19.204  17.980   9.994  1.00  0.00     0.114 C 
ATOM     52  O   UNL     1      18.573  19.333  11.791  1.00  0.00    -0.275 OA
ENDBRANCH   7  48
ENDBRANCH   1   2
BRANCH   1  53
ATOM     53  O   UNL     1      21.761  18.598  13.692  1.00  0.00    -0.388 OA
ATOM     54  H   UNL     1      21.457  18.737  14.611  1.00  0.00     0.211 HD
ENDBRANCH   1  53
BRANCH   1  55
ATOM     55  C   UNL     1      23.889  18.448  12.710  1.00  0.00     0.165 C 
BRANCH  55  56
ATOM     56  O   UNL     1      24.805  17.955  13.645  1.00  0.00    -0.388 OA
ATOM     57  H   UNL     1      25.628  17.690  13.169  1.00  0.00     0.211 HD
ENDBRANCH  55  56
BRANCH  55  58
ATOM     58  C   UNL     1      24.672  19.342  11.741  1.00  0.00     0.154 C 
BRANCH  58  59
ATOM     59  N   UNL     1      25.796  19.948  12.398  1.00  0.00    -0.319 N 
ATOM     60  C   UNL     1      27.125  19.944  11.892  1.00  0.00     0.407 C 
ATOM     61  H   UNL     1      25.670  20.448  13.329  1.00  0.00     0.167 HD
ATOM     62  O   UNL     1      27.328  19.369  10.792  1.00  0.00    -0.225 OA
BRANCH  60  63
ATOM     63  O   UNL     1      28.177  20.541  12.562  1.00  0.00    -0.443 OA
BRANCH  63  64
ATOM     64  C   UNL     1      28.757  19.881  13.658  1.00  0.00     0.294 C 
BRANCH  64  65
ATOM     65  C   UNL     1      28.230  20.410  14.930  1.00  0.00     0.120 A 
ATOM     66  C   UNL     1      28.691  19.992  16.172  1.00  0.00     0.138 A 
ATOM     67  N   UNL     1      27.274  21.350  15.126  1.00  0.00    -0.132 NA
ATOM     68  N   UNL     1      27.987  20.708  17.082  1.00  0.00    -0.252 N 
ATOM     69  N   UNL     1      27.153  21.505  16.428  1.00  0.00    -0.067 NA
BRANCH  68  70
ATOM     70  C   UNL     1      28.119  20.631  18.521  1.00  0.00     0.158 C 
BRANCH  70  71
ATOM     71  C   UNL     1      28.741  19.336  18.993  1.00  0.00     0.146 C 
BRANCH  71  72
ATOM     72  C   UNL     1      28.707  19.320  20.462  1.00  0.00     0.305 C 
ATOM     73  O   UNL     1      28.653  20.398  21.092  1.00  0.00    -0.252 OA
BRANCH  72  74
ATOM     74  O   UNL     1      28.735  18.128  21.185  1.00  0.00    -0.481 OA
ATOM     75  H   UNL     1      28.797  17.213  20.751  1.00  0.00     0.296 HD
ENDBRANCH  72  74
ENDBRANCH  71  72
ENDBRANCH  70  71
ENDBRANCH  68  70
ENDBRANCH  64  65
ENDBRANCH  63  64
ENDBRANCH  60  63
ENDBRANCH  58  59
ENDBRANCH  55  58
ENDBRANCH   1  55
TORSDOF 33
