REMARK VINA RESULT:    -5.724      2.904      9.166
REMARK INTER + INTRA:         -24.894
REMARK INTER:                 -15.994
REMARK INTRA:                  -8.900
REMARK UNBOUND:                -8.963
REMARK SMILES CC(=O)N[C@@H]1[C@@H](O)C[C@](OC[C@H]2O[C@@H](O[C@H]3[C@H](O)[C@@H](O)[C@H](OCCN=[N+]=[N-])O[C@@H]3CO)[C@H](O)[C@@H](O)[C@H]2O)(C(=O)O)O[C@H]1C(O)[C@H](O)CNC(=O)OCc1cn(C[C@@H](C(=O)O)C(c2ccccc2)c2ccccc2)nn1
REMARK SMILES IDX 43 1 42 2 9 3 8 4 41 5 6 6 5 7 10 8 11 9 12 10 14 11 13 12
REMARK SMILES IDX 32 13 34 14 36 15 15 16 16 17 29 18 28 19 21 20 17 21 19 22
REMARK SMILES IDX 30 23 31 24 22 26 23 27 24 28 25 29 26 30 27 31 18 32 20 34
REMARK SMILES IDX 33 36 35 38 37 40 38 42 39 43 40 44 7 46 4 48 2 49 1 51 3 52
REMARK SMILES IDX 44 53 45 55 46 56 47 58 48 59 49 60 50 62 51 63 52 64 53 65
REMARK SMILES IDX 54 66 75 67 55 68 74 69 56 70 57 71 58 72 59 73 60 74 61 76
REMARK SMILES IDX 62 77 63 78 67 79 64 80 66 81 65 82 68 83 69 84 73 85 70 86
REMARK SMILES IDX 72 87 71 88
REMARK H PARENT 31 25 18 33 20 35 33 37 35 39 37 41 40 45 7 47 4 50 44 54
REMARK H PARENT 46 57 48 61 60 75
REMARK Flexibility Score: inf
ROOT
ATOM      1  C   UNL     1      15.955  30.199  22.774  1.00  0.00     0.176 C 
ENDROOT
BRANCH   1   2
ATOM      2  C   UNL     1      17.362  30.650  23.220  1.00  0.00     0.178 C 
ATOM      3  C   UNL     1      19.650  30.329  23.137  1.00  0.00     0.272 C 
ATOM      4  C   UNL     1      19.478  31.668  23.929  1.00  0.00     0.113 C 
ATOM      5  O   UNL     1      18.368  29.859  22.800  1.00  0.00    -0.332 OA
ATOM      6  C   UNL     1      18.583  31.507  25.110  1.00  0.00     0.145 C 
ATOM      7  C   UNL     1      17.286  30.880  24.711  1.00  0.00     0.142 C 
BRANCH   3   8
ATOM      8  O   UNL     1      20.394  29.543  23.841  1.00  0.00    -0.338 OA
BRANCH   8   9
ATOM      9  C   UNL     1      21.610  29.191  23.985  1.00  0.00     0.199 C 
BRANCH   9  10
ATOM     10  C   UNL     1      22.141  27.795  23.787  1.00  0.00     0.179 C 
ATOM     11  C   UNL     1      23.003  26.159  25.272  1.00  0.00     0.282 C 
ATOM     12  O   UNL     1      22.921  27.426  24.839  1.00  0.00    -0.341 OA
ATOM     13  C   UNL     1      22.341  25.071  24.519  1.00  0.00     0.202 C 
ATOM     14  C   UNL     1      21.431  25.513  23.410  1.00  0.00     0.179 C 
ATOM     15  C   UNL     1      20.911  26.859  23.802  1.00  0.00     0.177 C 
BRANCH  11  16
ATOM     16  O   UNL     1      22.399  26.173  26.564  1.00  0.00    -0.341 OA
BRANCH  16  17
ATOM     17  C   UNL     1      23.252  26.555  27.560  1.00  0.00     0.184 C 
ATOM     18  C   UNL     1      23.084  25.619  28.723  1.00  0.00     0.178 C 
ATOM     19  O   UNL     1      22.054  26.000  29.575  1.00  0.00    -0.341 OA
ATOM     20  C   UNL     1      21.046  26.739  28.937  1.00  0.00     0.281 C 
ATOM     21  C   UNL     1      22.968  27.964  28.062  1.00  0.00     0.180 C 
ATOM     22  C   UNL     1      21.521  28.081  28.497  1.00  0.00     0.202 C 
BRANCH  18  23
ATOM     23  C   UNL     1      24.332  25.405  29.532  1.00  0.00     0.191 C 
BRANCH  23  24
ATOM     24  O   UNL     1      24.150  24.545  30.596  1.00  0.00    -0.394 OA
ATOM     25  H   UNL     1      24.017  25.116  31.410  1.00  0.00     0.210 HD
ENDBRANCH  23  24
ENDBRANCH  18  23
BRANCH  20  26
ATOM     26  O   UNL     1      20.014  26.917  29.831  1.00  0.00    -0.350 OA
BRANCH  26  27
ATOM     27  C   UNL     1      20.215  27.807  30.839  1.00  0.00     0.169 C 
BRANCH  27  28
ATOM     28  C   UNL     1      18.974  28.231  31.555  1.00  0.00     0.119 C 
BRANCH  28  29
ATOM     29  N   UNL     1      18.809  29.671  31.270  1.00  0.00    -0.092 NA
ATOM     30  N   UNL     1      18.678  29.990  30.085  1.00  0.00     0.001 N 
ATOM     31  N   UNL     1      18.691  30.337  28.906  1.00  0.00    -0.003 NA
ENDBRANCH  28  29
ENDBRANCH  27  28
ENDBRANCH  26  27
ENDBRANCH  20  26
BRANCH  21  32
ATOM     32  O   UNL     1      23.761  28.164  29.188  1.00  0.00    -0.387 OA
ATOM     33  H   UNL     1      23.965  29.113  29.353  1.00  0.00     0.211 HD
ENDBRANCH  21  32
BRANCH  22  34
ATOM     34  O   UNL     1      20.738  28.523  27.438  1.00  0.00    -0.385 OA
ATOM     35  H   UNL     1      19.982  29.057  27.841  1.00  0.00     0.211 HD
ENDBRANCH  22  34
ENDBRANCH  16  17
ENDBRANCH  11  16
BRANCH  13  36
ATOM     36  O   UNL     1      23.311  24.239  23.910  1.00  0.00    -0.385 OA
ATOM     37  H   UNL     1      23.812  24.747  23.210  1.00  0.00     0.211 HD
ENDBRANCH  13  36
BRANCH  14  38
ATOM     38  O   UNL     1      20.399  24.611  23.253  1.00  0.00    -0.387 OA
ATOM     39  H   UNL     1      20.739  23.695  23.433  1.00  0.00     0.211 HD
ENDBRANCH  14  38
BRANCH  15  40
ATOM     40  O   UNL     1      20.368  26.779  25.077  1.00  0.00    -0.387 OA
ATOM     41  H   UNL     1      19.980  27.652  25.296  1.00  0.00     0.211 HD
ENDBRANCH  15  40
ENDBRANCH   9  10
ENDBRANCH   8   9
ENDBRANCH   3   8
BRANCH   3  42
ATOM     42  C   UNL     1      20.225  30.799  21.860  1.00  0.00     0.364 C 
ATOM     43  O   UNL     1      20.524  31.981  21.596  1.00  0.00    -0.246 OA
BRANCH  42  44
ATOM     44  O   UNL     1      20.472  29.865  20.831  1.00  0.00    -0.477 OA
ATOM     45  H   UNL     1      20.580  28.910  21.098  1.00  0.00     0.296 HD
ENDBRANCH  42  44
ENDBRANCH   3  42
BRANCH   6  46
ATOM     46  O   UNL     1      19.194  30.787  26.147  1.00  0.00    -0.391 OA
ATOM     47  H   UNL     1      19.053  29.815  26.056  1.00  0.00     0.211 HD
ENDBRANCH   6  46
BRANCH   7  48
ATOM     48  N   UNL     1      16.209  31.808  24.966  1.00  0.00    -0.348 N 
ATOM     49  C   UNL     1      15.408  31.705  26.131  1.00  0.00     0.217 C 
ATOM     50  H   UNL     1      16.026  32.577  24.262  1.00  0.00     0.163 HD
ATOM     51  C   UNL     1      14.286  32.669  26.403  1.00  0.00     0.114 C 
ATOM     52  O   UNL     1      15.672  30.772  26.932  1.00  0.00    -0.275 OA
ENDBRANCH   7  48
ENDBRANCH   1   2
BRANCH   1  53
ATOM     53  O   UNL     1      15.488  29.189  23.571  1.00  0.00    -0.388 OA
ATOM     54  H   UNL     1      14.593  28.859  23.324  1.00  0.00     0.211 HD
ENDBRANCH   1  53
BRANCH   1  55
ATOM     55  C   UNL     1      15.966  29.775  21.358  1.00  0.00     0.165 C 
BRANCH  55  56
ATOM     56  O   UNL     1      16.075  28.379  21.193  1.00  0.00    -0.388 OA
ATOM     57  H   UNL     1      16.426  28.053  22.080  1.00  0.00     0.211 HD
ENDBRANCH  55  56
BRANCH  55  58
ATOM     58  C   UNL     1      16.844  30.449  20.370  1.00  0.00     0.154 C 
BRANCH  58  59
ATOM     59  N   UNL     1      17.746  29.631  19.648  1.00  0.00    -0.319 N 
ATOM     60  C   UNL     1      17.659  29.281  18.284  1.00  0.00     0.407 C 
ATOM     61  H   UNL     1      18.602  29.228  20.196  1.00  0.00     0.167 HD
ATOM     62  O   UNL     1      16.719  29.637  17.553  1.00  0.00    -0.225 OA
BRANCH  60  63
ATOM     63  O   UNL     1      18.671  28.515  17.746  1.00  0.00    -0.443 OA
BRANCH  63  64
ATOM     64  C   UNL     1      19.948  29.009  17.545  1.00  0.00     0.294 C 
BRANCH  64  65
ATOM     65  C   UNL     1      21.005  27.988  17.496  1.00  0.00     0.120 A 
ATOM     66  C   UNL     1      21.962  27.674  18.431  1.00  0.00     0.138 A 
ATOM     67  N   UNL     1      21.260  27.146  16.447  1.00  0.00    -0.132 NA
ATOM     68  N   UNL     1      22.742  26.697  17.957  1.00  0.00    -0.251 N 
ATOM     69  N   UNL     1      22.294  26.397  16.752  1.00  0.00    -0.067 NA
BRANCH  68  70
ATOM     70  C   UNL     1      23.893  26.045  18.613  1.00  0.00     0.162 C 
BRANCH  70  71
ATOM     71  C   UNL     1      23.495  25.561  19.969  1.00  0.00     0.132 C 
BRANCH  71  72
ATOM     72  C   UNL     1      22.660  24.326  19.870  1.00  0.00     0.309 C 
ATOM     73  O   UNL     1      22.249  23.707  20.865  1.00  0.00    -0.252 OA
BRANCH  72  74
ATOM     74  O   UNL     1      22.320  23.837  18.621  1.00  0.00    -0.481 OA
ATOM     75  H   UNL     1      21.383  23.453  18.468  1.00  0.00     0.296 HD
ENDBRANCH  72  74
ENDBRANCH  71  72
BRANCH  71  76
ATOM     76  C   UNL     1      24.544  25.462  21.012  1.00  0.00     0.065 C 
BRANCH  76  77
ATOM     77  C   UNL     1      25.665  24.553  20.770  1.00  0.00    -0.040 A 
ATOM     78  C   UNL     1      26.033  23.589  21.721  1.00  0.00     0.004 A 
ATOM     79  C   UNL     1      26.445  24.572  19.611  1.00  0.00     0.004 A 
ATOM     80  C   UNL     1      27.069  22.728  21.542  1.00  0.00     0.000 A 
ATOM     81  C   UNL     1      27.490  23.698  19.440  1.00  0.00     0.000 A 
ATOM     82  C   UNL     1      27.815  22.765  20.405  1.00  0.00     0.000 A 
ENDBRANCH  76  77
BRANCH  76  83
ATOM     83  C   UNL     1      24.919  26.772  21.609  1.00  0.00    -0.040 A 
ATOM     84  C   UNL     1      24.455  27.901  20.969  1.00  0.00     0.004 A 
ATOM     85  C   UNL     1      25.676  26.880  22.744  1.00  0.00     0.004 A 
ATOM     86  C   UNL     1      24.740  29.147  21.452  1.00  0.00     0.000 A 
ATOM     87  C   UNL     1      25.958  28.155  23.226  1.00  0.00     0.000 A 
ATOM     88  C   UNL     1      25.499  29.287  22.591  1.00  0.00     0.000 A 
ENDBRANCH  76  83
ENDBRANCH  71  76
ENDBRANCH  70  71
ENDBRANCH  68  70
ENDBRANCH  64  65
ENDBRANCH  63  64
ENDBRANCH  60  63
ENDBRANCH  58  59
ENDBRANCH  55  58
ENDBRANCH   1  55
TORSDOF 36
