REMARK VINA RESULT:    -8.561     16.617     22.102
REMARK INTER + INTRA:         -20.342
REMARK INTER:                 -11.042
REMARK INTRA:                  -9.300
REMARK UNBOUND:                 2.731
REMARK SMILES CC(=O)N[C@@H]1[C@@H](O)C[C@](OC[C@H]2O[C@@H](O[C@H]3[C@H](O)[C@@H](O)[C@H](OCCN=[N+]=[N-])O[C@@H]3CO)[C@H](O)[C@@H](O)[C@H]2O)(C(=O)O)O[C@H]1C(O)[C@H](O)CNC(=O)OCc1cn(C2CCc3ccccc3NC2=O)nn1
REMARK SMILES IDX 43 1 42 2 9 3 8 4 41 5 6 6 5 7 10 8 11 9 12 10 14 11 13 12
REMARK SMILES IDX 32 13 34 14 36 15 15 16 16 17 29 18 28 19 21 20 17 21 19 22
REMARK SMILES IDX 30 23 31 24 22 26 23 27 24 28 25 29 26 30 27 31 18 32 20 34
REMARK SMILES IDX 33 36 35 38 37 40 38 42 39 43 40 44 7 46 4 48 2 49 1 51 3 52
REMARK SMILES IDX 44 53 45 55 46 56 47 58 48 59 49 60 50 62 51 63 52 64 53 65
REMARK SMILES IDX 54 66 69 67 55 68 68 69 56 70 57 71 66 73 65 74 67 75 64 77
REMARK SMILES IDX 59 78 63 79 60 80 62 81 61 82 58 83
REMARK H PARENT 31 25 18 33 20 35 33 37 35 39 37 41 40 45 7 47 4 50 44 54
REMARK H PARENT 46 57 48 61 65 76
REMARK Flexibility Score: 90.00
ROOT
ATOM      1  C   UNL     1       6.743  20.656  40.912  1.00  0.00     0.176 C 
ENDROOT
BRANCH   1   2
ATOM      2  C   UNL     1       7.840  21.341  41.753  1.00  0.00     0.178 C 
ATOM      3  C   UNL     1       8.691  23.509  41.241  1.00  0.00     0.272 C 
ATOM      4  C   UNL     1      10.002  22.932  40.889  1.00  0.00     0.113 C 
ATOM      5  O   UNL     1       7.740  22.656  41.803  1.00  0.00    -0.332 OA
ATOM      6  C   UNL     1       9.901  21.538  40.370  1.00  0.00     0.145 C 
ATOM      7  C   UNL     1       9.166  20.715  41.418  1.00  0.00     0.142 C 
BRANCH   3   8
ATOM      8  O   UNL     1       8.042  24.154  40.248  1.00  0.00    -0.338 OA
BRANCH   8   9
ATOM      9  C   UNL     1       6.964  24.906  40.398  1.00  0.00     0.199 C 
BRANCH   9  10
ATOM     10  C   UNL     1       5.962  25.194  39.367  1.00  0.00     0.179 C 
ATOM     11  C   UNL     1       5.868  25.948  37.182  1.00  0.00     0.282 C 
ATOM     12  O   UNL     1       6.701  25.395  38.153  1.00  0.00    -0.341 OA
ATOM     13  C   UNL     1       4.415  25.818  37.417  1.00  0.00     0.202 C 
ATOM     14  C   UNL     1       3.946  24.624  38.175  1.00  0.00     0.179 C 
ATOM     15  C   UNL     1       5.068  24.017  38.979  1.00  0.00     0.177 C 
BRANCH  11  16
ATOM     16  O   UNL     1       6.293  25.482  35.920  1.00  0.00    -0.341 OA
BRANCH  16  17
ATOM     17  C   UNL     1       7.654  25.345  35.843  1.00  0.00     0.184 C 
ATOM     18  C   UNL     1       8.296  25.929  34.612  1.00  0.00     0.178 C 
ATOM     19  O   UNL     1       9.674  25.811  34.808  1.00  0.00    -0.341 OA
ATOM     20  C   UNL     1      10.113  24.514  34.590  1.00  0.00     0.281 C 
ATOM     21  C   UNL     1       8.064  23.881  35.891  1.00  0.00     0.180 C 
ATOM     22  C   UNL     1       9.052  23.487  34.854  1.00  0.00     0.202 C 
BRANCH  18  23
ATOM     23  C   UNL     1       8.005  27.410  34.470  1.00  0.00     0.191 C 
BRANCH  23  24
ATOM     24  O   UNL     1       8.102  28.077  35.689  1.00  0.00    -0.394 OA
ATOM     25  H   UNL     1       7.269  28.525  35.951  1.00  0.00     0.210 HD
ENDBRANCH  23  24
ENDBRANCH  18  23
BRANCH  20  26
ATOM     26  O   UNL     1      11.252  24.303  35.344  1.00  0.00    -0.350 OA
BRANCH  26  27
ATOM     27  C   UNL     1      11.666  25.457  35.987  1.00  0.00     0.169 C 
BRANCH  27  28
ATOM     28  C   UNL     1      11.875  25.320  37.460  1.00  0.00     0.119 C 
BRANCH  28  29
ATOM     29  N   UNL     1      10.583  25.300  38.124  1.00  0.00    -0.092 NA
ATOM     30  N   UNL     1      10.011  26.346  38.480  1.00  0.00     0.001 N 
ATOM     31  N   UNL     1       9.385  27.405  38.324  1.00  0.00    -0.003 NA
ENDBRANCH  28  29
ENDBRANCH  27  28
ENDBRANCH  26  27
ENDBRANCH  20  26
BRANCH  21  32
ATOM     32  O   UNL     1       8.458  23.503  37.184  1.00  0.00    -0.387 OA
ATOM     33  H   UNL     1       7.656  23.499  37.768  1.00  0.00     0.211 HD
ENDBRANCH  21  32
BRANCH  22  34
ATOM     34  O   UNL     1       8.439  23.128  33.630  1.00  0.00    -0.385 OA
ATOM     35  H   UNL     1       8.982  22.501  33.116  1.00  0.00     0.211 HD
ENDBRANCH  22  34
ENDBRANCH  16  17
ENDBRANCH  11  16
BRANCH  13  36
ATOM     36  O   UNL     1       3.907  27.017  37.927  1.00  0.00    -0.385 OA
ATOM     37  H   UNL     1       4.365  27.237  38.780  1.00  0.00     0.211 HD
ENDBRANCH  13  36
BRANCH  14  38
ATOM     38  O   UNL     1       3.295  23.687  37.375  1.00  0.00    -0.387 OA
ATOM     39  H   UNL     1       2.332  23.748  37.609  1.00  0.00     0.211 HD
ENDBRANCH  14  38
BRANCH  15  40
ATOM     40  O   UNL     1       5.812  23.128  38.165  1.00  0.00    -0.387 OA
ATOM     41  H   UNL     1       5.611  22.228  38.504  1.00  0.00     0.211 HD
ENDBRANCH  15  40
ENDBRANCH   9  10
ENDBRANCH   8   9
ENDBRANCH   3   8
BRANCH   3  42
ATOM     42  C   UNL     1       8.946  24.432  42.413  1.00  0.00     0.364 C 
ATOM     43  O   UNL     1       9.790  25.296  42.378  1.00  0.00    -0.246 OA
BRANCH  42  44
ATOM     44  O   UNL     1       8.188  24.288  43.580  1.00  0.00    -0.477 OA
ATOM     45  H   UNL     1       7.391  24.870  43.781  1.00  0.00     0.296 HD
ENDBRANCH  42  44
ENDBRANCH   3  42
BRANCH   6  46
ATOM     46  O   UNL     1       9.147  21.585  39.186  1.00  0.00    -0.391 OA
ATOM     47  H   UNL     1       9.179  22.452  38.748  1.00  0.00     0.211 HD
ENDBRANCH   6  46
BRANCH   7  48
ATOM     48  N   UNL     1      10.041  20.519  42.525  1.00  0.00    -0.348 N 
ATOM     49  C   UNL     1       9.923  19.365  43.349  1.00  0.00     0.217 C 
ATOM     50  H   UNL     1      10.787  21.215  42.760  1.00  0.00     0.163 HD
ATOM     51  C   UNL     1      10.812  19.117  44.516  1.00  0.00     0.114 C 
ATOM     52  O   UNL     1       9.040  18.546  43.069  1.00  0.00    -0.275 OA
ENDBRANCH   7  48
ENDBRANCH   1   2
BRANCH   1  53
ATOM     53  O   UNL     1       6.648  19.312  41.284  1.00  0.00    -0.388 OA
ATOM     54  H   UNL     1       6.661  18.693  40.521  1.00  0.00     0.211 HD
ENDBRANCH   1  53
BRANCH   1  55
ATOM     55  C   UNL     1       5.405  21.279  41.075  1.00  0.00     0.165 C 
BRANCH  55  56
ATOM     56  O   UNL     1       5.125  21.747  42.353  1.00  0.00    -0.388 OA
ATOM     57  H   UNL     1       5.048  20.957  42.952  1.00  0.00     0.211 HD
ENDBRANCH  55  56
BRANCH  55  58
ATOM     58  C   UNL     1       4.236  20.464  40.627  1.00  0.00     0.154 C 
BRANCH  58  59
ATOM     59  N   UNL     1       4.245  20.076  39.250  1.00  0.00    -0.319 N 
ATOM     60  C   UNL     1       4.315  18.737  38.800  1.00  0.00     0.407 C 
ATOM     61  H   UNL     1       4.198  20.826  38.530  1.00  0.00     0.167 HD
ATOM     62  O   UNL     1       4.375  17.783  39.613  1.00  0.00    -0.225 OA
BRANCH  60  63
ATOM     63  O   UNL     1       4.317  18.486  37.448  1.00  0.00    -0.443 OA
BRANCH  63  64
ATOM     64  C   UNL     1       3.195  18.581  36.642  1.00  0.00     0.294 C 
BRANCH  64  65
ATOM     65  C   UNL     1       3.275  19.758  35.775  1.00  0.00     0.120 A 
ATOM     66  C   UNL     1       3.566  19.768  34.433  1.00  0.00     0.139 A 
ATOM     67  N   UNL     1       3.089  21.059  36.105  1.00  0.00    -0.132 NA
ATOM     68  N   UNL     1       3.552  21.046  33.980  1.00  0.00    -0.240 N 
ATOM     69  N   UNL     1       3.260  21.798  35.021  1.00  0.00    -0.066 NA
BRANCH  68  70
ATOM     70  C   UNL     1       3.808  21.497  32.601  1.00  0.00     0.198 C 
BRANCH  70  71
ATOM     71  C   UNL     1       2.655  22.345  32.218  1.00  0.00     0.042 CG0
ATOM     72  G   UNL     1       2.836  23.242  31.043  1.00  0.00     0.000 G0
ENDBRANCH  70  71
BRANCH  70  73
ATOM     73  C   UNL     1       5.119  22.152  32.635  1.00  0.00     0.249 C 
ATOM     74  N   UNL     1       5.454  23.529  32.711  1.00  0.00    -0.324 N 
ATOM     75  O   UNL     1       6.103  21.364  32.588  1.00  0.00    -0.272 OA
ATOM     76  H   UNL     1       6.387  23.798  33.091  1.00  0.00     0.170 HD
BRANCH  74  77
ATOM     77  C   UNL     1       4.574  24.594  32.295  1.00  0.00     0.044 A 
ATOM     78  C   UNL     1       3.398  24.522  31.557  1.00  0.00    -0.024 A 
ATOM     79  C   UNL     1       5.026  25.824  32.723  1.00  0.00     0.026 A 
ATOM     80  C   UNL     1       2.672  25.647  31.243  1.00  0.00     0.006 A 
ATOM     81  C   UNL     1       4.316  26.970  32.422  1.00  0.00     0.002 A 
ATOM     82  C   UNL     1       3.136  26.864  31.678  1.00  0.00     0.000 A 
BRANCH  78  83
ATOM     83  C   UNL     1       2.826  23.242  31.049  1.00  0.00     0.040 CG0
ATOM     84  G   UNL     1       2.668  22.342  32.224  1.00  0.00     0.000 G0
ENDBRANCH  78  83
ENDBRANCH  74  77
ENDBRANCH  70  73
ENDBRANCH  68  70
ENDBRANCH  64  65
ENDBRANCH  63  64
ENDBRANCH  60  63
ENDBRANCH  58  59
ENDBRANCH  55  58
ENDBRANCH   1  55
TORSDOF 30
