REMARK VINA RESULT:    -5.164      7.655     14.063
REMARK INTER + INTRA:         -21.877
REMARK INTER:                 -14.849
REMARK INTRA:                  -7.028
REMARK UNBOUND:                -8.562
REMARK SMILES CC(=O)N[C@@H]1[C@@H](O)C[C@](OC[C@H]2O[C@@H](O[C@H]3[C@H](O)[C@@H](O)[C@H](OCCN=[N+]=[N-])O[C@@H]3CO)[C@H](O)[C@@H](O)[C@H]2O)(C(=O)O)O[C@H]1C(O)[C@H](O)CNC(=O)OCc1cn(Cc2ccc(C#N)cc2)nn1
REMARK SMILES IDX 9 1 8 2 6 3 5 4 42 5 41 6 10 7 11 8 12 9 14 10 13 11 32 12
REMARK SMILES IDX 34 13 36 14 15 15 16 16 29 17 28 18 21 19 17 20 19 21 30 22
REMARK SMILES IDX 31 23 22 25 23 26 24 27 25 28 26 29 27 30 18 31 20 33 33 35
REMARK SMILES IDX 35 37 37 39 38 41 39 42 40 43 7 45 43 47 44 48 45 50 46 51
REMARK SMILES IDX 47 53 48 54 49 55 50 57 51 58 52 59 53 60 54 61 66 62 55 63
REMARK SMILES IDX 65 64 56 65 57 66 58 67 64 68 59 69 63 70 60 71 61 72 62 73
REMARK SMILES IDX 4 74 2 75 1 77 3 78
REMARK H PARENT 31 24 18 32 20 34 33 36 35 38 37 40 40 44 7 46 44 49 46 52
REMARK H PARENT 48 56 4 76
REMARK Flexibility Score: inf
ROOT
ATOM      1  C   UNL     1      27.524  26.917  30.147  1.00  0.00     0.272 C 
ATOM      2  C   UNL     1      28.394  26.563  28.992  1.00  0.00     0.113 C 
ATOM      3  C   UNL     1      27.981  27.139  27.684  1.00  0.00     0.145 C 
ATOM      4  C   UNL     1      26.451  27.286  27.695  1.00  0.00     0.142 C 
ATOM      5  C   UNL     1      25.938  26.235  28.634  1.00  0.00     0.178 C 
ATOM      6  O   UNL     1      26.173  26.605  29.927  1.00  0.00    -0.332 OA
ENDROOT
BRANCH   1   7
ATOM      7  O   UNL     1      27.642  28.205  30.623  1.00  0.00    -0.338 OA
BRANCH   7   8
ATOM      8  C   UNL     1      26.478  28.794  30.985  1.00  0.00     0.199 C 
BRANCH   8   9
ATOM      9  C   UNL     1      26.564  29.438  32.380  1.00  0.00     0.179 C 
ATOM     10  C   UNL     1      27.383  28.963  34.484  1.00  0.00     0.282 C 
ATOM     11  O   UNL     1      27.065  28.450  33.227  1.00  0.00    -0.341 OA
ATOM     12  C   UNL     1      28.448  30.009  34.440  1.00  0.00     0.202 C 
ATOM     13  C   UNL     1      28.838  30.268  33.004  1.00  0.00     0.179 C 
ATOM     14  C   UNL     1      27.539  30.581  32.275  1.00  0.00     0.177 C 
BRANCH  10  15
ATOM     15  O   UNL     1      27.853  27.896  35.247  1.00  0.00    -0.341 OA
BRANCH  15  16
ATOM     16  C   UNL     1      27.169  26.706  35.011  1.00  0.00     0.184 C 
ATOM     17  C   UNL     1      25.828  26.764  35.651  1.00  0.00     0.178 C 
ATOM     18  O   UNL     1      25.717  26.187  36.883  1.00  0.00    -0.341 OA
ATOM     19  C   UNL     1      26.886  25.807  37.492  1.00  0.00     0.281 C 
ATOM     20  C   UNL     1      27.985  25.497  35.336  1.00  0.00     0.180 C 
ATOM     21  C   UNL     1      27.590  24.800  36.610  1.00  0.00     0.202 C 
BRANCH  17  22
ATOM     22  C   UNL     1      24.781  26.238  34.672  1.00  0.00     0.191 C 
BRANCH  22  23
ATOM     23  O   UNL     1      23.966  25.344  35.366  1.00  0.00    -0.394 OA
ATOM     24  H   UNL     1      24.420  25.015  36.201  1.00  0.00     0.210 HD
ENDBRANCH  22  23
ENDBRANCH  17  22
BRANCH  19  25
ATOM     25  O   UNL     1      26.515  25.146  38.681  1.00  0.00    -0.350 OA
BRANCH  25  26
ATOM     26  C   UNL     1      25.172  25.356  38.963  1.00  0.00     0.169 C 
BRANCH  26  27
ATOM     27  C   UNL     1      24.571  24.152  39.661  1.00  0.00     0.119 C 
BRANCH  27  28
ATOM     28  N   UNL     1      24.535  22.982  38.804  1.00  0.00    -0.092 NA
ATOM     29  N   UNL     1      23.735  22.920  37.884  1.00  0.00     0.001 N 
ATOM     30  N   UNL     1      23.327  22.846  36.715  1.00  0.00    -0.003 NA
ENDBRANCH  27  28
ENDBRANCH  26  27
ENDBRANCH  25  26
ENDBRANCH  19  25
BRANCH  20  31
ATOM     31  O   UNL     1      28.061  24.587  34.274  1.00  0.00    -0.387 OA
ATOM     32  H   UNL     1      28.477  25.027  33.476  1.00  0.00     0.211 HD
ENDBRANCH  20  31
BRANCH  21  33
ATOM     33  O   UNL     1      28.693  24.249  37.267  1.00  0.00    -0.385 OA
ATOM     34  H   UNL     1      28.972  24.909  37.954  1.00  0.00     0.211 HD
ENDBRANCH  21  33
ENDBRANCH  15  16
ENDBRANCH  10  15
BRANCH  12  35
ATOM     35  O   UNL     1      28.102  31.208  35.022  1.00  0.00    -0.385 OA
ATOM     36  H   UNL     1      27.985  31.904  34.315  1.00  0.00     0.211 HD
ENDBRANCH  12  35
BRANCH  13  37
ATOM     37  O   UNL     1      29.460  29.132  32.512  1.00  0.00    -0.387 OA
ATOM     38  H   UNL     1      30.338  29.288  32.100  1.00  0.00     0.211 HD
ENDBRANCH  13  37
BRANCH  14  39
ATOM     39  O   UNL     1      27.728  31.014  30.985  1.00  0.00    -0.387 OA
ATOM     40  H   UNL     1      28.671  30.915  30.733  1.00  0.00     0.211 HD
ENDBRANCH  14  39
ENDBRANCH   8   9
ENDBRANCH   7   8
ENDBRANCH   1   7
BRANCH   1  41
ATOM     41  C   UNL     1      27.905  25.986  31.261  1.00  0.00     0.364 C 
ATOM     42  O   UNL     1      27.260  24.951  31.455  1.00  0.00    -0.246 OA
BRANCH  41  43
ATOM     43  O   UNL     1      28.982  26.311  32.052  1.00  0.00    -0.477 OA
ATOM     44  H   UNL     1      29.233  25.815  32.898  1.00  0.00     0.296 HD
ENDBRANCH  41  43
ENDBRANCH   1  41
BRANCH   3  45
ATOM     45  O   UNL     1      28.621  28.278  27.288  1.00  0.00    -0.391 OA
ATOM     46  H   UNL     1      29.404  28.462  27.847  1.00  0.00     0.211 HD
ENDBRANCH   3  45
BRANCH   5  47
ATOM     47  C   UNL     1      24.459  25.897  28.408  1.00  0.00     0.176 C 
BRANCH  47  48
ATOM     48  O   UNL     1      24.479  24.663  27.717  1.00  0.00    -0.388 OA
ATOM     49  H   UNL     1      24.568  24.857  26.751  1.00  0.00     0.211 HD
ENDBRANCH  47  48
BRANCH  47  50
ATOM     50  C   UNL     1      23.737  25.729  29.670  1.00  0.00     0.165 C 
BRANCH  50  51
ATOM     51  O   UNL     1      24.151  24.540  30.344  1.00  0.00    -0.388 OA
ATOM     52  H   UNL     1      24.082  23.830  29.632  1.00  0.00     0.211 HD
ENDBRANCH  50  51
BRANCH  50  53
ATOM     53  C   UNL     1      22.261  25.777  29.628  1.00  0.00     0.154 C 
BRANCH  53  54
ATOM     54  N   UNL     1      21.555  26.537  28.692  1.00  0.00    -0.319 N 
ATOM     55  C   UNL     1      21.377  27.930  28.602  1.00  0.00     0.407 C 
ATOM     56  H   UNL     1      21.060  25.993  27.902  1.00  0.00     0.167 HD
ATOM     57  O   UNL     1      21.884  28.735  29.396  1.00  0.00    -0.225 OA
BRANCH  55  58
ATOM     58  O   UNL     1      20.598  28.493  27.579  1.00  0.00    -0.443 OA
BRANCH  58  59
ATOM     59  C   UNL     1      21.226  29.105  26.465  1.00  0.00     0.294 C 
BRANCH  59  60
ATOM     60  C   UNL     1      21.090  28.178  25.286  1.00  0.00     0.120 A 
ATOM     61  C   UNL     1      21.191  26.805  25.367  1.00  0.00     0.138 A 
ATOM     62  N   UNL     1      20.869  28.466  23.990  1.00  0.00    -0.132 NA
ATOM     63  N   UNL     1      21.028  26.301  24.116  1.00  0.00    -0.248 N 
ATOM     64  N   UNL     1      20.842  27.321  23.345  1.00  0.00    -0.067 NA
BRANCH  63  65
ATOM     65  C   UNL     1      21.095  24.875  23.834  1.00  0.00     0.181 C 
BRANCH  65  66
ATOM     66  C   UNL     1      22.521  24.636  23.402  1.00  0.00    -0.026 A 
ATOM     67  C   UNL     1      22.764  24.385  22.074  1.00  0.00     0.007 A 
ATOM     68  C   UNL     1      23.551  24.674  24.344  1.00  0.00     0.007 A 
ATOM     69  C   UNL     1      24.031  24.151  21.590  1.00  0.00     0.020 A 
ATOM     70  C   UNL     1      24.814  24.441  23.861  1.00  0.00     0.020 A 
ATOM     71  C   UNL     1      25.050  24.191  22.548  1.00  0.00     0.052 A 
BRANCH  71  72
ATOM     72  C   UNL     1      26.399  23.927  22.063  1.00  0.00     0.099 C 
ATOM     73  N   UNL     1      27.475  23.697  21.683  1.00  0.00    -0.192 NA
ENDBRANCH  71  72
ENDBRANCH  65  66
ENDBRANCH  63  65
ENDBRANCH  59  60
ENDBRANCH  58  59
ENDBRANCH  55  58
ENDBRANCH  53  54
ENDBRANCH  50  53
ENDBRANCH  47  50
ENDBRANCH   5  47
BRANCH   4  74
ATOM     74  N   UNL     1      25.935  27.200  26.352  1.00  0.00    -0.348 N 
ATOM     75  C   UNL     1      25.153  28.274  25.853  1.00  0.00     0.217 C 
ATOM     76  H   UNL     1      26.114  26.391  25.738  1.00  0.00     0.163 HD
ATOM     77  C   UNL     1      24.593  28.259  24.490  1.00  0.00     0.114 C 
ATOM     78  O   UNL     1      24.908  29.297  26.577  1.00  0.00    -0.275 OA
ENDBRANCH   4  74
TORSDOF 32
