REMARK VINA RESULT:    -4.684      4.321     12.034
REMARK INTER + INTRA:         -22.507
REMARK INTER:                 -17.199
REMARK INTRA:                  -5.308
REMARK UNBOUND:                -9.744
REMARK SMILES CC(=O)N[C@@H]1[C@@H](O)C[C@](OC[C@H]2O[C@@H](O[C@H]3[C@H](O)[C@@H](O)[C@H](OCCN=[N+]=[N-])O[C@@H]3CO)[C@H](O)[C@@H](O)[C@H]2O)(C(=O)O)O[C@H]1C(O)[C@H](O)CNC(=O)OCc1cn(CC(O)Cn2ccnc2[N+](=O)[O-])nn1
REMARK SMILES IDX 43 1 42 2 9 3 8 4 41 5 6 6 5 7 10 8 11 9 12 10 14 11 13 12
REMARK SMILES IDX 32 13 34 14 36 15 15 16 16 17 29 18 28 19 21 20 17 21 19 22
REMARK SMILES IDX 30 23 31 24 22 26 23 27 24 28 25 29 26 30 27 31 18 32 20 34
REMARK SMILES IDX 33 36 35 38 37 40 38 42 39 43 40 44 7 46 4 48 2 49 1 51 3 52
REMARK SMILES IDX 44 53 45 55 46 56 47 58 48 59 49 60 50 62 51 63 52 64 53 65
REMARK SMILES IDX 54 66 69 67 55 68 68 69 56 70 57 71 58 72 59 74 60 75 61 76
REMARK SMILES IDX 64 77 62 78 63 79 65 80 66 81 67 82
REMARK H PARENT 31 25 18 33 20 35 33 37 35 39 37 41 40 45 7 47 4 50 44 54
REMARK H PARENT 46 57 48 61 58 73
REMARK Flexibility Score: inf
ROOT
ATOM      1  C   UNL     1      13.572  29.587  21.836  1.00  0.00     0.176 C 
ENDROOT
BRANCH   1   2
ATOM      2  C   UNL     1      14.563  29.750  20.643  1.00  0.00     0.178 C 
ATOM      3  C   UNL     1      16.864  29.678  20.416  1.00  0.00     0.272 C 
ATOM      4  C   UNL     1      16.821  30.861  19.494  1.00  0.00     0.113 C 
ATOM      5  O   UNL     1      15.793  29.715  21.303  1.00  0.00    -0.332 OA
ATOM      6  C   UNL     1      15.709  31.828  19.881  1.00  0.00     0.145 C 
ATOM      7  C   UNL     1      14.391  31.081  20.037  1.00  0.00     0.142 C 
BRANCH   3   8
ATOM      8  O   UNL     1      17.976  29.675  21.249  1.00  0.00    -0.338 OA
BRANCH   8   9
ATOM      9  C   UNL     1      19.038  30.434  20.932  1.00  0.00     0.199 C 
BRANCH   9  10
ATOM     10  C   UNL     1      20.260  29.633  20.527  1.00  0.00     0.179 C 
ATOM     11  C   UNL     1      21.295  27.672  20.794  1.00  0.00     0.282 C 
ATOM     12  O   UNL     1      20.010  28.236  20.602  1.00  0.00    -0.341 OA
ATOM     13  C   UNL     1      22.199  28.007  19.633  1.00  0.00     0.202 C 
ATOM     14  C   UNL     1      21.310  28.567  18.525  1.00  0.00     0.179 C 
ATOM     15  C   UNL     1      20.671  29.841  19.087  1.00  0.00     0.177 C 
BRANCH  11  16
ATOM     16  O   UNL     1      21.237  26.304  20.961  1.00  0.00    -0.341 OA
BRANCH  16  17
ATOM     17  C   UNL     1      22.144  25.966  21.939  1.00  0.00     0.184 C 
ATOM     18  C   UNL     1      22.932  24.700  21.637  1.00  0.00     0.178 C 
ATOM     19  O   UNL     1      24.029  24.759  22.502  1.00  0.00    -0.341 OA
ATOM     20  C   UNL     1      23.712  24.625  23.826  1.00  0.00     0.281 C 
ATOM     21  C   UNL     1      21.473  25.691  23.277  1.00  0.00     0.180 C 
ATOM     22  C   UNL     1      22.455  25.257  24.298  1.00  0.00     0.202 C 
BRANCH  18  23
ATOM     23  C   UNL     1      23.367  24.576  20.221  1.00  0.00     0.191 C 
BRANCH  23  24
ATOM     24  O   UNL     1      22.264  24.223  19.454  1.00  0.00    -0.394 OA
ATOM     25  H   UNL     1      21.837  23.382  19.755  1.00  0.00     0.210 HD
ENDBRANCH  23  24
ENDBRANCH  18  23
BRANCH  20  26
ATOM     26  O   UNL     1      24.774  25.240  24.543  1.00  0.00    -0.350 OA
BRANCH  26  27
ATOM     27  C   UNL     1      24.455  26.499  24.987  1.00  0.00     0.169 C 
BRANCH  27  28
ATOM     28  C   UNL     1      25.015  26.600  26.412  1.00  0.00     0.119 C 
BRANCH  28  29
ATOM     29  N   UNL     1      24.849  25.384  27.147  1.00  0.00    -0.092 NA
ATOM     30  N   UNL     1      23.777  25.115  27.736  1.00  0.00     0.001 N 
ATOM     31  N   UNL     1      22.757  24.508  28.018  1.00  0.00    -0.003 NA
ENDBRANCH  28  29
ENDBRANCH  27  28
ENDBRANCH  26  27
ENDBRANCH  20  26
BRANCH  21  32
ATOM     32  O   UNL     1      20.841  26.870  23.723  1.00  0.00    -0.387 OA
ATOM     33  H   UNL     1      19.896  26.654  23.809  1.00  0.00     0.211 HD
ENDBRANCH  21  32
BRANCH  22  34
ATOM     34  O   UNL     1      21.791  24.290  25.096  1.00  0.00    -0.385 OA
ATOM     35  H   UNL     1      22.403  23.923  25.786  1.00  0.00     0.211 HD
ENDBRANCH  22  34
ENDBRANCH  16  17
ENDBRANCH  11  16
BRANCH  13  36
ATOM     36  O   UNL     1      23.126  28.961  20.054  1.00  0.00    -0.385 OA
ATOM     37  H   UNL     1      22.989  29.833  19.588  1.00  0.00     0.211 HD
ENDBRANCH  13  36
BRANCH  14  38
ATOM     38  O   UNL     1      20.273  27.671  18.337  1.00  0.00    -0.387 OA
ATOM     39  H   UNL     1      19.467  28.140  18.064  1.00  0.00     0.211 HD
ENDBRANCH  14  38
BRANCH  15  40
ATOM     40  O   UNL     1      19.604  30.115  18.260  1.00  0.00    -0.387 OA
ATOM     41  H   UNL     1      18.874  30.591  18.731  1.00  0.00     0.211 HD
ENDBRANCH  15  40
ENDBRANCH   9  10
ENDBRANCH   8   9
ENDBRANCH   3   8
BRANCH   3  42
ATOM     42  C   UNL     1      16.815  28.417  19.663  1.00  0.00     0.364 C 
ATOM     43  O   UNL     1      16.419  27.323  20.197  1.00  0.00    -0.246 OA
BRANCH  42  44
ATOM     44  O   UNL     1      17.188  28.296  18.339  1.00  0.00    -0.477 OA
ATOM     45  H   UNL     1      16.777  28.853  17.584  1.00  0.00     0.296 HD
ENDBRANCH  42  44
ENDBRANCH   3  42
BRANCH   6  46
ATOM     46  O   UNL     1      16.026  32.555  21.012  1.00  0.00    -0.391 OA
ATOM     47  H   UNL     1      15.919  32.017  21.836  1.00  0.00     0.211 HD
ENDBRANCH   6  46
BRANCH   7  48
ATOM     48  N   UNL     1      13.605  31.189  18.849  1.00  0.00    -0.348 N 
ATOM     49  C   UNL     1      13.727  30.480  17.659  1.00  0.00     0.217 C 
ATOM     50  H   UNL     1      12.775  31.921  18.855  1.00  0.00     0.163 HD
ATOM     51  C   UNL     1      12.767  30.712  16.504  1.00  0.00     0.114 C 
ATOM     52  O   UNL     1      14.595  29.630  17.448  1.00  0.00    -0.275 OA
ENDBRANCH   7  48
ENDBRANCH   1   2
BRANCH   1  53
ATOM     53  O   UNL     1      12.519  30.509  21.613  1.00  0.00    -0.388 OA
ATOM     54  H   UNL     1      11.972  30.644  22.402  1.00  0.00     0.211 HD
ENDBRANCH   1  53
BRANCH   1  55
ATOM     55  C   UNL     1      14.150  29.777  23.159  1.00  0.00     0.165 C 
BRANCH  55  56
ATOM     56  O   UNL     1      14.702  28.685  23.778  1.00  0.00    -0.388 OA
ATOM     57  H   UNL     1      14.137  27.880  23.757  1.00  0.00     0.211 HD
ENDBRANCH  55  56
BRANCH  55  58
ATOM     58  C   UNL     1      13.180  30.469  24.147  1.00  0.00     0.154 C 
BRANCH  58  59
ATOM     59  N   UNL     1      12.157  29.476  24.454  1.00  0.00    -0.319 N 
ATOM     60  C   UNL     1      10.761  29.762  24.298  1.00  0.00     0.407 C 
ATOM     61  H   UNL     1      12.428  28.527  24.796  1.00  0.00     0.167 HD
ATOM     62  O   UNL     1      10.403  30.886  23.888  1.00  0.00    -0.225 OA
BRANCH  60  63
ATOM     63  O   UNL     1       9.799  28.820  24.596  1.00  0.00    -0.443 OA
BRANCH  63  64
ATOM     64  C   UNL     1       8.418  29.009  24.639  1.00  0.00     0.294 C 
BRANCH  64  65
ATOM     65  C   UNL     1       7.731  27.703  24.795  1.00  0.00     0.120 A 
ATOM     66  C   UNL     1       6.429  27.498  25.213  1.00  0.00     0.138 A 
ATOM     67  N   UNL     1       8.209  26.472  24.564  1.00  0.00    -0.132 NA
ATOM     68  N   UNL     1       6.177  26.165  25.215  1.00  0.00    -0.249 N 
ATOM     69  N   UNL     1       7.272  25.570  24.819  1.00  0.00    -0.067 NA
BRANCH  68  70
ATOM     70  C   UNL     1       4.877  25.601  25.567  1.00  0.00     0.181 C 
BRANCH  70  71
ATOM     71  C   UNL     1       3.867  26.705  25.265  1.00  0.00     0.170 C 
BRANCH  71  72
ATOM     72  O   UNL     1       3.252  26.420  24.069  1.00  0.00    -0.388 OA
ATOM     73  H   UNL     1       2.762  27.211  23.739  1.00  0.00     0.211 HD
ENDBRANCH  71  72
BRANCH  71  74
ATOM     74  C   UNL     1       2.908  26.862  26.405  1.00  0.00     0.239 C 
BRANCH  74  75
ATOM     75  N   UNL     1       3.254  28.046  27.175  1.00  0.00    -0.227 N 
ATOM     76  C   UNL     1       3.644  27.969  28.489  1.00  0.00     0.204 A 
ATOM     77  C   UNL     1       3.278  29.319  26.781  1.00  0.00     0.434 A 
ATOM     78  C   UNL     1       3.917  29.252  28.904  1.00  0.00     0.245 A 
ATOM     79  N   UNL     1       3.688  30.059  27.849  1.00  0.00    -0.074 NA
BRANCH  77  80
ATOM     80  N   UNL     1       2.932  29.820  25.502  1.00  0.00    -0.047 N 
ATOM     81  O   UNL     1       1.716  29.883  25.134  1.00  0.00    -0.390 OA
ATOM     82  O   UNL     1       3.849  30.255  24.585  1.00  0.00    -0.390 OA
ENDBRANCH  77  80
ENDBRANCH  74  75
ENDBRANCH  71  74
ENDBRANCH  70  71
ENDBRANCH  68  70
ENDBRANCH  64  65
ENDBRANCH  63  64
ENDBRANCH  60  63
ENDBRANCH  58  59
ENDBRANCH  55  58
ENDBRANCH   1  55
TORSDOF 35
