REMARK VINA RESULT:    -4.856     14.979     20.139
REMARK INTER + INTRA:         -20.922
REMARK INTER:                 -13.545
REMARK INTRA:                  -7.377
REMARK UNBOUND:                -8.118
REMARK SMILES CC(=O)N[C@@H]1[C@@H](O)C[C@](OC[C@H]2O[C@@H](O[C@H]3[C@H](O)[C@@H](O)[C@H](OCCN=[N+]=[N-])O[C@@H]3CO)[C@H](O)[C@@H](O)[C@H]2O)(C(=O)O)O[C@H]1C(O)[C@H](O)CNC(=O)OCc1cn(CCOC(C)=O)nn1
REMARK SMILES IDX 43 1 42 2 9 3 8 4 41 5 6 6 5 7 10 8 11 9 12 10 14 11 13 12
REMARK SMILES IDX 32 13 34 14 36 15 15 16 16 17 29 18 28 19 21 20 17 21 19 22
REMARK SMILES IDX 30 23 31 24 22 26 23 27 24 28 25 29 26 30 27 31 18 32 20 34
REMARK SMILES IDX 33 36 35 38 37 40 38 42 39 43 40 44 7 46 4 48 2 49 1 51 3 52
REMARK SMILES IDX 44 53 45 55 46 56 47 58 48 59 49 60 50 62 51 63 52 64 53 65
REMARK SMILES IDX 54 66 63 67 55 68 62 69 56 70 57 71 58 72 59 73 61 74 60 75
REMARK H PARENT 31 25 18 33 20 35 33 37 35 39 37 41 40 45 7 47 4 50 44 54
REMARK H PARENT 46 57 48 61
REMARK Flexibility Score: inf
ROOT
ATOM      1  C   UNL     1      19.448  31.876  19.491  1.00  0.00     0.176 C 
ENDROOT
BRANCH   1   2
ATOM      2  C   UNL     1      20.104  30.828  20.354  1.00  0.00     0.178 C 
ATOM      3  C   UNL     1      22.277  30.037  20.811  1.00  0.00     0.272 C 
ATOM      4  C   UNL     1      21.475  29.225  21.798  1.00  0.00     0.113 C 
ATOM      5  O   UNL     1      21.489  31.052  20.203  1.00  0.00    -0.332 OA
ATOM      6  C   UNL     1      20.278  28.583  21.195  1.00  0.00     0.145 C 
ATOM      7  C   UNL     1      19.887  29.408  19.935  1.00  0.00     0.142 C 
BRANCH   3   8
ATOM      8  O   UNL     1      22.867  29.396  19.831  1.00  0.00    -0.338 OA
BRANCH   8   9
ATOM      9  C   UNL     1      23.956  28.684  19.771  1.00  0.00     0.199 C 
BRANCH   9  10
ATOM     10  C   UNL     1      24.056  27.251  19.461  1.00  0.00     0.179 C 
ATOM     11  C   UNL     1      23.771  25.209  20.491  1.00  0.00     0.282 C 
ATOM     12  O   UNL     1      23.313  26.534  20.477  1.00  0.00    -0.341 OA
ATOM     13  C   UNL     1      23.991  24.625  19.159  1.00  0.00     0.202 C 
ATOM     14  C   UNL     1      23.548  25.413  17.976  1.00  0.00     0.179 C 
ATOM     15  C   UNL     1      23.246  26.852  18.212  1.00  0.00     0.177 C 
BRANCH  11  16
ATOM     16  O   UNL     1      22.933  24.508  21.342  1.00  0.00    -0.341 OA
BRANCH  16  17
ATOM     17  C   UNL     1      23.387  24.455  22.635  1.00  0.00     0.184 C 
ATOM     18  C   UNL     1      22.460  25.236  23.537  1.00  0.00     0.178 C 
ATOM     19  O   UNL     1      22.985  25.092  24.828  1.00  0.00    -0.341 OA
ATOM     20  C   UNL     1      24.069  25.905  24.976  1.00  0.00     0.281 C 
ATOM     21  C   UNL     1      24.803  24.993  22.764  1.00  0.00     0.180 C 
ATOM     22  C   UNL     1      24.889  26.131  23.728  1.00  0.00     0.202 C 
BRANCH  18  23
ATOM     23  C   UNL     1      21.072  24.623  23.511  1.00  0.00     0.191 C 
BRANCH  23  24
ATOM     24  O   UNL     1      20.425  24.977  22.342  1.00  0.00    -0.394 OA
ATOM     25  H   UNL     1      20.014  25.876  22.516  1.00  0.00     0.210 HD
ENDBRANCH  23  24
ENDBRANCH  18  23
BRANCH  20  26
ATOM     26  O   UNL     1      24.857  25.373  26.005  1.00  0.00    -0.350 OA
BRANCH  26  27
ATOM     27  C   UNL     1      24.072  24.856  27.029  1.00  0.00     0.169 C 
BRANCH  27  28
ATOM     28  C   UNL     1      23.851  26.018  28.003  1.00  0.00     0.119 C 
BRANCH  28  29
ATOM     29  N   UNL     1      22.427  26.107  28.280  1.00  0.00    -0.092 NA
ATOM     30  N   UNL     1      21.628  26.621  27.487  1.00  0.00     0.001 N 
ATOM     31  N   UNL     1      20.909  27.455  26.906  1.00  0.00    -0.003 NA
ENDBRANCH  28  29
ENDBRANCH  27  28
ENDBRANCH  26  27
ENDBRANCH  20  26
BRANCH  21  32
ATOM     32  O   UNL     1      25.735  24.007  23.063  1.00  0.00    -0.387 OA
ATOM     33  H   UNL     1      26.594  24.359  23.402  1.00  0.00     0.211 HD
ENDBRANCH  21  32
BRANCH  22  34
ATOM     34  O   UNL     1      24.617  27.331  23.102  1.00  0.00    -0.385 OA
ATOM     35  H   UNL     1      23.659  27.323  22.811  1.00  0.00     0.211 HD
ENDBRANCH  22  34
ENDBRANCH  16  17
ENDBRANCH  11  16
BRANCH  13  36
ATOM     36  O   UNL     1      25.326  24.168  18.997  1.00  0.00    -0.385 OA
ATOM     37  H   UNL     1      25.634  24.265  18.072  1.00  0.00     0.211 HD
ENDBRANCH  13  36
BRANCH  14  38
ATOM     38  O   UNL     1      22.425  24.836  17.362  1.00  0.00    -0.387 OA
ATOM     39  H   UNL     1      21.608  25.270  17.748  1.00  0.00     0.211 HD
ENDBRANCH  14  38
BRANCH  15  40
ATOM     40  O   UNL     1      21.871  26.929  18.565  1.00  0.00    -0.387 OA
ATOM     41  H   UNL     1      21.315  26.517  17.873  1.00  0.00     0.211 HD
ENDBRANCH  15  40
ENDBRANCH   9  10
ENDBRANCH   8   9
ENDBRANCH   3   8
BRANCH   3  42
ATOM     42  C   UNL     1      23.193  30.864  21.645  1.00  0.00     0.364 C 
ATOM     43  O   UNL     1      23.544  32.036  21.413  1.00  0.00    -0.246 OA
BRANCH  42  44
ATOM     44  O   UNL     1      23.746  30.316  22.823  1.00  0.00    -0.477 OA
ATOM     45  H   UNL     1      24.465  30.835  23.306  1.00  0.00     0.296 HD
ENDBRANCH  42  44
ENDBRANCH   3  42
BRANCH   6  46
ATOM     46  O   UNL     1      20.409  27.250  20.883  1.00  0.00    -0.391 OA
ATOM     47  H   UNL     1      21.313  26.888  21.067  1.00  0.00     0.211 HD
ENDBRANCH   6  46
BRANCH   7  48
ATOM     48  N   UNL     1      18.578  29.030  19.518  1.00  0.00    -0.348 N 
ATOM     49  C   UNL     1      18.336  28.393  18.274  1.00  0.00     0.217 C 
ATOM     50  H   UNL     1      17.778  29.201  20.147  1.00  0.00     0.163 HD
ATOM     51  C   UNL     1      16.959  28.000  17.843  1.00  0.00     0.114 C 
ATOM     52  O   UNL     1      19.278  28.124  17.468  1.00  0.00    -0.275 OA
ENDBRANCH   7  48
ENDBRANCH   1   2
BRANCH   1  53
ATOM     53  O   UNL     1      20.316  33.009  19.588  1.00  0.00    -0.388 OA
ATOM     54  H   UNL     1      20.507  33.363  18.695  1.00  0.00     0.211 HD
ENDBRANCH   1  53
BRANCH   1  55
ATOM     55  C   UNL     1      18.166  32.351  20.132  1.00  0.00     0.165 C 
BRANCH  55  56
ATOM     56  O   UNL     1      17.948  31.629  21.316  1.00  0.00    -0.388 OA
ATOM     57  H   UNL     1      17.660  30.725  21.074  1.00  0.00     0.211 HD
ENDBRANCH  55  56
BRANCH  55  58
ATOM     58  C   UNL     1      16.984  32.280  19.216  1.00  0.00     0.154 C 
BRANCH  58  59
ATOM     59  N   UNL     1      16.152  31.128  19.368  1.00  0.00    -0.319 N 
ATOM     60  C   UNL     1      14.746  31.170  19.311  1.00  0.00     0.407 C 
ATOM     61  H   UNL     1      16.565  30.158  19.534  1.00  0.00     0.167 HD
ATOM     62  O   UNL     1      14.108  32.224  19.110  1.00  0.00    -0.225 OA
BRANCH  60  63
ATOM     63  O   UNL     1      13.964  30.016  19.481  1.00  0.00    -0.443 OA
BRANCH  63  64
ATOM     64  C   UNL     1      14.448  28.863  20.108  1.00  0.00     0.294 C 
BRANCH  64  65
ATOM     65  C   UNL     1      15.137  29.175  21.390  1.00  0.00     0.120 A 
ATOM     66  C   UNL     1      14.480  29.598  22.533  1.00  0.00     0.138 A 
ATOM     67  N   UNL     1      16.425  29.118  21.714  1.00  0.00    -0.132 NA
ATOM     68  N   UNL     1      15.401  29.776  23.485  1.00  0.00    -0.249 N 
ATOM     69  N   UNL     1      16.577  29.478  22.966  1.00  0.00    -0.067 NA
BRANCH  68  70
ATOM     70  C   UNL     1      15.177  30.234  24.864  1.00  0.00     0.187 C 
BRANCH  70  71
ATOM     71  C   UNL     1      14.281  31.453  24.860  1.00  0.00     0.256 C 
BRANCH  71  72
ATOM     72  O   UNL     1      12.953  31.033  25.150  1.00  0.00    -0.464 OA
BRANCH  72  73
ATOM     73  C   UNL     1      11.864  31.736  24.643  1.00  0.00     0.302 C 
ATOM     74  O   UNL     1      11.773  32.957  24.914  1.00  0.00    -0.253 OA
ATOM     75  C   UNL     1      10.814  31.083  23.793  1.00  0.00     0.139 C 
ENDBRANCH  72  73
ENDBRANCH  71  72
ENDBRANCH  70  71
ENDBRANCH  68  70
ENDBRANCH  64  65
ENDBRANCH  63  64
ENDBRANCH  60  63
ENDBRANCH  58  59
ENDBRANCH  55  58
ENDBRANCH   1  55
TORSDOF 33
