REMARK VINA RESULT:    -6.401      6.873     14.377
REMARK INTER + INTRA:         -21.482
REMARK INTER:                 -15.512
REMARK INTRA:                  -5.971
REMARK UNBOUND:                -5.351
REMARK SMILES CC(=O)N[C@@H]1[C@@H](O)C[C@](OC[C@H]2O[C@@H](O[C@H]3[C@H](O)[C@@H](O)[C@H](OCCN=[N+]=[N-])O[C@@H]3CO)[C@H](O)[C@@H](O)[C@H]2O)(C(=O)O)O[C@H]1C(O)[C@H](O)CNC(=O)OCc1cn(-c2ccc([N+](=O)[O-])cc2)nn1
REMARK SMILES IDX 9 1 8 2 6 3 5 4 42 5 41 6 10 7 11 8 12 9 14 10 13 11 32 12
REMARK SMILES IDX 34 13 36 14 15 15 16 16 29 17 28 18 21 19 17 20 19 21 30 22
REMARK SMILES IDX 31 23 22 25 23 26 24 27 25 28 26 29 27 30 18 31 20 33 33 35
REMARK SMILES IDX 35 37 37 39 38 41 39 42 40 43 7 45 43 47 44 48 45 50 46 51
REMARK SMILES IDX 47 53 48 54 49 55 50 57 51 58 52 59 53 60 54 61 66 62 55 63
REMARK SMILES IDX 65 64 56 65 57 66 64 67 58 68 63 69 59 70 60 71 61 72 62 73
REMARK SMILES IDX 4 74 2 75 1 77 3 78
REMARK H PARENT 31 24 18 32 20 34 33 36 35 38 37 40 40 44 7 46 44 49 46 52
REMARK H PARENT 48 56 4 76
REMARK Flexibility Score: inf
ROOT
ATOM      1  C   UNL     1      20.138  28.911  21.266  1.00  0.00     0.272 C 
ATOM      2  C   UNL     1      21.195  29.455  20.360  1.00  0.00     0.113 C 
ATOM      3  C   UNL     1      21.920  28.357  19.708  1.00  0.00     0.145 C 
ATOM      4  C   UNL     1      21.690  26.956  20.303  1.00  0.00     0.142 C 
ATOM      5  C   UNL     1      21.536  27.073  21.747  1.00  0.00     0.178 C 
ATOM      6  O   UNL     1      20.754  28.122  22.222  1.00  0.00    -0.332 OA
ENDROOT
BRANCH   1   7
ATOM      7  O   UNL     1      19.080  28.318  20.652  1.00  0.00    -0.338 OA
BRANCH   7   8
ATOM      8  C   UNL     1      18.204  29.131  20.008  1.00  0.00     0.199 C 
BRANCH   8   9
ATOM      9  C   UNL     1      17.042  28.350  19.408  1.00  0.00     0.179 C 
ATOM     10  C   UNL     1      15.259  29.821  19.053  1.00  0.00     0.282 C 
ATOM     11  O   UNL     1      15.815  28.824  19.790  1.00  0.00    -0.341 OA
ATOM     12  C   UNL     1      15.972  30.299  17.854  1.00  0.00     0.202 C 
ATOM     13  C   UNL     1      16.613  29.163  17.102  1.00  0.00     0.179 C 
ATOM     14  C   UNL     1      17.162  28.073  17.952  1.00  0.00     0.177 C 
BRANCH  10  15
ATOM     15  O   UNL     1      14.882  30.830  19.933  1.00  0.00    -0.341 OA
BRANCH  15  16
ATOM     16  C   UNL     1      15.115  30.624  21.252  1.00  0.00     0.184 C 
ATOM     17  C   UNL     1      13.869  30.611  22.109  1.00  0.00     0.178 C 
ATOM     18  O   UNL     1      14.261  30.450  23.454  1.00  0.00    -0.341 OA
ATOM     19  C   UNL     1      14.831  31.640  23.905  1.00  0.00     0.281 C 
ATOM     20  C   UNL     1      15.898  31.855  21.748  1.00  0.00     0.180 C 
ATOM     21  C   UNL     1      16.205  31.691  23.223  1.00  0.00     0.202 C 
BRANCH  17  22
ATOM     22  C   UNL     1      12.925  29.474  21.814  1.00  0.00     0.191 C 
BRANCH  22  23
ATOM     23  O   UNL     1      13.753  28.331  21.687  1.00  0.00    -0.394 OA
ATOM     24  H   UNL     1      14.519  28.385  22.318  1.00  0.00     0.210 HD
ENDBRANCH  22  23
ENDBRANCH  17  22
BRANCH  19  25
ATOM     25  O   UNL     1      15.023  31.596  25.261  1.00  0.00    -0.350 OA
BRANCH  25  26
ATOM     26  C   UNL     1      14.459  32.617  25.983  1.00  0.00     0.169 C 
BRANCH  26  27
ATOM     27  C   UNL     1      15.333  33.193  27.061  1.00  0.00     0.119 C 
BRANCH  27  28
ATOM     28  N   UNL     1      16.731  32.966  26.689  1.00  0.00    -0.092 NA
ATOM     29  N   UNL     1      17.366  32.081  27.244  1.00  0.00     0.001 N 
ATOM     30  N   UNL     1      17.893  31.053  27.638  1.00  0.00    -0.003 NA
ENDBRANCH  27  28
ENDBRANCH  26  27
ENDBRANCH  25  26
ENDBRANCH  19  25
BRANCH  20  31
ATOM     31  O   UNL     1      17.007  32.101  20.988  1.00  0.00    -0.387 OA
ATOM     32  H   UNL     1      17.185  33.042  20.791  1.00  0.00     0.211 HD
ENDBRANCH  20  31
BRANCH  21  33
ATOM     33  O   UNL     1      16.966  32.740  23.662  1.00  0.00    -0.385 OA
ATOM     34  H   UNL     1      16.703  33.556  23.172  1.00  0.00     0.211 HD
ENDBRANCH  21  33
ENDBRANCH  15  16
ENDBRANCH  10  15
BRANCH  12  35
ATOM     35  O   UNL     1      15.032  30.832  16.950  1.00  0.00    -0.385 OA
ATOM     36  H   UNL     1      14.143  30.902  17.347  1.00  0.00     0.211 HD
ENDBRANCH  12  35
BRANCH  13  37
ATOM     37  O   UNL     1      17.598  29.692  16.234  1.00  0.00    -0.387 OA
ATOM     38  H   UNL     1      17.429  30.645  16.151  1.00  0.00     0.211 HD
ENDBRANCH  13  37
BRANCH  14  39
ATOM     39  O   UNL     1      18.462  27.694  17.648  1.00  0.00    -0.387 OA
ATOM     40  H   UNL     1      18.996  28.530  17.558  1.00  0.00     0.211 HD
ENDBRANCH  14  39
ENDBRANCH   8   9
ENDBRANCH   7   8
ENDBRANCH   1   7
BRANCH   1  41
ATOM     41  C   UNL     1      19.614  30.064  22.097  1.00  0.00     0.364 C 
ATOM     42  O   UNL     1      19.851  31.239  21.758  1.00  0.00    -0.246 OA
BRANCH  41  43
ATOM     43  O   UNL     1      18.885  29.807  23.224  1.00  0.00    -0.477 OA
ATOM     44  H   UNL     1      19.235  29.327  24.049  1.00  0.00     0.296 HD
ENDBRANCH  41  43
ENDBRANCH   1  41
BRANCH   3  45
ATOM     45  O   UNL     1      21.583  28.260  18.360  1.00  0.00    -0.391 OA
ATOM     46  H   UNL     1      22.297  28.612  17.792  1.00  0.00     0.211 HD
ENDBRANCH   3  45
BRANCH   5  47
ATOM     47  C   UNL     1      21.170  25.940  22.600  1.00  0.00     0.176 C 
BRANCH  47  48
ATOM     48  O   UNL     1      21.378  24.666  22.064  1.00  0.00    -0.388 OA
ATOM     49  H   UNL     1      22.075  24.613  21.388  1.00  0.00     0.211 HD
ENDBRANCH  47  48
BRANCH  47  50
ATOM     50  C   UNL     1      21.640  25.864  24.017  1.00  0.00     0.165 C 
BRANCH  50  51
ATOM     51  O   UNL     1      22.095  27.019  24.575  1.00  0.00    -0.388 OA
ATOM     52  H   UNL     1      21.368  27.667  24.769  1.00  0.00     0.211 HD
ENDBRANCH  50  51
BRANCH  50  53
ATOM     53  C   UNL     1      22.404  24.604  24.322  1.00  0.00     0.154 C 
BRANCH  53  54
ATOM     54  N   UNL     1      23.835  24.725  24.242  1.00  0.00    -0.319 N 
ATOM     55  C   UNL     1      24.603  24.410  23.095  1.00  0.00     0.407 C 
ATOM     56  H   UNL     1      24.387  25.069  25.072  1.00  0.00     0.167 HD
ATOM     57  O   UNL     1      24.044  23.992  22.077  1.00  0.00    -0.225 OA
BRANCH  55  58
ATOM     58  O   UNL     1      25.992  24.557  23.078  1.00  0.00    -0.443 OA
BRANCH  58  59
ATOM     59  C   UNL     1      26.738  24.873  21.932  1.00  0.00     0.294 C 
BRANCH  59  60
ATOM     60  C   UNL     1      27.301  23.650  21.324  1.00  0.00     0.121 A 
ATOM     61  C   UNL     1      27.149  23.183  20.020  1.00  0.00     0.144 A 
ATOM     62  N   UNL     1      28.109  22.721  21.916  1.00  0.00    -0.131 NA
ATOM     63  N   UNL     1      27.840  22.038  19.868  1.00  0.00    -0.220 N 
ATOM     64  N   UNL     1      28.405  21.789  21.029  1.00  0.00    -0.062 NA
BRANCH  63  65
ATOM     65  C   UNL     1      27.957  21.247  18.680  1.00  0.00     0.067 A 
ATOM     66  C   UNL     1      27.559  21.674  17.436  1.00  0.00     0.035 A 
ATOM     67  C   UNL     1      28.490  19.968  18.768  1.00  0.00     0.035 A 
ATOM     68  C   UNL     1      27.685  20.858  16.313  1.00  0.00     0.088 A 
ATOM     69  C   UNL     1      28.616  19.159  17.659  1.00  0.00     0.088 A 
ATOM     70  C   UNL     1      28.218  19.585  16.410  1.00  0.00     0.269 A 
BRANCH  70  71
ATOM     71  N   UNL     1      28.339  18.760  15.256  1.00  0.00     0.062 N 
ATOM     72  O   UNL     1      27.377  18.360  14.582  1.00  0.00    -0.258 OA
ATOM     73  O   UNL     1      29.600  18.384  14.870  1.00  0.00    -0.258 OA
ENDBRANCH  70  71
ENDBRANCH  63  65
ENDBRANCH  59  60
ENDBRANCH  58  59
ENDBRANCH  55  58
ENDBRANCH  53  54
ENDBRANCH  50  53
ENDBRANCH  47  50
ENDBRANCH   5  47
BRANCH   4  74
ATOM     74  N   UNL     1      22.981  26.319  19.994  1.00  0.00    -0.348 N 
ATOM     75  C   UNL     1      23.184  25.536  18.845  1.00  0.00     0.217 C 
ATOM     76  H   UNL     1      23.759  26.475  20.659  1.00  0.00     0.163 HD
ATOM     77  C   UNL     1      24.533  24.931  18.628  1.00  0.00     0.114 C 
ATOM     78  O   UNL     1      22.290  25.330  18.010  1.00  0.00    -0.275 OA
ENDBRANCH   4  74
TORSDOF 31
