REMARK VINA RESULT:    -6.479      9.166     17.026
REMARK INTER + INTRA:         -24.890
REMARK INTER:                 -17.831
REMARK INTRA:                  -7.059
REMARK UNBOUND:                -7.995
REMARK SMILES CC(=O)N[C@@H]1[C@@H](O)C[C@](OC[C@H]2O[C@@H](O[C@H]3[C@H](O)[C@@H](O)[C@H](OCCN=[N+]=[N-])O[C@@H]3CO)[C@H](O)[C@@H](O)[C@H]2O)(C(=O)O)O[C@H]1C(O)[C@H](O)CNC(=O)OCc1cn(-c2ccc(-c3c4ccc(=O)cc-4oc4cc(O)ccc34)c(C(=O)[O-])c2)nn1
REMARK SMILES IDX 9 1 8 2 6 3 5 4 42 5 41 6 10 7 11 8 12 9 14 10 13 11 32 12
REMARK SMILES IDX 34 13 36 14 15 15 16 16 29 17 28 18 21 19 17 20 19 21 30 22
REMARK SMILES IDX 31 23 22 25 23 26 24 27 25 28 26 29 27 30 18 31 20 33 33 35
REMARK SMILES IDX 35 37 37 39 38 41 39 42 40 43 7 45 43 47 44 48 45 50 46 51
REMARK SMILES IDX 47 53 48 54 49 55 50 57 51 58 52 59 53 60 54 61 82 62 55 63
REMARK SMILES IDX 81 64 56 65 80 66 57 67 76 68 58 69 59 70 77 71 78 72 79 73
REMARK SMILES IDX 60 74 75 75 61 76 74 77 69 78 67 79 62 80 73 81 70 82 68 83
REMARK SMILES IDX 66 84 63 85 71 86 64 87 65 88 72 89 4 91 2 92 1 94 3 95
REMARK H PARENT 31 24 18 32 20 34 33 36 35 38 37 40 40 44 7 46 44 49 46 52
REMARK H PARENT 48 56 72 90 4 93
REMARK Flexibility Score: inf
ROOT
ATOM      1  C   UNL     1      16.042  29.222  18.737  1.00  0.00     0.272 C 
ATOM      2  C   UNL     1      16.699  28.457  17.616  1.00  0.00     0.113 C 
ATOM      3  C   UNL     1      16.809  29.248  16.342  1.00  0.00     0.145 C 
ATOM      4  C   UNL     1      15.878  30.428  16.448  1.00  0.00     0.142 C 
ATOM      5  C   UNL     1      14.588  29.909  17.025  1.00  0.00     0.178 C 
ATOM      6  O   UNL     1      14.748  29.662  18.366  1.00  0.00    -0.332 OA
ENDROOT
BRANCH   1   7
ATOM      7  O   UNL     1      16.751  30.276  19.241  1.00  0.00    -0.338 OA
BRANCH   7   8
ATOM      8  C   UNL     1      16.013  31.190  19.905  1.00  0.00     0.199 C 
BRANCH   8   9
ATOM      9  C   UNL     1      16.601  31.500  21.290  1.00  0.00     0.179 C 
ATOM     10  C   UNL     1      15.982  31.874  23.479  1.00  0.00     0.282 C 
ATOM     11  O   UNL     1      15.688  31.993  22.149  1.00  0.00    -0.341 OA
ATOM     12  C   UNL     1      17.422  31.845  23.813  1.00  0.00     0.202 C 
ATOM     13  C   UNL     1      18.197  30.841  22.992  1.00  0.00     0.179 C 
ATOM     14  C   UNL     1      17.343  30.338  21.839  1.00  0.00     0.177 C 
BRANCH  10  15
ATOM     15  O   UNL     1      15.200  30.830  23.971  1.00  0.00    -0.341 OA
BRANCH  15  16
ATOM     16  C   UNL     1      13.866  31.027  23.825  1.00  0.00     0.184 C 
ATOM     17  C   UNL     1      13.142  31.095  25.134  1.00  0.00     0.178 C 
ATOM     18  O   UNL     1      11.895  31.714  24.966  1.00  0.00    -0.341 OA
ATOM     19  C   UNL     1      11.256  31.257  23.819  1.00  0.00     0.281 C 
ATOM     20  C   UNL     1      13.171  29.884  23.062  1.00  0.00     0.180 C 
ATOM     21  C   UNL     1      11.700  29.896  23.419  1.00  0.00     0.202 C 
BRANCH  17  22
ATOM     22  C   UNL     1      13.933  31.889  26.128  1.00  0.00     0.191 C 
BRANCH  22  23
ATOM     23  O   UNL     1      14.780  31.023  26.823  1.00  0.00    -0.394 OA
ATOM     24  H   UNL     1      14.210  30.329  27.225  1.00  0.00     0.210 HD
ENDBRANCH  22  23
ENDBRANCH  17  22
BRANCH  19  25
ATOM     25  O   UNL     1      11.372  32.162  22.786  1.00  0.00    -0.350 OA
BRANCH  25  26
ATOM     26  C   UNL     1      10.159  32.595  22.268  1.00  0.00     0.169 C 
BRANCH  26  27
ATOM     27  C   UNL     1      10.167  34.110  22.366  1.00  0.00     0.119 C 
BRANCH  27  28
ATOM     28  N   UNL     1       9.271  34.586  23.386  1.00  0.00    -0.092 NA
ATOM     29  N   UNL     1       9.523  34.323  24.569  1.00  0.00     0.001 N 
ATOM     30  N   UNL     1       9.708  34.396  25.784  1.00  0.00    -0.003 NA
ENDBRANCH  27  28
ENDBRANCH  26  27
ENDBRANCH  25  26
ENDBRANCH  19  25
BRANCH  20  31
ATOM     31  O   UNL     1      13.277  30.197  21.710  1.00  0.00    -0.387 OA
ATOM     32  H   UNL     1      14.034  30.785  21.496  1.00  0.00     0.211 HD
ENDBRANCH  20  31
BRANCH  21  33
ATOM     33  O   UNL     1      11.359  28.920  24.357  1.00  0.00    -0.385 OA
ATOM     34  H   UNL     1      12.184  28.800  24.922  1.00  0.00     0.211 HD
ENDBRANCH  21  33
ENDBRANCH  15  16
ENDBRANCH  10  15
BRANCH  12  35
ATOM     35  O   UNL     1      17.996  33.131  23.644  1.00  0.00    -0.385 OA
ATOM     36  H   UNL     1      18.781  33.207  24.265  1.00  0.00     0.211 HD
ENDBRANCH  12  35
BRANCH  13  37
ATOM     37  O   UNL     1      18.717  29.816  23.763  1.00  0.00    -0.387 OA
ATOM     38  H   UNL     1      19.447  29.394  23.252  1.00  0.00     0.211 HD
ENDBRANCH  13  37
BRANCH  14  39
ATOM     39  O   UNL     1      16.543  29.312  22.323  1.00  0.00    -0.387 OA
ATOM     40  H   UNL     1      15.647  29.728  22.494  1.00  0.00     0.211 HD
ENDBRANCH  14  39
ENDBRANCH   8   9
ENDBRANCH   7   8
ENDBRANCH   1   7
BRANCH   1  41
ATOM     41  C   UNL     1      15.739  28.171  19.789  1.00  0.00     0.364 C 
ATOM     42  O   UNL     1      16.549  27.293  20.137  1.00  0.00    -0.246 OA
BRANCH  41  43
ATOM     43  O   UNL     1      14.498  28.159  20.419  1.00  0.00    -0.477 OA
ATOM     44  H   UNL     1      13.899  28.972  20.404  1.00  0.00     0.296 HD
ENDBRANCH  41  43
ENDBRANCH   1  41
BRANCH   3  45
ATOM     45  O   UNL     1      18.131  29.584  16.123  1.00  0.00    -0.391 OA
ATOM     46  H   UNL     1      18.469  30.019  16.944  1.00  0.00     0.211 HD
ENDBRANCH   3  45
BRANCH   5  47
ATOM     47  C   UNL     1      13.486  30.969  16.918  1.00  0.00     0.176 C 
BRANCH  47  48
ATOM     48  O   UNL     1      13.024  31.238  18.229  1.00  0.00    -0.388 OA
ATOM     49  H   UNL     1      13.743  31.462  18.841  1.00  0.00     0.211 HD
ENDBRANCH  47  48
BRANCH  47  50
ATOM     50  C   UNL     1      12.307  30.441  16.170  1.00  0.00     0.165 C 
BRANCH  50  51
ATOM     51  O   UNL     1      12.676  29.315  15.432  1.00  0.00    -0.388 OA
ATOM     52  H   UNL     1      12.548  28.511  15.999  1.00  0.00     0.211 HD
ENDBRANCH  50  51
BRANCH  50  53
ATOM     53  C   UNL     1      11.587  31.427  15.320  1.00  0.00     0.154 C 
BRANCH  53  54
ATOM     54  N   UNL     1      10.151  31.315  15.449  1.00  0.00    -0.319 N 
ATOM     55  C   UNL     1       9.364  30.338  14.794  1.00  0.00     0.407 C 
ATOM     56  H   UNL     1       9.598  31.985  16.065  1.00  0.00     0.167 HD
ATOM     57  O   UNL     1       9.906  29.499  14.049  1.00  0.00    -0.225 OA
BRANCH  55  58
ATOM     58  O   UNL     1       7.985  30.262  14.940  1.00  0.00    -0.443 OA
BRANCH  58  59
ATOM     59  C   UNL     1       7.168  31.428  15.093  1.00  0.00     0.294 C 
BRANCH  59  60
ATOM     60  C   UNL     1       7.159  31.731  16.547  1.00  0.00     0.121 A 
ATOM     61  C   UNL     1       6.679  30.939  17.552  1.00  0.00     0.144 A 
ATOM     62  N   UNL     1       7.629  32.858  17.155  1.00  0.00    -0.131 NA
ATOM     63  N   UNL     1       6.853  31.568  18.733  1.00  0.00    -0.220 N 
ATOM     64  N   UNL     1       7.434  32.733  18.454  1.00  0.00    -0.062 NA
BRANCH  63  65
ATOM     65  C   UNL     1       6.484  31.061  20.006  1.00  0.00     0.067 A 
ATOM     66  C   UNL     1       6.740  31.747  21.169  1.00  0.00     0.039 A 
ATOM     67  C   UNL     1       5.845  29.848  20.073  1.00  0.00     0.029 A 
ATOM     68  C   UNL     1       6.356  31.215  22.378  1.00  0.00     0.007 A 
ATOM     69  C   UNL     1       5.462  29.316  21.286  1.00  0.00     0.012 A 
ATOM     70  C   UNL     1       5.708  29.985  22.463  1.00  0.00    -0.008 A 
BRANCH  68  71
ATOM     71  C   UNL     1       6.613  31.919  23.636  1.00  0.00     0.072 C 
ATOM     72  O   UNL     1       5.868  32.841  24.046  1.00  0.00    -0.545 OA
ATOM     73  O   UNL     1       7.702  31.564  24.394  1.00  0.00    -0.545 OA
ENDBRANCH  68  71
BRANCH  70  74
ATOM     74  C   UNL     1       5.306  29.435  23.745  1.00  0.00     0.004 A 
ATOM     75  C   UNL     1       6.160  28.583  24.399  1.00  0.00     0.026 A 
ATOM     76  C   UNL     1       4.099  29.736  24.322  1.00  0.00     0.026 A 
ATOM     77  C   UNL     1       7.389  28.225  23.896  1.00  0.00     0.016 A 
ATOM     78  C   UNL     1       5.758  28.063  25.624  1.00  0.00     0.139 A 
ATOM     79  C   UNL     1       3.717  29.157  25.628  1.00  0.00     0.139 A 
ATOM     80  C   UNL     1       3.195  30.579  23.728  1.00  0.00     0.016 A 
ATOM     81  C   UNL     1       8.241  27.366  24.564  1.00  0.00     0.047 A 
ATOM     82  C   UNL     1       6.611  27.210  26.282  1.00  0.00     0.093 A 
ATOM     83  O   UNL     1       4.596  28.358  26.173  1.00  0.00    -0.456 OA
ATOM     84  C   UNL     1       2.509  29.461  26.202  1.00  0.00     0.099 A 
ATOM     85  C   UNL     1       1.979  30.877  24.319  1.00  0.00     0.053 A 
ATOM     86  C   UNL     1       7.852  26.846  25.779  1.00  0.00     0.119 A 
ATOM     87  C   UNL     1       1.658  30.315  25.542  1.00  0.00     0.182 A 
ATOM     88  O   UNL     1       0.537  30.626  26.028  1.00  0.00    -0.290 OA
BRANCH  86  89
ATOM     89  O   UNL     1       8.713  25.986  26.442  1.00  0.00    -0.508 OA
ATOM     90  H   UNL     1       8.474  25.756  27.404  1.00  0.00     0.293 HD
ENDBRANCH  86  89
ENDBRANCH  70  74
ENDBRANCH  63  65
ENDBRANCH  59  60
ENDBRANCH  58  59
ENDBRANCH  55  58
ENDBRANCH  53  54
ENDBRANCH  50  53
ENDBRANCH  47  50
ENDBRANCH   5  47
BRANCH   4  91
ATOM     91  N   UNL     1      15.679  31.095  15.179  1.00  0.00    -0.348 N 
ATOM     92  C   UNL     1      16.485  32.208  14.868  1.00  0.00     0.217 C 
ATOM     93  H   UNL     1      14.967  30.793  14.479  1.00  0.00     0.163 HD
ATOM     94  C   UNL     1      16.367  32.967  13.598  1.00  0.00     0.114 C 
ATOM     95  O   UNL     1      17.377  32.629  15.683  1.00  0.00    -0.275 OA
ENDBRANCH   4  91
TORSDOF 33
