REMARK VINA RESULT:    -5.772      3.194     10.233
REMARK INTER + INTRA:         -21.243
REMARK INTER:                 -13.200
REMARK INTRA:                  -8.043
REMARK UNBOUND:                -7.035
REMARK SMILES CC(=O)N[C@@H]1[C@@H](O)C[C@](OC[C@H]2O[C@@H](O[C@H]3[C@H](O)[C@@H](O)[C@H](OCCN=[N+]=[N-])O[C@@H]3CO)[C@H](O)[C@@H](O)[C@H]2O)(C(=O)O)O[C@H]1C(O)[C@H](O)CNC(=O)OCc1cn([C@@H]2C[C@H]3CC[C@@H](C2)N3C)nn1
REMARK SMILES IDX 9 1 8 2 6 3 5 4 42 5 41 6 10 7 11 8 12 9 14 10 13 11 32 12
REMARK SMILES IDX 34 13 36 14 15 15 16 16 29 17 28 18 21 19 17 20 19 21 30 22
REMARK SMILES IDX 31 23 22 25 23 26 24 27 25 28 26 29 27 30 18 31 20 33 33 35
REMARK SMILES IDX 35 37 37 39 38 41 39 42 40 43 7 45 43 47 44 48 45 50 46 51
REMARK SMILES IDX 47 53 48 54 49 55 50 57 51 58 52 59 53 60 54 61 66 62 55 63
REMARK SMILES IDX 65 64 56 65 62 66 57 67 61 68 58 69 63 70 60 71 59 72 64 73
REMARK SMILES IDX 4 74 2 75 1 77 3 78
REMARK H PARENT 31 24 18 32 20 34 33 36 35 38 37 40 40 44 7 46 44 49 46 52
REMARK H PARENT 48 56 4 76
REMARK Flexibility Score: inf
ROOT
ATOM      1  C   UNL     1      15.032  29.907  20.846  1.00  0.00     0.272 C 
ATOM      2  C   UNL     1      14.629  28.824  19.929  1.00  0.00     0.113 C 
ATOM      3  C   UNL     1      15.832  28.077  19.370  1.00  0.00     0.145 C 
ATOM      4  C   UNL     1      16.812  29.093  18.738  1.00  0.00     0.142 C 
ATOM      5  C   UNL     1      16.954  30.300  19.576  1.00  0.00     0.178 C 
ATOM      6  O   UNL     1      16.449  30.025  20.831  1.00  0.00    -0.332 OA
ENDROOT
BRANCH   1   7
ATOM      7  O   UNL     1      14.613  29.955  22.127  1.00  0.00    -0.338 OA
BRANCH   7   8
ATOM      8  C   UNL     1      15.215  29.670  23.236  1.00  0.00     0.199 C 
BRANCH   8   9
ATOM      9  C   UNL     1      14.522  30.062  24.532  1.00  0.00     0.179 C 
ATOM     10  C   UNL     1      15.520  31.622  25.980  1.00  0.00     0.282 C 
ATOM     11  O   UNL     1      15.528  30.360  25.463  1.00  0.00    -0.341 OA
ATOM     12  C   UNL     1      14.226  32.018  26.608  1.00  0.00     0.202 C 
ATOM     13  C   UNL     1      13.135  31.792  25.619  1.00  0.00     0.179 C 
ATOM     14  C   UNL     1      13.592  31.216  24.325  1.00  0.00     0.177 C 
BRANCH  10  15
ATOM     15  O   UNL     1      16.053  32.576  25.130  1.00  0.00    -0.341 OA
BRANCH  15  16
ATOM     16  C   UNL     1      17.400  32.812  25.310  1.00  0.00     0.184 C 
ATOM     17  C   UNL     1      17.693  34.242  25.535  1.00  0.00     0.178 C 
ATOM     18  O   UNL     1      19.031  34.460  25.881  1.00  0.00    -0.341 OA
ATOM     19  C   UNL     1      19.855  33.366  25.612  1.00  0.00     0.281 C 
ATOM     20  C   UNL     1      18.139  32.477  23.970  1.00  0.00     0.180 C 
ATOM     21  C   UNL     1      19.583  32.710  24.274  1.00  0.00     0.202 C 
BRANCH  17  22
ATOM     22  C   UNL     1      16.804  34.988  26.467  1.00  0.00     0.191 C 
BRANCH  22  23
ATOM     23  O   UNL     1      16.731  34.341  27.698  1.00  0.00    -0.394 OA
ATOM     24  H   UNL     1      17.644  34.085  27.979  1.00  0.00     0.210 HD
ENDBRANCH  22  23
ENDBRANCH  17  22
BRANCH  19  25
ATOM     25  O   UNL     1      19.931  32.498  26.666  1.00  0.00    -0.350 OA
BRANCH  25  26
ATOM     26  C   UNL     1      20.903  31.562  26.702  1.00  0.00     0.169 C 
BRANCH  26  27
ATOM     27  C   UNL     1      20.492  30.229  27.208  1.00  0.00     0.119 C 
BRANCH  27  28
ATOM     28  N   UNL     1      20.610  29.155  26.285  1.00  0.00    -0.092 NA
ATOM     29  N   UNL     1      20.385  29.259  25.075  1.00  0.00     0.001 N 
ATOM     30  N   UNL     1      19.833  28.975  24.007  1.00  0.00    -0.003 NA
ENDBRANCH  27  28
ENDBRANCH  26  27
ENDBRANCH  25  26
ENDBRANCH  19  25
BRANCH  20  31
ATOM     31  O   UNL     1      17.940  31.168  23.611  1.00  0.00    -0.387 OA
ATOM     32  H   UNL     1      17.095  30.822  24.006  1.00  0.00     0.211 HD
ENDBRANCH  20  31
BRANCH  21  33
ATOM     33  O   UNL     1      20.179  33.485  23.273  1.00  0.00    -0.385 OA
ATOM     34  H   UNL     1      21.121  33.578  23.476  1.00  0.00     0.211 HD
ENDBRANCH  21  33
ENDBRANCH  15  16
ENDBRANCH  10  15
BRANCH  12  35
ATOM     35  O   UNL     1      14.004  31.225  27.753  1.00  0.00    -0.385 OA
ATOM     36  H   UNL     1      13.897  30.286  27.445  1.00  0.00     0.211 HD
ENDBRANCH  12  35
BRANCH  13  37
ATOM     37  O   UNL     1      12.445  32.997  25.347  1.00  0.00    -0.387 OA
ATOM     38  H   UNL     1      12.300  33.502  26.183  1.00  0.00     0.211 HD
ENDBRANCH  13  37
BRANCH  14  39
ATOM     39  O   UNL     1      14.115  32.227  23.508  1.00  0.00    -0.387 OA
ATOM     40  H   UNL     1      13.659  33.070  23.797  1.00  0.00     0.211 HD
ENDBRANCH  14  39
ENDBRANCH   8   9
ENDBRANCH   7   8
ENDBRANCH   1   7
BRANCH   1  41
ATOM     41  C   UNL     1      14.516  31.204  20.255  1.00  0.00     0.364 C 
ATOM     42  O   UNL     1      14.764  32.336  20.703  1.00  0.00    -0.246 OA
BRANCH  41  43
ATOM     43  O   UNL     1      13.698  31.167  19.122  1.00  0.00    -0.477 OA
ATOM     44  H   UNL     1      13.160  30.321  18.903  1.00  0.00     0.296 HD
ENDBRANCH  41  43
ENDBRANCH   1  41
BRANCH   3  45
ATOM     45  O   UNL     1      16.458  27.250  20.276  1.00  0.00    -0.391 OA
ATOM     46  H   UNL     1      16.801  27.818  21.031  1.00  0.00     0.211 HD
ENDBRANCH   3  45
BRANCH   5  47
ATOM     47  C   UNL     1      18.468  30.568  19.915  1.00  0.00     0.176 C 
BRANCH  47  48
ATOM     48  O   UNL     1      18.641  29.847  21.174  1.00  0.00    -0.388 OA
ATOM     49  H   UNL     1      17.829  29.259  21.240  1.00  0.00     0.211 HD
ENDBRANCH  47  48
BRANCH  47  50
ATOM     50  C   UNL     1      18.716  31.980  20.329  1.00  0.00     0.165 C 
BRANCH  50  51
ATOM     51  O   UNL     1      17.670  32.789  19.949  1.00  0.00    -0.388 OA
ATOM     52  H   UNL     1      16.889  32.777  20.523  1.00  0.00     0.211 HD
ENDBRANCH  50  51
BRANCH  50  53
ATOM     53  C   UNL     1      20.060  32.521  20.017  1.00  0.00     0.154 C 
BRANCH  53  54
ATOM     54  N   UNL     1      20.999  31.438  19.728  1.00  0.00    -0.319 N 
ATOM     55  C   UNL     1      21.886  30.968  20.702  1.00  0.00     0.407 C 
ATOM     56  H   UNL     1      20.985  31.028  18.782  1.00  0.00     0.167 HD
ATOM     57  O   UNL     1      21.863  31.502  21.851  1.00  0.00    -0.225 OA
BRANCH  55  58
ATOM     58  O   UNL     1      22.793  29.940  20.470  1.00  0.00    -0.443 OA
BRANCH  58  59
ATOM     59  C   UNL     1      22.451  28.846  19.629  1.00  0.00     0.294 C 
BRANCH  59  60
ATOM     60  C   UNL     1      21.905  27.728  20.458  1.00  0.00     0.120 A 
ATOM     61  C   UNL     1      22.574  26.599  20.883  1.00  0.00     0.138 A 
ATOM     62  N   UNL     1      20.671  27.612  20.938  1.00  0.00    -0.132 NA
ATOM     63  N   UNL     1      21.741  25.833  21.602  1.00  0.00    -0.249 N 
ATOM     64  N   UNL     1      20.570  26.495  21.612  1.00  0.00    -0.067 NA
BRANCH  63  65
ATOM     65  C   UNL     1      21.960  24.566  22.257  1.00  0.00     0.112 C 
ATOM     66  C   UNL     1      23.389  24.323  22.643  1.00  0.00     0.046 C 
ATOM     67  C   UNL     1      21.155  24.571  23.565  1.00  0.00     0.046 C 
ATOM     68  C   UNL     1      23.798  25.230  23.773  1.00  0.00     0.058 C 
ATOM     69  C   UNL     1      21.684  25.655  24.484  1.00  0.00     0.058 C 
ATOM     70  N   UNL     1      22.813  26.302  23.840  1.00  0.00    -0.300 NA
ATOM     71  C   UNL     1      23.673  24.559  25.116  1.00  0.00     0.021 C 
ATOM     72  C   UNL     1      22.361  25.022  25.685  1.00  0.00     0.021 C 
ATOM     73  C   UNL     1      23.365  27.359  24.632  1.00  0.00     0.105 C 
ENDBRANCH  63  65
ENDBRANCH  59  60
ENDBRANCH  58  59
ENDBRANCH  55  58
ENDBRANCH  53  54
ENDBRANCH  50  53
ENDBRANCH  47  50
ENDBRANCH   5  47
BRANCH   4  74
ATOM     74  N   UNL     1      16.352  29.325  17.363  1.00  0.00    -0.348 N 
ATOM     75  C   UNL     1      17.188  28.970  16.237  1.00  0.00     0.217 C 
ATOM     76  H   UNL     1      15.436  29.742  17.112  1.00  0.00     0.163 HD
ATOM     77  C   UNL     1      16.804  29.168  14.837  1.00  0.00     0.114 C 
ATOM     78  O   UNL     1      18.297  28.465  16.509  1.00  0.00    -0.275 OA
ENDBRANCH   4  74
TORSDOF 30
