REMARK VINA RESULT:    -5.532      8.940     16.252
REMARK INTER + INTRA:         -24.155
REMARK INTER:                 -18.203
REMARK INTRA:                  -5.952
REMARK UNBOUND:                -9.245
REMARK SMILES CC(=O)N[C@@H]1[C@@H](O)C[C@](OC[C@H]2O[C@@H](O[C@H]3[C@H](O)[C@@H](O)[C@H](OCCN=[N+]=[N-])O[C@@H]3CO)[C@H](O)[C@@H](O)[C@H]2O)(C(=O)O)O[C@H]1C(O)[C@H](O)CNC(=O)OCc1cn([C@@H](C)C(=O)OCc2ccccc2)nn1
REMARK SMILES IDX 43 1 42 2 9 3 8 4 41 5 6 6 5 7 10 8 11 9 12 10 14 11 13 12
REMARK SMILES IDX 32 13 34 14 36 15 15 16 16 17 29 18 28 19 21 20 17 21 19 22
REMARK SMILES IDX 30 23 31 24 22 26 23 27 24 28 25 29 26 30 27 31 18 32 20 34
REMARK SMILES IDX 33 36 35 38 37 40 38 42 39 43 40 44 7 46 4 48 2 49 1 51 3 52
REMARK SMILES IDX 44 53 45 55 46 56 47 58 48 59 49 60 50 62 51 63 52 64 53 65
REMARK SMILES IDX 54 66 69 67 55 68 68 69 56 70 57 71 58 72 59 73 60 74 61 75
REMARK SMILES IDX 62 76 63 77 67 78 64 79 66 80 65 81
REMARK H PARENT 31 25 18 33 20 35 33 37 35 39 37 41 40 45 7 47 4 50 44 54
REMARK H PARENT 46 57 48 61
REMARK Flexibility Score: inf
ROOT
ATOM      1  C   UNL     1      14.793  29.180  15.076  1.00  0.00     0.176 C 
ENDROOT
BRANCH   1   2
ATOM      2  C   UNL     1      13.943  30.181  14.397  1.00  0.00     0.178 C 
ATOM      3  C   UNL     1      12.494  30.865  16.094  1.00  0.00     0.272 C 
ATOM      4  C   UNL     1      11.373  30.248  15.350  1.00  0.00     0.113 C 
ATOM      5  O   UNL     1      13.524  31.239  15.159  1.00  0.00    -0.332 OA
ATOM      6  C   UNL     1      11.780  29.063  14.505  1.00  0.00     0.145 C 
ATOM      7  C   UNL     1      12.871  29.509  13.579  1.00  0.00     0.142 C 
BRANCH   3   8
ATOM      8  O   UNL     1      13.117  30.226  17.051  1.00  0.00    -0.338 OA
BRANCH   8   9
ATOM      9  C   UNL     1      13.531  30.574  18.235  1.00  0.00     0.199 C 
BRANCH   9  10
ATOM     10  C   UNL     1      14.916  30.288  18.744  1.00  0.00     0.179 C 
ATOM     11  C   UNL     1      16.155  30.570  20.693  1.00  0.00     0.282 C 
ATOM     12  O   UNL     1      15.155  31.048  19.850  1.00  0.00    -0.341 OA
ATOM     13  C   UNL     1      17.107  29.664  20.000  1.00  0.00     0.202 C 
ATOM     14  C   UNL     1      16.410  28.430  19.497  1.00  0.00     0.179 C 
ATOM     15  C   UNL     1      15.032  28.783  19.065  1.00  0.00     0.177 C 
BRANCH  11  16
ATOM     16  O   UNL     1      15.538  30.087  21.814  1.00  0.00    -0.341 OA
BRANCH  16  17
ATOM     17  C   UNL     1      15.173  31.020  22.738  1.00  0.00     0.184 C 
ATOM     18  C   UNL     1      15.915  30.765  24.025  1.00  0.00     0.178 C 
ATOM     19  O   UNL     1      15.439  31.617  25.028  1.00  0.00    -0.341 OA
ATOM     20  C   UNL     1      14.284  30.966  25.532  1.00  0.00     0.281 C 
ATOM     21  C   UNL     1      13.690  30.979  23.067  1.00  0.00     0.180 C 
ATOM     22  C   UNL     1      13.364  30.520  24.440  1.00  0.00     0.202 C 
BRANCH  18  23
ATOM     23  C   UNL     1      17.408  30.827  23.903  1.00  0.00     0.191 C 
BRANCH  23  24
ATOM     24  O   UNL     1      17.854  29.508  23.767  1.00  0.00    -0.394 OA
ATOM     25  H   UNL     1      17.957  29.045  24.632  1.00  0.00     0.210 HD
ENDBRANCH  23  24
ENDBRANCH  18  23
BRANCH  20  26
ATOM     26  O   UNL     1      13.716  31.788  26.453  1.00  0.00    -0.350 OA
BRANCH  26  27
ATOM     27  C   UNL     1      13.708  31.415  27.756  1.00  0.00     0.169 C 
BRANCH  27  28
ATOM     28  C   UNL     1      14.849  31.835  28.612  1.00  0.00     0.119 C 
BRANCH  28  29
ATOM     29  N   UNL     1      15.938  30.936  28.738  1.00  0.00    -0.092 NA
ATOM     30  N   UNL     1      16.943  31.019  28.042  1.00  0.00     0.001 N 
ATOM     31  N   UNL     1      18.052  31.151  27.492  1.00  0.00    -0.003 NA
ENDBRANCH  28  29
ENDBRANCH  27  28
ENDBRANCH  26  27
ENDBRANCH  20  26
BRANCH  21  32
ATOM     32  O   UNL     1      13.086  32.221  22.852  1.00  0.00    -0.387 OA
ATOM     33  H   UNL     1      13.491  32.724  22.110  1.00  0.00     0.211 HD
ENDBRANCH  21  32
BRANCH  22  34
ATOM     34  O   UNL     1      13.160  29.136  24.430  1.00  0.00    -0.385 OA
ATOM     35  H   UNL     1      13.772  28.754  25.114  1.00  0.00     0.211 HD
ENDBRANCH  22  34
ENDBRANCH  16  17
ENDBRANCH  11  16
BRANCH  13  36
ATOM     36  O   UNL     1      17.700  30.379  18.932  1.00  0.00    -0.385 OA
ATOM     37  H   UNL     1      18.599  29.944  18.812  1.00  0.00     0.211 HD
ENDBRANCH  13  36
BRANCH  14  38
ATOM     38  O   UNL     1      16.455  27.462  20.479  1.00  0.00    -0.387 OA
ATOM     39  H   UNL     1      16.071  27.778  21.342  1.00  0.00     0.211 HD
ENDBRANCH  14  38
BRANCH  15  40
ATOM     40  O   UNL     1      14.065  28.383  19.977  1.00  0.00    -0.387 OA
ATOM     41  H   UNL     1      13.155  28.614  19.613  1.00  0.00     0.211 HD
ENDBRANCH  15  40
ENDBRANCH   9  10
ENDBRANCH   8   9
ENDBRANCH   3   8
BRANCH   3  42
ATOM     42  C   UNL     1      12.050  32.254  16.508  1.00  0.00     0.364 C 
ATOM     43  O   UNL     1      12.740  33.254  16.268  1.00  0.00    -0.246 OA
BRANCH  42  44
ATOM     44  O   UNL     1      10.842  32.444  17.177  1.00  0.00    -0.477 OA
ATOM     45  H   UNL     1      10.218  33.225  17.004  1.00  0.00     0.296 HD
ENDBRANCH  42  44
ENDBRANCH   3  42
BRANCH   6  46
ATOM     46  O   UNL     1      12.138  27.953  15.264  1.00  0.00    -0.391 OA
ATOM     47  H   UNL     1      13.076  28.086  15.535  1.00  0.00     0.211 HD
ENDBRANCH   6  46
BRANCH   7  48
ATOM     48  N   UNL     1      12.303  30.419  12.593  1.00  0.00    -0.348 N 
ATOM     49  C   UNL     1      12.084  29.935  11.266  1.00  0.00     0.217 C 
ATOM     50  H   UNL     1      12.047  31.406  12.798  1.00  0.00     0.163 HD
ATOM     51  C   UNL     1      11.502  30.869  10.256  1.00  0.00     0.114 C 
ATOM     52  O   UNL     1      12.378  28.746  10.966  1.00  0.00    -0.275 OA
ENDBRANCH   7  48
ENDBRANCH   1   2
BRANCH   1  53
ATOM     53  O   UNL     1      15.037  28.112  14.178  1.00  0.00    -0.388 OA
ATOM     54  H   UNL     1      15.960  28.177  13.808  1.00  0.00     0.211 HD
ENDBRANCH   1  53
BRANCH   1  55
ATOM     55  C   UNL     1      16.201  29.694  15.414  1.00  0.00     0.165 C 
BRANCH  55  56
ATOM     56  O   UNL     1      16.238  31.043  15.578  1.00  0.00    -0.388 OA
ATOM     57  H   UNL     1      15.632  31.332  16.300  1.00  0.00     0.211 HD
ENDBRANCH  55  56
BRANCH  55  58
ATOM     58  C   UNL     1      17.217  29.121  14.479  1.00  0.00     0.154 C 
BRANCH  58  59
ATOM     59  N   UNL     1      18.480  28.946  15.142  1.00  0.00    -0.319 N 
ATOM     60  C   UNL     1      19.755  29.178  14.577  1.00  0.00     0.407 C 
ATOM     61  H   UNL     1      18.511  28.612  16.157  1.00  0.00     0.167 HD
ATOM     62  O   UNL     1      19.878  29.550  13.407  1.00  0.00    -0.225 OA
BRANCH  60  63
ATOM     63  O   UNL     1      20.926  28.992  15.329  1.00  0.00    -0.443 OA
BRANCH  63  64
ATOM     64  C   UNL     1      21.264  29.833  16.403  1.00  0.00     0.294 C 
BRANCH  64  65
ATOM     65  C   UNL     1      20.986  29.095  17.657  1.00  0.00     0.120 A 
ATOM     66  C   UNL     1      21.812  28.923  18.745  1.00  0.00     0.139 A 
ATOM     67  N   UNL     1      19.848  28.451  17.938  1.00  0.00    -0.132 NA
ATOM     68  N   UNL     1      21.154  28.171  19.669  1.00  0.00    -0.238 N 
ATOM     69  N   UNL     1      19.969  27.901  19.155  1.00  0.00    -0.066 NA
BRANCH  68  70
ATOM     70  C   UNL     1      21.754  27.801  20.927  1.00  0.00     0.215 C 
ATOM     71  C   UNL     1      21.115  28.548  22.083  1.00  0.00     0.046 C 
BRANCH  70  72
ATOM     72  C   UNL     1      21.625  26.318  21.156  1.00  0.00     0.331 C 
ATOM     73  O   UNL     1      22.198  25.536  20.379  1.00  0.00    -0.250 OA
BRANCH  72  74
ATOM     74  O   UNL     1      20.889  25.816  22.204  1.00  0.00    -0.459 OA
BRANCH  74  75
ATOM     75  C   UNL     1      21.101  24.568  22.817  1.00  0.00     0.268 C 
BRANCH  75  76
ATOM     76  C   UNL     1      22.120  24.598  23.887  1.00  0.00    -0.011 A 
ATOM     77  C   UNL     1      21.790  24.646  25.216  1.00  0.00     0.007 A 
ATOM     78  C   UNL     1      23.455  24.581  23.563  1.00  0.00     0.007 A 
ATOM     79  C   UNL     1      22.736  24.677  26.215  1.00  0.00     0.000 A 
ATOM     80  C   UNL     1      24.436  24.611  24.527  1.00  0.00     0.000 A 
ATOM     81  C   UNL     1      24.062  24.660  25.865  1.00  0.00     0.000 A 
ENDBRANCH  75  76
ENDBRANCH  74  75
ENDBRANCH  72  74
ENDBRANCH  70  72
ENDBRANCH  68  70
ENDBRANCH  64  65
ENDBRANCH  63  64
ENDBRANCH  60  63
ENDBRANCH  58  59
ENDBRANCH  55  58
ENDBRANCH   1  55
TORSDOF 34
