REMARK VINA RESULT:    -5.877     14.640     20.005
REMARK INTER + INTRA:         -22.638
REMARK INTER:                 -16.356
REMARK INTRA:                  -6.283
REMARK UNBOUND:                -6.283
REMARK SMILES CC(=O)N[C@@H]1[C@@H](O)C[C@](OC[C@H]2O[C@@H](O[C@H]3[C@H](O)[C@@H](O)[C@H](OCCN=[N+]=[N-])O[C@@H]3CO)[C@H](O)[C@@H](O)[C@H]2O)(C(=O)O)O[C@H]1C(O)[C@H](O)CNC(=O)OCc1cn(C[C@H](CC(=O)O)CC(C)C)nn1
REMARK SMILES IDX 43 1 42 2 9 3 8 4 41 5 6 6 5 7 10 8 11 9 12 10 14 11 13 12
REMARK SMILES IDX 32 13 34 14 36 15 15 16 16 17 29 18 28 19 21 20 17 21 19 22
REMARK SMILES IDX 30 23 31 24 22 26 23 27 24 28 25 29 26 30 27 31 18 32 20 34
REMARK SMILES IDX 33 36 35 38 37 40 38 42 39 43 40 44 7 46 4 48 2 49 1 51 3 52
REMARK SMILES IDX 44 53 45 55 46 56 47 58 48 59 49 60 50 62 51 63 52 64 53 65
REMARK SMILES IDX 54 66 67 67 55 68 66 69 56 70 57 71 58 72 59 73 60 74 61 75
REMARK SMILES IDX 62 77 63 78 64 79 65 80
REMARK H PARENT 31 25 18 33 20 35 33 37 35 39 37 41 40 45 7 47 4 50 44 54
REMARK H PARENT 46 57 48 61 61 76
REMARK Flexibility Score: inf
ROOT
ATOM      1  C   UNL     1      22.210  29.358  23.524  1.00  0.00     0.176 C 
ENDROOT
BRANCH   1   2
ATOM      2  C   UNL     1      22.052  28.284  22.485  1.00  0.00     0.178 C 
ATOM      3  C   UNL     1      22.534  25.995  23.068  1.00  0.00     0.272 C 
ATOM      4  C   UNL     1      23.881  26.098  22.449  1.00  0.00     0.113 C 
ATOM      5  O   UNL     1      21.869  27.127  23.173  1.00  0.00    -0.332 OA
ATOM      6  C   UNL     1      24.360  27.440  22.068  1.00  0.00     0.145 C 
ATOM      7  C   UNL     1      23.231  28.350  21.578  1.00  0.00     0.142 C 
BRANCH   3   8
ATOM      8  O   UNL     1      22.655  25.417  24.361  1.00  0.00    -0.338 OA
BRANCH   8   9
ATOM      9  C   UNL     1      23.825  25.688  24.999  1.00  0.00     0.199 C 
BRANCH   9  10
ATOM     10  C   UNL     1      23.666  25.463  26.519  1.00  0.00     0.179 C 
ATOM     11  C   UNL     1      24.725  25.875  28.543  1.00  0.00     0.282 C 
ATOM     12  O   UNL     1      24.532  26.271  27.228  1.00  0.00    -0.341 OA
ATOM     13  C   UNL     1      23.385  25.301  29.029  1.00  0.00     0.202 C 
ATOM     14  C   UNL     1      22.235  26.061  28.403  1.00  0.00     0.179 C 
ATOM     15  C   UNL     1      22.242  25.870  26.924  1.00  0.00     0.177 C 
BRANCH  11  16
ATOM     16  O   UNL     1      24.935  26.992  29.314  1.00  0.00    -0.341 OA
BRANCH  16  17
ATOM     17  C   UNL     1      25.994  26.947  30.181  1.00  0.00     0.184 C 
ATOM     18  C   UNL     1      26.779  25.669  30.147  1.00  0.00     0.178 C 
ATOM     19  O   UNL     1      26.745  24.931  31.293  1.00  0.00    -0.341 OA
ATOM     20  C   UNL     1      27.144  25.591  32.438  1.00  0.00     0.281 C 
ATOM     21  C   UNL     1      25.437  27.104  31.581  1.00  0.00     0.180 C 
ATOM     22  C   UNL     1      26.607  26.974  32.565  1.00  0.00     0.202 C 
BRANCH  18  23
ATOM     23  C   UNL     1      28.188  26.004  29.692  1.00  0.00     0.191 C 
BRANCH  23  24
ATOM     24  O   UNL     1      28.995  24.870  29.664  1.00  0.00    -0.394 OA
ATOM     25  H   UNL     1      29.239  24.558  30.578  1.00  0.00     0.210 HD
ENDBRANCH  23  24
ENDBRANCH  18  23
BRANCH  20  26
ATOM     26  O   UNL     1      28.526  25.501  32.519  1.00  0.00    -0.350 OA
BRANCH  26  27
ATOM     27  C   UNL     1      29.087  26.444  33.363  1.00  0.00     0.169 C 
BRANCH  27  28
ATOM     28  C   UNL     1      30.263  27.060  32.617  1.00  0.00     0.119 C 
BRANCH  28  29
ATOM     29  N   UNL     1      31.171  25.958  32.330  1.00  0.00    -0.092 NA
ATOM     30  N   UNL     1      31.609  25.845  31.210  1.00  0.00     0.001 N 
ATOM     31  N   UNL     1      32.074  25.409  30.148  1.00  0.00    -0.003 NA
ENDBRANCH  28  29
ENDBRANCH  27  28
ENDBRANCH  26  27
ENDBRANCH  20  26
BRANCH  21  32
ATOM     32  O   UNL     1      24.795  28.322  31.707  1.00  0.00    -0.387 OA
ATOM     33  H   UNL     1      23.844  28.183  31.403  1.00  0.00     0.211 HD
ENDBRANCH  21  32
BRANCH  22  34
ATOM     34  O   UNL     1      26.039  27.225  33.832  1.00  0.00    -0.385 OA
ATOM     35  H   UNL     1      25.306  27.863  33.698  1.00  0.00     0.211 HD
ENDBRANCH  22  34
ENDBRANCH  16  17
ENDBRANCH  11  16
BRANCH  13  36
ATOM     36  O   UNL     1      23.303  23.939  28.881  1.00  0.00    -0.385 OA
ATOM     37  H   UNL     1      22.721  23.492  29.521  1.00  0.00     0.211 HD
ENDBRANCH  13  36
BRANCH  14  38
ATOM     38  O   UNL     1      22.482  27.419  28.688  1.00  0.00    -0.387 OA
ATOM     39  H   UNL     1      23.413  27.589  28.898  1.00  0.00     0.211 HD
ENDBRANCH  14  38
BRANCH  15  40
ATOM     40  O   UNL     1      21.924  27.113  26.336  1.00  0.00    -0.387 OA
ATOM     41  H   UNL     1      20.963  27.225  26.256  1.00  0.00     0.211 HD
ENDBRANCH  15  40
ENDBRANCH   9  10
ENDBRANCH   8   9
ENDBRANCH   3   8
BRANCH   3  42
ATOM     42  C   UNL     1      21.717  24.953  22.327  1.00  0.00     0.364 C 
ATOM     43  O   UNL     1      22.277  24.026  21.729  1.00  0.00    -0.246 OA
BRANCH  42  44
ATOM     44  O   UNL     1      20.354  25.026  22.310  1.00  0.00    -0.477 OA
ATOM     45  H   UNL     1      19.753  24.369  22.804  1.00  0.00     0.296 HD
ENDBRANCH  42  44
ENDBRANCH   3  42
BRANCH   6  46
ATOM     46  O   UNL     1      25.124  28.117  22.994  1.00  0.00    -0.391 OA
ATOM     47  H   UNL     1      25.008  27.648  23.857  1.00  0.00     0.211 HD
ENDBRANCH   6  46
BRANCH   7  48
ATOM     48  N   UNL     1      23.001  27.971  20.210  1.00  0.00    -0.348 N 
ATOM     49  C   UNL     1      23.284  28.944  19.179  1.00  0.00     0.217 C 
ATOM     50  H   UNL     1      22.639  27.050  19.880  1.00  0.00     0.163 HD
ATOM     51  C   UNL     1      23.048  28.543  17.748  1.00  0.00     0.114 C 
ATOM     52  O   UNL     1      23.713  30.094  19.439  1.00  0.00    -0.275 OA
ENDBRANCH   7  48
ENDBRANCH   1   2
BRANCH   1  53
ATOM     53  O   UNL     1      22.966  28.822  24.609  1.00  0.00    -0.388 OA
ATOM     54  H   UNL     1      23.042  27.839  24.496  1.00  0.00     0.211 HD
ENDBRANCH   1  53
BRANCH   1  55
ATOM     55  C   UNL     1      20.950  29.865  24.189  1.00  0.00     0.165 C 
BRANCH  55  56
ATOM     56  O   UNL     1      19.970  28.908  23.676  1.00  0.00    -0.388 OA
ATOM     57  H   UNL     1      19.792  29.286  22.755  1.00  0.00     0.211 HD
ENDBRANCH  55  56
BRANCH  55  58
ATOM     58  C   UNL     1      20.469  31.154  23.617  1.00  0.00     0.154 C 
BRANCH  58  59
ATOM     59  N   UNL     1      19.526  30.970  22.572  1.00  0.00    -0.319 N 
ATOM     60  C   UNL     1      19.968  31.325  21.243  1.00  0.00     0.407 C 
ATOM     61  H   UNL     1      18.554  30.619  22.636  1.00  0.00     0.167 HD
ATOM     62  O   UNL     1      21.140  31.765  21.072  1.00  0.00    -0.225 OA
BRANCH  60  63
ATOM     63  O   UNL     1      19.172  31.218  20.125  1.00  0.00    -0.443 OA
BRANCH  63  64
ATOM     64  C   UNL     1      18.906  30.026  19.415  1.00  0.00     0.294 C 
BRANCH  64  65
ATOM     65  C   UNL     1      17.662  29.341  19.868  1.00  0.00     0.120 A 
ATOM     66  C   UNL     1      16.434  29.891  20.153  1.00  0.00     0.138 A 
ATOM     67  N   UNL     1      17.553  28.025  20.071  1.00  0.00    -0.132 NA
ATOM     68  N   UNL     1      15.592  28.880  20.530  1.00  0.00    -0.252 N 
ATOM     69  N   UNL     1      16.314  27.786  20.462  1.00  0.00    -0.067 NA
BRANCH  68  70
ATOM     70  C   UNL     1      14.239  28.995  20.934  1.00  0.00     0.150 C 
BRANCH  70  71
ATOM     71  C   UNL     1      14.010  29.642  22.234  1.00  0.00     0.022 C 
BRANCH  71  72
ATOM     72  C   UNL     1      14.773  29.122  23.395  1.00  0.00     0.128 C 
BRANCH  72  73
ATOM     73  C   UNL     1      15.908  29.928  23.865  1.00  0.00     0.303 C 
ATOM     74  O   UNL     1      15.686  31.017  24.456  1.00  0.00    -0.252 OA
BRANCH  73  75
ATOM     75  O   UNL     1      17.236  29.559  23.696  1.00  0.00    -0.481 OA
ATOM     76  H   UNL     1      17.753  29.874  22.888  1.00  0.00     0.296 HD
ENDBRANCH  73  75
ENDBRANCH  72  73
ENDBRANCH  71  72
BRANCH  71  77
ATOM     77  C   UNL     1      12.569  29.920  22.555  1.00  0.00     0.009 C 
BRANCH  77  78
ATOM     78  C   UNL     1      12.166  30.130  23.944  1.00  0.00    -0.017 C 
ATOM     79  C   UNL     1      12.038  31.519  24.456  1.00  0.00     0.007 C 
ATOM     80  C   UNL     1      10.927  29.360  24.362  1.00  0.00     0.007 C 
ENDBRANCH  77  78
ENDBRANCH  71  77
ENDBRANCH  70  71
ENDBRANCH  68  70
ENDBRANCH  64  65
ENDBRANCH  63  64
ENDBRANCH  60  63
ENDBRANCH  58  59
ENDBRANCH  55  58
ENDBRANCH   1  55
TORSDOF 36
