REMARK VINA RESULT:    -6.519      2.560      9.068
REMARK INTER + INTRA:         -25.980
REMARK INTER:                 -17.393
REMARK INTRA:                  -8.587
REMARK UNBOUND:                -8.981
REMARK SMILES CC(=O)N[C@@H]1[C@@H](O)C[C@](OC[C@H]2O[C@@H](O[C@H]3[C@H](O)[C@@H](O)[C@H](OCCN=[N+]=[N-])O[C@@H]3CO)[C@H](O)[C@@H](O)[C@H]2O)(C(=O)O)O[C@H]1C(O)[C@H](O)CNC(=O)OCc1cn(-c2cc(C(=O)O)nc(-c3ccccc3)c2)nn1
REMARK SMILES IDX 9 1 8 2 6 3 5 4 42 5 41 6 10 7 11 8 12 9 14 10 13 11 32 12
REMARK SMILES IDX 34 13 36 14 15 15 16 16 29 17 28 18 21 19 17 20 19 21 30 22
REMARK SMILES IDX 31 23 22 25 23 26 24 27 25 28 26 29 27 30 18 31 20 33 33 35
REMARK SMILES IDX 35 37 37 39 38 41 39 42 40 43 7 45 43 47 44 48 45 50 46 51
REMARK SMILES IDX 47 53 48 54 49 55 50 57 51 58 52 59 53 60 54 61 72 62 55 63
REMARK SMILES IDX 71 64 56 65 57 66 70 67 58 68 63 69 62 70 59 71 60 72 61 73
REMARK SMILES IDX 64 75 65 76 69 77 66 78 68 79 67 80 4 81 2 82 1 84 3 85
REMARK H PARENT 31 24 18 32 20 34 33 36 35 38 37 40 40 44 7 46 44 49 46 52
REMARK H PARENT 48 56 61 74 4 83
REMARK Flexibility Score: inf
ROOT
ATOM      1  C   UNL     1      22.945  22.272  12.688  1.00  0.00     0.272 C 
ATOM      2  C   UNL     1      22.735  22.517  11.180  1.00  0.00     0.113 C 
ATOM      3  C   UNL     1      21.419  22.057  10.668  1.00  0.00     0.145 C 
ATOM      4  C   UNL     1      20.978  20.720  11.251  1.00  0.00     0.142 C 
ATOM      5  C   UNL     1      22.191  20.241  12.054  1.00  0.00     0.178 C 
ATOM      6  O   UNL     1      22.299  21.114  13.114  1.00  0.00    -0.332 OA
ENDROOT
BRANCH   1   7
ATOM      7  O   UNL     1      22.396  23.350  13.304  1.00  0.00    -0.338 OA
BRANCH   7   8
ATOM      8  C   UNL     1      22.531  23.499  14.646  1.00  0.00     0.199 C 
BRANCH   8   9
ATOM      9  C   UNL     1      22.487  24.999  15.033  1.00  0.00     0.179 C 
ATOM     10  C   UNL     1      22.402  26.322  16.959  1.00  0.00     0.282 C 
ATOM     11  O   UNL     1      22.392  25.077  16.385  1.00  0.00    -0.341 OA
ATOM     12  C   UNL     1      22.838  27.337  15.919  1.00  0.00     0.202 C 
ATOM     13  C   UNL     1      24.060  26.907  15.145  1.00  0.00     0.179 C 
ATOM     14  C   UNL     1      23.835  25.545  14.592  1.00  0.00     0.177 C 
BRANCH  10  15
ATOM     15  O   UNL     1      23.276  26.287  18.029  1.00  0.00    -0.341 OA
BRANCH  15  16
ATOM     16  C   UNL     1      22.705  25.931  19.239  1.00  0.00     0.184 C 
ATOM     17  C   UNL     1      22.802  26.986  20.279  1.00  0.00     0.178 C 
ATOM     18  O   UNL     1      23.535  26.569  21.376  1.00  0.00    -0.341 OA
ATOM     19  C   UNL     1      24.779  26.054  21.017  1.00  0.00     0.281 C 
ATOM     20  C   UNL     1      23.291  24.608  19.640  1.00  0.00     0.180 C 
ATOM     21  C   UNL     1      24.525  24.667  20.468  1.00  0.00     0.202 C 
BRANCH  17  22
ATOM     22  C   UNL     1      21.414  27.327  20.782  1.00  0.00     0.191 C 
BRANCH  22  23
ATOM     23  O   UNL     1      20.540  27.621  19.752  1.00  0.00    -0.394 OA
ATOM     24  H   UNL     1      20.496  28.605  19.627  1.00  0.00     0.210 HD
ENDBRANCH  22  23
ENDBRANCH  17  22
BRANCH  19  25
ATOM     25  O   UNL     1      25.525  25.952  22.182  1.00  0.00    -0.350 OA
BRANCH  25  26
ATOM     26  C   UNL     1      24.726  26.055  23.323  1.00  0.00     0.169 C 
BRANCH  26  27
ATOM     27  C   UNL     1      24.656  24.731  24.041  1.00  0.00     0.119 C 
BRANCH  27  28
ATOM     28  N   UNL     1      23.316  24.534  24.548  1.00  0.00    -0.092 NA
ATOM     29  N   UNL     1      22.373  24.688  23.784  1.00  0.00     0.001 N 
ATOM     30  N   UNL     1      21.280  24.518  23.218  1.00  0.00    -0.003 NA
ENDBRANCH  27  28
ENDBRANCH  26  27
ENDBRANCH  25  26
ENDBRANCH  19  25
BRANCH  20  31
ATOM     31  O   UNL     1      22.311  23.944  20.416  1.00  0.00    -0.387 OA
ATOM     32  H   UNL     1      22.319  24.284  21.346  1.00  0.00     0.211 HD
ENDBRANCH  20  31
BRANCH  21  33
ATOM     33  O   UNL     1      25.608  24.221  19.682  1.00  0.00    -0.385 OA
ATOM     34  H   UNL     1      25.810  24.860  18.944  1.00  0.00     0.211 HD
ENDBRANCH  21  33
ENDBRANCH  15  16
ENDBRANCH  10  15
BRANCH  12  35
ATOM     35  O   UNL     1      21.838  27.655  15.008  1.00  0.00    -0.385 OA
ATOM     36  H   UNL     1      21.673  26.813  14.496  1.00  0.00     0.211 HD
ENDBRANCH  12  35
BRANCH  13  37
ATOM     37  O   UNL     1      25.137  26.966  16.031  1.00  0.00    -0.387 OA
ATOM     38  H   UNL     1      25.524  27.875  15.952  1.00  0.00     0.211 HD
ENDBRANCH  13  37
BRANCH  14  39
ATOM     39  O   UNL     1      24.837  24.714  15.135  1.00  0.00    -0.387 OA
ATOM     40  H   UNL     1      25.063  23.970  14.553  1.00  0.00     0.211 HD
ENDBRANCH  14  39
ENDBRANCH   8   9
ENDBRANCH   7   8
ENDBRANCH   1   7
BRANCH   1  41
ATOM     41  C   UNL     1      24.396  22.069  12.927  1.00  0.00     0.364 C 
ATOM     42  O   UNL     1      25.269  22.874  12.504  1.00  0.00    -0.246 OA
BRANCH  41  43
ATOM     43  O   UNL     1      24.840  20.974  13.635  1.00  0.00    -0.477 OA
ATOM     44  H   UNL     1      25.813  20.643  13.622  1.00  0.00     0.296 HD
ENDBRANCH  41  43
ENDBRANCH   1  41
BRANCH   3  45
ATOM     45  O   UNL     1      20.432  23.017  10.733  1.00  0.00    -0.391 OA
ATOM     46  H   UNL     1      20.798  23.827  11.144  1.00  0.00     0.211 HD
ENDBRANCH   3  45
BRANCH   5  47
ATOM     47  C   UNL     1      22.161  18.797  12.385  1.00  0.00     0.176 C 
BRANCH  47  48
ATOM     48  O   UNL     1      21.668  18.647  13.702  1.00  0.00    -0.388 OA
ATOM     49  H   UNL     1      22.274  19.131  14.347  1.00  0.00     0.211 HD
ENDBRANCH  47  48
BRANCH  47  50
ATOM     50  C   UNL     1      23.460  18.056  12.235  1.00  0.00     0.165 C 
BRANCH  50  51
ATOM     51  O   UNL     1      24.233  18.238  13.364  1.00  0.00    -0.388 OA
ATOM     52  H   UNL     1      23.712  18.598  14.130  1.00  0.00     0.211 HD
ENDBRANCH  50  51
BRANCH  50  53
ATOM     53  C   UNL     1      24.128  18.596  10.995  1.00  0.00     0.154 C 
BRANCH  53  54
ATOM     54  N   UNL     1      25.490  18.969  11.126  1.00  0.00    -0.319 N 
ATOM     55  C   UNL     1      26.037  20.072  10.421  1.00  0.00     0.407 C 
ATOM     56  H   UNL     1      26.137  18.434  11.756  1.00  0.00     0.167 HD
ATOM     57  O   UNL     1      25.310  20.723   9.647  1.00  0.00    -0.225 OA
BRANCH  55  58
ATOM     58  O   UNL     1      27.386  20.439  10.585  1.00  0.00    -0.443 OA
BRANCH  58  59
ATOM     59  C   UNL     1      28.219  19.611  11.357  1.00  0.00     0.294 C 
BRANCH  59  60
ATOM     60  C   UNL     1      27.874  19.691  12.796  1.00  0.00     0.121 A 
ATOM     61  C   UNL     1      28.203  20.640  13.735  1.00  0.00     0.144 A 
ATOM     62  N   UNL     1      27.152  18.775  13.505  1.00  0.00    -0.131 NA
ATOM     63  N   UNL     1      27.704  20.310  14.946  1.00  0.00    -0.220 N 
ATOM     64  N   UNL     1      27.064  19.155  14.762  1.00  0.00    -0.062 NA
BRANCH  63  65
ATOM     65  C   UNL     1      27.864  21.029  16.156  1.00  0.00     0.071 A 
ATOM     66  C   UNL     1      27.815  22.413  16.088  1.00  0.00     0.064 A 
ATOM     67  C   UNL     1      28.048  20.464  17.401  1.00  0.00     0.057 A 
ATOM     68  C   UNL     1      27.951  23.151  17.248  1.00  0.00     0.151 A 
ATOM     69  C   UNL     1      28.180  21.197  18.538  1.00  0.00     0.073 A 
ATOM     70  N   UNL     1      28.129  22.540  18.438  1.00  0.00    -0.241 NA
BRANCH  68  71
ATOM     71  C   UNL     1      27.900  24.606  17.209  1.00  0.00     0.354 C 
ATOM     72  O   UNL     1      26.771  25.158  17.198  1.00  0.00    -0.245 OA
BRANCH  71  73
ATOM     73  O   UNL     1      29.013  25.412  17.185  1.00  0.00    -0.477 OA
ATOM     74  H   UNL     1      29.134  26.177  16.510  1.00  0.00     0.297 HD
ENDBRANCH  71  73
ENDBRANCH  68  71
BRANCH  69  75
ATOM     75  C   UNL     1      28.368  20.579  19.845  1.00  0.00     0.000 A 
ATOM     76  C   UNL     1      28.698  19.226  19.885  1.00  0.00     0.010 A 
ATOM     77  C   UNL     1      28.238  21.245  21.029  1.00  0.00     0.010 A 
ATOM     78  C   UNL     1      28.896  18.563  21.067  1.00  0.00     0.001 A 
ATOM     79  C   UNL     1      28.439  20.565  22.218  1.00  0.00     0.001 A 
ATOM     80  C   UNL     1      28.764  19.241  22.266  1.00  0.00     0.000 A 
ENDBRANCH  69  75
ENDBRANCH  63  65
ENDBRANCH  59  60
ENDBRANCH  58  59
ENDBRANCH  55  58
ENDBRANCH  53  54
ENDBRANCH  50  53
ENDBRANCH  47  50
ENDBRANCH   5  47
BRANCH   4  81
ATOM     81  N   UNL     1      20.567  19.800  10.242  1.00  0.00    -0.348 N 
ATOM     82  C   UNL     1      19.317  19.139  10.349  1.00  0.00     0.217 C 
ATOM     83  H   UNL     1      21.201  19.624   9.429  1.00  0.00     0.163 HD
ATOM     84  C   UNL     1      18.835  18.172   9.328  1.00  0.00     0.114 C 
ATOM     85  O   UNL     1      18.547  19.359  11.345  1.00  0.00    -0.275 OA
ENDBRANCH   4  81
TORSDOF 33
