REMARK VINA RESULT:    -6.603      4.659      8.335
REMARK INTER + INTRA:         -22.875
REMARK INTER:                 -13.759
REMARK INTRA:                  -9.116
REMARK UNBOUND:                -5.463
REMARK SMILES CC(=O)N[C@@H]1[C@@H](O)C[C@](OC[C@H]2O[C@@H](O[C@H]3[C@H](O)[C@@H](O)[C@H](OCCN=[N+]=[N-])O[C@@H]3CO)[C@H](O)[C@@H](O)[C@H]2O)(C(=O)O)O[C@H]1C(O)[C@H](O)CNC(=O)OCc1cn(COCc2ccccc2)nn1
REMARK SMILES IDX 43 1 42 2 9 3 8 4 41 5 6 6 5 7 10 8 11 9 12 10 14 11 13 12
REMARK SMILES IDX 32 13 34 14 36 15 15 16 16 17 29 18 28 19 21 20 17 21 19 22
REMARK SMILES IDX 30 23 31 24 22 26 23 27 24 28 25 29 26 30 27 31 18 32 20 34
REMARK SMILES IDX 33 36 35 38 37 40 38 42 39 43 40 44 7 46 4 48 2 49 1 51 3 52
REMARK SMILES IDX 44 53 45 55 46 56 47 58 48 59 49 60 50 62 51 63 52 64 53 65
REMARK SMILES IDX 54 66 66 67 55 68 65 69 56 70 57 71 58 72 59 73 60 74 64 75
REMARK SMILES IDX 61 76 63 77 62 78
REMARK H PARENT 31 25 18 33 20 35 33 37 35 39 37 41 40 45 7 47 4 50 44 54
REMARK H PARENT 46 57 48 61
REMARK Flexibility Score: inf
ROOT
ATOM      1  C   UNL     1      20.562  29.717  23.664  1.00  0.00     0.176 C 
ENDROOT
BRANCH   1   2
ATOM      2  C   UNL     1      20.728  29.590  22.133  1.00  0.00     0.178 C 
ATOM      3  C   UNL     1      19.383  28.987  20.336  1.00  0.00     0.272 C 
ATOM      4  C   UNL     1      20.553  28.215  19.735  1.00  0.00     0.113 C 
ATOM      5  O   UNL     1      19.570  28.953  21.683  1.00  0.00    -0.332 OA
ATOM      6  C   UNL     1      21.383  27.609  20.841  1.00  0.00     0.145 C 
ATOM      7  C   UNL     1      21.910  28.753  21.760  1.00  0.00     0.142 C 
BRANCH   3   8
ATOM      8  O   UNL     1      18.170  28.368  19.977  1.00  0.00    -0.338 OA
BRANCH   8   9
ATOM      9  C   UNL     1      17.893  28.262  18.669  1.00  0.00     0.199 C 
BRANCH   9  10
ATOM     10  C   UNL     1      16.407  28.387  18.427  1.00  0.00     0.179 C 
ATOM     11  C   UNL     1      14.415  29.158  19.182  1.00  0.00     0.282 C 
ATOM     12  O   UNL     1      15.800  29.126  19.463  1.00  0.00    -0.341 OA
ATOM     13  C   UNL     1      14.128  30.133  18.045  1.00  0.00     0.202 C 
ATOM     14  C   UNL     1      15.481  30.374  17.359  1.00  0.00     0.179 C 
ATOM     15  C   UNL     1      16.058  28.994  17.118  1.00  0.00     0.177 C 
BRANCH  11  16
ATOM     16  O   UNL     1      13.773  29.616  20.299  1.00  0.00    -0.341 OA
BRANCH  16  17
ATOM     17  C   UNL     1      14.626  30.089  21.286  1.00  0.00     0.184 C 
ATOM     18  C   UNL     1      14.514  29.351  22.572  1.00  0.00     0.178 C 
ATOM     19  O   UNL     1      13.344  29.673  23.191  1.00  0.00    -0.341 OA
ATOM     20  C   UNL     1      13.261  30.967  23.648  1.00  0.00     0.281 C 
ATOM     21  C   UNL     1      14.403  31.551  21.462  1.00  0.00     0.180 C 
ATOM     22  C   UNL     1      13.834  31.998  22.758  1.00  0.00     0.202 C 
BRANCH  18  23
ATOM     23  C   UNL     1      15.746  29.596  23.412  1.00  0.00     0.191 C 
BRANCH  23  24
ATOM     24  O   UNL     1      16.900  29.643  22.619  1.00  0.00    -0.394 OA
ATOM     25  H   UNL     1      17.679  29.871  23.186  1.00  0.00     0.210 HD
ENDBRANCH  23  24
ENDBRANCH  18  23
BRANCH  20  26
ATOM     26  O   UNL     1      13.926  31.006  24.878  1.00  0.00    -0.350 OA
BRANCH  26  27
ATOM     27  C   UNL     1      13.467  31.971  25.738  1.00  0.00     0.169 C 
BRANCH  27  28
ATOM     28  C   UNL     1      13.747  31.474  27.146  1.00  0.00     0.119 C 
BRANCH  28  29
ATOM     29  N   UNL     1      15.010  31.958  27.654  1.00  0.00    -0.092 NA
ATOM     30  N   UNL     1      16.056  31.782  27.003  1.00  0.00     0.001 N 
ATOM     31  N   UNL     1      17.061  31.137  26.645  1.00  0.00    -0.003 NA
ENDBRANCH  28  29
ENDBRANCH  27  28
ENDBRANCH  26  27
ENDBRANCH  20  26
BRANCH  21  32
ATOM     32  O   UNL     1      15.634  32.245  21.300  1.00  0.00    -0.387 OA
ATOM     33  H   UNL     1      15.764  32.549  20.389  1.00  0.00     0.211 HD
ENDBRANCH  21  32
BRANCH  22  34
ATOM     34  O   UNL     1      12.785  32.912  22.474  1.00  0.00    -0.385 OA
ATOM     35  H   UNL     1      12.636  33.417  23.315  1.00  0.00     0.211 HD
ENDBRANCH  22  34
ENDBRANCH  16  17
ENDBRANCH  11  16
BRANCH  13  36
ATOM     36  O   UNL     1      13.309  29.567  17.067  1.00  0.00    -0.385 OA
ATOM     37  H   UNL     1      13.867  28.938  16.546  1.00  0.00     0.211 HD
ENDBRANCH  13  36
BRANCH  14  38
ATOM     38  O   UNL     1      16.261  31.018  18.311  1.00  0.00    -0.387 OA
ATOM     39  H   UNL     1      15.746  31.619  18.905  1.00  0.00     0.211 HD
ENDBRANCH  14  38
BRANCH  15  40
ATOM     40  O   UNL     1      17.101  29.013  16.205  1.00  0.00    -0.387 OA
ATOM     41  H   UNL     1      17.992  29.101  16.629  1.00  0.00     0.211 HD
ENDBRANCH  15  40
ENDBRANCH   9  10
ENDBRANCH   8   9
ENDBRANCH   3   8
BRANCH   3  42
ATOM     42  C   UNL     1      19.284  30.357  19.834  1.00  0.00     0.364 C 
ATOM     43  O   UNL     1      20.066  30.939  19.036  1.00  0.00    -0.246 OA
BRANCH  42  44
ATOM     44  O   UNL     1      18.202  31.162  20.263  1.00  0.00    -0.477 OA
ATOM     45  H   UNL     1      18.067  32.097  19.880  1.00  0.00     0.296 HD
ENDBRANCH  42  44
ENDBRANCH   3  42
BRANCH   6  46
ATOM     46  O   UNL     1      20.782  26.704  21.643  1.00  0.00    -0.391 OA
ATOM     47  H   UNL     1      19.858  26.454  21.330  1.00  0.00     0.211 HD
ENDBRANCH   6  46
BRANCH   7  48
ATOM     48  N   UNL     1      22.857  29.454  20.927  1.00  0.00    -0.348 N 
ATOM     49  C   UNL     1      24.227  29.391  21.253  1.00  0.00     0.217 C 
ATOM     50  H   UNL     1      22.544  29.991  20.115  1.00  0.00     0.163 HD
ATOM     51  C   UNL     1      25.224  30.094  20.402  1.00  0.00     0.114 C 
ATOM     52  O   UNL     1      24.628  28.736  22.267  1.00  0.00    -0.275 OA
ENDBRANCH   7  48
ENDBRANCH   1   2
BRANCH   1  53
ATOM     53  O   UNL     1      19.284  29.105  23.959  1.00  0.00    -0.388 OA
ATOM     54  H   UNL     1      18.603  29.814  23.764  1.00  0.00     0.211 HD
ENDBRANCH   1  53
BRANCH   1  55
ATOM     55  C   UNL     1      20.467  31.111  24.174  1.00  0.00     0.165 C 
BRANCH  55  56
ATOM     56  O   UNL     1      21.044  32.099  23.428  1.00  0.00    -0.388 OA
ATOM     57  H   UNL     1      21.908  32.423  23.767  1.00  0.00     0.211 HD
ENDBRANCH  55  56
BRANCH  55  58
ATOM     58  C   UNL     1      20.556  31.374  25.627  1.00  0.00     0.154 C 
BRANCH  58  59
ATOM     59  N   UNL     1      20.750  30.254  26.505  1.00  0.00    -0.319 N 
ATOM     60  C   UNL     1      22.016  29.778  26.937  1.00  0.00     0.407 C 
ATOM     61  H   UNL     1      19.924  29.738  26.881  1.00  0.00     0.167 HD
ATOM     62  O   UNL     1      23.051  30.342  26.566  1.00  0.00    -0.225 OA
BRANCH  60  63
ATOM     63  O   UNL     1      22.186  28.679  27.786  1.00  0.00    -0.443 OA
BRANCH  63  64
ATOM     64  C   UNL     1      21.241  27.606  27.755  1.00  0.00     0.294 C 
BRANCH  64  65
ATOM     65  C   UNL     1      21.224  26.905  26.451  1.00  0.00     0.120 A 
ATOM     66  C   UNL     1      22.197  26.014  26.049  1.00  0.00     0.141 A 
ATOM     67  N   UNL     1      20.343  26.978  25.447  1.00  0.00    -0.132 NA
ATOM     68  N   UNL     1      21.870  25.576  24.809  1.00  0.00    -0.226 N 
ATOM     69  N   UNL     1      20.740  26.180  24.474  1.00  0.00    -0.065 NA
BRANCH  68  70
ATOM     70  C   UNL     1      22.580  24.630  23.977  1.00  0.00     0.307 C 
BRANCH  70  71
ATOM     71  O   UNL     1      23.087  25.214  22.848  1.00  0.00    -0.355 OA
BRANCH  71  72
ATOM     72  C   UNL     1      23.596  24.243  22.000  1.00  0.00     0.198 C 
BRANCH  72  73
ATOM     73  C   UNL     1      23.672  24.808  20.606  1.00  0.00    -0.022 A 
ATOM     74  C   UNL     1      24.608  25.790  20.359  1.00  0.00     0.006 A 
ATOM     75  C   UNL     1      22.833  24.358  19.619  1.00  0.00     0.006 A 
ATOM     76  C   UNL     1      24.708  26.334  19.096  1.00  0.00     0.000 A 
ATOM     77  C   UNL     1      22.949  24.910  18.377  1.00  0.00     0.000 A 
ATOM     78  C   UNL     1      23.877  25.899  18.086  1.00  0.00     0.000 A 
ENDBRANCH  72  73
ENDBRANCH  71  72
ENDBRANCH  70  71
ENDBRANCH  68  70
ENDBRANCH  64  65
ENDBRANCH  63  64
ENDBRANCH  60  63
ENDBRANCH  58  59
ENDBRANCH  55  58
ENDBRANCH   1  55
TORSDOF 33
