REMARK VINA RESULT:    -4.819      2.171      3.602
REMARK INTER + INTRA:         -24.403
REMARK INTER:                 -15.126
REMARK INTRA:                  -9.277
REMARK UNBOUND:               -10.710
REMARK SMILES CC(=O)N[C@@H]1[C@@H](O)C[C@](OC[C@H]2O[C@@H](O[C@H]3[C@H](O)[C@@H](O)[C@H](OCCN=[N+]=[N-])O[C@@H]3CO)[C@H](O)[C@@H](O)[C@H]2O)(C(=O)O)O[C@H]1C(O)[C@H](O)CNC(=O)OCc1cn(CC(=O)NCC(O)Cn2ccnc2[N+](=O)[O-])nn1
REMARK SMILES IDX 47 1 45 2 43 3 42 4 9 5 8 6 41 7 6 8 5 9 10 10 11 11 12 12
REMARK SMILES IDX 14 13 13 14 32 15 34 16 36 17 15 18 16 19 29 20 28 21 21 22
REMARK SMILES IDX 17 23 19 24 30 25 31 26 22 28 23 29 24 30 25 31 26 32 27 33
REMARK SMILES IDX 18 34 20 36 33 38 35 40 37 42 38 44 39 45 40 46 7 48 4 50
REMARK SMILES IDX 2 51 1 53 3 54 44 55 46 57 48 59 49 60 50 62 51 63 52 64
REMARK SMILES IDX 53 65 54 66 73 67 55 68 72 69 56 70 57 71 58 72 59 73 60 75
REMARK SMILES IDX 61 76 62 77 63 79 64 80 65 81 68 82 66 83 67 84 69 85 70 86
REMARK SMILES IDX 71 87
REMARK H PARENT 31 27 18 35 20 37 33 39 35 41 37 43 40 47 7 49 4 52 44 56
REMARK H PARENT 46 58 48 61 59 74 62 78
REMARK Flexibility Score: inf
ROOT
ATOM      1  C   UNL     1       5.194  21.270  32.727  1.00  0.00     0.154 C 
ENDROOT
BRANCH   1   2
ATOM      2  C   UNL     1       5.262  22.758  32.814  1.00  0.00     0.165 C 
BRANCH   2   3
ATOM      3  C   UNL     1       4.040  23.496  32.415  1.00  0.00     0.176 C 
BRANCH   3   4
ATOM      4  C   UNL     1       4.007  24.962  32.554  1.00  0.00     0.178 C 
ATOM      5  C   UNL     1       4.734  27.004  31.716  1.00  0.00     0.272 C 
ATOM      6  C   UNL     1       3.528  27.465  32.455  1.00  0.00     0.113 C 
ATOM      7  O   UNL     1       4.867  25.604  31.689  1.00  0.00    -0.332 OA
ATOM      8  C   UNL     1       3.382  26.906  33.831  1.00  0.00     0.145 C 
ATOM      9  C   UNL     1       4.124  25.542  33.913  1.00  0.00     0.142 C 
BRANCH   5  10
ATOM     10  O   UNL     1       5.934  27.524  32.104  1.00  0.00    -0.338 OA
BRANCH  10  11
ATOM     11  C   UNL     1       5.992  28.854  32.379  1.00  0.00     0.199 C 
BRANCH  11  12
ATOM     12  C   UNL     1       6.667  29.157  33.703  1.00  0.00     0.179 C 
ATOM     13  C   UNL     1       7.683  28.110  35.521  1.00  0.00     0.282 C 
ATOM     14  O   UNL     1       6.667  28.124  34.572  1.00  0.00    -0.341 OA
ATOM     15  C   UNL     1       8.043  29.501  35.979  1.00  0.00     0.202 C 
ATOM     16  C   UNL     1       8.452  30.379  34.820  1.00  0.00     0.179 C 
ATOM     17  C   UNL     1       8.042  29.736  33.509  1.00  0.00     0.177 C 
BRANCH  13  18
ATOM     18  O   UNL     1       8.798  27.458  35.130  1.00  0.00    -0.341 OA
BRANCH  18  19
ATOM     19  C   UNL     1       9.081  26.211  35.541  1.00  0.00     0.184 C 
ATOM     20  C   UNL     1      10.498  25.920  35.951  1.00  0.00     0.178 C 
ATOM     21  O   UNL     1      10.448  24.763  36.732  1.00  0.00    -0.341 OA
ATOM     22  C   UNL     1      10.141  23.648  35.959  1.00  0.00     0.281 C 
ATOM     23  C   UNL     1       8.781  25.155  34.466  1.00  0.00     0.180 C 
ATOM     24  C   UNL     1       8.881  23.818  35.165  1.00  0.00     0.202 C 
BRANCH  20  25
ATOM     25  C   UNL     1      11.015  27.022  36.828  1.00  0.00     0.191 C 
BRANCH  25  26
ATOM     26  O   UNL     1      11.318  28.174  36.090  1.00  0.00    -0.394 OA
ATOM     27  H   UNL     1      12.318  28.129  35.958  1.00  0.00     0.210 HD
ENDBRANCH  25  26
ENDBRANCH  20  25
BRANCH  22  28
ATOM     28  O   UNL     1       9.945  22.582  36.835  1.00  0.00    -0.350 OA
BRANCH  28  29
ATOM     29  C   UNL     1      10.213  22.952  38.154  1.00  0.00     0.169 C 
BRANCH  29  30
ATOM     30  C   UNL     1       9.741  21.785  39.024  1.00  0.00     0.119 C 
BRANCH  30  31
ATOM     31  N   UNL     1      10.191  21.964  40.393  1.00  0.00    -0.092 NA
ATOM     32  N   UNL     1      10.314  20.929  41.083  1.00  0.00     0.001 N 
ATOM     33  N   UNL     1      10.728  19.960  41.706  1.00  0.00    -0.003 NA
ENDBRANCH  30  31
ENDBRANCH  29  30
ENDBRANCH  28  29
ENDBRANCH  22  28
BRANCH  23  34
ATOM     34  O   UNL     1       7.476  25.269  33.998  1.00  0.00    -0.387 OA
ATOM     35  H   UNL     1       6.957  24.578  34.520  1.00  0.00     0.211 HD
ENDBRANCH  23  34
BRANCH  24  36
ATOM     36  O   UNL     1       8.779  22.740  34.286  1.00  0.00    -0.385 OA
ATOM     37  H   UNL     1       9.675  22.606  33.858  1.00  0.00     0.211 HD
ENDBRANCH  24  36
ENDBRANCH  18  19
ENDBRANCH  13  18
BRANCH  15  38
ATOM     38  O   UNL     1       7.007  30.084  36.723  1.00  0.00    -0.385 OA
ATOM     39  H   UNL     1       6.173  29.604  36.421  1.00  0.00     0.211 HD
ENDBRANCH  15  38
BRANCH  16  40
ATOM     40  O   UNL     1       9.833  30.548  34.782  1.00  0.00    -0.387 OA
ATOM     41  H   UNL     1      10.230  30.623  35.699  1.00  0.00     0.211 HD
ENDBRANCH  16  40
BRANCH  17  42
ATOM     42  O   UNL     1       8.965  28.851  33.003  1.00  0.00    -0.387 OA
ATOM     43  H   UNL     1       9.787  29.299  32.664  1.00  0.00     0.211 HD
ENDBRANCH  17  42
ENDBRANCH  11  12
ENDBRANCH  10  11
ENDBRANCH   5  10
BRANCH   5  44
ATOM     44  C   UNL     1       4.501  27.340  30.262  1.00  0.00     0.364 C 
ATOM     45  O   UNL     1       5.189  26.728  29.426  1.00  0.00    -0.246 OA
BRANCH  44  46
ATOM     46  O   UNL     1       3.582  28.272  29.840  1.00  0.00    -0.477 OA
ATOM     47  H   UNL     1       3.301  29.053  30.460  1.00  0.00     0.296 HD
ENDBRANCH  44  46
ENDBRANCH   5  44
BRANCH   8  48
ATOM     48  O   UNL     1       3.734  27.703  34.871  1.00  0.00    -0.391 OA
ATOM     49  H   UNL     1       3.142  27.710  35.637  1.00  0.00     0.211 HD
ENDBRANCH   8  48
BRANCH   9  50
ATOM     50  N   UNL     1       3.546  24.831  34.991  1.00  0.00    -0.348 N 
ATOM     51  C   UNL     1       4.361  24.290  36.049  1.00  0.00     0.217 C 
ATOM     52  H   UNL     1       2.531  24.687  35.064  1.00  0.00     0.163 HD
ATOM     53  C   UNL     1       3.774  23.533  37.187  1.00  0.00     0.114 C 
ATOM     54  O   UNL     1       5.595  24.471  35.988  1.00  0.00    -0.275 OA
ENDBRANCH   9  50
ENDBRANCH   3   4
BRANCH   3  55
ATOM     55  O   UNL     1       2.949  22.880  33.080  1.00  0.00    -0.388 OA
ATOM     56  H   UNL     1       3.125  21.925  33.101  1.00  0.00     0.211 HD
ENDBRANCH   3  55
ENDBRANCH   2   3
BRANCH   2  57
ATOM     57  O   UNL     1       6.466  23.273  32.397  1.00  0.00    -0.388 OA
ATOM     58  H   UNL     1       7.058  22.655  31.932  1.00  0.00     0.211 HD
ENDBRANCH   2  57
ENDBRANCH   1   2
BRANCH   1  59
ATOM     59  N   UNL     1       4.615  20.862  31.476  1.00  0.00    -0.319 N 
ATOM     60  C   UNL     1       3.416  20.113  31.377  1.00  0.00     0.407 C 
ATOM     61  H   UNL     1       5.086  21.117  30.558  1.00  0.00     0.167 HD
ATOM     62  O   UNL     1       2.811  19.791  32.421  1.00  0.00    -0.225 OA
BRANCH  60  63
ATOM     63  O   UNL     1       2.855  19.701  30.187  1.00  0.00    -0.443 OA
BRANCH  63  64
ATOM     64  C   UNL     1       1.701  20.302  29.662  1.00  0.00     0.294 C 
BRANCH  64  65
ATOM     65  C   UNL     1       1.897  21.505  28.855  1.00  0.00     0.120 A 
ATOM     66  C   UNL     1       1.938  22.812  29.269  1.00  0.00     0.138 A 
ATOM     67  N   UNL     1       2.064  21.557  27.524  1.00  0.00    -0.132 NA
ATOM     68  N   UNL     1       2.126  23.609  28.192  1.00  0.00    -0.243 N 
ATOM     69  N   UNL     1       2.199  22.840  27.151  1.00  0.00    -0.067 NA
BRANCH  68  70
ATOM     70  C   UNL     1       2.250  25.062  28.208  1.00  0.00     0.245 C 
BRANCH  70  71
ATOM     71  C   UNL     1       2.890  25.505  26.953  1.00  0.00     0.241 C 
ATOM     72  O   UNL     1       2.194  25.923  25.967  1.00  0.00    -0.273 OA
ATOM     73  N   UNL     1       4.304  25.501  26.761  1.00  0.00    -0.352 N 
ATOM     74  H   UNL     1       4.912  25.171  27.530  1.00  0.00     0.163 HD
BRANCH  73  75
ATOM     75  C   UNL     1       4.839  25.958  25.492  1.00  0.00     0.151 C 
BRANCH  75  76
ATOM     76  C   UNL     1       4.990  27.446  25.439  1.00  0.00     0.168 C 
BRANCH  76  77
ATOM     77  O   UNL     1       4.969  27.935  24.144  1.00  0.00    -0.388 OA
ATOM     78  H   UNL     1       5.569  28.716  24.111  1.00  0.00     0.211 HD
ENDBRANCH  76  77
BRANCH  76  79
ATOM     79  C   UNL     1       6.303  27.795  26.122  1.00  0.00     0.239 C 
BRANCH  79  80
ATOM     80  N   UNL     1       6.372  29.187  26.463  1.00  0.00    -0.227 N 
ATOM     81  C   UNL     1       5.831  29.739  27.581  1.00  0.00     0.204 A 
ATOM     82  C   UNL     1       6.938  30.220  25.791  1.00  0.00     0.434 A 
ATOM     83  C   UNL     1       6.068  31.091  27.580  1.00  0.00     0.245 A 
ATOM     84  N   UNL     1       6.749  31.367  26.473  1.00  0.00    -0.074 NA
BRANCH  82  85
ATOM     85  N   UNL     1       7.640  30.109  24.554  1.00  0.00    -0.047 N 
ATOM     86  O   UNL     1       8.867  30.071  24.460  1.00  0.00    -0.390 OA
ATOM     87  O   UNL     1       6.897  30.050  23.383  1.00  0.00    -0.390 OA
ENDBRANCH  82  85
ENDBRANCH  79  80
ENDBRANCH  76  79
ENDBRANCH  75  76
ENDBRANCH  73  75
ENDBRANCH  70  71
ENDBRANCH  68  70
ENDBRANCH  64  65
ENDBRANCH  63  64
ENDBRANCH  60  63
ENDBRANCH   1  59
TORSDOF 37
