REMARK VINA RESULT:    -5.755      9.564     13.763
REMARK INTER + INTRA:         -20.854
REMARK INTER:                  -8.667
REMARK INTRA:                 -12.187
REMARK UNBOUND:                -6.520
REMARK SMILES CC(=O)N[C@@H]1[C@@H](O)C[C@](OC[C@H]2O[C@@H](O[C@H]3[C@H](O)[C@@H](O)[C@H](OCCN=[N+]=[N-])O[C@@H]3CO)[C@H](O)[C@@H](O)[C@H]2O)(C(=O)O)O[C@H]1C(O)[C@H](O)CNC(=O)OCc1cn(-c2nc(C)nc(N)n2)nn1
REMARK SMILES IDX 9 1 8 2 6 3 5 4 42 5 41 6 10 7 11 8 12 9 14 10 13 11 32 12
REMARK SMILES IDX 34 13 36 14 15 15 16 16 29 17 28 18 21 19 17 20 19 21 30 22
REMARK SMILES IDX 31 23 22 25 23 26 24 27 25 28 26 29 27 30 18 31 20 33 33 35
REMARK SMILES IDX 35 37 37 39 38 41 39 42 40 43 7 45 43 47 44 48 45 50 46 51
REMARK SMILES IDX 47 53 48 54 49 55 50 57 51 58 52 59 53 60 54 61 65 62 55 63
REMARK SMILES IDX 64 64 56 65 63 66 57 67 61 68 58 69 60 70 59 71 62 72 4 75
REMARK SMILES IDX 2 76 1 78 3 79
REMARK H PARENT 31 24 18 32 20 34 33 36 35 38 37 40 40 44 7 46 44 49 46 52
REMARK H PARENT 48 56 62 73 62 74 4 77
REMARK Flexibility Score: inf
ROOT
ATOM      1  C   UNL     1      22.888  19.481  11.560  1.00  0.00     0.272 C 
ATOM      2  C   UNL     1      23.705  18.459  12.275  1.00  0.00     0.113 C 
ATOM      3  C   UNL     1      23.997  18.877  13.684  1.00  0.00     0.145 C 
ATOM      4  C   UNL     1      24.677  20.220  13.656  1.00  0.00     0.142 C 
ATOM      5  C   UNL     1      24.010  21.203  12.722  1.00  0.00     0.178 C 
ATOM      6  O   UNL     1      23.635  20.690  11.539  1.00  0.00    -0.332 OA
ENDROOT
BRANCH   1   7
ATOM      7  O   UNL     1      21.646  19.626  11.861  1.00  0.00    -0.338 OA
BRANCH   7   8
ATOM      8  C   UNL     1      20.539  20.132  11.475  1.00  0.00     0.199 C 
BRANCH   8   9
ATOM      9  C   UNL     1      19.972  20.196  10.098  1.00  0.00     0.179 C 
ATOM     10  C   UNL     1      20.014  21.107   8.071  1.00  0.00     0.282 C 
ATOM     11  O   UNL     1      20.775  20.889   9.252  1.00  0.00    -0.341 OA
ATOM     12  C   UNL     1      20.111  19.796   7.334  1.00  0.00     0.202 C 
ATOM     13  C   UNL     1      19.394  18.730   8.126  1.00  0.00     0.179 C 
ATOM     14  C   UNL     1      19.321  18.953   9.585  1.00  0.00     0.177 C 
BRANCH  10  15
ATOM     15  O   UNL     1      20.524  22.139   7.331  1.00  0.00    -0.341 OA
BRANCH  15  16
ATOM     16  C   UNL     1      21.478  22.891   7.995  1.00  0.00     0.184 C 
ATOM     17  C   UNL     1      21.147  24.335   8.162  1.00  0.00     0.178 C 
ATOM     18  O   UNL     1      22.134  25.185   7.681  1.00  0.00    -0.341 OA
ATOM     19  C   UNL     1      23.410  24.908   8.158  1.00  0.00     0.281 C 
ATOM     20  C   UNL     1      22.748  22.771   7.131  1.00  0.00     0.180 C 
ATOM     21  C   UNL     1      23.845  23.502   7.868  1.00  0.00     0.202 C 
BRANCH  17  22
ATOM     22  C   UNL     1      20.716  24.728   9.550  1.00  0.00     0.191 C 
BRANCH  22  23
ATOM     23  O   UNL     1      21.032  23.641  10.395  1.00  0.00    -0.394 OA
ATOM     24  H   UNL     1      20.477  22.851  10.213  1.00  0.00     0.210 HD
ENDBRANCH  22  23
ENDBRANCH  17  22
BRANCH  19  25
ATOM     25  O   UNL     1      23.559  25.157   9.493  1.00  0.00    -0.350 OA
BRANCH  25  26
ATOM     26  C   UNL     1      23.957  26.408   9.861  1.00  0.00     0.169 C 
BRANCH  26  27
ATOM     27  C   UNL     1      23.212  26.954  11.048  1.00  0.00     0.119 C 
BRANCH  27  28
ATOM     28  N   UNL     1      24.137  27.804  11.812  1.00  0.00    -0.092 NA
ATOM     29  N   UNL     1      25.338  27.620  11.626  1.00  0.00     0.001 N 
ATOM     30  N   UNL     1      26.516  27.395  11.977  1.00  0.00    -0.003 NA
ENDBRANCH  27  28
ENDBRANCH  26  27
ENDBRANCH  25  26
ENDBRANCH  19  25
BRANCH  20  31
ATOM     31  O   UNL     1      23.041  21.442   6.911  1.00  0.00    -0.387 OA
ATOM     32  H   UNL     1      24.009  21.312   6.712  1.00  0.00     0.211 HD
ENDBRANCH  20  31
BRANCH  21  33
ATOM     33  O   UNL     1      24.980  23.463   7.057  1.00  0.00    -0.385 OA
ATOM     34  H   UNL     1      24.760  23.694   6.120  1.00  0.00     0.211 HD
ENDBRANCH  21  33
ENDBRANCH  15  16
ENDBRANCH  10  15
BRANCH  12  35
ATOM     35  O   UNL     1      19.616  19.868   6.034  1.00  0.00    -0.385 OA
ATOM     36  H   UNL     1      19.028  20.663   5.978  1.00  0.00     0.211 HD
ENDBRANCH  12  35
BRANCH  13  37
ATOM     37  O   UNL     1      19.968  17.507   7.769  1.00  0.00    -0.387 OA
ATOM     38  H   UNL     1      19.677  16.762   8.352  1.00  0.00     0.211 HD
ENDBRANCH  13  37
BRANCH  14  39
ATOM     39  O   UNL     1      19.659  17.786  10.262  1.00  0.00    -0.387 OA
ATOM     40  H   UNL     1      20.656  17.819  10.380  1.00  0.00     0.211 HD
ENDBRANCH  14  39
ENDBRANCH   8   9
ENDBRANCH   7   8
ENDBRANCH   1   7
BRANCH   1  41
ATOM     41  C   UNL     1      23.058  19.060  10.072  1.00  0.00     0.364 C 
ATOM     42  O   UNL     1      22.762  17.904   9.800  1.00  0.00    -0.246 OA
BRANCH  41  43
ATOM     43  O   UNL     1      23.512  19.954   9.154  1.00  0.00    -0.477 OA
ATOM     44  H   UNL     1      23.063  20.862   8.971  1.00  0.00     0.296 HD
ENDBRANCH  41  43
ENDBRANCH   1  41
BRANCH   3  45
ATOM     45  O   UNL     1      22.883  19.006  14.481  1.00  0.00    -0.391 OA
ATOM     46  H   UNL     1      23.098  19.247  15.399  1.00  0.00     0.211 HD
ENDBRANCH   3  45
BRANCH   5  47
ATOM     47  C   UNL     1      22.972  22.064  13.398  1.00  0.00     0.176 C 
BRANCH  47  48
ATOM     48  O   UNL     1      23.145  22.056  14.771  1.00  0.00    -0.388 OA
ATOM     49  H   UNL     1      23.867  21.490  15.097  1.00  0.00     0.211 HD
ENDBRANCH  47  48
BRANCH  47  50
ATOM     50  C   UNL     1      23.051  23.454  12.849  1.00  0.00     0.165 C 
BRANCH  50  51
ATOM     51  O   UNL     1      23.907  23.447  11.732  1.00  0.00    -0.388 OA
ATOM     52  H   UNL     1      24.457  24.249  11.761  1.00  0.00     0.211 HD
ENDBRANCH  50  51
BRANCH  50  53
ATOM     53  C   UNL     1      23.543  24.491  13.800  1.00  0.00     0.154 C 
BRANCH  53  54
ATOM     54  N   UNL     1      24.907  24.888  13.529  1.00  0.00    -0.319 N 
ATOM     55  C   UNL     1      26.038  24.309  14.137  1.00  0.00     0.407 C 
ATOM     56  H   UNL     1      25.105  25.664  12.831  1.00  0.00     0.167 HD
ATOM     57  O   UNL     1      25.911  23.398  14.960  1.00  0.00    -0.225 OA
BRANCH  55  58
ATOM     58  O   UNL     1      27.330  24.733  13.843  1.00  0.00    -0.443 OA
BRANCH  58  59
ATOM     59  C   UNL     1      28.219  24.024  13.018  1.00  0.00     0.294 C 
BRANCH  59  60
ATOM     60  C   UNL     1      27.540  23.492  11.798  1.00  0.00     0.121 A 
ATOM     61  C   UNL     1      27.580  22.191  11.342  1.00  0.00     0.148 A 
ATOM     62  N   UNL     1      26.772  24.176  10.928  1.00  0.00    -0.131 NA
ATOM     63  N   UNL     1      26.844  22.123  10.219  1.00  0.00    -0.185 N 
ATOM     64  N   UNL     1      26.371  23.332   9.995  1.00  0.00    -0.059 NA
BRANCH  63  65
ATOM     65  C   UNL     1      26.653  20.935   9.465  1.00  0.00     0.257 A 
ATOM     66  N   UNL     1      26.659  19.744  10.093  1.00  0.00    -0.175 NA
ATOM     67  N   UNL     1      26.458  20.914   8.134  1.00  0.00    -0.196 NA
ATOM     68  C   UNL     1      26.479  18.577   9.423  1.00  0.00     0.225 A 
ATOM     69  C   UNL     1      26.277  19.785   7.440  1.00  0.00     0.133 A 
ATOM     70  N   UNL     1      26.288  18.624   8.086  1.00  0.00    -0.198 NA
ATOM     71  C   UNL     1      26.063  19.810   5.951  1.00  0.00     0.090 C 
BRANCH  68  72
ATOM     72  N   UNL     1      26.494  17.354  10.130  1.00  0.00    -0.368 N 
ATOM     73  H   UNL     1      26.648  17.323  11.157  1.00  0.00     0.159 HD
ATOM     74  H   UNL     1      26.351  16.454   9.633  1.00  0.00     0.159 HD
ENDBRANCH  68  72
ENDBRANCH  63  65
ENDBRANCH  59  60
ENDBRANCH  58  59
ENDBRANCH  55  58
ENDBRANCH  53  54
ENDBRANCH  50  53
ENDBRANCH  47  50
ENDBRANCH   5  47
BRANCH   4  75
ATOM     75  N   UNL     1      26.061  20.032  13.275  1.00  0.00    -0.348 N 
ATOM     76  C   UNL     1      27.094  20.026  14.255  1.00  0.00     0.217 C 
ATOM     77  H   UNL     1      26.357  19.893  12.277  1.00  0.00     0.163 HD
ATOM     78  C   UNL     1      28.493  19.835  13.852  1.00  0.00     0.114 C 
ATOM     79  O   UNL     1      26.801  20.186  15.460  1.00  0.00    -0.275 OA
ENDBRANCH   4  75
TORSDOF 31
