REMARK VINA RESULT:    -6.315      4.182      9.628
REMARK INTER + INTRA:         -21.369
REMARK INTER:                 -15.773
REMARK INTRA:                  -5.596
REMARK UNBOUND:                -5.087
REMARK SMILES CC(=O)N[C@@H]1[C@@H](O)C[C@](OC[C@H]2O[C@@H](O[C@H]3[C@H](O)[C@@H](O)[C@H](OCCN=[N+]=[N-])O[C@@H]3CO)[C@H](O)[C@@H](O)[C@H]2O)(C(=O)O)O[C@H]1C(O)[C@H](O)CNC(=O)OCc1cn(CS(=O)(=O)c2ccccc2)nn1
REMARK SMILES IDX 9 1 8 2 6 3 5 4 42 5 41 6 10 7 11 8 12 9 14 10 13 11 32 12
REMARK SMILES IDX 34 13 36 14 15 15 16 16 29 17 28 18 21 19 17 20 19 21 30 22
REMARK SMILES IDX 31 23 22 25 23 26 24 27 25 28 26 29 27 30 18 31 20 33 33 35
REMARK SMILES IDX 35 37 37 39 38 41 39 42 40 43 7 45 43 47 44 48 45 50 46 51
REMARK SMILES IDX 47 53 48 54 49 55 50 57 51 58 52 59 53 60 54 61 67 62 55 63
REMARK SMILES IDX 66 64 56 65 57 66 58 67 59 68 60 69 61 70 65 71 62 72 64 73
REMARK SMILES IDX 63 74 4 75 2 76 1 78 3 79
REMARK H PARENT 31 24 18 32 20 34 33 36 35 38 37 40 40 44 7 46 44 49 46 52
REMARK H PARENT 48 56 4 77
REMARK Flexibility Score: inf
ROOT
ATOM      1  C   UNL     1      13.101  29.669  15.331  1.00  0.00     0.272 C 
ATOM      2  C   UNL     1      13.054  30.906  14.530  1.00  0.00     0.113 C 
ATOM      3  C   UNL     1      13.578  32.144  15.230  1.00  0.00     0.145 C 
ATOM      4  C   UNL     1      12.900  32.206  16.554  1.00  0.00     0.142 C 
ATOM      5  C   UNL     1      12.967  30.914  17.320  1.00  0.00     0.178 C 
ATOM      6  O   UNL     1      12.693  29.778  16.650  1.00  0.00    -0.332 OA
ENDROOT
BRANCH   1   7
ATOM      7  O   UNL     1      14.279  28.965  15.196  1.00  0.00    -0.338 OA
BRANCH   7   8
ATOM      8  C   UNL     1      15.173  29.415  14.280  1.00  0.00     0.199 C 
BRANCH   8   9
ATOM      9  C   UNL     1      16.517  28.667  14.413  1.00  0.00     0.179 C 
ATOM     10  C   UNL     1      18.404  29.771  13.506  1.00  0.00     0.282 C 
ATOM     11  O   UNL     1      17.275  29.014  13.365  1.00  0.00    -0.341 OA
ATOM     12  C   UNL     1      18.303  30.713  14.644  1.00  0.00     0.202 C 
ATOM     13  C   UNL     1      17.909  30.024  15.915  1.00  0.00     0.179 C 
ATOM     14  C   UNL     1      17.145  28.776  15.741  1.00  0.00     0.177 C 
BRANCH  10  15
ATOM     15  O   UNL     1      18.556  30.425  12.272  1.00  0.00    -0.341 OA
BRANCH  15  16
ATOM     16  C   UNL     1      17.438  30.572  11.523  1.00  0.00     0.184 C 
ATOM     17  C   UNL     1      17.603  30.057  10.124  1.00  0.00     0.178 C 
ATOM     18  O   UNL     1      16.326  29.853   9.607  1.00  0.00    -0.341 OA
ATOM     19  C   UNL     1      15.450  30.885   9.797  1.00  0.00     0.281 C 
ATOM     20  C   UNL     1      17.097  32.068  11.310  1.00  0.00     0.180 C 
ATOM     21  C   UNL     1      16.030  32.153  10.291  1.00  0.00     0.202 C 
BRANCH  17  22
ATOM     22  C   UNL     1      18.386  28.801   9.978  1.00  0.00     0.191 C 
BRANCH  22  23
ATOM     23  O   UNL     1      18.627  28.563   8.629  1.00  0.00    -0.394 OA
ATOM     24  H   UNL     1      19.372  29.127   8.317  1.00  0.00     0.210 HD
ENDBRANCH  22  23
ENDBRANCH  17  22
BRANCH  19  25
ATOM     25  O   UNL     1      14.496  30.437  10.707  1.00  0.00    -0.350 OA
BRANCH  25  26
ATOM     26  C   UNL     1      13.738  29.367  10.177  1.00  0.00     0.169 C 
BRANCH  26  27
ATOM     27  C   UNL     1      12.749  28.897  11.221  1.00  0.00     0.119 C 
BRANCH  27  28
ATOM     28  N   UNL     1      11.907  27.877  10.603  1.00  0.00    -0.092 NA
ATOM     29  N   UNL     1      10.836  27.588  11.175  1.00  0.00     0.001 N 
ATOM     30  N   UNL     1       9.932  27.164  11.919  1.00  0.00    -0.003 NA
ENDBRANCH  27  28
ENDBRANCH  26  27
ENDBRANCH  25  26
ENDBRANCH  19  25
BRANCH  20  31
ATOM     31  O   UNL     1      16.682  32.639  12.502  1.00  0.00    -0.387 OA
ATOM     32  H   UNL     1      15.974  33.301  12.294  1.00  0.00     0.211 HD
ENDBRANCH  20  31
BRANCH  21  33
ATOM     33  O   UNL     1      16.566  32.826   9.165  1.00  0.00    -0.385 OA
ATOM     34  H   UNL     1      17.341  32.361   8.785  1.00  0.00     0.211 HD
ENDBRANCH  21  33
ENDBRANCH  15  16
ENDBRANCH  10  15
BRANCH  12  35
ATOM     35  O   UNL     1      19.579  31.291  14.944  1.00  0.00    -0.385 OA
ATOM     36  H   UNL     1      19.518  32.219  14.616  1.00  0.00     0.211 HD
ENDBRANCH  12  35
BRANCH  13  37
ATOM     37  O   UNL     1      17.230  30.921  16.778  1.00  0.00    -0.387 OA
ATOM     38  H   UNL     1      16.276  30.634  16.864  1.00  0.00     0.211 HD
ENDBRANCH  13  37
BRANCH  14  39
ATOM     39  O   UNL     1      16.215  28.651  16.790  1.00  0.00    -0.387 OA
ATOM     40  H   UNL     1      16.287  27.728  17.145  1.00  0.00     0.211 HD
ENDBRANCH  14  39
ENDBRANCH   8   9
ENDBRANCH   7   8
ENDBRANCH   1   7
BRANCH   1  41
ATOM     41  C   UNL     1      12.010  28.781  14.751  1.00  0.00     0.364 C 
ATOM     42  O   UNL     1      10.892  29.286  14.558  1.00  0.00    -0.246 OA
BRANCH  41  43
ATOM     43  O   UNL     1      12.273  27.456  14.449  1.00  0.00    -0.477 OA
ATOM     44  H   UNL     1      11.531  26.859  14.051  1.00  0.00     0.296 HD
ENDBRANCH  41  43
ENDBRANCH   1  41
BRANCH   3  45
ATOM     45  O   UNL     1      14.944  32.086  15.277  1.00  0.00    -0.391 OA
ATOM     46  H   UNL     1      15.218  31.165  15.012  1.00  0.00     0.211 HD
ENDBRANCH   3  45
BRANCH   5  47
ATOM     47  C   UNL     1      14.186  30.825  18.208  1.00  0.00     0.176 C 
BRANCH  47  48
ATOM     48  O   UNL     1      14.893  32.020  18.310  1.00  0.00    -0.388 OA
ATOM     49  H   UNL     1      14.720  32.656  17.600  1.00  0.00     0.211 HD
ENDBRANCH  47  48
BRANCH  47  50
ATOM     50  C   UNL     1      13.863  30.312  19.604  1.00  0.00     0.165 C 
BRANCH  50  51
ATOM     51  O   UNL     1      12.900  31.061  20.241  1.00  0.00    -0.388 OA
ATOM     52  H   UNL     1      12.703  31.922  19.839  1.00  0.00     0.211 HD
ENDBRANCH  50  51
BRANCH  50  53
ATOM     53  C   UNL     1      15.047  30.077  20.462  1.00  0.00     0.154 C 
BRANCH  53  54
ATOM     54  N   UNL     1      16.270  29.713  19.813  1.00  0.00    -0.319 N 
ATOM     55  C   UNL     1      16.871  28.433  19.813  1.00  0.00     0.407 C 
ATOM     56  H   UNL     1      16.784  30.478  19.278  1.00  0.00     0.167 HD
ATOM     57  O   UNL     1      16.341  27.472  20.400  1.00  0.00    -0.225 OA
BRANCH  55  58
ATOM     58  O   UNL     1      18.070  28.264  19.140  1.00  0.00    -0.443 OA
BRANCH  58  59
ATOM     59  C   UNL     1      19.178  29.106  19.266  1.00  0.00     0.294 C 
BRANCH  59  60
ATOM     60  C   UNL     1      20.417  28.329  19.074  1.00  0.00     0.120 A 
ATOM     61  C   UNL     1      21.334  28.074  20.080  1.00  0.00     0.139 A 
ATOM     62  N   UNL     1      20.913  27.727  17.982  1.00  0.00    -0.132 NA
ATOM     63  N   UNL     1      22.343  27.337  19.581  1.00  0.00    -0.237 N 
ATOM     64  N   UNL     1      22.052  27.146  18.298  1.00  0.00    -0.066 NA
BRANCH  63  65
ATOM     65  C   UNL     1      23.493  26.853  20.292  1.00  0.00     0.287 C 
BRANCH  65  66
ATOM     66  S   UNL     1      23.233  25.098  20.555  1.00  0.00     0.198 S 
ATOM     67  O   UNL     1      24.489  24.343  20.342  1.00  0.00    -0.222 OA
ATOM     68  O   UNL     1      22.149  24.667  19.581  1.00  0.00    -0.222 OA
BRANCH  66  69
ATOM     69  C   UNL     1      22.654  24.900  22.188  1.00  0.00     0.069 A 
ATOM     70  C   UNL     1      21.316  24.735  22.476  1.00  0.00     0.020 A 
ATOM     71  C   UNL     1      23.526  24.901  23.255  1.00  0.00     0.020 A 
ATOM     72  C   UNL     1      20.860  24.579  23.758  1.00  0.00     0.001 A 
ATOM     73  C   UNL     1      23.085  24.747  24.544  1.00  0.00     0.001 A 
ATOM     74  C   UNL     1      21.746  24.586  24.793  1.00  0.00     0.000 A 
ENDBRANCH  66  69
ENDBRANCH  65  66
ENDBRANCH  63  65
ENDBRANCH  59  60
ENDBRANCH  58  59
ENDBRANCH  55  58
ENDBRANCH  53  54
ENDBRANCH  50  53
ENDBRANCH  47  50
ENDBRANCH   5  47
BRANCH   4  75
ATOM     75  N   UNL     1      11.489  32.500  16.338  1.00  0.00    -0.348 N 
ATOM     76  C   UNL     1      10.620  32.829  17.416  1.00  0.00     0.217 C 
ATOM     77  H   UNL     1      11.047  32.480  15.368  1.00  0.00     0.163 HD
ATOM     78  C   UNL     1       9.169  33.125  17.137  1.00  0.00     0.114 C 
ATOM     79  O   UNL     1      11.051  32.877  18.603  1.00  0.00    -0.275 OA
ENDBRANCH   4  75
TORSDOF 32
