REMARK VINA RESULT:    -4.975      4.887     10.334
REMARK INTER + INTRA:         -21.236
REMARK INTER:                 -12.446
REMARK INTRA:                  -8.790
REMARK UNBOUND:                -8.118
REMARK SMILES CC(=O)N[C@@H]1[C@@H](O)C[C@](OC[C@H]2O[C@@H](O[C@H]3[C@H](O)[C@@H](O)[C@H](OCCN=[N+]=[N-])O[C@@H]3CO)[C@H](O)[C@@H](O)[C@H]2O)(C(=O)O)O[C@H]1C(O)[C@H](O)CNC(=O)OCc1cn(CCOC(C)=O)nn1
REMARK SMILES IDX 43 1 42 2 9 3 8 4 41 5 6 6 5 7 10 8 11 9 12 10 14 11 13 12
REMARK SMILES IDX 32 13 34 14 36 15 15 16 16 17 29 18 28 19 21 20 17 21 19 22
REMARK SMILES IDX 30 23 31 24 22 26 23 27 24 28 25 29 26 30 27 31 18 32 20 34
REMARK SMILES IDX 33 36 35 38 37 40 38 42 39 43 40 44 7 46 4 48 2 49 1 51 3 52
REMARK SMILES IDX 44 53 45 55 46 56 47 58 48 59 49 60 50 62 51 63 52 64 53 65
REMARK SMILES IDX 54 66 63 67 55 68 62 69 56 70 57 71 58 72 59 73 61 74 60 75
REMARK H PARENT 31 25 18 33 20 35 33 37 35 39 37 41 40 45 7 47 4 50 44 54
REMARK H PARENT 46 57 48 61
REMARK Flexibility Score: inf
ROOT
ATOM      1  C   UNL     1       3.629  21.352  32.746  1.00  0.00     0.176 C 
ENDROOT
BRANCH   1   2
ATOM      2  C   UNL     1       4.223  22.737  32.749  1.00  0.00     0.178 C 
ATOM      3  C   UNL     1       5.778  23.980  34.011  1.00  0.00     0.272 C 
ATOM      4  C   UNL     1       5.471  24.964  32.909  1.00  0.00     0.113 C 
ATOM      5  O   UNL     1       5.224  22.699  33.742  1.00  0.00    -0.332 OA
ATOM      6  C   UNL     1       4.014  25.131  32.661  1.00  0.00     0.145 C 
ATOM      7  C   UNL     1       3.301  23.842  33.162  1.00  0.00     0.142 C 
BRANCH   3   8
ATOM      8  O   UNL     1       5.403  24.292  35.228  1.00  0.00    -0.338 OA
BRANCH   8   9
ATOM      9  C   UNL     1       5.746  23.841  36.402  1.00  0.00     0.199 C 
BRANCH   9  10
ATOM     10  C   UNL     1       6.387  24.600  37.484  1.00  0.00     0.179 C 
ATOM     11  C   UNL     1       8.350  24.620  38.691  1.00  0.00     0.282 C 
ATOM     12  O   UNL     1       7.806  24.315  37.435  1.00  0.00    -0.341 OA
ATOM     13  C   UNL     1       7.848  25.868  39.286  1.00  0.00     0.202 C 
ATOM     14  C   UNL     1       6.981  26.737  38.444  1.00  0.00     0.179 C 
ATOM     15  C   UNL     1       6.414  26.117  37.216  1.00  0.00     0.177 C 
BRANCH  11  16
ATOM     16  O   UNL     1       9.725  24.504  38.566  1.00  0.00    -0.341 OA
BRANCH  16  17
ATOM     17  C   UNL     1      10.204  24.953  37.363  1.00  0.00     0.184 C 
ATOM     18  C   UNL     1      11.255  24.001  36.841  1.00  0.00     0.178 C 
ATOM     19  O   UNL     1      11.653  24.524  35.603  1.00  0.00    -0.341 OA
ATOM     20  C   UNL     1      12.486  25.585  35.800  1.00  0.00     0.281 C 
ATOM     21  C   UNL     1      10.786  26.354  37.469  1.00  0.00     0.180 C 
ATOM     22  C   UNL     1      12.216  26.404  37.039  1.00  0.00     0.202 C 
BRANCH  18  23
ATOM     23  C   UNL     1      10.646  22.630  36.610  1.00  0.00     0.191 C 
BRANCH  23  24
ATOM     24  O   UNL     1       9.680  22.707  35.624  1.00  0.00    -0.394 OA
ATOM     25  H   UNL     1      10.133  23.118  34.828  1.00  0.00     0.210 HD
ENDBRANCH  23  24
ENDBRANCH  18  23
BRANCH  20  26
ATOM     26  O   UNL     1      12.430  26.383  34.649  1.00  0.00    -0.350 OA
BRANCH  26  27
ATOM     27  C   UNL     1      11.323  26.069  33.869  1.00  0.00     0.169 C 
BRANCH  27  28
ATOM     28  C   UNL     1      10.723  27.416  33.448  1.00  0.00     0.119 C 
BRANCH  28  29
ATOM     29  N   UNL     1       9.306  27.397  33.771  1.00  0.00    -0.092 NA
ATOM     30  N   UNL     1       8.724  28.375  34.257  1.00  0.00     0.001 N 
ATOM     31  N   UNL     1       8.240  29.174  35.080  1.00  0.00    -0.003 NA
ENDBRANCH  28  29
ENDBRANCH  27  28
ENDBRANCH  26  27
ENDBRANCH  20  26
BRANCH  21  32
ATOM     32  O   UNL     1      10.027  27.310  36.807  1.00  0.00    -0.387 OA
ATOM     33  H   UNL     1       9.565  27.942  37.412  1.00  0.00     0.211 HD
ENDBRANCH  21  32
BRANCH  22  34
ATOM     34  O   UNL     1      13.059  26.102  38.090  1.00  0.00    -0.385 OA
ATOM     35  H   UNL     1      13.173  26.926  38.647  1.00  0.00     0.211 HD
ENDBRANCH  22  34
ENDBRANCH  16  17
ENDBRANCH  11  16
BRANCH  13  36
ATOM     36  O   UNL     1       7.264  25.646  40.561  1.00  0.00    -0.385 OA
ATOM     37  H   UNL     1       6.643  24.887  40.549  1.00  0.00     0.211 HD
ENDBRANCH  13  36
BRANCH  14  38
ATOM     38  O   UNL     1       7.644  27.914  38.063  1.00  0.00    -0.387 OA
ATOM     39  H   UNL     1       8.447  28.020  38.654  1.00  0.00     0.211 HD
ENDBRANCH  14  38
BRANCH  15  40
ATOM     40  O   UNL     1       7.355  26.339  36.173  1.00  0.00    -0.387 OA
ATOM     41  H   UNL     1       8.100  26.887  36.492  1.00  0.00     0.211 HD
ENDBRANCH  15  40
ENDBRANCH   9  10
ENDBRANCH   8   9
ENDBRANCH   3   8
BRANCH   3  42
ATOM     42  C   UNL     1       7.232  23.686  33.871  1.00  0.00     0.364 C 
ATOM     43  O   UNL     1       7.732  22.610  33.494  1.00  0.00    -0.246 OA
BRANCH  42  44
ATOM     44  O   UNL     1       8.178  24.686  34.182  1.00  0.00    -0.477 OA
ATOM     45  H   UNL     1       8.169  25.542  33.648  1.00  0.00     0.296 HD
ENDBRANCH  42  44
ENDBRANCH   3  42
BRANCH   6  46
ATOM     46  O   UNL     1       3.441  26.252  33.213  1.00  0.00    -0.391 OA
ATOM     47  H   UNL     1       3.219  26.952  32.548  1.00  0.00     0.211 HD
ENDBRANCH   6  46
BRANCH   7  48
ATOM     48  N   UNL     1       1.970  23.821  32.657  1.00  0.00    -0.348 N 
ATOM     49  C   UNL     1       0.866  24.289  33.417  1.00  0.00     0.217 C 
ATOM     50  H   UNL     1       1.796  23.476  31.700  1.00  0.00     0.163 HD
ATOM     51  C   UNL     1      -0.530  24.262  32.880  1.00  0.00     0.114 C 
ATOM     52  O   UNL     1       1.012  24.754  34.588  1.00  0.00    -0.275 OA
ENDBRANCH   7  48
ENDBRANCH   1   2
BRANCH   1  53
ATOM     53  O   UNL     1       4.577  20.559  33.466  1.00  0.00    -0.388 OA
ATOM     54  H   UNL     1       5.428  21.040  33.542  1.00  0.00     0.211 HD
ENDBRANCH   1  53
BRANCH   1  55
ATOM     55  C   UNL     1       3.662  20.773  31.352  1.00  0.00     0.165 C 
BRANCH  55  56
ATOM     56  O   UNL     1       3.425  21.798  30.422  1.00  0.00    -0.388 OA
ATOM     57  H   UNL     1       3.129  22.592  30.913  1.00  0.00     0.211 HD
ENDBRANCH  55  56
BRANCH  55  58
ATOM     58  C   UNL     1       2.718  19.627  31.164  1.00  0.00     0.154 C 
BRANCH  58  59
ATOM     59  N   UNL     1       2.536  18.782  32.303  1.00  0.00    -0.319 N 
ATOM     60  C   UNL     1       2.425  17.381  32.224  1.00  0.00     0.407 C 
ATOM     61  H   UNL     1       2.476  19.181  33.291  1.00  0.00     0.167 HD
ATOM     62  O   UNL     1       2.488  16.758  31.143  1.00  0.00    -0.225 OA
BRANCH  60  63
ATOM     63  O   UNL     1       2.232  16.588  33.366  1.00  0.00    -0.443 OA
BRANCH  63  64
ATOM     64  C   UNL     1       1.512  17.034  34.479  1.00  0.00     0.294 C 
BRANCH  64  65
ATOM     65  C   UNL     1       2.357  17.843  35.401  1.00  0.00     0.120 A 
ATOM     66  C   UNL     1       1.963  18.222  36.672  1.00  0.00     0.138 A 
ATOM     67  N   UNL     1       3.580  18.339  35.239  1.00  0.00    -0.132 NA
ATOM     68  N   UNL     1       2.963  18.925  37.212  1.00  0.00    -0.249 N 
ATOM     69  N   UNL     1       3.937  18.984  36.322  1.00  0.00    -0.067 NA
BRANCH  68  70
ATOM     70  C   UNL     1       2.995  19.547  38.544  1.00  0.00     0.187 C 
BRANCH  70  71
ATOM     71  C   UNL     1       2.986  21.053  38.406  1.00  0.00     0.256 C 
BRANCH  71  72
ATOM     72  O   UNL     1       4.327  21.519  38.510  1.00  0.00    -0.464 OA
BRANCH  72  73
ATOM     73  C   UNL     1       4.773  22.132  39.678  1.00  0.00     0.302 C 
ATOM     74  O   UNL     1       5.989  22.037  39.965  1.00  0.00    -0.253 OA
ATOM     75  C   UNL     1       3.851  22.891  40.586  1.00  0.00     0.139 C 
ENDBRANCH  72  73
ENDBRANCH  71  72
ENDBRANCH  70  71
ENDBRANCH  68  70
ENDBRANCH  64  65
ENDBRANCH  63  64
ENDBRANCH  60  63
ENDBRANCH  58  59
ENDBRANCH  55  58
ENDBRANCH   1  55
TORSDOF 33
