REMARK VINA RESULT:    -8.076      4.143     10.288
REMARK INTER + INTRA:         -19.636
REMARK INTER:                 -13.086
REMARK INTRA:                  -6.550
REMARK UNBOUND:                 3.076
REMARK SMILES CC(=O)N[C@@H]1[C@@H](O)C[C@](OC[C@H]2O[C@@H](O[C@H]3[C@H](O)[C@@H](O)[C@H](OCCN=[N+]=[N-])O[C@@H]3CO)[C@H](O)[C@@H](O)[C@H]2O)(C(=O)O)O[C@H]1C(O)[C@H](O)CNC(=O)OCc1cn(C2CC(O)C=C[C@@H](O)C2)nn1
REMARK SMILES IDX 43 1 42 2 9 3 8 4 41 5 6 6 5 7 10 8 11 9 12 10 14 11 13 12
REMARK SMILES IDX 32 13 34 14 36 15 15 16 16 17 29 18 28 19 21 20 17 21 19 22
REMARK SMILES IDX 30 23 31 24 22 26 23 27 24 28 25 29 26 30 27 31 18 32 20 34
REMARK SMILES IDX 33 36 35 38 37 40 38 42 39 43 40 44 7 46 4 48 2 49 1 51 3 52
REMARK SMILES IDX 44 53 45 55 46 56 47 58 48 59 49 60 50 62 51 63 52 64 53 65
REMARK SMILES IDX 54 66 66 67 55 68 65 69 56 70 57 71 58 72 59 74 64 76 62 77
REMARK SMILES IDX 61 78 60 79 63 81
REMARK H PARENT 31 25 18 33 20 35 33 37 35 39 37 41 40 45 7 47 4 50 44 54
REMARK H PARENT 46 57 48 61 59 75 63 82
REMARK Flexibility Score: 90.00
ROOT
ATOM      1  C   UNL     1      15.581  30.202  22.984  1.00  0.00     0.176 C 
ENDROOT
BRANCH   1   2
ATOM      2  C   UNL     1      16.118  30.385  21.576  1.00  0.00     0.178 C 
ATOM      3  C   UNL     1      17.940  29.571  20.329  1.00  0.00     0.272 C 
ATOM      4  C   UNL     1      17.809  30.671  19.340  1.00  0.00     0.113 C 
ATOM      5  O   UNL     1      17.363  29.695  21.536  1.00  0.00    -0.332 OA
ATOM      6  C   UNL     1      16.678  31.602  19.586  1.00  0.00     0.145 C 
ATOM      7  C   UNL     1      16.420  31.746  21.119  1.00  0.00     0.142 C 
BRANCH   3   8
ATOM      8  O   UNL     1      19.307  29.246  20.437  1.00  0.00    -0.338 OA
BRANCH   8   9
ATOM      9  C   UNL     1      20.154  30.316  20.439  1.00  0.00     0.199 C 
BRANCH   9  10
ATOM     10  C   UNL     1      21.607  29.864  20.286  1.00  0.00     0.179 C 
ATOM     11  C   UNL     1      22.697  27.917  20.882  1.00  0.00     0.282 C 
ATOM     12  O   UNL     1      21.874  28.973  21.277  1.00  0.00    -0.341 OA
ATOM     13  C   UNL     1      21.867  27.149  19.871  1.00  0.00     0.202 C 
ATOM     14  C   UNL     1      21.854  27.990  18.615  1.00  0.00     0.179 C 
ATOM     15  C   UNL     1      21.926  29.458  18.889  1.00  0.00     0.177 C 
BRANCH  11  16
ATOM     16  O   UNL     1      23.046  27.183  21.990  1.00  0.00    -0.341 OA
BRANCH  16  17
ATOM     17  C   UNL     1      21.951  27.085  22.853  1.00  0.00     0.184 C 
ATOM     18  C   UNL     1      22.012  28.172  23.896  1.00  0.00     0.178 C 
ATOM     19  O   UNL     1      22.931  27.960  24.892  1.00  0.00    -0.341 OA
ATOM     20  C   UNL     1      23.543  26.710  24.847  1.00  0.00     0.281 C 
ATOM     21  C   UNL     1      21.806  25.714  23.455  1.00  0.00     0.180 C 
ATOM     22  C   UNL     1      22.480  25.618  24.796  1.00  0.00     0.202 C 
BRANCH  18  23
ATOM     23  C   UNL     1      20.636  28.414  24.501  1.00  0.00     0.191 C 
BRANCH  23  24
ATOM     24  O   UNL     1      19.768  29.009  23.605  1.00  0.00    -0.394 OA
ATOM     25  H   UNL     1      20.102  29.847  23.247  1.00  0.00     0.210 HD
ENDBRANCH  23  24
ENDBRANCH  18  23
BRANCH  20  26
ATOM     26  O   UNL     1      24.286  26.603  26.018  1.00  0.00    -0.350 OA
BRANCH  26  27
ATOM     27  C   UNL     1      23.932  27.647  26.865  1.00  0.00     0.169 C 
BRANCH  27  28
ATOM     28  C   UNL     1      23.425  27.127  28.199  1.00  0.00     0.119 C 
BRANCH  28  29
ATOM     29  N   UNL     1      23.885  25.774  28.434  1.00  0.00    -0.092 NA
ATOM     30  N   UNL     1      24.012  25.378  29.604  1.00  0.00     0.001 N 
ATOM     31  N   UNL     1      24.194  25.142  30.806  1.00  0.00    -0.003 NA
ENDBRANCH  28  29
ENDBRANCH  27  28
ENDBRANCH  26  27
ENDBRANCH  20  26
BRANCH  21  32
ATOM     32  O   UNL     1      20.457  25.381  23.579  1.00  0.00    -0.387 OA
ATOM     33  H   UNL     1      19.880  26.182  23.609  1.00  0.00     0.211 HD
ENDBRANCH  21  32
BRANCH  22  34
ATOM     34  O   UNL     1      23.082  24.376  24.966  1.00  0.00    -0.385 OA
ATOM     35  H   UNL     1      23.994  24.476  25.347  1.00  0.00     0.211 HD
ENDBRANCH  22  34
ENDBRANCH  16  17
ENDBRANCH  11  16
BRANCH  13  36
ATOM     36  O   UNL     1      22.331  25.890  19.598  1.00  0.00    -0.385 OA
ATOM     37  H   UNL     1      22.117  25.214  20.260  1.00  0.00     0.211 HD
ENDBRANCH  13  36
BRANCH  14  38
ATOM     38  O   UNL     1      20.713  27.627  17.901  1.00  0.00    -0.387 OA
ATOM     39  H   UNL     1      20.874  26.798  17.370  1.00  0.00     0.211 HD
ENDBRANCH  14  38
BRANCH  15  40
ATOM     40  O   UNL     1      21.032  30.149  18.046  1.00  0.00    -0.387 OA
ATOM     41  H   UNL     1      20.395  30.700  18.524  1.00  0.00     0.211 HD
ENDBRANCH  15  40
ENDBRANCH   9  10
ENDBRANCH   8   9
ENDBRANCH   3   8
BRANCH   3  42
ATOM     42  C   UNL     1      17.306  28.359  19.680  1.00  0.00     0.364 C 
ATOM     43  O   UNL     1      17.579  28.003  18.504  1.00  0.00    -0.246 OA
BRANCH  42  44
ATOM     44  O   UNL     1      16.397  27.633  20.431  1.00  0.00    -0.477 OA
ATOM     45  H   UNL     1      16.450  26.616  20.484  1.00  0.00     0.296 HD
ENDBRANCH  42  44
ENDBRANCH   3  42
BRANCH   6  46
ATOM     46  O   UNL     1      16.902  32.837  19.029  1.00  0.00    -0.391 OA
ATOM     47  H   UNL     1      16.603  33.544  19.640  1.00  0.00     0.211 HD
ENDBRANCH   6  46
BRANCH   7  48
ATOM     48  N   UNL     1      15.521  32.814  21.326  1.00  0.00    -0.348 N 
ATOM     49  C   UNL     1      15.854  33.865  22.218  1.00  0.00     0.217 C 
ATOM     50  H   UNL     1      14.622  32.867  20.814  1.00  0.00     0.163 HD
ATOM     51  C   UNL     1      14.923  35.000  22.452  1.00  0.00     0.114 C 
ATOM     52  O   UNL     1      16.953  33.840  22.821  1.00  0.00    -0.275 OA
ENDBRANCH   7  48
ENDBRANCH   1   2
BRANCH   1  53
ATOM     53  O   UNL     1      16.686  29.457  23.591  1.00  0.00    -0.388 OA
ATOM     54  H   UNL     1      16.916  29.922  24.455  1.00  0.00     0.211 HD
ENDBRANCH   1  53
BRANCH   1  55
ATOM     55  C   UNL     1      14.463  29.204  23.093  1.00  0.00     0.165 C 
BRANCH  55  56
ATOM     56  O   UNL     1      14.317  28.458  21.949  1.00  0.00    -0.388 OA
ATOM     57  H   UNL     1      13.931  28.953  21.193  1.00  0.00     0.211 HD
ENDBRANCH  55  56
BRANCH  55  58
ATOM     58  C   UNL     1      13.130  29.909  23.322  1.00  0.00     0.154 C 
BRANCH  58  59
ATOM     59  N   UNL     1      12.501  30.372  22.128  1.00  0.00    -0.319 N 
ATOM     60  C   UNL     1      12.197  31.742  21.893  1.00  0.00     0.407 C 
ATOM     61  H   UNL     1      12.238  29.676  21.368  1.00  0.00     0.167 HD
ATOM     62  O   UNL     1      12.511  32.560  22.805  1.00  0.00    -0.225 OA
BRANCH  60  63
ATOM     63  O   UNL     1      11.591  32.130  20.720  1.00  0.00    -0.443 OA
BRANCH  63  64
ATOM     64  C   UNL     1      11.954  33.354  20.086  1.00  0.00     0.294 C 
BRANCH  64  65
ATOM     65  C   UNL     1      12.857  33.029  18.959  1.00  0.00     0.120 A 
ATOM     66  C   UNL     1      12.793  31.966  18.097  1.00  0.00     0.138 A 
ATOM     67  N   UNL     1      13.929  33.751  18.589  1.00  0.00    -0.132 NA
ATOM     68  N   UNL     1      13.833  32.077  17.233  1.00  0.00    -0.249 N 
ATOM     69  N   UNL     1      14.499  33.166  17.557  1.00  0.00    -0.067 NA
BRANCH  68  70
ATOM     70  C   UNL     1      14.163  31.154  16.138  1.00  0.00     0.115 C 
BRANCH  70  71
ATOM     71  C   UNL     1      15.167  30.168  16.633  1.00  0.00     0.063 C 
BRANCH  71  72
ATOM     72  C   UNL     1      15.988  29.656  15.446  1.00  0.00     0.139 CG0
ATOM     73  G   UNL     1      15.144  28.775  14.623  1.00  0.00     0.000 G0
BRANCH  72  74
ATOM     74  O   UNL     1      17.122  28.989  15.906  1.00  0.00    -0.389 OA
ATOM     75  H   UNL     1      17.094  28.057  15.547  1.00  0.00     0.211 HD
ENDBRANCH  72  74
ENDBRANCH  71  72
ENDBRANCH  70  71
BRANCH  70  76
ATOM     76  C   UNL     1      12.905  30.477  15.693  1.00  0.00     0.063 C 
BRANCH  76  77
ATOM     77  C   UNL     1      13.090  30.142  14.208  1.00  0.00     0.139 C 
BRANCH  77  78
ATOM     78  C   UNL     1      13.936  28.927  14.073  1.00  0.00     0.002 C 
ATOM     79  C   UNL     1      15.143  28.753  14.594  1.00  0.00     0.002 CG0
ATOM     80  G   UNL     1      15.952  29.666  15.417  1.00  0.00     0.000 G0
ENDBRANCH  77  78
BRANCH  77  81
ATOM     81  O   UNL     1      11.872  29.988  13.563  1.00  0.00    -0.389 OA
ATOM     82  H   UNL     1      11.957  29.205  12.950  1.00  0.00     0.211 HD
ENDBRANCH  77  81
ENDBRANCH  76  77
ENDBRANCH  70  76
ENDBRANCH  68  70
ENDBRANCH  64  65
ENDBRANCH  63  64
ENDBRANCH  60  63
ENDBRANCH  58  59
ENDBRANCH  55  58
ENDBRANCH   1  55
TORSDOF 32
