REMARK VINA RESULT:    -7.081      0.000      0.000
REMARK INTER + INTRA:         -23.345
REMARK INTER:                 -14.870
REMARK INTRA:                  -8.474
REMARK UNBOUND:                -5.087
REMARK SMILES CC(=O)N[C@@H]1[C@@H](O)C[C@](OC[C@H]2O[C@@H](O[C@H]3[C@H](O)[C@@H](O)[C@H](OCCN=[N+]=[N-])O[C@@H]3CO)[C@H](O)[C@@H](O)[C@H]2O)(C(=O)O)O[C@H]1C(O)[C@H](O)CNC(=O)OCc1cn(CS(=O)(=O)c2ccccc2)nn1
REMARK SMILES IDX 9 1 8 2 6 3 5 4 42 5 41 6 10 7 11 8 12 9 14 10 13 11 32 12
REMARK SMILES IDX 34 13 36 14 15 15 16 16 29 17 28 18 21 19 17 20 19 21 30 22
REMARK SMILES IDX 31 23 22 25 23 26 24 27 25 28 26 29 27 30 18 31 20 33 33 35
REMARK SMILES IDX 35 37 37 39 38 41 39 42 40 43 7 45 43 47 44 48 45 50 46 51
REMARK SMILES IDX 47 53 48 54 49 55 50 57 51 58 52 59 53 60 54 61 67 62 55 63
REMARK SMILES IDX 66 64 56 65 57 66 58 67 59 68 60 69 61 70 65 71 62 72 64 73
REMARK SMILES IDX 63 74 4 75 2 76 1 78 3 79
REMARK H PARENT 31 24 18 32 20 34 33 36 35 38 37 40 40 44 7 46 44 49 46 52
REMARK H PARENT 48 56 4 77
REMARK Flexibility Score: inf
ROOT
ATOM      1  C   UNL     1      14.994  30.753  19.637  1.00  0.00     0.272 C 
ATOM      2  C   UNL     1      14.438  29.421  19.335  1.00  0.00     0.113 C 
ATOM      3  C   UNL     1      15.464  28.361  18.986  1.00  0.00     0.145 C 
ATOM      4  C   UNL     1      16.343  28.947  17.937  1.00  0.00     0.142 C 
ATOM      5  C   UNL     1      16.869  30.310  18.290  1.00  0.00     0.178 C 
ATOM      6  O   UNL     1      15.995  31.204  18.792  1.00  0.00    -0.332 OA
ENDROOT
BRANCH   1   7
ATOM      7  O   UNL     1      15.299  30.938  20.968  1.00  0.00    -0.338 OA
BRANCH   7   8
ATOM      8  C   UNL     1      14.467  30.378  21.883  1.00  0.00     0.199 C 
BRANCH   8   9
ATOM      9  C   UNL     1      15.254  29.482  22.863  1.00  0.00     0.179 C 
ATOM     10  C   UNL     1      17.216  30.436  23.781  1.00  0.00     0.282 C 
ATOM     11  O   UNL     1      16.547  29.817  22.764  1.00  0.00    -0.341 OA
ATOM     12  C   UNL     1      16.325  31.303  24.587  1.00  0.00     0.202 C 
ATOM     13  C   UNL     1      15.104  30.574  25.059  1.00  0.00     0.179 C 
ATOM     14  C   UNL     1      14.693  29.430  24.224  1.00  0.00     0.177 C 
BRANCH  10  15
ATOM     15  O   UNL     1      18.246  31.154  23.152  1.00  0.00    -0.341 OA
BRANCH  15  16
ATOM     16  C   UNL     1      19.492  30.990  23.655  1.00  0.00     0.184 C 
ATOM     17  C   UNL     1      20.216  32.290  23.851  1.00  0.00     0.178 C 
ATOM     18  O   UNL     1      21.254  32.051  24.746  1.00  0.00    -0.341 OA
ATOM     19  C   UNL     1      22.013  30.945  24.477  1.00  0.00     0.281 C 
ATOM     20  C   UNL     1      20.403  30.227  22.662  1.00  0.00     0.180 C 
ATOM     21  C   UNL     1      21.792  30.306  23.161  1.00  0.00     0.202 C 
BRANCH  17  22
ATOM     22  C   UNL     1      19.397  33.424  24.358  1.00  0.00     0.191 C 
BRANCH  22  23
ATOM     23  O   UNL     1      18.622  33.931  23.322  1.00  0.00    -0.394 OA
ATOM     24  H   UNL     1      18.400  34.875  23.500  1.00  0.00     0.210 HD
ENDBRANCH  22  23
ENDBRANCH  17  22
BRANCH  19  25
ATOM     25  O   UNL     1      21.741  30.021  25.482  1.00  0.00    -0.350 OA
BRANCH  25  26
ATOM     26  C   UNL     1      21.613  30.650  26.742  1.00  0.00     0.169 C 
BRANCH  26  27
ATOM     27  C   UNL     1      20.511  29.970  27.524  1.00  0.00     0.119 C 
BRANCH  27  28
ATOM     28  N   UNL     1      19.335  30.834  27.472  1.00  0.00    -0.092 NA
ATOM     29  N   UNL     1      18.633  30.917  28.500  1.00  0.00     0.001 N 
ATOM     30  N   UNL     1      17.845  30.752  29.450  1.00  0.00    -0.003 NA
ENDBRANCH  27  28
ENDBRANCH  26  27
ENDBRANCH  25  26
ENDBRANCH  19  25
BRANCH  20  31
ATOM     31  O   UNL     1      19.996  28.907  22.556  1.00  0.00    -0.387 OA
ATOM     32  H   UNL     1      19.429  28.825  21.747  1.00  0.00     0.211 HD
ENDBRANCH  20  31
BRANCH  21  33
ATOM     33  O   UNL     1      22.546  31.044  22.215  1.00  0.00    -0.385 OA
ATOM     34  H   UNL     1      23.150  31.689  22.639  1.00  0.00     0.211 HD
ENDBRANCH  21  33
ENDBRANCH  15  16
ENDBRANCH  10  15
BRANCH  12  35
ATOM     35  O   UNL     1      16.970  31.717  25.796  1.00  0.00    -0.385 OA
ATOM     36  H   UNL     1      16.313  32.302  26.244  1.00  0.00     0.211 HD
ENDBRANCH  12  35
BRANCH  13  37
ATOM     37  O   UNL     1      14.027  31.476  25.251  1.00  0.00    -0.387 OA
ATOM     38  H   UNL     1      13.563  31.256  26.109  1.00  0.00     0.211 HD
ENDBRANCH  13  37
BRANCH  14  39
ATOM     39  O   UNL     1      13.289  29.334  24.227  1.00  0.00    -0.387 OA
ATOM     40  H   UNL     1      13.015  28.986  25.114  1.00  0.00     0.211 HD
ENDBRANCH  14  39
ENDBRANCH   8   9
ENDBRANCH   7   8
ENDBRANCH   1   7
BRANCH   1  41
ATOM     41  C   UNL     1      13.871  31.729  19.321  1.00  0.00     0.364 C 
ATOM     42  O   UNL     1      12.928  31.324  18.622  1.00  0.00    -0.246 OA
BRANCH  41  43
ATOM     43  O   UNL     1      13.912  33.025  19.808  1.00  0.00    -0.477 OA
ATOM     44  H   UNL     1      14.170  33.804  19.184  1.00  0.00     0.296 HD
ENDBRANCH  41  43
ENDBRANCH   1  41
BRANCH   3  45
ATOM     45  O   UNL     1      16.104  27.965  20.128  1.00  0.00    -0.391 OA
ATOM     46  H   UNL     1      16.915  28.535  20.233  1.00  0.00     0.211 HD
ENDBRANCH   3  45
BRANCH   5  47
ATOM     47  C   UNL     1      18.184  30.253  19.033  1.00  0.00     0.176 C 
BRANCH  47  48
ATOM     48  O   UNL     1      18.050  30.362  20.415  1.00  0.00    -0.388 OA
ATOM     49  H   UNL     1      17.743  31.226  20.726  1.00  0.00     0.211 HD
ENDBRANCH  47  48
BRANCH  47  50
ATOM     50  C   UNL     1      18.994  29.008  18.703  1.00  0.00     0.165 C 
BRANCH  50  51
ATOM     51  O   UNL     1      19.134  28.159  19.777  1.00  0.00    -0.388 OA
ATOM     52  H   UNL     1      19.365  28.581  20.619  1.00  0.00     0.211 HD
ENDBRANCH  50  51
BRANCH  50  53
ATOM     53  C   UNL     1      20.286  29.276  18.030  1.00  0.00     0.154 C 
BRANCH  53  54
ATOM     54  N   UNL     1      21.436  28.568  18.502  1.00  0.00    -0.319 N 
ATOM     55  C   UNL     1      22.050  27.456  17.884  1.00  0.00     0.407 C 
ATOM     56  H   UNL     1      21.878  28.909  19.411  1.00  0.00     0.167 HD
ATOM     57  O   UNL     1      21.615  26.992  16.813  1.00  0.00    -0.225 OA
BRANCH  55  58
ATOM     58  O   UNL     1      23.155  26.883  18.493  1.00  0.00    -0.443 OA
BRANCH  58  59
ATOM     59  C   UNL     1      23.144  25.662  19.171  1.00  0.00     0.294 C 
BRANCH  59  60
ATOM     60  C   UNL     1      22.288  25.766  20.368  1.00  0.00     0.120 A 
ATOM     61  C   UNL     1      22.532  25.094  21.554  1.00  0.00     0.139 A 
ATOM     62  N   UNL     1      21.171  26.477  20.587  1.00  0.00    -0.132 NA
ATOM     63  N   UNL     1      21.573  25.410  22.444  1.00  0.00    -0.237 N 
ATOM     64  N   UNL     1      20.761  26.255  21.818  1.00  0.00    -0.066 NA
BRANCH  63  65
ATOM     65  C   UNL     1      21.459  24.934  23.795  1.00  0.00     0.287 C 
BRANCH  65  66
ATOM     66  S   UNL     1      21.560  26.375  24.857  1.00  0.00     0.198 S 
ATOM     67  O   UNL     1      20.261  27.084  24.907  1.00  0.00    -0.222 OA
ATOM     68  O   UNL     1      22.659  27.258  24.290  1.00  0.00    -0.222 OA
BRANCH  66  69
ATOM     69  C   UNL     1      22.029  25.818  26.442  1.00  0.00     0.069 A 
ATOM     70  C   UNL     1      22.607  24.583  26.643  1.00  0.00     0.020 A 
ATOM     71  C   UNL     1      21.833  26.604  27.557  1.00  0.00     0.020 A 
ATOM     72  C   UNL     1      22.975  24.143  27.888  1.00  0.00     0.001 A 
ATOM     73  C   UNL     1      22.194  26.178  28.809  1.00  0.00     0.001 A 
ATOM     74  C   UNL     1      22.768  24.942  28.972  1.00  0.00     0.000 A 
ENDBRANCH  66  69
ENDBRANCH  65  66
ENDBRANCH  63  65
ENDBRANCH  59  60
ENDBRANCH  58  59
ENDBRANCH  55  58
ENDBRANCH  53  54
ENDBRANCH  50  53
ENDBRANCH  47  50
ENDBRANCH   5  47
BRANCH   4  75
ATOM     75  N   UNL     1      15.566  29.095  16.712  1.00  0.00    -0.348 N 
ATOM     76  C   UNL     1      16.169  28.995  15.427  1.00  0.00     0.217 C 
ATOM     77  H   UNL     1      14.517  29.285  16.724  1.00  0.00     0.163 HD
ATOM     78  C   UNL     1      15.320  29.157  14.193  1.00  0.00     0.114 C 
ATOM     79  O   UNL     1      17.408  28.773  15.309  1.00  0.00    -0.275 OA
ENDBRANCH   4  75
TORSDOF 32
