REMARK VINA RESULT:    -5.941     20.483     27.148
REMARK INTER + INTRA:         -22.816
REMARK INTER:                 -17.292
REMARK INTRA:                  -5.525
REMARK UNBOUND:                -6.283
REMARK SMILES CC(=O)N[C@@H]1[C@@H](O)C[C@](OC[C@H]2O[C@@H](O[C@H]3[C@H](O)[C@@H](O)[C@H](OCCN=[N+]=[N-])O[C@@H]3CO)[C@H](O)[C@@H](O)[C@H]2O)(C(=O)O)O[C@H]1C(O)[C@H](O)CNC(=O)OCc1cn(C[C@H](CC(=O)O)CC(C)C)nn1
REMARK SMILES IDX 43 1 42 2 9 3 8 4 41 5 6 6 5 7 10 8 11 9 12 10 14 11 13 12
REMARK SMILES IDX 32 13 34 14 36 15 15 16 16 17 29 18 28 19 21 20 17 21 19 22
REMARK SMILES IDX 30 23 31 24 22 26 23 27 24 28 25 29 26 30 27 31 18 32 20 34
REMARK SMILES IDX 33 36 35 38 37 40 38 42 39 43 40 44 7 46 4 48 2 49 1 51 3 52
REMARK SMILES IDX 44 53 45 55 46 56 47 58 48 59 49 60 50 62 51 63 52 64 53 65
REMARK SMILES IDX 54 66 67 67 55 68 66 69 56 70 57 71 58 72 59 73 60 74 61 75
REMARK SMILES IDX 62 77 63 78 64 79 65 80
REMARK H PARENT 31 25 18 33 20 35 33 37 35 39 37 41 40 45 7 47 4 50 44 54
REMARK H PARENT 46 57 48 61 61 76
REMARK Flexibility Score: inf
ROOT
ATOM      1  C   UNL     1      28.682  21.392  20.521  1.00  0.00     0.176 C 
ENDROOT
BRANCH   1   2
ATOM      2  C   UNL     1      30.047  20.853  20.194  1.00  0.00     0.178 C 
ATOM      3  C   UNL     1      30.295  19.283  18.382  1.00  0.00     0.272 C 
ATOM      4  C   UNL     1      30.310  18.146  19.339  1.00  0.00     0.113 C 
ATOM      5  O   UNL     1      29.987  20.456  18.896  1.00  0.00    -0.332 OA
ATOM      6  C   UNL     1      29.932  18.423  20.738  1.00  0.00     0.145 C 
ATOM      7  C   UNL     1      30.379  19.811  21.204  1.00  0.00     0.142 C 
BRANCH   3   8
ATOM      8  O   UNL     1      29.386  18.996  17.327  1.00  0.00    -0.338 OA
BRANCH   8   9
ATOM      9  C   UNL     1      28.286  19.795  17.290  1.00  0.00     0.199 C 
BRANCH   9  10
ATOM     10  C   UNL     1      28.046  20.303  15.851  1.00  0.00     0.179 C 
ATOM     11  C   UNL     1      26.567  20.110  14.073  1.00  0.00     0.282 C 
ATOM     12  O   UNL     1      26.754  20.036  15.445  1.00  0.00    -0.341 OA
ATOM     13  C   UNL     1      27.484  21.233  13.566  1.00  0.00     0.202 C 
ATOM     14  C   UNL     1      27.570  22.341  14.595  1.00  0.00     0.179 C 
ATOM     15  C   UNL     1      28.211  21.830  15.841  1.00  0.00     0.177 C 
BRANCH  11  16
ATOM     16  O   UNL     1      25.291  20.552  13.825  1.00  0.00    -0.341 OA
BRANCH  16  17
ATOM     17  C   UNL     1      24.521  19.772  13.004  1.00  0.00     0.184 C 
ATOM     18  C   UNL     1      24.455  20.237  11.579  1.00  0.00     0.178 C 
ATOM     19  O   UNL     1      23.223  20.634  11.150  1.00  0.00    -0.341 OA
ATOM     20  C   UNL     1      22.214  19.702  11.293  1.00  0.00     0.281 C 
ATOM     21  C   UNL     1      23.111  19.791  13.557  1.00  0.00     0.180 C 
ATOM     22  C   UNL     1      22.224  18.985  12.598  1.00  0.00     0.202 C 
BRANCH  18  23
ATOM     23  C   UNL     1      25.071  19.155  10.711  1.00  0.00     0.191 C 
BRANCH  23  24
ATOM     24  O   UNL     1      25.084  19.528   9.369  1.00  0.00    -0.394 OA
ATOM     25  H   UNL     1      25.695  18.959   8.826  1.00  0.00     0.210 HD
ENDBRANCH  23  24
ENDBRANCH  18  23
BRANCH  20  26
ATOM     26  O   UNL     1      22.243  18.874  10.181  1.00  0.00    -0.350 OA
BRANCH  26  27
ATOM     27  C   UNL     1      21.126  19.005   9.373  1.00  0.00     0.169 C 
BRANCH  27  28
ATOM     28  C   UNL     1      20.454  17.640   9.322  1.00  0.00     0.119 C 
BRANCH  28  29
ATOM     29  N   UNL     1      19.067  17.865   9.704  1.00  0.00    -0.092 NA
ATOM     30  N   UNL     1      18.837  18.405  10.760  1.00  0.00     0.001 N 
ATOM     31  N   UNL     1      18.320  18.783  11.820  1.00  0.00    -0.003 NA
ENDBRANCH  28  29
ENDBRANCH  27  28
ENDBRANCH  26  27
ENDBRANCH  20  26
BRANCH  21  32
ATOM     32  O   UNL     1      23.091  19.265  14.836  1.00  0.00    -0.387 OA
ATOM     33  H   UNL     1      23.604  18.398  14.801  1.00  0.00     0.211 HD
ENDBRANCH  21  32
BRANCH  22  34
ATOM     34  O   UNL     1      20.957  18.961  13.217  1.00  0.00    -0.385 OA
ATOM     35  H   UNL     1      20.416  18.295  12.742  1.00  0.00     0.211 HD
ENDBRANCH  22  34
ENDBRANCH  16  17
ENDBRANCH  11  16
BRANCH  13  36
ATOM     36  O   UNL     1      28.703  20.774  13.134  1.00  0.00    -0.385 OA
ATOM     37  H   UNL     1      29.255  21.437  12.683  1.00  0.00     0.211 HD
ENDBRANCH  13  36
BRANCH  14  38
ATOM     38  O   UNL     1      26.236  22.694  14.880  1.00  0.00    -0.387 OA
ATOM     39  H   UNL     1      25.646  21.924  14.900  1.00  0.00     0.211 HD
ENDBRANCH  14  38
BRANCH  15  40
ATOM     40  O   UNL     1      27.511  22.384  16.933  1.00  0.00    -0.387 OA
ATOM     41  H   UNL     1      27.893  23.237  17.196  1.00  0.00     0.211 HD
ENDBRANCH  15  40
ENDBRANCH   9  10
ENDBRANCH   8   9
ENDBRANCH   3   8
BRANCH   3  42
ATOM     42  C   UNL     1      31.624  19.344  17.651  1.00  0.00     0.364 C 
ATOM     43  O   UNL     1      31.665  19.252  16.417  1.00  0.00    -0.246 OA
BRANCH  42  44
ATOM     44  O   UNL     1      32.789  19.500  18.344  1.00  0.00    -0.477 OA
ATOM     45  H   UNL     1      33.310  20.375  18.370  1.00  0.00     0.296 HD
ENDBRANCH  42  44
ENDBRANCH   3  42
BRANCH   6  46
ATOM     46  O   UNL     1      28.611  18.230  21.078  1.00  0.00    -0.391 OA
ATOM     47  H   UNL     1      28.221  19.127  21.227  1.00  0.00     0.211 HD
ENDBRANCH   6  46
BRANCH   7  48
ATOM     48  N   UNL     1      31.771  19.672  21.538  1.00  0.00    -0.348 N 
ATOM     49  C   UNL     1      32.124  19.513  22.930  1.00  0.00     0.217 C 
ATOM     50  H   UNL     1      32.568  19.680  20.864  1.00  0.00     0.163 HD
ATOM     51  C   UNL     1      33.580  19.362  23.276  1.00  0.00     0.114 C 
ATOM     52  O   UNL     1      31.263  19.498  23.844  1.00  0.00    -0.275 OA
ENDBRANCH   7  48
ENDBRANCH   1   2
BRANCH   1  53
ATOM     53  O   UNL     1      28.439  22.527  19.691  1.00  0.00    -0.388 OA
ATOM     54  H   UNL     1      29.048  23.262  19.962  1.00  0.00     0.211 HD
ENDBRANCH   1  53
BRANCH   1  55
ATOM     55  C   UNL     1      28.470  21.927  21.919  1.00  0.00     0.165 C 
BRANCH  55  56
ATOM     56  O   UNL     1      27.176  21.330  22.244  1.00  0.00    -0.388 OA
ATOM     57  H   UNL     1      26.919  21.857  23.068  1.00  0.00     0.211 HD
ENDBRANCH  55  56
BRANCH  55  58
ATOM     58  C   UNL     1      28.165  23.385  21.943  1.00  0.00     0.154 C 
BRANCH  58  59
ATOM     59  N   UNL     1      26.775  23.651  22.046  1.00  0.00    -0.319 N 
ATOM     60  C   UNL     1      26.263  24.708  21.205  1.00  0.00     0.407 C 
ATOM     61  H   UNL     1      26.073  23.189  22.651  1.00  0.00     0.167 HD
ATOM     62  O   UNL     1      27.048  25.328  20.434  1.00  0.00    -0.225 OA
BRANCH  60  63
ATOM     63  O   UNL     1      24.942  25.096  21.193  1.00  0.00    -0.443 OA
BRANCH  63  64
ATOM     64  C   UNL     1      23.829  24.234  21.303  1.00  0.00     0.294 C 
BRANCH  64  65
ATOM     65  C   UNL     1      23.081  24.406  22.581  1.00  0.00     0.120 A 
ATOM     66  C   UNL     1      23.578  24.594  23.850  1.00  0.00     0.138 A 
ATOM     67  N   UNL     1      21.749  24.405  22.685  1.00  0.00    -0.132 NA
ATOM     68  N   UNL     1      22.520  24.704  24.711  1.00  0.00    -0.252 N 
ATOM     69  N   UNL     1      21.451  24.583  23.960  1.00  0.00    -0.067 NA
BRANCH  68  70
ATOM     70  C   UNL     1      22.571  24.882  26.115  1.00  0.00     0.150 C 
BRANCH  70  71
ATOM     71  C   UNL     1      21.976  26.124  26.627  1.00  0.00     0.022 C 
BRANCH  71  72
ATOM     72  C   UNL     1      22.227  27.366  25.856  1.00  0.00     0.128 C 
BRANCH  72  73
ATOM     73  C   UNL     1      21.119  27.885  25.044  1.00  0.00     0.303 C 
ATOM     74  O   UNL     1      20.383  28.792  25.515  1.00  0.00    -0.252 OA
BRANCH  73  75
ATOM     75  O   UNL     1      20.825  27.432  23.765  1.00  0.00    -0.481 OA
ATOM     76  H   UNL     1      21.569  27.225  23.114  1.00  0.00     0.296 HD
ENDBRANCH  73  75
ENDBRANCH  72  73
ENDBRANCH  71  72
BRANCH  71  77
ATOM     77  C   UNL     1      22.103  26.319  28.111  1.00  0.00     0.009 C 
BRANCH  77  78
ATOM     78  C   UNL     1      23.428  26.469  28.710  1.00  0.00    -0.017 C 
ATOM     79  C   UNL     1      23.785  27.756  29.361  1.00  0.00     0.007 C 
ATOM     80  C   UNL     1      23.824  25.344  29.648  1.00  0.00     0.007 C 
ENDBRANCH  77  78
ENDBRANCH  71  77
ENDBRANCH  70  71
ENDBRANCH  68  70
ENDBRANCH  64  65
ENDBRANCH  63  64
ENDBRANCH  60  63
ENDBRANCH  58  59
ENDBRANCH  55  58
ENDBRANCH   1  55
TORSDOF 36
