REMARK VINA RESULT:    -6.046      2.257      7.340
REMARK INTER + INTRA:         -21.478
REMARK INTER:                 -13.862
REMARK INTRA:                  -7.616
REMARK UNBOUND:                -6.597
REMARK SMILES CC(=O)N[C@@H]1[C@@H](O)C[C@](OC[C@H]2O[C@@H](O[C@H]3[C@H](O)[C@@H](O)[C@H](OCCN=[N+]=[N-])O[C@@H]3CO)[C@H](O)[C@@H](O)[C@H]2O)(C(=O)O)O[C@H]1C(O)[C@H](O)CNC(=O)OCc1cn(-c2ccccc2)nn1
REMARK SMILES IDX 9 1 8 2 6 3 5 4 42 5 41 6 10 7 11 8 12 9 14 10 13 11 32 12
REMARK SMILES IDX 34 13 36 14 15 15 16 16 29 17 28 18 21 19 17 20 19 21 30 22
REMARK SMILES IDX 31 23 22 25 23 26 24 27 25 28 26 29 27 30 18 31 20 33 33 35
REMARK SMILES IDX 35 37 37 39 38 41 39 42 40 43 7 45 43 47 44 48 45 50 46 51
REMARK SMILES IDX 47 53 48 54 49 55 50 57 51 58 52 59 53 60 54 61 63 62 55 63
REMARK SMILES IDX 62 64 56 65 57 66 61 67 58 68 60 69 59 70 4 71 2 72 1 74
REMARK SMILES IDX 3 75
REMARK H PARENT 31 24 18 32 20 34 33 36 35 38 37 40 40 44 7 46 44 49 46 52
REMARK H PARENT 48 56 4 73
REMARK Flexibility Score: inf
ROOT
ATOM      1  C   UNL     1      14.536  30.370  21.160  1.00  0.00     0.272 C 
ATOM      2  C   UNL     1      14.227  30.905  22.509  1.00  0.00     0.113 C 
ATOM      3  C   UNL     1      15.250  30.631  23.547  1.00  0.00     0.145 C 
ATOM      4  C   UNL     1      16.646  30.819  22.982  1.00  0.00     0.142 C 
ATOM      5  C   UNL     1      16.752  29.873  21.807  1.00  0.00     0.178 C 
ATOM      6  O   UNL     1      15.928  30.390  20.842  1.00  0.00    -0.332 OA
ENDROOT
BRANCH   1   7
ATOM      7  O   UNL     1      14.002  31.070  20.117  1.00  0.00    -0.338 OA
BRANCH   7   8
ATOM      8  C   UNL     1      14.691  31.848  19.304  1.00  0.00     0.199 C 
BRANCH   8   9
ATOM      9  C   UNL     1      14.797  31.615  17.847  1.00  0.00     0.179 C 
ATOM     10  C   UNL     1      16.449  31.486  16.204  1.00  0.00     0.282 C 
ATOM     11  O   UNL     1      16.168  31.879  17.530  1.00  0.00    -0.341 OA
ATOM     12  C   UNL     1      15.247  31.084  15.415  1.00  0.00     0.202 C 
ATOM     13  C   UNL     1      14.512  29.939  16.078  1.00  0.00     0.179 C 
ATOM     14  C   UNL     1      14.605  30.119  17.565  1.00  0.00     0.177 C 
BRANCH  10  15
ATOM     15  O   UNL     1      17.311  30.452  16.256  1.00  0.00    -0.341 OA
BRANCH  15  16
ATOM     16  C   UNL     1      18.381  30.367  15.444  1.00  0.00     0.184 C 
ATOM     17  C   UNL     1      18.485  29.089  14.645  1.00  0.00     0.178 C 
ATOM     18  O   UNL     1      19.853  28.945  14.338  1.00  0.00    -0.341 OA
ATOM     19  C   UNL     1      20.424  28.353  15.484  1.00  0.00     0.281 C 
ATOM     20  C   UNL     1      19.706  30.579  16.177  1.00  0.00     0.180 C 
ATOM     21  C   UNL     1      20.234  29.254  16.688  1.00  0.00     0.202 C 
BRANCH  17  22
ATOM     22  C   UNL     1      17.748  29.170  13.326  1.00  0.00     0.191 C 
BRANCH  22  23
ATOM     23  O   UNL     1      16.613  28.358  13.405  1.00  0.00    -0.394 OA
ATOM     24  H   UNL     1      16.474  28.014  14.342  1.00  0.00     0.210 HD
ENDBRANCH  22  23
ENDBRANCH  17  22
BRANCH  19  25
ATOM     25  O   UNL     1      21.753  28.103  15.329  1.00  0.00    -0.350 OA
BRANCH  25  26
ATOM     26  C   UNL     1      22.210  26.855  15.652  1.00  0.00     0.169 C 
BRANCH  26  27
ATOM     27  C   UNL     1      22.960  26.763  16.943  1.00  0.00     0.119 C 
BRANCH  27  28
ATOM     28  N   UNL     1      23.487  25.467  17.164  1.00  0.00    -0.092 NA
ATOM     29  N   UNL     1      22.937  24.652  17.928  1.00  0.00     0.001 N 
ATOM     30  N   UNL     1      22.465  24.119  18.945  1.00  0.00    -0.003 NA
ENDBRANCH  27  28
ENDBRANCH  26  27
ENDBRANCH  25  26
ENDBRANCH  19  25
BRANCH  20  31
ATOM     31  O   UNL     1      20.692  31.128  15.369  1.00  0.00    -0.387 OA
ATOM     32  H   UNL     1      20.351  31.899  14.853  1.00  0.00     0.211 HD
ENDBRANCH  20  31
BRANCH  21  33
ATOM     33  O   UNL     1      19.396  28.670  17.615  1.00  0.00    -0.385 OA
ATOM     34  H   UNL     1      18.848  29.317  18.115  1.00  0.00     0.211 HD
ENDBRANCH  21  33
ENDBRANCH  15  16
ENDBRANCH  10  15
BRANCH  12  35
ATOM     35  O   UNL     1      14.420  32.133  15.036  1.00  0.00    -0.385 OA
ATOM     36  H   UNL     1      14.981  32.950  14.991  1.00  0.00     0.211 HD
ENDBRANCH  12  35
BRANCH  13  37
ATOM     37  O   UNL     1      15.136  28.754  15.735  1.00  0.00    -0.387 OA
ATOM     38  H   UNL     1      16.069  28.678  16.055  1.00  0.00     0.211 HD
ENDBRANCH  13  37
BRANCH  14  39
ATOM     39  O   UNL     1      15.761  29.488  18.080  1.00  0.00    -0.387 OA
ATOM     40  H   UNL     1      15.892  28.604  17.680  1.00  0.00     0.211 HD
ENDBRANCH  14  39
ENDBRANCH   8   9
ENDBRANCH   7   8
ENDBRANCH   1   7
BRANCH   1  41
ATOM     41  C   UNL     1      14.234  28.922  21.113  1.00  0.00     0.364 C 
ATOM     42  O   UNL     1      14.825  28.158  20.349  1.00  0.00    -0.246 OA
BRANCH  41  43
ATOM     43  O   UNL     1      13.243  28.378  21.955  1.00  0.00    -0.477 OA
ATOM     44  H   UNL     1      12.845  28.976  22.676  1.00  0.00     0.296 HD
ENDBRANCH  41  43
ENDBRANCH   1  41
BRANCH   3  45
ATOM     45  O   UNL     1      15.030  31.454  24.650  1.00  0.00    -0.391 OA
ATOM     46  H   UNL     1      15.512  32.284  24.489  1.00  0.00     0.211 HD
ENDBRANCH   3  45
BRANCH   5  47
ATOM     47  C   UNL     1      18.161  29.880  21.222  1.00  0.00     0.176 C 
BRANCH  47  48
ATOM     48  O   UNL     1      18.347  28.695  20.564  1.00  0.00    -0.388 OA
ATOM     49  H   UNL     1      19.286  28.464  20.393  1.00  0.00     0.211 HD
ENDBRANCH  47  48
BRANCH  47  50
ATOM     50  C   UNL     1      18.509  31.051  20.402  1.00  0.00     0.165 C 
BRANCH  50  51
ATOM     51  O   UNL     1      18.201  30.696  19.051  1.00  0.00    -0.388 OA
ATOM     52  H   UNL     1      18.668  31.341  18.490  1.00  0.00     0.211 HD
ENDBRANCH  50  51
BRANCH  50  53
ATOM     53  C   UNL     1      20.027  31.295  20.362  1.00  0.00     0.154 C 
BRANCH  53  54
ATOM     54  N   UNL     1      20.767  30.065  20.228  1.00  0.00    -0.319 N 
ATOM     55  C   UNL     1      21.762  29.676  21.190  1.00  0.00     0.407 C 
ATOM     56  H   UNL     1      20.627  29.397  19.442  1.00  0.00     0.167 HD
ATOM     57  O   UNL     1      22.006  30.393  22.187  1.00  0.00    -0.225 OA
BRANCH  55  58
ATOM     58  O   UNL     1      22.471  28.498  21.042  1.00  0.00    -0.443 OA
BRANCH  58  59
ATOM     59  C   UNL     1      21.850  27.317  20.549  1.00  0.00     0.294 C 
BRANCH  59  60
ATOM     60  C   UNL     1      21.549  26.489  21.755  1.00  0.00     0.121 A 
ATOM     61  C   UNL     1      22.064  26.762  23.015  1.00  0.00     0.144 A 
ATOM     62  N   UNL     1      20.793  25.399  21.904  1.00  0.00    -0.131 NA
ATOM     63  N   UNL     1      21.606  25.830  23.891  1.00  0.00    -0.220 N 
ATOM     64  N   UNL     1      20.843  25.025  23.186  1.00  0.00    -0.062 NA
BRANCH  63  65
ATOM     65  C   UNL     1      21.899  25.749  25.276  1.00  0.00     0.066 A 
ATOM     66  C   UNL     1      21.594  26.771  26.144  1.00  0.00     0.028 A 
ATOM     67  C   UNL     1      22.499  24.619  25.787  1.00  0.00     0.028 A 
ATOM     68  C   UNL     1      21.870  26.696  27.493  1.00  0.00     0.002 A 
ATOM     69  C   UNL     1      22.775  24.547  27.144  1.00  0.00     0.002 A 
ATOM     70  C   UNL     1      22.479  25.559  28.025  1.00  0.00     0.000 A 
ENDBRANCH  63  65
ENDBRANCH  59  60
ENDBRANCH  58  59
ENDBRANCH  55  58
ENDBRANCH  53  54
ENDBRANCH  50  53
ENDBRANCH  47  50
ENDBRANCH   5  47
BRANCH   4  71
ATOM     71  N   UNL     1      17.647  30.701  23.982  1.00  0.00    -0.348 N 
ATOM     72  C   UNL     1      18.554  31.774  24.183  1.00  0.00     0.217 C 
ATOM     73  H   UNL     1      17.735  29.863  24.586  1.00  0.00     0.163 HD
ATOM     74  C   UNL     1      19.617  31.677  25.229  1.00  0.00     0.114 C 
ATOM     75  O   UNL     1      18.506  32.842  23.500  1.00  0.00    -0.275 OA
ENDBRANCH   4  71
TORSDOF 30
