REMARK VINA RESULT:    -6.054     13.608     19.051
REMARK INTER + INTRA:         -21.129
REMARK INTER:                 -13.857
REMARK INTRA:                  -7.272
REMARK UNBOUND:                -5.342
REMARK SMILES CC(=O)N[C@@H]1[C@@H](O)C[C@](OC[C@H]2O[C@@H](O[C@H]3[C@H](O)[C@@H](O)[C@H](OCCN=[N+]=[N-])O[C@@H]3CO)[C@H](O)[C@@H](O)[C@H]2O)(C(=O)O)O[C@H]1C(O)[C@H](O)CNC(=O)OCc1cn(CCC(=O)O)nn1
REMARK SMILES IDX 43 1 42 2 9 3 8 4 41 5 6 6 5 7 10 8 11 9 12 10 14 11 13 12
REMARK SMILES IDX 32 13 34 14 36 15 15 16 16 17 29 18 28 19 21 20 17 21 19 22
REMARK SMILES IDX 30 23 31 24 22 26 23 27 24 28 25 29 26 30 27 31 18 32 20 34
REMARK SMILES IDX 33 36 35 38 37 40 38 42 39 43 40 44 7 46 4 48 2 49 1 51 3 52
REMARK SMILES IDX 44 53 45 55 46 56 47 58 48 59 49 60 50 62 51 63 52 64 53 65
REMARK SMILES IDX 54 66 62 67 55 68 61 69 56 70 57 71 58 72 59 73 60 74
REMARK H PARENT 31 25 18 33 20 35 33 37 35 39 37 41 40 45 7 47 4 50 44 54
REMARK H PARENT 46 57 48 61 60 75
REMARK Flexibility Score: inf
ROOT
ATOM      1  C   UNL     1      14.163  28.800  21.644  1.00  0.00     0.176 C 
ENDROOT
BRANCH   1   2
ATOM      2  C   UNL     1      14.999  29.810  22.394  1.00  0.00     0.178 C 
ATOM      3  C   UNL     1      17.228  30.302  22.936  1.00  0.00     0.272 C 
ATOM      4  C   UNL     1      16.448  31.511  23.420  1.00  0.00     0.113 C 
ATOM      5  O   UNL     1      16.191  29.299  22.836  1.00  0.00    -0.332 OA
ATOM      6  C   UNL     1      15.337  31.099  24.407  1.00  0.00     0.145 C 
ATOM      7  C   UNL     1      14.275  30.333  23.628  1.00  0.00     0.142 C 
BRANCH   3   8
ATOM      8  O   UNL     1      18.124  29.910  23.860  1.00  0.00    -0.338 OA
BRANCH   8   9
ATOM      9  C   UNL     1      19.191  30.523  24.293  1.00  0.00     0.199 C 
BRANCH   9  10
ATOM     10  C   UNL     1      20.543  29.970  24.432  1.00  0.00     0.179 C 
ATOM     11  C   UNL     1      21.956  28.163  24.555  1.00  0.00     0.282 C 
ATOM     12  O   UNL     1      20.667  28.613  24.559  1.00  0.00    -0.341 OA
ATOM     13  C   UNL     1      23.022  29.217  24.451  1.00  0.00     0.202 C 
ATOM     14  C   UNL     1      22.714  30.231  23.365  1.00  0.00     0.179 C 
ATOM     15  C   UNL     1      21.235  30.265  23.051  1.00  0.00     0.177 C 
BRANCH  11  16
ATOM     16  O   UNL     1      22.220  27.235  23.549  1.00  0.00    -0.341 OA
BRANCH  16  17
ATOM     17  C   UNL     1      21.957  25.920  23.924  1.00  0.00     0.184 C 
ATOM     18  C   UNL     1      23.251  25.225  24.169  1.00  0.00     0.178 C 
ATOM     19  O   UNL     1      23.530  24.201  23.247  1.00  0.00    -0.341 OA
ATOM     20  C   UNL     1      23.386  24.808  21.983  1.00  0.00     0.281 C 
ATOM     21  C   UNL     1      21.116  25.305  22.845  1.00  0.00     0.180 C 
ATOM     22  C   UNL     1      21.904  24.780  21.686  1.00  0.00     0.202 C 
BRANCH  18  23
ATOM     23  C   UNL     1      23.302  24.623  25.564  1.00  0.00     0.191 C 
BRANCH  23  24
ATOM     24  O   UNL     1      22.875  25.554  26.508  1.00  0.00    -0.394 OA
ATOM     25  H   UNL     1      22.673  26.398  26.041  1.00  0.00     0.210 HD
ENDBRANCH  23  24
ENDBRANCH  18  23
BRANCH  20  26
ATOM     26  O   UNL     1      24.125  24.165  21.018  1.00  0.00    -0.350 OA
BRANCH  26  27
ATOM     27  C   UNL     1      25.324  24.846  20.828  1.00  0.00     0.169 C 
BRANCH  27  28
ATOM     28  C   UNL     1      25.263  25.609  19.511  1.00  0.00     0.119 C 
BRANCH  28  29
ATOM     29  N   UNL     1      24.707  24.695  18.535  1.00  0.00    -0.092 NA
ATOM     30  N   UNL     1      23.582  24.921  18.094  1.00  0.00     0.001 N 
ATOM     31  N   UNL     1      22.527  24.962  17.425  1.00  0.00    -0.003 NA
ENDBRANCH  28  29
ENDBRANCH  27  28
ENDBRANCH  26  27
ENDBRANCH  20  26
BRANCH  21  32
ATOM     32  O   UNL     1      20.413  24.249  23.417  1.00  0.00    -0.387 OA
ATOM     33  H   UNL     1      20.029  24.556  24.261  1.00  0.00     0.211 HD
ENDBRANCH  21  32
BRANCH  22  34
ATOM     34  O   UNL     1      21.612  25.489  20.519  1.00  0.00    -0.385 OA
ATOM     35  H   UNL     1      20.725  25.935  20.601  1.00  0.00     0.211 HD
ENDBRANCH  22  34
ENDBRANCH  16  17
ENDBRANCH  11  16
BRANCH  13  36
ATOM     36  O   UNL     1      23.310  29.837  25.676  1.00  0.00    -0.385 OA
ATOM     37  H   UNL     1      24.228  30.152  25.675  1.00  0.00     0.211 HD
ENDBRANCH  13  36
BRANCH  14  38
ATOM     38  O   UNL     1      23.498  30.005  22.256  1.00  0.00    -0.387 OA
ATOM     39  H   UNL     1      23.083  30.370  21.449  1.00  0.00     0.211 HD
ENDBRANCH  14  38
BRANCH  15  40
ATOM     40  O   UNL     1      20.844  29.241  22.222  1.00  0.00    -0.387 OA
ATOM     41  H   UNL     1      19.895  29.256  21.959  1.00  0.00     0.211 HD
ENDBRANCH  15  40
ENDBRANCH   9  10
ENDBRANCH   8   9
ENDBRANCH   3   8
BRANCH   3  42
ATOM     42  C   UNL     1      17.771  30.444  21.583  1.00  0.00     0.364 C 
ATOM     43  O   UNL     1      17.823  31.575  21.040  1.00  0.00    -0.246 OA
BRANCH  42  44
ATOM     44  O   UNL     1      18.232  29.362  20.878  1.00  0.00    -0.477 OA
ATOM     45  H   UNL     1      18.141  28.404  21.149  1.00  0.00     0.296 HD
ENDBRANCH  42  44
ENDBRANCH   3  42
BRANCH   6  46
ATOM     46  O   UNL     1      15.908  30.243  25.323  1.00  0.00    -0.391 OA
ATOM     47  H   UNL     1      15.839  29.312  24.959  1.00  0.00     0.211 HD
ENDBRANCH   6  46
BRANCH   7  48
ATOM     48  N   UNL     1      13.180  31.184  23.296  1.00  0.00    -0.348 N 
ATOM     49  C   UNL     1      11.900  30.927  23.854  1.00  0.00     0.217 C 
ATOM     50  H   UNL     1      13.272  31.998  22.651  1.00  0.00     0.163 HD
ATOM     51  C   UNL     1      10.708  31.758  23.560  1.00  0.00     0.114 C 
ATOM     52  O   UNL     1      11.721  29.954  24.644  1.00  0.00    -0.275 OA
ENDBRANCH   7  48
ENDBRANCH   1   2
BRANCH   1  53
ATOM     53  O   UNL     1      12.825  29.177  21.756  1.00  0.00    -0.388 OA
ATOM     54  H   UNL     1      12.402  29.265  20.878  1.00  0.00     0.211 HD
ENDBRANCH   1  53
BRANCH   1  55
ATOM     55  C   UNL     1      14.501  28.664  20.193  1.00  0.00     0.165 C 
BRANCH  55  56
ATOM     56  O   UNL     1      15.727  28.000  20.080  1.00  0.00    -0.388 OA
ATOM     57  H   UNL     1      16.309  28.517  19.474  1.00  0.00     0.211 HD
ENDBRANCH  55  56
BRANCH  55  58
ATOM     58  C   UNL     1      14.706  30.084  19.654  1.00  0.00     0.154 C 
BRANCH  58  59
ATOM     59  N   UNL     1      15.783  30.120  18.704  1.00  0.00    -0.319 N 
ATOM     60  C   UNL     1      15.619  30.045  17.294  1.00  0.00     0.407 C 
ATOM     61  H   UNL     1      16.791  30.213  19.036  1.00  0.00     0.167 HD
ATOM     62  O   UNL     1      14.448  29.939  16.849  1.00  0.00    -0.225 OA
BRANCH  60  63
ATOM     63  O   UNL     1      16.689  30.084  16.418  1.00  0.00    -0.443 OA
BRANCH  63  64
ATOM     64  C   UNL     1      17.338  28.886  16.073  1.00  0.00     0.294 C 
BRANCH  64  65
ATOM     65  C   UNL     1      18.424  28.583  17.024  1.00  0.00     0.120 A 
ATOM     66  C   UNL     1      19.764  28.807  16.739  1.00  0.00     0.138 A 
ATOM     67  N   UNL     1      18.335  28.078  18.279  1.00  0.00    -0.132 NA
ATOM     68  N   UNL     1      20.442  28.426  17.849  1.00  0.00    -0.252 N 
ATOM     69  N   UNL     1      19.564  27.997  18.744  1.00  0.00    -0.067 NA
BRANCH  68  70
ATOM     70  C   UNL     1      21.876  28.481  18.037  1.00  0.00     0.158 C 
BRANCH  70  71
ATOM     71  C   UNL     1      22.505  29.729  17.462  1.00  0.00     0.146 C 
BRANCH  71  72
ATOM     72  C   UNL     1      22.346  30.815  18.438  1.00  0.00     0.305 C 
ATOM     73  O   UNL     1      22.296  32.000  18.044  1.00  0.00    -0.252 OA
BRANCH  72  74
ATOM     74  O   UNL     1      22.250  30.565  19.807  1.00  0.00    -0.481 OA
ATOM     75  H   UNL     1      22.318  29.637  20.211  1.00  0.00     0.296 HD
ENDBRANCH  72  74
ENDBRANCH  71  72
ENDBRANCH  70  71
ENDBRANCH  68  70
ENDBRANCH  64  65
ENDBRANCH  63  64
ENDBRANCH  60  63
ENDBRANCH  58  59
ENDBRANCH  55  58
ENDBRANCH   1  55
TORSDOF 33
