REMARK VINA RESULT:    -5.963      2.524      3.244
REMARK INTER + INTRA:         -20.110
REMARK INTER:                 -14.170
REMARK INTRA:                  -5.940
REMARK UNBOUND:                -4.909
REMARK SMILES CC(=O)N[C@@H]1[C@@H](O)C[C@](OC[C@H]2O[C@@H](O[C@H]3[C@H](O)[C@@H](O)[C@H](OCCN=[N+]=[N-])O[C@@H]3CO)[C@H](O)[C@@H](O)[C@H]2O)(C(=O)O)O[C@H]1C(O)[C@H](O)CNC(=O)OCc1cn(CCO)nn1
REMARK SMILES IDX 9 1 8 2 6 3 5 4 42 5 41 6 10 7 11 8 12 9 14 10 13 11 32 12
REMARK SMILES IDX 34 13 36 14 15 15 16 16 29 17 28 18 21 19 17 20 19 21 30 22
REMARK SMILES IDX 31 23 22 25 23 26 24 27 25 28 26 29 27 30 18 31 20 33 33 35
REMARK SMILES IDX 35 37 37 39 38 41 39 42 40 43 7 45 43 47 44 48 45 50 46 51
REMARK SMILES IDX 47 53 48 54 49 55 50 57 51 58 52 59 53 60 54 61 60 62 55 63
REMARK SMILES IDX 59 64 56 65 57 66 58 67 4 69 2 70 1 72 3 73
REMARK H PARENT 31 24 18 32 20 34 33 36 35 38 37 40 40 44 7 46 44 49 46 52
REMARK H PARENT 48 56 58 68 4 71
REMARK Flexibility Score: inf
ROOT
ATOM      1  C   UNL     1       2.827  21.604  30.982  1.00  0.00     0.272 C 
ATOM      2  C   UNL     1       1.829  21.209  32.021  1.00  0.00     0.113 C 
ATOM      3  C   UNL     1       2.521  20.952  33.331  1.00  0.00     0.145 C 
ATOM      4  C   UNL     1       3.281  22.237  33.662  1.00  0.00     0.142 C 
ATOM      5  C   UNL     1       4.359  22.371  32.593  1.00  0.00     0.178 C 
ATOM      6  O   UNL     1       3.618  22.625  31.415  1.00  0.00    -0.332 OA
ENDROOT
BRANCH   1   7
ATOM      7  O   UNL     1       2.184  22.034  29.798  1.00  0.00    -0.338 OA
BRANCH   7   8
ATOM      8  C   UNL     1       1.270  23.023  29.949  1.00  0.00     0.199 C 
BRANCH   8   9
ATOM      9  C   UNL     1       1.416  24.086  28.848  1.00  0.00     0.179 C 
ATOM     10  C   UNL     1       2.972  25.440  27.785  1.00  0.00     0.282 C 
ATOM     11  O   UNL     1       2.695  24.600  28.863  1.00  0.00    -0.341 OA
ATOM     12  C   UNL     1       2.896  24.718  26.465  1.00  0.00     0.202 C 
ATOM     13  C   UNL     1       2.075  23.455  26.511  1.00  0.00     0.179 C 
ATOM     14  C   UNL     1       0.963  23.609  27.511  1.00  0.00     0.177 C 
BRANCH  10  15
ATOM     15  O   UNL     1       4.221  25.895  27.969  1.00  0.00    -0.341 OA
BRANCH  15  16
ATOM     16  C   UNL     1       4.599  27.106  27.529  1.00  0.00     0.184 C 
ATOM     17  C   UNL     1       5.662  27.285  26.540  1.00  0.00     0.178 C 
ATOM     18  O   UNL     1       6.384  28.436  26.801  1.00  0.00    -0.341 OA
ATOM     19  C   UNL     1       5.701  29.548  27.176  1.00  0.00     0.281 C 
ATOM     20  C   UNL     1       5.051  27.866  28.803  1.00  0.00     0.180 C 
ATOM     21  C   UNL     1       4.874  29.328  28.452  1.00  0.00     0.202 C 
BRANCH  17  22
ATOM     22  C   UNL     1       5.151  27.386  25.106  1.00  0.00     0.191 C 
BRANCH  22  23
ATOM     23  O   UNL     1       6.123  27.897  24.244  1.00  0.00    -0.394 OA
ATOM     24  H   UNL     1       6.973  27.465  24.452  1.00  0.00     0.210 HD
ENDBRANCH  22  23
ENDBRANCH  17  22
BRANCH  19  25
ATOM     25  O   UNL     1       4.975  30.188  26.212  1.00  0.00    -0.350 OA
BRANCH  25  26
ATOM     26  C   UNL     1       5.387  31.433  25.844  1.00  0.00     0.169 C 
BRANCH  26  27
ATOM     27  C   UNL     1       4.395  32.474  26.238  1.00  0.00     0.119 C 
BRANCH  27  28
ATOM     28  N   UNL     1       4.631  32.858  27.640  1.00  0.00    -0.092 NA
ATOM     29  N   UNL     1       3.625  32.803  28.371  1.00  0.00     0.001 N 
ATOM     30  N   UNL     1       2.924  32.276  29.253  1.00  0.00    -0.003 NA
ENDBRANCH  27  28
ENDBRANCH  26  27
ENDBRANCH  25  26
ENDBRANCH  19  25
BRANCH  20  31
ATOM     31  O   UNL     1       4.319  27.475  29.893  1.00  0.00    -0.387 OA
ATOM     32  H   UNL     1       3.829  26.628  29.743  1.00  0.00     0.211 HD
ENDBRANCH  20  31
BRANCH  21  33
ATOM     33  O   UNL     1       5.250  30.137  29.491  1.00  0.00    -0.385 OA
ATOM     34  H   UNL     1       4.657  30.055  30.278  1.00  0.00     0.211 HD
ENDBRANCH  21  33
ENDBRANCH  15  16
ENDBRANCH  10  15
BRANCH  12  35
ATOM     35  O   UNL     1       2.239  25.563  25.556  1.00  0.00    -0.385 OA
ATOM     36  H   UNL     1       1.643  26.207  25.987  1.00  0.00     0.211 HD
ENDBRANCH  12  35
BRANCH  13  37
ATOM     37  O   UNL     1       2.894  22.383  26.755  1.00  0.00    -0.387 OA
ATOM     38  H   UNL     1       2.662  21.591  26.176  1.00  0.00     0.211 HD
ENDBRANCH  13  37
BRANCH  14  39
ATOM     39  O   UNL     1       0.393  22.329  27.692  1.00  0.00    -0.387 OA
ATOM     40  H   UNL     1       0.916  21.800  28.344  1.00  0.00     0.211 HD
ENDBRANCH  14  39
ENDBRANCH   8   9
ENDBRANCH   7   8
ENDBRANCH   1   7
BRANCH   1  41
ATOM     41  C   UNL     1       3.580  20.401  30.564  1.00  0.00     0.364 C 
ATOM     42  O   UNL     1       3.078  19.262  30.541  1.00  0.00    -0.246 OA
BRANCH  41  43
ATOM     43  O   UNL     1       4.904  20.497  30.173  1.00  0.00    -0.477 OA
ATOM     44  H   UNL     1       5.498  21.311  30.406  1.00  0.00     0.296 HD
ENDBRANCH  41  43
ENDBRANCH   1  41
BRANCH   3  45
ATOM     45  O   UNL     1       1.575  20.781  34.367  1.00  0.00    -0.391 OA
ATOM     46  H   UNL     1       1.763  21.445  35.084  1.00  0.00     0.211 HD
ENDBRANCH   3  45
BRANCH   5  47
ATOM     47  C   UNL     1       5.124  23.633  32.831  1.00  0.00     0.176 C 
BRANCH  47  48
ATOM     48  O   UNL     1       6.446  23.528  32.397  1.00  0.00    -0.388 OA
ATOM     49  H   UNL     1       6.516  23.047  31.529  1.00  0.00     0.211 HD
ENDBRANCH  47  48
BRANCH  47  50
ATOM     50  C   UNL     1       4.538  24.917  32.389  1.00  0.00     0.165 C 
BRANCH  50  51
ATOM     51  O   UNL     1       5.387  25.267  31.251  1.00  0.00    -0.388 OA
ATOM     52  H   UNL     1       6.327  25.153  31.525  1.00  0.00     0.211 HD
ENDBRANCH  50  51
BRANCH  50  53
ATOM     53  C   UNL     1       4.814  26.085  33.319  1.00  0.00     0.154 C 
BRANCH  53  54
ATOM     54  N   UNL     1       6.194  26.247  33.649  1.00  0.00    -0.319 N 
ATOM     55  C   UNL     1       6.652  27.421  34.301  1.00  0.00     0.407 C 
ATOM     56  H   UNL     1       6.914  25.508  33.410  1.00  0.00     0.167 HD
ATOM     57  O   UNL     1       5.766  28.305  34.556  1.00  0.00    -0.225 OA
BRANCH  55  58
ATOM     58  O   UNL     1       7.941  27.686  34.677  1.00  0.00    -0.443 OA
BRANCH  58  59
ATOM     59  C   UNL     1       9.004  27.230  33.862  1.00  0.00     0.294 C 
BRANCH  59  60
ATOM     60  C   UNL     1       9.526  25.926  34.278  1.00  0.00     0.120 A 
ATOM     61  C   UNL     1      10.562  25.725  35.156  1.00  0.00     0.138 A 
ATOM     62  N   UNL     1       9.125  24.699  33.909  1.00  0.00    -0.132 NA
ATOM     63  N   UNL     1      10.769  24.402  35.302  1.00  0.00    -0.250 N 
ATOM     64  N   UNL     1       9.888  23.796  34.539  1.00  0.00    -0.067 NA
BRANCH  63  65
ATOM     65  C   UNL     1      11.791  23.786  36.160  1.00  0.00     0.174 C 
BRANCH  65  66
ATOM     66  C   UNL     1      11.103  22.823  37.096  1.00  0.00     0.179 C 
BRANCH  66  67
ATOM     67  O   UNL     1      11.089  21.566  36.469  1.00  0.00    -0.394 OA
ATOM     68  H   UNL     1      11.101  20.821  37.094  1.00  0.00     0.210 HD
ENDBRANCH  66  67
ENDBRANCH  65  66
ENDBRANCH  63  65
ENDBRANCH  59  60
ENDBRANCH  58  59
ENDBRANCH  55  58
ENDBRANCH  53  54
ENDBRANCH  50  53
ENDBRANCH  47  50
ENDBRANCH   5  47
BRANCH   4  69
ATOM     69  N   UNL     1       3.705  22.311  35.004  1.00  0.00    -0.348 N 
ATOM     70  C   UNL     1       3.400  23.357  35.907  1.00  0.00     0.217 C 
ATOM     71  H   UNL     1       4.285  21.531  35.405  1.00  0.00     0.163 HD
ATOM     72  C   UNL     1       3.917  23.305  37.289  1.00  0.00     0.114 C 
ATOM     73  O   UNL     1       2.704  24.321  35.554  1.00  0.00    -0.275 OA
ENDBRANCH   4  69
TORSDOF 32
