REMARK VINA RESULT:    -5.792      3.997      9.835
REMARK INTER + INTRA:         -21.798
REMARK INTER:                 -15.908
REMARK INTRA:                  -5.890
REMARK UNBOUND:                -7.203
REMARK SMILES CC(=O)N[C@@H]1[C@@H](O)C[C@](OC[C@H]2O[C@@H](O[C@H]3[C@H](O)[C@@H](O)[C@H](OCCN=[N+]=[N-])O[C@@H]3CO)[C@H](O)[C@@H](O)[C@H]2O)(C(=O)O)O[C@H]1C(O)[C@H](O)CNC(=O)OCc1cn(CC2=CC[C@H]3C[C@@H]2C3(C)C)nn1
REMARK SMILES IDX 9 1 8 2 6 3 5 4 42 5 41 6 10 7 11 8 12 9 14 10 13 11 32 12
REMARK SMILES IDX 34 13 36 14 15 15 16 16 29 17 28 18 21 19 17 20 19 21 30 22
REMARK SMILES IDX 31 23 22 25 23 26 24 27 25 28 26 29 27 30 18 31 20 33 33 35
REMARK SMILES IDX 35 37 37 39 38 41 39 42 40 43 7 45 43 47 44 48 45 50 46 51
REMARK SMILES IDX 47 53 48 54 49 55 50 57 51 58 52 59 53 60 54 61 67 62 55 63
REMARK SMILES IDX 66 64 56 65 57 66 58 67 62 68 59 69 61 70 63 71 60 72 64 73
REMARK SMILES IDX 65 74 4 75 2 76 1 78 3 79
REMARK H PARENT 31 24 18 32 20 34 33 36 35 38 37 40 40 44 7 46 44 49 46 52
REMARK H PARENT 48 56 4 77
REMARK Flexibility Score: inf
ROOT
ATOM      1  C   UNL     1      20.373  28.669  21.147  1.00  0.00     0.272 C 
ATOM      2  C   UNL     1      21.485  29.013  20.211  1.00  0.00     0.113 C 
ATOM      3  C   UNL     1      21.576  27.964  19.089  1.00  0.00     0.145 C 
ATOM      4  C   UNL     1      21.895  26.625  19.649  1.00  0.00     0.142 C 
ATOM      5  C   UNL     1      21.653  26.703  21.143  1.00  0.00     0.178 C 
ATOM      6  O   UNL     1      20.465  27.266  21.440  1.00  0.00    -0.332 OA
ENDROOT
BRANCH   1   7
ATOM      7  O   UNL     1      19.136  28.826  20.701  1.00  0.00    -0.338 OA
BRANCH   7   8
ATOM      8  C   UNL     1      18.332  29.853  20.799  1.00  0.00     0.199 C 
BRANCH   8   9
ATOM      9  C   UNL     1      16.931  29.922  20.357  1.00  0.00     0.179 C 
ATOM     10  C   UNL     1      15.720  29.783  18.392  1.00  0.00     0.282 C 
ATOM     11  O   UNL     1      16.916  29.442  19.011  1.00  0.00    -0.341 OA
ATOM     12  C   UNL     1      14.512  29.620  19.200  1.00  0.00     0.202 C 
ATOM     13  C   UNL     1      14.633  29.256  20.627  1.00  0.00     0.179 C 
ATOM     14  C   UNL     1      16.032  28.867  21.032  1.00  0.00     0.177 C 
BRANCH  10  15
ATOM     15  O   UNL     1      15.658  28.934  17.270  1.00  0.00    -0.341 OA
BRANCH  15  16
ATOM     16  C   UNL     1      15.951  29.592  16.088  1.00  0.00     0.184 C 
ATOM     17  C   UNL     1      14.867  29.348  15.078  1.00  0.00     0.178 C 
ATOM     18  O   UNL     1      15.228  29.650  13.776  1.00  0.00    -0.341 OA
ATOM     19  C   UNL     1      16.405  30.319  13.611  1.00  0.00     0.281 C 
ATOM     20  C   UNL     1      17.221  28.944  15.528  1.00  0.00     0.180 C 
ATOM     21  C   UNL     1      17.589  29.632  14.248  1.00  0.00     0.202 C 
BRANCH  17  22
ATOM     22  C   UNL     1      13.660  30.211  15.465  1.00  0.00     0.191 C 
BRANCH  22  23
ATOM     23  O   UNL     1      12.861  29.465  16.320  1.00  0.00    -0.394 OA
ATOM     24  H   UNL     1      11.910  29.549  16.004  1.00  0.00     0.210 HD
ENDBRANCH  22  23
ENDBRANCH  17  22
BRANCH  19  25
ATOM     25  O   UNL     1      16.334  31.632  14.096  1.00  0.00    -0.350 OA
BRANCH  25  26
ATOM     26  C   UNL     1      17.554  32.298  13.972  1.00  0.00     0.169 C 
BRANCH  26  27
ATOM     27  C   UNL     1      17.483  33.036  12.633  1.00  0.00     0.119 C 
BRANCH  27  28
ATOM     28  N   UNL     1      18.707  32.809  11.895  1.00  0.00    -0.092 NA
ATOM     29  N   UNL     1      19.022  31.710  11.477  1.00  0.00     0.001 N 
ATOM     30  N   UNL     1      19.370  30.558  11.192  1.00  0.00    -0.003 NA
ENDBRANCH  27  28
ENDBRANCH  26  27
ENDBRANCH  25  26
ENDBRANCH  19  25
BRANCH  20  31
ATOM     31  O   UNL     1      18.280  29.114  16.438  1.00  0.00    -0.387 OA
ATOM     32  H   UNL     1      19.111  28.742  16.070  1.00  0.00     0.211 HD
ENDBRANCH  20  31
BRANCH  21  33
ATOM     33  O   UNL     1      18.203  28.775  13.336  1.00  0.00    -0.385 OA
ATOM     34  H   UNL     1      17.486  28.255  12.872  1.00  0.00     0.211 HD
ENDBRANCH  21  33
ENDBRANCH  15  16
ENDBRANCH  10  15
BRANCH  12  35
ATOM     35  O   UNL     1      13.791  30.842  19.132  1.00  0.00    -0.385 OA
ATOM     36  H   UNL     1      13.256  30.898  18.300  1.00  0.00     0.211 HD
ENDBRANCH  12  35
BRANCH  13  37
ATOM     37  O   UNL     1      13.683  28.305  21.012  1.00  0.00    -0.387 OA
ATOM     38  H   UNL     1      12.931  28.749  21.491  1.00  0.00     0.211 HD
ENDBRANCH  13  37
BRANCH  14  39
ATOM     39  O   UNL     1      16.320  27.631  20.417  1.00  0.00    -0.387 OA
ATOM     40  H   UNL     1      16.251  26.899  21.079  1.00  0.00     0.211 HD
ENDBRANCH  14  39
ENDBRANCH   8   9
ENDBRANCH   7   8
ENDBRANCH   1   7
BRANCH   1  41
ATOM     41  C   UNL     1      20.632  29.254  22.488  1.00  0.00     0.364 C 
ATOM     42  O   UNL     1      21.505  30.182  22.622  1.00  0.00    -0.246 OA
BRANCH  41  43
ATOM     43  O   UNL     1      19.995  28.861  23.617  1.00  0.00    -0.477 OA
ATOM     44  H   UNL     1      19.011  28.909  23.824  1.00  0.00     0.296 HD
ENDBRANCH  41  43
ENDBRANCH   1  41
BRANCH   3  45
ATOM     45  O   UNL     1      20.267  27.899  18.590  1.00  0.00    -0.391 OA
ATOM     46  H   UNL     1      20.255  28.362  17.716  1.00  0.00     0.211 HD
ENDBRANCH   3  45
BRANCH   5  47
ATOM     47  C   UNL     1      21.669  25.302  21.759  1.00  0.00     0.176 C 
BRANCH  47  48
ATOM     48  O   UNL     1      20.466  25.022  22.353  1.00  0.00    -0.388 OA
ATOM     49  H   UNL     1      19.840  24.480  21.796  1.00  0.00     0.211 HD
ENDBRANCH  47  48
BRANCH  47  50
ATOM     50  C   UNL     1      22.803  25.163  22.731  1.00  0.00     0.165 C 
BRANCH  50  51
ATOM     51  O   UNL     1      23.661  24.173  22.171  1.00  0.00    -0.388 OA
ATOM     52  H   UNL     1      23.535  23.389  22.793  1.00  0.00     0.211 HD
ENDBRANCH  50  51
BRANCH  50  53
ATOM     53  C   UNL     1      22.353  24.613  24.047  1.00  0.00     0.154 C 
BRANCH  53  54
ATOM     54  N   UNL     1      22.518  25.493  25.159  1.00  0.00    -0.319 N 
ATOM     55  C   UNL     1      21.489  26.396  25.514  1.00  0.00     0.407 C 
ATOM     56  H   UNL     1      23.408  25.454  25.714  1.00  0.00     0.167 HD
ATOM     57  O   UNL     1      20.437  26.432  24.862  1.00  0.00    -0.225 OA
BRANCH  55  58
ATOM     58  O   UNL     1      21.636  27.250  26.590  1.00  0.00    -0.443 OA
BRANCH  58  59
ATOM     59  C   UNL     1      21.978  26.901  27.890  1.00  0.00     0.294 C 
BRANCH  59  60
ATOM     60  C   UNL     1      23.438  26.692  28.112  1.00  0.00     0.120 A 
ATOM     61  C   UNL     1      24.346  27.567  28.659  1.00  0.00     0.138 A 
ATOM     62  N   UNL     1      24.145  25.567  27.814  1.00  0.00    -0.132 NA
ATOM     63  N   UNL     1      25.545  26.981  28.683  1.00  0.00    -0.248 N 
ATOM     64  N   UNL     1      25.396  25.776  28.168  1.00  0.00    -0.067 NA
BRANCH  63  65
ATOM     65  C   UNL     1      26.806  27.555  29.190  1.00  0.00     0.177 C 
BRANCH  65  66
ATOM     66  C   UNL     1      26.913  27.072  30.607  1.00  0.00    -0.049 C 
ATOM     67  C   UNL     1      27.582  25.939  30.899  1.00  0.00    -0.025 C 
ATOM     68  C   UNL     1      26.310  27.797  31.736  1.00  0.00     0.023 C 
ATOM     69  C   UNL     1      27.533  25.413  32.281  1.00  0.00     0.031 C 
ATOM     70  C   UNL     1      27.349  27.789  32.865  1.00  0.00     0.013 C 
ATOM     71  C   UNL     1      25.500  26.848  32.566  1.00  0.00    -0.026 C 
ATOM     72  C   UNL     1      26.826  26.383  33.184  1.00  0.00    -0.000 C 
ATOM     73  C   UNL     1      24.659  27.505  33.634  1.00  0.00     0.012 C 
ATOM     74  C   UNL     1      24.729  25.792  31.850  1.00  0.00     0.012 C 
ENDBRANCH  65  66
ENDBRANCH  63  65
ENDBRANCH  59  60
ENDBRANCH  58  59
ENDBRANCH  55  58
ENDBRANCH  53  54
ENDBRANCH  50  53
ENDBRANCH  47  50
ENDBRANCH   5  47
BRANCH   4  75
ATOM     75  N   UNL     1      23.214  26.136  19.446  1.00  0.00    -0.348 N 
ATOM     76  C   UNL     1      23.585  24.996  18.719  1.00  0.00     0.217 C 
ATOM     77  H   UNL     1      23.988  26.704  19.898  1.00  0.00     0.163 HD
ATOM     78  C   UNL     1      25.010  24.597  18.585  1.00  0.00     0.114 C 
ATOM     79  O   UNL     1      22.668  24.339  18.194  1.00  0.00    -0.275 OA
ENDBRANCH   4  75
TORSDOF 31
