REMARK VINA RESULT:    -5.636     25.264     29.088
REMARK INTER + INTRA:         -21.525
REMARK INTER:                 -15.588
REMARK INTRA:                  -5.937
REMARK UNBOUND:                -7.652
REMARK SMILES CC(=O)N[C@@H]1[C@@H](O)C[C@](OC[C@H]2O[C@@H](O[C@H]3[C@H](O)[C@@H](O)[C@H](OCCN=[N+]=[N-])O[C@@H]3CO)[C@H](O)[C@@H](O)[C@H]2O)(C(=O)O)O[C@H]1C(O)[C@H](O)CNC(=O)OCc1cn(-c2ccc(Br)cc2)nn1
REMARK SMILES IDX 9 1 8 2 6 3 5 4 42 5 41 6 10 7 11 8 12 9 14 10 13 11 32 12
REMARK SMILES IDX 34 13 36 14 15 15 16 16 29 17 28 18 21 19 17 20 19 21 30 22
REMARK SMILES IDX 31 23 22 25 23 26 24 27 25 28 26 29 27 30 18 31 20 33 33 35
REMARK SMILES IDX 35 37 37 39 38 41 39 42 40 43 7 45 43 47 44 48 45 50 46 51
REMARK SMILES IDX 47 53 48 54 49 55 50 57 51 58 52 59 53 60 54 61 64 62 55 63
REMARK SMILES IDX 63 64 56 65 57 66 62 67 58 68 61 69 59 70 60 71 4 72 2 73
REMARK SMILES IDX 1 75 3 76
REMARK H PARENT 31 24 18 32 20 34 33 36 35 38 37 40 40 44 7 46 44 49 46 52
REMARK H PARENT 48 56 4 74
REMARK Flexibility Score: inf
ROOT
ATOM      1  C   UNL     1       6.682  26.089  35.281  1.00  0.00     0.272 C 
ATOM      2  C   UNL     1       6.602  24.875  36.246  1.00  0.00     0.113 C 
ATOM      3  C   UNL     1       5.222  24.335  36.187  1.00  0.00     0.145 C 
ATOM      4  C   UNL     1       4.951  23.963  34.715  1.00  0.00     0.142 C 
ATOM      5  C   UNL     1       4.908  25.287  33.989  1.00  0.00     0.178 C 
ATOM      6  O   UNL     1       6.190  25.785  34.044  1.00  0.00    -0.332 OA
ENDROOT
BRANCH   1   7
ATOM      7  O   UNL     1       8.061  26.294  35.172  1.00  0.00    -0.338 OA
BRANCH   7   8
ATOM      8  C   UNL     1       8.472  27.021  34.097  1.00  0.00     0.199 C 
BRANCH   8   9
ATOM      9  C   UNL     1       9.743  27.777  34.536  1.00  0.00     0.179 C 
ATOM     10  C   UNL     1      11.637  27.334  35.809  1.00  0.00     0.282 C 
ATOM     11  O   UNL     1      10.275  27.237  35.671  1.00  0.00    -0.341 OA
ATOM     12  C   UNL     1      12.255  28.434  35.047  1.00  0.00     0.202 C 
ATOM     13  C   UNL     1      11.864  28.541  33.607  1.00  0.00     0.179 C 
ATOM     14  C   UNL     1      10.681  27.668  33.344  1.00  0.00     0.177 C 
BRANCH  10  15
ATOM     15  O   UNL     1      12.149  26.055  35.588  1.00  0.00    -0.341 OA
BRANCH  15  16
ATOM     16  C   UNL     1      11.600  25.120  36.445  1.00  0.00     0.184 C 
ATOM     17  C   UNL     1      12.598  24.614  37.437  1.00  0.00     0.178 C 
ATOM     18  O   UNL     1      11.979  23.817  38.357  1.00  0.00    -0.341 OA
ATOM     19  C   UNL     1      10.753  23.305  38.064  1.00  0.00     0.281 C 
ATOM     20  C   UNL     1      11.155  23.873  35.662  1.00  0.00     0.180 C 
ATOM     21  C   UNL     1      10.544  22.880  36.628  1.00  0.00     0.202 C 
BRANCH  17  22
ATOM     22  C   UNL     1      13.218  25.787  38.172  1.00  0.00     0.191 C 
BRANCH  22  23
ATOM     23  O   UNL     1      14.381  26.187  37.559  1.00  0.00    -0.394 OA
ATOM     24  H   UNL     1      14.202  26.795  36.820  1.00  0.00     0.210 HD
ENDBRANCH  22  23
ENDBRANCH  17  22
BRANCH  19  25
ATOM     25  O   UNL     1       9.703  24.089  38.531  1.00  0.00    -0.350 OA
BRANCH  25  26
ATOM     26  C   UNL     1       9.636  24.184  39.908  1.00  0.00     0.169 C 
BRANCH  26  27
ATOM     27  C   UNL     1       8.322  23.786  40.493  1.00  0.00     0.119 C 
BRANCH  27  28
ATOM     28  N   UNL     1       7.736  22.716  39.705  1.00  0.00    -0.092 NA
ATOM     29  N   UNL     1       6.517  22.550  39.800  1.00  0.00     0.001 N 
ATOM     30  N   UNL     1       5.280  22.388  39.738  1.00  0.00    -0.003 NA
ENDBRANCH  27  28
ENDBRANCH  26  27
ENDBRANCH  25  26
ENDBRANCH  19  25
BRANCH  20  31
ATOM     31  O   UNL     1      10.313  24.232  34.625  1.00  0.00    -0.387 OA
ATOM     32  H   UNL     1      10.082  25.198  34.659  1.00  0.00     0.211 HD
ENDBRANCH  20  31
BRANCH  21  33
ATOM     33  O   UNL     1      10.974  21.585  36.441  1.00  0.00    -0.385 OA
ATOM     34  H   UNL     1      11.141  21.448  35.479  1.00  0.00     0.211 HD
ENDBRANCH  21  33
ENDBRANCH  15  16
ENDBRANCH  10  15
BRANCH  12  35
ATOM     35  O   UNL     1      11.946  29.636  35.743  1.00  0.00    -0.385 OA
ATOM     36  H   UNL     1      10.953  29.752  35.772  1.00  0.00     0.211 HD
ENDBRANCH  12  35
BRANCH  13  37
ATOM     37  O   UNL     1      12.927  28.124  32.771  1.00  0.00    -0.387 OA
ATOM     38  H   UNL     1      12.545  27.411  32.200  1.00  0.00     0.211 HD
ENDBRANCH  13  37
BRANCH  14  39
ATOM     39  O   UNL     1      11.040  26.347  33.088  1.00  0.00    -0.387 OA
ATOM     40  H   UNL     1      10.983  26.147  32.121  1.00  0.00     0.211 HD
ENDBRANCH  14  39
ENDBRANCH   8   9
ENDBRANCH   7   8
ENDBRANCH   1   7
BRANCH   1  41
ATOM     41  C   UNL     1       6.085  27.220  35.988  1.00  0.00     0.364 C 
ATOM     42  O   UNL     1       5.401  28.109  35.427  1.00  0.00    -0.246 OA
BRANCH  41  43
ATOM     43  O   UNL     1       6.253  27.358  37.353  1.00  0.00    -0.477 OA
ATOM     44  H   UNL     1       5.771  28.056  37.918  1.00  0.00     0.296 HD
ENDBRANCH  41  43
ENDBRANCH   1  41
BRANCH   3  45
ATOM     45  O   UNL     1       5.096  23.146  36.891  1.00  0.00    -0.391 OA
ATOM     46  H   UNL     1       5.946  22.934  37.328  1.00  0.00     0.211 HD
ENDBRANCH   3  45
BRANCH   5  47
ATOM     47  C   UNL     1       4.519  25.208  32.552  1.00  0.00     0.176 C 
BRANCH  47  48
ATOM     48  O   UNL     1       5.410  24.256  31.978  1.00  0.00    -0.388 OA
ATOM     49  H   UNL     1       6.233  24.234  32.529  1.00  0.00     0.211 HD
ENDBRANCH  47  48
BRANCH  47  50
ATOM     50  C   UNL     1       4.792  26.473  31.752  1.00  0.00     0.165 C 
BRANCH  50  51
ATOM     51  O   UNL     1       4.511  27.512  32.682  1.00  0.00    -0.388 OA
ATOM     52  H   UNL     1       4.683  28.401  32.239  1.00  0.00     0.211 HD
ENDBRANCH  50  51
BRANCH  50  53
ATOM     53  C   UNL     1       3.828  26.640  30.629  1.00  0.00     0.154 C 
BRANCH  53  54
ATOM     54  N   UNL     1       4.138  25.790  29.525  1.00  0.00    -0.319 N 
ATOM     55  C   UNL     1       3.202  25.359  28.533  1.00  0.00     0.407 C 
ATOM     56  H   UNL     1       5.134  25.422  29.390  1.00  0.00     0.167 HD
ATOM     57  O   UNL     1       2.012  25.741  28.623  1.00  0.00    -0.225 OA
BRANCH  55  58
ATOM     58  O   UNL     1       3.570  24.546  27.486  1.00  0.00    -0.443 OA
BRANCH  58  59
ATOM     59  C   UNL     1       3.228  24.892  26.169  1.00  0.00     0.294 C 
BRANCH  59  60
ATOM     60  C   UNL     1       3.992  26.097  25.778  1.00  0.00     0.121 A 
ATOM     61  C   UNL     1       5.388  26.148  25.680  1.00  0.00     0.144 A 
ATOM     62  N   UNL     1       3.578  27.332  25.455  1.00  0.00    -0.131 NA
ATOM     63  N   UNL     1       5.746  27.390  25.310  1.00  0.00    -0.220 N 
ATOM     64  N   UNL     1       4.631  28.080  25.182  1.00  0.00    -0.062 NA
BRANCH  63  65
ATOM     65  C   UNL     1       7.097  27.794  25.121  1.00  0.00     0.066 A 
ATOM     66  C   UNL     1       8.181  26.994  25.291  1.00  0.00     0.029 A 
ATOM     67  C   UNL     1       7.291  29.112  24.723  1.00  0.00     0.029 A 
ATOM     68  C   UNL     1       9.440  27.508  25.064  1.00  0.00     0.018 A 
ATOM     69  C   UNL     1       8.554  29.611  24.501  1.00  0.00     0.018 A 
ATOM     70  C   UNL     1       9.660  28.805  24.671  1.00  0.00     0.018 A 
ATOM     71  Br  UNL     1      11.420  29.476  24.364  1.00  0.00    -0.051 Br
ENDBRANCH  63  65
ENDBRANCH  59  60
ENDBRANCH  58  59
ENDBRANCH  55  58
ENDBRANCH  53  54
ENDBRANCH  50  53
ENDBRANCH  47  50
ENDBRANCH   5  47
BRANCH   4  72
ATOM     72  N   UNL     1       3.726  23.222  34.706  1.00  0.00    -0.348 N 
ATOM     73  C   UNL     1       3.572  22.017  33.969  1.00  0.00     0.217 C 
ATOM     74  H   UNL     1       2.918  23.570  35.251  1.00  0.00     0.163 HD
ATOM     75  C   UNL     1       2.316  21.231  33.938  1.00  0.00     0.114 C 
ATOM     76  O   UNL     1       4.552  21.568  33.289  1.00  0.00    -0.275 OA
ENDBRANCH   4  72
TORSDOF 30
