REMARK VINA RESULT:    -6.280     16.088     21.077
REMARK INTER + INTRA:         -21.281
REMARK INTER:                 -13.470
REMARK INTRA:                  -7.811
REMARK UNBOUND:                -5.087
REMARK SMILES CC(=O)N[C@@H]1[C@@H](O)C[C@](OC[C@H]2O[C@@H](O[C@H]3[C@H](O)[C@@H](O)[C@H](OCCN=[N+]=[N-])O[C@@H]3CO)[C@H](O)[C@@H](O)[C@H]2O)(C(=O)O)O[C@H]1C(O)[C@H](O)CNC(=O)OCc1cn(CS(=O)(=O)c2ccccc2)nn1
REMARK SMILES IDX 9 1 8 2 6 3 5 4 42 5 41 6 10 7 11 8 12 9 14 10 13 11 32 12
REMARK SMILES IDX 34 13 36 14 15 15 16 16 29 17 28 18 21 19 17 20 19 21 30 22
REMARK SMILES IDX 31 23 22 25 23 26 24 27 25 28 26 29 27 30 18 31 20 33 33 35
REMARK SMILES IDX 35 37 37 39 38 41 39 42 40 43 7 45 43 47 44 48 45 50 46 51
REMARK SMILES IDX 47 53 48 54 49 55 50 57 51 58 52 59 53 60 54 61 67 62 55 63
REMARK SMILES IDX 66 64 56 65 57 66 58 67 59 68 60 69 61 70 65 71 62 72 64 73
REMARK SMILES IDX 63 74 4 75 2 76 1 78 3 79
REMARK H PARENT 31 24 18 32 20 34 33 36 35 38 37 40 40 44 7 46 44 49 46 52
REMARK H PARENT 48 56 4 77
REMARK Flexibility Score: inf
ROOT
ATOM      1  C   UNL     1      11.041  25.094  37.438  1.00  0.00     0.272 C 
ATOM      2  C   UNL     1      11.554  23.789  36.982  1.00  0.00     0.113 C 
ATOM      3  C   UNL     1      10.491  22.750  36.685  1.00  0.00     0.145 C 
ATOM      4  C   UNL     1       9.589  22.711  37.869  1.00  0.00     0.142 C 
ATOM      5  C   UNL     1       9.108  24.069  38.299  1.00  0.00     0.178 C 
ATOM      6  O   UNL     1      10.021  25.057  38.375  1.00  0.00    -0.332 OA
ENDROOT
BRANCH   1   7
ATOM      7  O   UNL     1      10.789  25.980  36.412  1.00  0.00    -0.338 OA
BRANCH   7   8
ATOM      8  C   UNL     1      11.710  26.064  35.420  1.00  0.00     0.199 C 
BRANCH   8   9
ATOM      9  C   UNL     1      11.027  26.062  34.036  1.00  0.00     0.179 C 
ATOM     10  C   UNL     1       8.757  26.731  34.007  1.00  0.00     0.282 C 
ATOM     11  O   UNL     1       9.728  25.797  34.229  1.00  0.00    -0.341 OA
ATOM     12  C   UNL     1       9.239  28.108  34.264  1.00  0.00     0.202 C 
ATOM     13  C   UNL     1      10.508  28.409  33.525  1.00  0.00     0.179 C 
ATOM     14  C   UNL     1      11.339  27.235  33.202  1.00  0.00     0.177 C 
BRANCH  10  15
ATOM     15  O   UNL     1       7.699  26.361  34.855  1.00  0.00    -0.341 OA
BRANCH  15  16
ATOM     16  C   UNL     1       6.625  25.785  34.266  1.00  0.00     0.184 C 
ATOM     17  C   UNL     1       5.333  26.138  34.941  1.00  0.00     0.178 C 
ATOM     18  O   UNL     1       4.310  25.877  34.034  1.00  0.00    -0.341 OA
ATOM     19  C   UNL     1       4.381  24.662  33.410  1.00  0.00     0.281 C 
ATOM     20  C   UNL     1       6.677  24.242  34.388  1.00  0.00     0.180 C 
ATOM     21  C   UNL     1       5.370  23.706  33.953  1.00  0.00     0.202 C 
BRANCH  17  22
ATOM     22  C   UNL     1       5.206  27.542  35.416  1.00  0.00     0.191 C 
BRANCH  22  23
ATOM     23  O   UNL     1       5.570  28.409  34.393  1.00  0.00    -0.394 OA
ATOM     24  H   UNL     1       5.792  27.897  33.582  1.00  0.00     0.210 HD
ENDBRANCH  22  23
ENDBRANCH  17  22
BRANCH  19  25
ATOM     25  O   UNL     1       4.681  24.916  32.075  1.00  0.00    -0.350 OA
BRANCH  25  26
ATOM     26  C   UNL     1       3.893  25.972  31.560  1.00  0.00     0.169 C 
BRANCH  26  27
ATOM     27  C   UNL     1       3.889  25.893  30.049  1.00  0.00     0.119 C 
BRANCH  27  28
ATOM     28  N   UNL     1       5.094  26.565  29.569  1.00  0.00    -0.092 NA
ATOM     29  N   UNL     1       5.109  26.941  28.379  1.00  0.00     0.001 N 
ATOM     30  N   UNL     1       5.163  27.052  27.141  1.00  0.00    -0.003 NA
ENDBRANCH  27  28
ENDBRANCH  26  27
ENDBRANCH  25  26
ENDBRANCH  19  25
BRANCH  20  31
ATOM     31  O   UNL     1       7.699  23.734  33.604  1.00  0.00    -0.387 OA
ATOM     32  H   UNL     1       7.299  23.382  32.768  1.00  0.00     0.211 HD
ENDBRANCH  20  31
BRANCH  21  33
ATOM     33  O   UNL     1       4.767  23.084  35.076  1.00  0.00    -0.385 OA
ATOM     34  H   UNL     1       5.384  22.486  35.548  1.00  0.00     0.211 HD
ENDBRANCH  21  33
ENDBRANCH  15  16
ENDBRANCH  10  15
BRANCH  12  35
ATOM     35  O   UNL     1       8.311  29.077  33.766  1.00  0.00    -0.385 OA
ATOM     36  H   UNL     1       7.548  28.547  33.434  1.00  0.00     0.211 HD
ENDBRANCH  12  35
BRANCH  13  37
ATOM     37  O   UNL     1      11.263  29.393  34.212  1.00  0.00    -0.387 OA
ATOM     38  H   UNL     1      11.203  29.226  35.195  1.00  0.00     0.211 HD
ENDBRANCH  13  37
BRANCH  14  39
ATOM     39  O   UNL     1      12.698  27.598  33.264  1.00  0.00    -0.387 OA
ATOM     40  H   UNL     1      13.165  27.135  32.521  1.00  0.00     0.211 HD
ENDBRANCH  14  39
ENDBRANCH   8   9
ENDBRANCH   7   8
ENDBRANCH   1   7
BRANCH   1  41
ATOM     41  C   UNL     1      12.174  25.701  38.251  1.00  0.00     0.364 C 
ATOM     42  O   UNL     1      11.974  26.797  38.800  1.00  0.00    -0.246 OA
BRANCH  41  43
ATOM     43  O   UNL     1      13.385  25.039  38.368  1.00  0.00    -0.477 OA
ATOM     44  H   UNL     1      13.405  24.032  38.587  1.00  0.00     0.296 HD
ENDBRANCH  41  43
ENDBRANCH   1  41
BRANCH   3  45
ATOM     45  O   UNL     1       9.884  23.058  35.500  1.00  0.00    -0.391 OA
ATOM     46  H   UNL     1       9.839  24.052  35.431  1.00  0.00     0.211 HD
ENDBRANCH   3  45
BRANCH   5  47
ATOM     47  C   UNL     1       7.820  24.474  37.620  1.00  0.00     0.176 C 
BRANCH  47  48
ATOM     48  O   UNL     1       6.826  23.501  37.683  1.00  0.00    -0.388 OA
ATOM     49  H   UNL     1       6.059  23.739  38.224  1.00  0.00     0.211 HD
ENDBRANCH  47  48
BRANCH  47  50
ATOM     50  C   UNL     1       7.268  25.792  38.142  1.00  0.00     0.165 C 
BRANCH  50  51
ATOM     51  O   UNL     1       7.997  26.882  37.725  1.00  0.00    -0.388 OA
ATOM     52  H   UNL     1       7.667  27.746  38.017  1.00  0.00     0.211 HD
ENDBRANCH  50  51
BRANCH  50  53
ATOM     53  C   UNL     1       7.012  25.815  39.601  1.00  0.00     0.154 C 
BRANCH  53  54
ATOM     54  N   UNL     1       6.276  24.723  40.160  1.00  0.00    -0.319 N 
ATOM     55  C   UNL     1       4.875  24.656  40.334  1.00  0.00     0.407 C 
ATOM     56  H   UNL     1       6.834  23.873  40.480  1.00  0.00     0.167 HD
ATOM     57  O   UNL     1       4.136  25.594  39.980  1.00  0.00    -0.225 OA
BRANCH  55  58
ATOM     58  O   UNL     1       4.330  23.519  40.908  1.00  0.00    -0.443 OA
BRANCH  58  59
ATOM     59  C   UNL     1       4.789  22.218  40.685  1.00  0.00     0.294 C 
BRANCH  59  60
ATOM     60  C   UNL     1       4.241  21.711  39.413  1.00  0.00     0.120 A 
ATOM     61  C   UNL     1       3.539  20.524  39.292  1.00  0.00     0.139 A 
ATOM     62  N   UNL     1       4.279  22.228  38.175  1.00  0.00    -0.132 NA
ATOM     63  N   UNL     1       3.174  20.356  38.007  1.00  0.00    -0.237 N 
ATOM     64  N   UNL     1       3.644  21.415  37.356  1.00  0.00    -0.066 NA
BRANCH  63  65
ATOM     65  C   UNL     1       2.426  19.260  37.458  1.00  0.00     0.287 C 
BRANCH  65  66
ATOM     66  S   UNL     1       3.607  18.195  36.631  1.00  0.00     0.198 S 
ATOM     67  O   UNL     1       4.787  17.949  37.492  1.00  0.00    -0.222 OA
ATOM     68  O   UNL     1       3.993  18.893  35.338  1.00  0.00    -0.222 OA
BRANCH  66  69
ATOM     69  C   UNL     1       2.785  16.702  36.258  1.00  0.00     0.069 A 
ATOM     70  C   UNL     1       2.799  15.625  37.117  1.00  0.00     0.020 A 
ATOM     71  C   UNL     1       2.089  16.552  35.078  1.00  0.00     0.020 A 
ATOM     72  C   UNL     1       2.155  14.451  36.825  1.00  0.00     0.001 A 
ATOM     73  C   UNL     1       1.440  15.384  34.771  1.00  0.00     0.001 A 
ATOM     74  C   UNL     1       1.475  14.331  35.650  1.00  0.00     0.000 A 
ENDBRANCH  66  69
ENDBRANCH  65  66
ENDBRANCH  63  65
ENDBRANCH  59  60
ENDBRANCH  58  59
ENDBRANCH  55  58
ENDBRANCH  53  54
ENDBRANCH  50  53
ENDBRANCH  47  50
ENDBRANCH   5  47
BRANCH   4  75
ATOM     75  N   UNL     1      10.325  22.145  38.993  1.00  0.00    -0.348 N 
ATOM     76  C   UNL     1       9.663  21.458  40.050  1.00  0.00     0.217 C 
ATOM     77  H   UNL     1      11.384  22.221  39.075  1.00  0.00     0.163 HD
ATOM     78  C   UNL     1      10.471  20.892  41.189  1.00  0.00     0.114 C 
ATOM     79  O   UNL     1       8.407  21.318  40.044  1.00  0.00    -0.275 OA
ENDBRANCH   4  75
TORSDOF 32
