REMARK VINA RESULT:    -5.840      8.539     11.299
REMARK INTER + INTRA:         -21.842
REMARK INTER:                 -14.961
REMARK INTRA:                  -6.881
REMARK UNBOUND:                -6.784
REMARK SMILES COc1ccc(Cn2cc(COC(=O)NC[C@@H](O)C(O)[C@@H]3O[C@@](OC[C@H]4O[C@@H](O[C@H]5[C@H](O)[C@@H](O)[C@H](OCCN=[N+]=[N-])O[C@@H]5CO)[C@H](O)[C@@H](O)[C@H]4O)(C(=O)O)C[C@H](O)[C@H]3NC(C)=O)nn2)cc1
REMARK SMILES IDX 23 1 55 2 56 3 58 4 21 5 22 6 24 7 25 8 26 9 28 10 27 11
REMARK SMILES IDX 46 12 48 13 50 14 29 15 30 16 43 17 42 18 35 19 31 20 33 21
REMARK SMILES IDX 44 22 45 23 36 25 37 26 38 27 39 28 40 29 41 30 32 31 34 33
REMARK SMILES IDX 47 35 49 37 51 39 52 41 53 42 54 43 57 45 19 47 20 48 17 50
REMARK SMILES IDX 18 51 16 53 15 54 13 55 14 57 12 58 11 59 10 60 9 61 63 62
REMARK SMILES IDX 8 63 64 64 7 65 6 66 5 67 65 68 4 69 66 70 3 71 2 72 1 73
REMARK SMILES IDX 59 74 60 75 61 77 62 78
REMARK H PARENT 45 24 32 32 34 34 47 36 49 38 51 40 54 44 57 46 20 49 18 52
REMARK H PARENT 15 56 59 76
REMARK Flexibility Score: inf
ROOT
ATOM      1  C   UNL     1      13.447  31.494  18.217  1.00  0.00     0.272 C 
ATOM      2  C   UNL     1      14.666  32.392  18.207  1.00  0.00     0.113 C 
ATOM      3  C   UNL     1      15.413  32.260  19.519  1.00  0.00     0.145 C 
ATOM      4  C   UNL     1      15.604  30.839  19.963  1.00  0.00     0.142 C 
ATOM      5  C   UNL     1      14.924  29.828  19.055  1.00  0.00     0.178 C 
ATOM      6  O   UNL     1      13.673  30.252  18.653  1.00  0.00    -0.332 OA
ENDROOT
BRANCH   1   7
ATOM      7  O   UNL     1      12.682  31.660  17.113  1.00  0.00    -0.338 OA
BRANCH   7   8
ATOM      8  C   UNL     1      13.168  32.014  15.918  1.00  0.00     0.199 C 
BRANCH   8   9
ATOM      9  C   UNL     1      12.978  30.951  14.857  1.00  0.00     0.179 C 
ATOM     10  C   UNL     1      14.149  30.043  13.129  1.00  0.00     0.282 C 
ATOM     11  O   UNL     1      14.246  30.422  14.486  1.00  0.00    -0.341 OA
ATOM     12  C   UNL     1      12.858  29.374  12.831  1.00  0.00     0.202 C 
ATOM     13  C   UNL     1      12.055  28.907  13.997  1.00  0.00     0.179 C 
ATOM     14  C   UNL     1      12.141  29.786  15.229  1.00  0.00     0.177 C 
BRANCH  10  15
ATOM     15  O   UNL     1      15.292  29.444  12.681  1.00  0.00    -0.341 OA
BRANCH  15  16
ATOM     16  C   UNL     1      16.474  30.124  12.885  1.00  0.00     0.184 C 
ATOM     17  C   UNL     1      17.276  30.400  11.636  1.00  0.00     0.178 C 
ATOM     18  O   UNL     1      18.638  30.468  11.926  1.00  0.00    -0.341 OA
ATOM     19  C   UNL     1      18.898  30.974  13.212  1.00  0.00     0.281 C 
ATOM     20  C   UNL     1      17.371  29.140  13.661  1.00  0.00     0.180 C 
ATOM     21  C   UNL     1      18.456  29.969  14.292  1.00  0.00     0.202 C 
BRANCH  17  22
ATOM     22  C   UNL     1      16.916  31.664  10.922  1.00  0.00     0.191 C 
BRANCH  22  23
ATOM     23  O   UNL     1      18.050  32.182  10.300  1.00  0.00    -0.394 OA
ATOM     24  H   UNL     1      17.768  32.507   9.398  1.00  0.00     0.210 HD
ENDBRANCH  22  23
ENDBRANCH  17  22
BRANCH  19  25
ATOM     25  O   UNL     1      18.378  32.205  13.450  1.00  0.00    -0.350 OA
BRANCH  25  26
ATOM     26  C   UNL     1      18.546  32.777  14.673  1.00  0.00     0.169 C 
BRANCH  26  27
ATOM     27  C   UNL     1      19.895  33.282  15.025  1.00  0.00     0.119 C 
BRANCH  27  28
ATOM     28  N   UNL     1      20.434  32.751  16.230  1.00  0.00    -0.092 NA
ATOM     29  N   UNL     1      21.645  32.633  16.467  1.00  0.00     0.001 N 
ATOM     30  N   UNL     1      22.763  32.858  16.981  1.00  0.00    -0.003 NA
ENDBRANCH  27  28
ENDBRANCH  26  27
ENDBRANCH  25  26
ENDBRANCH  19  25
BRANCH  20  31
ATOM     31  O   UNL     1      16.660  28.364  14.534  1.00  0.00    -0.387 OA
ATOM     32  H   UNL     1      15.688  28.634  14.578  1.00  0.00     0.211 HD
ENDBRANCH  20  31
BRANCH  21  33
ATOM     33  O   UNL     1      19.522  29.177  14.719  1.00  0.00    -0.385 OA
ATOM     34  H   UNL     1      20.089  28.949  13.935  1.00  0.00     0.211 HD
ENDBRANCH  21  33
ENDBRANCH  15  16
ENDBRANCH  10  15
BRANCH  12  35
ATOM     35  O   UNL     1      12.047  30.148  11.962  1.00  0.00    -0.385 OA
ATOM     36  H   UNL     1      12.369  30.025  11.018  1.00  0.00     0.211 HD
ENDBRANCH  12  35
BRANCH  13  37
ATOM     37  O   UNL     1      12.337  27.557  14.320  1.00  0.00    -0.387 OA
ATOM     38  H   UNL     1      13.286  27.505  14.601  1.00  0.00     0.211 HD
ENDBRANCH  13  37
BRANCH  14  39
ATOM     39  O   UNL     1      12.628  29.085  16.328  1.00  0.00    -0.387 OA
ATOM     40  H   UNL     1      12.955  28.185  16.084  1.00  0.00     0.211 HD
ENDBRANCH  14  39
ENDBRANCH   8   9
ENDBRANCH   7   8
ENDBRANCH   1   7
BRANCH   1  41
ATOM     41  C   UNL     1      12.534  32.224  19.258  1.00  0.00     0.364 C 
ATOM     42  O   UNL     1      12.003  33.314  18.955  1.00  0.00    -0.246 OA
BRANCH  41  43
ATOM     43  O   UNL     1      12.282  31.729  20.490  1.00  0.00    -0.477 OA
ATOM     44  H   UNL     1      11.941  30.837  20.751  1.00  0.00     0.296 HD
ENDBRANCH  41  43
ENDBRANCH   1  41
BRANCH   3  45
ATOM     45  O   UNL     1      16.681  32.852  19.244  1.00  0.00    -0.391 OA
ATOM     46  H   UNL     1      16.619  33.838  19.316  1.00  0.00     0.211 HD
ENDBRANCH   3  45
BRANCH   5  47
ATOM     47  C   UNL     1      15.898  29.436  18.013  1.00  0.00     0.176 C 
BRANCH  47  48
ATOM     48  O   UNL     1      15.292  29.003  16.797  1.00  0.00    -0.388 OA
ATOM     49  H   UNL     1      14.999  29.805  16.314  1.00  0.00     0.211 HD
ENDBRANCH  47  48
BRANCH  47  50
ATOM     50  C   UNL     1      16.664  28.120  18.337  1.00  0.00     0.165 C 
BRANCH  50  51
ATOM     51  O   UNL     1      16.446  27.550  19.526  1.00  0.00    -0.388 OA
ATOM     52  H   UNL     1      17.221  27.005  19.813  1.00  0.00     0.211 HD
ENDBRANCH  50  51
BRANCH  50  53
ATOM     53  C   UNL     1      18.162  28.433  18.130  1.00  0.00     0.154 C 
BRANCH  53  54
ATOM     54  N   UNL     1      18.849  28.686  19.354  1.00  0.00    -0.319 N 
ATOM     55  C   UNL     1      20.036  29.490  19.346  1.00  0.00     0.407 C 
ATOM     56  H   UNL     1      18.517  28.303  20.245  1.00  0.00     0.167 HD
ATOM     57  O   UNL     1      20.449  29.963  18.251  1.00  0.00    -0.225 OA
BRANCH  55  58
ATOM     58  O   UNL     1      20.682  29.716  20.547  1.00  0.00    -0.443 OA
BRANCH  58  59
ATOM     59  C   UNL     1      21.975  29.122  20.778  1.00  0.00     0.294 C 
BRANCH  59  60
ATOM     60  C   UNL     1      21.764  27.744  21.269  1.00  0.00     0.120 A 
ATOM     61  C   UNL     1      22.749  26.827  21.648  1.00  0.00     0.138 A 
ATOM     62  N   UNL     1      20.600  27.106  21.435  1.00  0.00    -0.132 NA
ATOM     63  N   UNL     1      22.124  25.702  22.013  1.00  0.00    -0.248 N 
ATOM     64  N   UNL     1      20.819  25.885  21.879  1.00  0.00    -0.067 NA
BRANCH  63  65
ATOM     65  C   UNL     1      22.757  24.492  22.473  1.00  0.00     0.181 C 
BRANCH  65  66
ATOM     66  C   UNL     1      23.054  24.620  23.917  1.00  0.00    -0.026 A 
ATOM     67  C   UNL     1      24.376  24.724  24.341  1.00  0.00     0.009 A 
ATOM     68  C   UNL     1      22.078  24.659  24.876  1.00  0.00     0.009 A 
ATOM     69  C   UNL     1      24.709  24.862  25.672  1.00  0.00     0.047 A 
ATOM     70  C   UNL     1      22.416  24.800  26.227  1.00  0.00     0.047 A 
ATOM     71  C   UNL     1      23.716  24.902  26.640  1.00  0.00     0.118 A 
BRANCH  71  72
ATOM     72  O   UNL     1      24.101  25.042  27.961  1.00  0.00    -0.497 OA
ATOM     73  C   UNL     1      24.680  26.190  28.509  1.00  0.00     0.278 C 
ENDBRANCH  71  72
ENDBRANCH  65  66
ENDBRANCH  63  65
ENDBRANCH  59  60
ENDBRANCH  58  59
ENDBRANCH  55  58
ENDBRANCH  53  54
ENDBRANCH  50  53
ENDBRANCH  47  50
ENDBRANCH   5  47
BRANCH   4  74
ATOM     74  N   UNL     1      15.324  30.589  21.360  1.00  0.00    -0.348 N 
ATOM     75  C   UNL     1      16.159  29.834  22.229  1.00  0.00     0.217 C 
ATOM     76  H   UNL     1      14.456  30.965  21.768  1.00  0.00     0.163 HD
ATOM     77  C   UNL     1      15.763  29.633  23.675  1.00  0.00     0.114 C 
ATOM     78  O   UNL     1      17.225  29.337  21.794  1.00  0.00    -0.275 OA
ENDBRANCH   4  74
TORSDOF 32
