REMARK VINA RESULT:    -4.642      3.870      6.838
REMARK INTER + INTRA:         -21.734
REMARK INTER:                 -11.674
REMARK INTRA:                 -10.059
REMARK UNBOUND:                -8.679
REMARK SMILES CCOC(CCn1cc(COC(=O)NC[C@@H](O)C(O)[C@@H]2O[C@@](OC[C@H]3O[C@@H](O[C@H]4[C@H](O)[C@@H](O)[C@H](OCCN=[N+]=[N-])O[C@@H]4CO)[C@H](O)[C@@H](O)[C@H]3O)(C(=O)O)C[C@H](O)[C@H]2NC(C)=O)nn1)OCC
REMARK SMILES IDX 18 1 20 2 22 3 54 4 21 5 55 6 57 7 23 8 24 9 25 10 27 11
REMARK SMILES IDX 26 12 45 13 47 14 49 15 28 16 29 17 42 18 41 19 34 20 30 21
REMARK SMILES IDX 32 22 43 23 44 24 35 26 36 27 37 28 38 29 39 30 40 31 31 32
REMARK SMILES IDX 33 34 46 36 48 38 50 40 51 42 52 43 53 44 56 46 58 48 59 49
REMARK SMILES IDX 60 51 61 52 19 53 16 55 17 56 15 58 14 59 12 60 13 62 11 63
REMARK SMILES IDX 10 64 9 65 8 66 62 67 7 68 63 69 6 70 5 71 4 72 3 73 2 74
REMARK SMILES IDX 1 75 64 76 65 77 66 78
REMARK H PARENT 44 25 31 33 33 35 46 37 48 39 50 41 53 45 56 47 58 50 19 54
REMARK H PARENT 17 57 14 61
REMARK Flexibility Score: inf
ROOT
ATOM      1  C   UNL     1      17.715  31.610  21.861  1.00  0.00     0.176 C 
ENDROOT
BRANCH   1   2
ATOM      2  C   UNL     1      16.378  31.384  21.218  1.00  0.00     0.178 C 
ATOM      3  C   UNL     1      14.847  29.767  20.590  1.00  0.00     0.272 C 
ATOM      4  C   UNL     1      14.084  31.002  20.263  1.00  0.00     0.113 C 
ATOM      5  O   UNL     1      16.136  30.023  21.111  1.00  0.00    -0.332 OA
ATOM      6  C   UNL     1      14.830  32.060  19.527  1.00  0.00     0.145 C 
ATOM      7  C   UNL     1      16.336  31.903  19.777  1.00  0.00     0.142 C 
BRANCH   3   8
ATOM      8  O   UNL     1      14.964  28.819  19.656  1.00  0.00    -0.338 OA
BRANCH   8   9
ATOM      9  C   UNL     1      16.088  28.094  19.510  1.00  0.00     0.199 C 
BRANCH   9  10
ATOM     10  C   UNL     1      16.717  28.325  18.154  1.00  0.00     0.179 C 
ATOM     11  C   UNL     1      16.533  29.291  16.135  1.00  0.00     0.282 C 
ATOM     12  O   UNL     1      16.272  29.470  17.520  1.00  0.00    -0.341 OA
ATOM     13  C   UNL     1      17.998  29.382  15.928  1.00  0.00     0.202 C 
ATOM     14  C   UNL     1      18.699  28.353  16.783  1.00  0.00     0.179 C 
ATOM     15  C   UNL     1      18.241  28.331  18.218  1.00  0.00     0.177 C 
BRANCH  11  16
ATOM     16  O   UNL     1      15.770  30.214  15.412  1.00  0.00    -0.341 OA
BRANCH  16  17
ATOM     17  C   UNL     1      14.742  29.562  14.807  1.00  0.00     0.184 C 
ATOM     18  C   UNL     1      14.442  29.862  13.389  1.00  0.00     0.178 C 
ATOM     19  O   UNL     1      13.644  28.824  12.888  1.00  0.00    -0.341 OA
ATOM     20  C   UNL     1      12.379  28.845  13.494  1.00  0.00     0.281 C 
ATOM     21  C   UNL     1      13.399  29.849  15.551  1.00  0.00     0.180 C 
ATOM     22  C   UNL     1      12.462  28.763  15.003  1.00  0.00     0.202 C 
BRANCH  18  23
ATOM     23  C   UNL     1      15.691  29.930  12.563  1.00  0.00     0.191 C 
BRANCH  23  24
ATOM     24  O   UNL     1      16.469  28.778  12.681  1.00  0.00    -0.394 OA
ATOM     25  H   UNL     1      17.126  28.833  13.397  1.00  0.00     0.210 HD
ENDBRANCH  23  24
ENDBRANCH  18  23
BRANCH  20  26
ATOM     26  O   UNL     1      11.706  27.724  13.043  1.00  0.00    -0.350 OA
BRANCH  26  27
ATOM     27  C   UNL     1      11.257  27.755  11.757  1.00  0.00     0.169 C 
BRANCH  27  28
ATOM     28  C   UNL     1      10.635  29.092  11.451  1.00  0.00     0.119 C 
BRANCH  28  29
ATOM     29  N   UNL     1       9.186  28.935  11.353  1.00  0.00    -0.092 NA
ATOM     30  N   UNL     1       8.565  29.164  12.412  1.00  0.00     0.001 N 
ATOM     31  N   UNL     1       7.828  28.964  13.380  1.00  0.00    -0.003 NA
ENDBRANCH  28  29
ENDBRANCH  27  28
ENDBRANCH  26  27
ENDBRANCH  20  26
BRANCH  21  32
ATOM     32  O   UNL     1      13.546  29.724  16.906  1.00  0.00    -0.387 OA
ATOM     33  H   UNL     1      13.065  28.945  17.278  1.00  0.00     0.211 HD
ENDBRANCH  21  32
BRANCH  22  34
ATOM     34  O   UNL     1      11.205  28.881  15.531  1.00  0.00    -0.385 OA
ATOM     35  H   UNL     1      11.117  29.826  15.870  1.00  0.00     0.211 HD
ENDBRANCH  22  34
ENDBRANCH  16  17
ENDBRANCH  11  16
BRANCH  13  36
ATOM     36  O   UNL     1      18.349  29.078  14.604  1.00  0.00    -0.385 OA
ATOM     37  H   UNL     1      18.044  29.772  13.978  1.00  0.00     0.211 HD
ENDBRANCH  13  36
BRANCH  14  38
ATOM     38  O   UNL     1      20.082  28.437  16.670  1.00  0.00    -0.387 OA
ATOM     39  H   UNL     1      20.347  29.003  15.895  1.00  0.00     0.211 HD
ENDBRANCH  14  38
BRANCH  15  40
ATOM     40  O   UNL     1      18.667  29.442  18.931  1.00  0.00    -0.387 OA
ATOM     41  H   UNL     1      19.598  29.335  19.228  1.00  0.00     0.211 HD
ENDBRANCH  15  40
ENDBRANCH   9  10
ENDBRANCH   8   9
ENDBRANCH   3   8
BRANCH   3  42
ATOM     42  C   UNL     1      14.140  29.132  21.748  1.00  0.00     0.364 C 
ATOM     43  O   UNL     1      12.900  29.036  21.785  1.00  0.00    -0.246 OA
BRANCH  42  44
ATOM     44  O   UNL     1      14.845  28.622  22.834  1.00  0.00    -0.477 OA
ATOM     45  H   UNL     1      15.573  27.939  22.655  1.00  0.00     0.296 HD
ENDBRANCH  42  44
ENDBRANCH   3  42
BRANCH   6  46
ATOM     46  O   UNL     1      14.561  32.132  18.183  1.00  0.00    -0.391 OA
ATOM     47  H   UNL     1      15.042  32.855  17.709  1.00  0.00     0.211 HD
ENDBRANCH   6  46
BRANCH   7  48
ATOM     48  N   UNL     1      17.049  33.124  19.591  1.00  0.00    -0.348 N 
ATOM     49  C   UNL     1      17.954  33.216  18.496  1.00  0.00     0.217 C 
ATOM     50  H   UNL     1      16.941  33.950  20.211  1.00  0.00     0.163 HD
ATOM     51  C   UNL     1      18.713  34.474  18.277  1.00  0.00     0.114 C 
ATOM     52  O   UNL     1      18.129  32.235  17.696  1.00  0.00    -0.275 OA
ENDBRANCH   7  48
ENDBRANCH   1   2
BRANCH   1  53
ATOM     53  O   UNL     1      17.614  32.816  22.577  1.00  0.00    -0.388 OA
ATOM     54  H   UNL     1      18.339  33.448  22.298  1.00  0.00     0.211 HD
ENDBRANCH   1  53
BRANCH   1  55
ATOM     55  C   UNL     1      17.930  30.512  22.883  1.00  0.00     0.165 C 
BRANCH  55  56
ATOM     56  O   UNL     1      16.885  30.437  23.757  1.00  0.00    -0.388 OA
ATOM     57  H   UNL     1      16.644  29.519  24.038  1.00  0.00     0.211 HD
ENDBRANCH  55  56
BRANCH  55  58
ATOM     58  C   UNL     1      19.223  30.728  23.619  1.00  0.00     0.154 C 
BRANCH  58  59
ATOM     59  N   UNL     1      20.323  29.909  23.198  1.00  0.00    -0.319 N 
ATOM     60  C   UNL     1      20.690  28.686  23.781  1.00  0.00     0.407 C 
ATOM     61  H   UNL     1      20.887  30.287  22.376  1.00  0.00     0.167 HD
ATOM     62  O   UNL     1      20.080  28.177  24.735  1.00  0.00    -0.225 OA
BRANCH  60  63
ATOM     63  O   UNL     1      21.802  27.966  23.289  1.00  0.00    -0.443 OA
BRANCH  63  64
ATOM     64  C   UNL     1      21.572  26.817  22.460  1.00  0.00     0.294 C 
BRANCH  64  65
ATOM     65  C   UNL     1      21.799  27.206  21.044  1.00  0.00     0.120 A 
ATOM     66  C   UNL     1      22.384  28.359  20.577  1.00  0.00     0.138 A 
ATOM     67  N   UNL     1      21.459  26.490  19.970  1.00  0.00    -0.132 NA
ATOM     68  N   UNL     1      22.370  28.288  19.230  1.00  0.00    -0.252 N 
ATOM     69  N   UNL     1      21.804  27.142  18.895  1.00  0.00    -0.067 NA
BRANCH  68  70
ATOM     70  C   UNL     1      22.894  29.304  18.365  1.00  0.00     0.151 C 
BRANCH  70  71
ATOM     71  C   UNL     1      22.915  30.684  18.956  1.00  0.00     0.086 C 
BRANCH  71  72
ATOM     72  C   UNL     1      21.651  31.429  18.528  1.00  0.00     0.251 C 
BRANCH  72  73
ATOM     73  O   UNL     1      20.808  31.434  19.623  1.00  0.00    -0.353 OA
BRANCH  73  74
ATOM     74  C   UNL     1      21.330  32.154  20.690  1.00  0.00     0.160 C 
ATOM     75  C   UNL     1      21.510  33.618  20.338  1.00  0.00     0.035 C 
ENDBRANCH  73  74
ENDBRANCH  72  73
BRANCH  72  76
ATOM     76  O   UNL     1      21.127  30.935  17.371  1.00  0.00    -0.353 OA
BRANCH  76  77
ATOM     77  C   UNL     1      21.279  31.689  16.240  1.00  0.00     0.160 C 
ATOM     78  C   UNL     1      21.591  33.115  16.630  1.00  0.00     0.035 C 
ENDBRANCH  76  77
ENDBRANCH  72  76
ENDBRANCH  71  72
ENDBRANCH  70  71
ENDBRANCH  68  70
ENDBRANCH  64  65
ENDBRANCH  63  64
ENDBRANCH  60  63
ENDBRANCH  58  59
ENDBRANCH  55  58
ENDBRANCH   1  55
TORSDOF 36
