REMARK VINA RESULT:    -6.433     11.411     18.967
REMARK INTER + INTRA:         -24.178
REMARK INTER:                 -17.578
REMARK INTRA:                  -6.600
REMARK UNBOUND:                -7.402
REMARK SMILES CC(=O)N[C@@H]1[C@@H](O)C[C@](OC[C@H]2O[C@@H](O[C@H]3[C@H](O)[C@@H](O)[C@H](OCCN=[N+]=[N-])O[C@@H]3CO)[C@H](O)[C@@H](O)[C@H]2O)(C(=O)O)O[C@H]1C(O)[C@H](O)CNC(=O)OCc1cn(-c2ccc(S(=O)(=O)c3ccc(N)cc3)cc2)nn1
REMARK SMILES IDX 43 1 42 2 9 3 8 4 41 5 6 6 5 7 10 8 11 9 12 10 14 11 13 12
REMARK SMILES IDX 32 13 34 14 36 15 15 16 16 17 29 18 28 19 21 20 17 21 19 22
REMARK SMILES IDX 30 23 31 24 22 26 23 27 24 28 25 29 26 30 27 31 18 32 20 34
REMARK SMILES IDX 33 36 35 38 37 40 38 42 39 43 40 44 7 46 4 48 2 49 1 51 3 52
REMARK SMILES IDX 44 53 45 55 46 56 47 58 48 59 49 60 50 62 51 63 52 64 53 65
REMARK SMILES IDX 54 66 73 67 55 68 72 69 56 70 57 71 71 72 58 73 70 74 59 75
REMARK SMILES IDX 60 76 61 77 62 78 63 79 64 80 69 81 65 82 68 83 66 84 67 85
REMARK H PARENT 31 25 18 33 20 35 33 37 35 39 37 41 40 45 7 47 4 50 44 54
REMARK H PARENT 46 57 48 61 67 86 67 87
REMARK Flexibility Score: inf
ROOT
ATOM      1  C   UNL     1       4.440  26.561  32.419  1.00  0.00     0.176 C 
ENDROOT
BRANCH   1   2
ATOM      2  C   UNL     1       5.344  25.571  33.152  1.00  0.00     0.178 C 
ATOM      3  C   UNL     1       5.400  23.499  34.179  1.00  0.00     0.272 C 
ATOM      4  C   UNL     1       6.183  24.066  35.319  1.00  0.00     0.113 C 
ATOM      5  O   UNL     1       4.619  24.496  33.567  1.00  0.00    -0.332 OA
ATOM      6  C   UNL     1       5.727  25.497  35.553  1.00  0.00     0.145 C 
ATOM      7  C   UNL     1       6.021  26.295  34.328  1.00  0.00     0.142 C 
BRANCH   3   8
ATOM      8  O   UNL     1       4.475  22.513  34.532  1.00  0.00    -0.338 OA
BRANCH   8   9
ATOM      9  C   UNL     1       3.160  22.832  34.374  1.00  0.00     0.199 C 
BRANCH   9  10
ATOM     10  C   UNL     1       2.502  21.820  33.464  1.00  0.00     0.179 C 
ATOM     11  C   UNL     1       2.176  21.243  31.278  1.00  0.00     0.282 C 
ATOM     12  O   UNL     1       2.910  22.088  32.152  1.00  0.00    -0.341 OA
ATOM     13  C   UNL     1       2.749  19.869  31.483  1.00  0.00     0.202 C 
ATOM     14  C   UNL     1       2.402  19.398  32.878  1.00  0.00     0.179 C 
ATOM     15  C   UNL     1       2.864  20.437  33.885  1.00  0.00     0.177 C 
BRANCH  11  16
ATOM     16  O   UNL     1       2.295  21.750  30.011  1.00  0.00    -0.341 OA
BRANCH  16  17
ATOM     17  C   UNL     1       1.024  22.061  29.473  1.00  0.00     0.184 C 
ATOM     18  C   UNL     1       0.958  21.486  28.093  1.00  0.00     0.178 C 
ATOM     19  O   UNL     1       0.605  22.366  27.105  1.00  0.00    -0.341 OA
ATOM     20  C   UNL     1       1.278  23.551  27.043  1.00  0.00     0.281 C 
ATOM     21  C   UNL     1       0.983  23.583  29.453  1.00  0.00     0.180 C 
ATOM     22  C   UNL     1       1.923  23.992  28.337  1.00  0.00     0.202 C 
BRANCH  18  23
ATOM     23  C   UNL     1      -0.165  20.433  28.133  1.00  0.00     0.191 C 
BRANCH  23  24
ATOM     24  O   UNL     1      -0.193  19.730  29.312  1.00  0.00    -0.394 OA
ATOM     25  H   UNL     1      -1.082  19.375  29.562  1.00  0.00     0.210 HD
ENDBRANCH  23  24
ENDBRANCH  18  23
BRANCH  20  26
ATOM     26  O   UNL     1       0.362  24.539  26.699  1.00  0.00    -0.350 OA
BRANCH  26  27
ATOM     27  C   UNL     1      -0.259  24.368  25.492  1.00  0.00     0.169 C 
BRANCH  27  28
ATOM     28  C   UNL     1       0.551  24.949  24.381  1.00  0.00     0.119 C 
BRANCH  28  29
ATOM     29  N   UNL     1       0.185  24.295  23.113  1.00  0.00    -0.092 NA
ATOM     30  N   UNL     1      -0.135  23.108  23.080  1.00  0.00     0.001 N 
ATOM     31  N   UNL     1      -0.860  22.098  23.081  1.00  0.00    -0.003 NA
ENDBRANCH  28  29
ENDBRANCH  27  28
ENDBRANCH  26  27
ENDBRANCH  20  26
BRANCH  21  32
ATOM     32  O   UNL     1      -0.286  24.022  29.155  1.00  0.00    -0.387 OA
ATOM     33  H   UNL     1      -0.877  23.256  28.924  1.00  0.00     0.211 HD
ENDBRANCH  21  32
BRANCH  22  34
ATOM     34  O   UNL     1       3.198  23.505  28.510  1.00  0.00    -0.385 OA
ATOM     35  H   UNL     1       3.514  22.963  27.740  1.00  0.00     0.211 HD
ENDBRANCH  22  34
ENDBRANCH  16  17
ENDBRANCH  11  16
BRANCH  13  36
ATOM     36  O   UNL     1       2.324  18.962  30.515  1.00  0.00    -0.385 OA
ATOM     37  H   UNL     1       3.151  18.685  30.006  1.00  0.00     0.211 HD
ENDBRANCH  13  36
BRANCH  14  38
ATOM     38  O   UNL     1       3.154  18.247  33.153  1.00  0.00    -0.387 OA
ATOM     39  H   UNL     1       2.645  17.638  33.720  1.00  0.00     0.211 HD
ENDBRANCH  14  38
BRANCH  15  40
ATOM     40  O   UNL     1       4.222  20.309  34.141  1.00  0.00    -0.387 OA
ATOM     41  H   UNL     1       4.465  20.811  34.953  1.00  0.00     0.211 HD
ENDBRANCH  15  40
ENDBRANCH   9  10
ENDBRANCH   8   9
ENDBRANCH   3   8
BRANCH   3  42
ATOM     42  C   UNL     1       6.250  22.904  33.113  1.00  0.00     0.364 C 
ATOM     43  O   UNL     1       7.503  22.864  33.121  1.00  0.00    -0.246 OA
BRANCH  42  44
ATOM     44  O   UNL     1       5.638  22.341  32.006  1.00  0.00    -0.477 OA
ATOM     45  H   UNL     1       6.128  22.257  31.101  1.00  0.00     0.296 HD
ENDBRANCH  42  44
ENDBRANCH   3  42
BRANCH   6  46
ATOM     46  O   UNL     1       4.336  25.437  35.695  1.00  0.00    -0.391 OA
ATOM     47  H   UNL     1       3.945  26.332  35.890  1.00  0.00     0.211 HD
ENDBRANCH   6  46
BRANCH   7  48
ATOM     48  N   UNL     1       7.405  26.501  34.043  1.00  0.00    -0.348 N 
ATOM     49  C   UNL     1       8.012  27.779  33.887  1.00  0.00     0.217 C 
ATOM     50  H   UNL     1       8.033  25.666  33.944  1.00  0.00     0.163 HD
ATOM     51  C   UNL     1       9.464  27.864  33.593  1.00  0.00     0.114 C 
ATOM     52  O   UNL     1       7.294  28.781  34.004  1.00  0.00    -0.275 OA
ENDBRANCH   7  48
ENDBRANCH   1   2
BRANCH   1  53
ATOM     53  O   UNL     1       4.979  27.837  32.437  1.00  0.00    -0.388 OA
ATOM     54  H   UNL     1       5.571  27.951  33.239  1.00  0.00     0.211 HD
ENDBRANCH   1  53
BRANCH   1  55
ATOM     55  C   UNL     1       4.042  26.084  31.075  1.00  0.00     0.165 C 
BRANCH  55  56
ATOM     56  O   UNL     1       4.125  24.692  30.990  1.00  0.00    -0.388 OA
ATOM     57  H   UNL     1       4.855  24.305  31.500  1.00  0.00     0.211 HD
ENDBRANCH  55  56
BRANCH  55  58
ATOM     58  C   UNL     1       4.971  26.617  30.005  1.00  0.00     0.154 C 
BRANCH  58  59
ATOM     59  N   UNL     1       4.679  26.121  28.690  1.00  0.00    -0.319 N 
ATOM     60  C   UNL     1       3.883  26.912  27.824  1.00  0.00     0.407 C 
ATOM     61  H   UNL     1       5.032  25.208  28.363  1.00  0.00     0.167 HD
ATOM     62  O   UNL     1       3.469  28.033  28.239  1.00  0.00    -0.225 OA
BRANCH  60  63
ATOM     63  O   UNL     1       3.520  26.550  26.547  1.00  0.00    -0.443 OA
BRANCH  63  64
ATOM     64  C   UNL     1       4.429  26.160  25.540  1.00  0.00     0.294 C 
BRANCH  64  65
ATOM     65  C   UNL     1       5.313  27.310  25.232  1.00  0.00     0.121 A 
ATOM     66  C   UNL     1       6.689  27.381  25.144  1.00  0.00     0.144 A 
ATOM     67  N   UNL     1       4.886  28.580  24.942  1.00  0.00    -0.131 NA
ATOM     68  N   UNL     1       7.048  28.659  24.811  1.00  0.00    -0.220 N 
ATOM     69  N   UNL     1       5.933  29.337  24.702  1.00  0.00    -0.062 NA
BRANCH  68  70
ATOM     70  C   UNL     1       8.347  29.171  24.603  1.00  0.00     0.066 A 
ATOM     71  C   UNL     1       9.465  28.341  24.725  1.00  0.00     0.030 A 
ATOM     72  C   UNL     1       8.596  30.480  24.277  1.00  0.00     0.030 A 
ATOM     73  C   UNL     1      10.748  28.790  24.533  1.00  0.00     0.023 A 
ATOM     74  C   UNL     1       9.898  30.943  24.081  1.00  0.00     0.023 A 
ATOM     75  C   UNL     1      10.984  30.106  24.207  1.00  0.00     0.072 A 
BRANCH  75  76
ATOM     76  S   UNL     1      12.616  30.689  23.955  1.00  0.00     0.206 S 
ATOM     77  O   UNL     1      13.549  29.900  24.861  1.00  0.00    -0.219 OA
ATOM     78  O   UNL     1      12.754  32.158  24.172  1.00  0.00    -0.219 OA
BRANCH  76  79
ATOM     79  C   UNL     1      13.112  30.287  22.310  1.00  0.00     0.072 A 
ATOM     80  C   UNL     1      13.652  29.061  22.031  1.00  0.00     0.023 A 
ATOM     81  C   UNL     1      12.964  31.197  21.290  1.00  0.00     0.023 A 
ATOM     82  C   UNL     1      14.034  28.761  20.756  1.00  0.00     0.027 A 
ATOM     83  C   UNL     1      13.353  30.882  20.013  1.00  0.00     0.027 A 
ATOM     84  C   UNL     1      13.895  29.667  19.705  1.00  0.00     0.031 A 
BRANCH  84  85
ATOM     85  N   UNL     1      14.305  29.316  18.401  1.00  0.00    -0.399 N 
ATOM     86  H   UNL     1      15.040  29.845  17.911  1.00  0.00     0.156 HD
ATOM     87  H   UNL     1      13.861  28.512  17.924  1.00  0.00     0.156 HD
ENDBRANCH  84  85
ENDBRANCH  76  79
ENDBRANCH  75  76
ENDBRANCH  68  70
ENDBRANCH  64  65
ENDBRANCH  63  64
ENDBRANCH  60  63
ENDBRANCH  58  59
ENDBRANCH  55  58
ENDBRANCH   1  55
TORSDOF 33
