REMARK VINA RESULT:    -6.342      3.422      8.460
REMARK INTER + INTRA:         -22.998
REMARK INTER:                 -15.097
REMARK INTRA:                  -7.901
REMARK UNBOUND:                -7.387
REMARK SMILES CC(=O)N[C@@H]1[C@@H](O)C[C@](OC[C@H]2O[C@@H](O[C@H]3[C@H](O)[C@@H](O)[C@H](OCCN=[N+]=[N-])O[C@@H]3CO)[C@H](O)[C@@H](O)[C@H]2O)(C(=O)O)O[C@H]1C(O)[C@H](O)CNC(=O)OCc1cn(C23CC4CC(CC(C4)C2)C3)nn1
REMARK SMILES IDX 9 1 8 2 6 3 5 4 42 5 41 6 10 7 11 8 12 9 14 10 13 11 32 12
REMARK SMILES IDX 34 13 36 14 15 15 16 16 29 17 28 18 21 19 17 20 19 21 30 22
REMARK SMILES IDX 31 23 22 25 23 26 24 27 25 28 26 29 27 30 18 31 20 33 33 35
REMARK SMILES IDX 35 37 37 39 38 41 39 42 40 43 7 45 43 47 44 48 45 50 46 51
REMARK SMILES IDX 47 53 48 54 49 55 50 57 51 58 52 59 53 60 54 61 67 62 55 63
REMARK SMILES IDX 66 64 56 65 65 66 64 67 57 68 60 69 62 70 58 71 59 72 61 73
REMARK SMILES IDX 63 74 4 75 2 76 1 78 3 79
REMARK H PARENT 31 24 18 32 20 34 33 36 35 38 37 40 40 44 7 46 44 49 46 52
REMARK H PARENT 48 56 4 77
REMARK Flexibility Score: inf
ROOT
ATOM      1  C   UNL     1      15.146  29.722  20.839  1.00  0.00     0.272 C 
ATOM      2  C   UNL     1      14.744  28.675  19.858  1.00  0.00     0.113 C 
ATOM      3  C   UNL     1      15.961  27.956  19.311  1.00  0.00     0.145 C 
ATOM      4  C   UNL     1      16.618  28.960  18.353  1.00  0.00     0.142 C 
ATOM      5  C   UNL     1      16.646  30.262  19.097  1.00  0.00     0.178 C 
ATOM      6  O   UNL     1      16.461  30.172  20.453  1.00  0.00    -0.332 OA
ENDROOT
BRANCH   1   7
ATOM      7  O   UNL     1      15.291  29.359  22.106  1.00  0.00    -0.338 OA
BRANCH   7   8
ATOM      8  C   UNL     1      14.392  29.070  23.013  1.00  0.00     0.199 C 
BRANCH   8   9
ATOM      9  C   UNL     1      14.170  29.871  24.253  1.00  0.00     0.179 C 
ATOM     10  C   UNL     1      14.522  31.817  25.317  1.00  0.00     0.282 C 
ATOM     11  O   UNL     1      14.783  31.166  24.094  1.00  0.00    -0.341 OA
ATOM     12  C   UNL     1      13.202  32.494  25.139  1.00  0.00     0.202 C 
ATOM     13  C   UNL     1      12.330  31.575  24.305  1.00  0.00     0.179 C 
ATOM     14  C   UNL     1      12.689  30.124  24.515  1.00  0.00     0.177 C 
BRANCH  10  15
ATOM     15  O   UNL     1      15.567  32.667  25.663  1.00  0.00    -0.341 OA
BRANCH  15  16
ATOM     16  C   UNL     1      16.746  31.981  25.620  1.00  0.00     0.184 C 
ATOM     17  C   UNL     1      17.565  31.949  26.859  1.00  0.00     0.178 C 
ATOM     18  O   UNL     1      18.458  30.864  26.707  1.00  0.00    -0.341 OA
ATOM     19  C   UNL     1      19.449  31.161  25.742  1.00  0.00     0.281 C 
ATOM     20  C   UNL     1      17.684  32.517  24.533  1.00  0.00     0.180 C 
ATOM     21  C   UNL     1      18.848  31.593  24.446  1.00  0.00     0.202 C 
BRANCH  17  22
ATOM     22  C   UNL     1      16.832  31.875  28.145  1.00  0.00     0.191 C 
BRANCH  22  23
ATOM     23  O   UNL     1      16.389  30.552  28.304  1.00  0.00    -0.394 OA
ATOM     24  H   UNL     1      16.432  30.047  27.451  1.00  0.00     0.210 HD
ENDBRANCH  22  23
ENDBRANCH  17  22
BRANCH  19  25
ATOM     25  O   UNL     1      20.115  29.973  25.545  1.00  0.00    -0.350 OA
BRANCH  25  26
ATOM     26  C   UNL     1      21.104  29.970  24.632  1.00  0.00     0.169 C 
BRANCH  26  27
ATOM     27  C   UNL     1      22.452  30.219  25.229  1.00  0.00     0.119 C 
BRANCH  27  28
ATOM     28  N   UNL     1      23.504  29.675  24.362  1.00  0.00    -0.092 NA
ATOM     29  N   UNL     1      23.360  29.803  23.153  1.00  0.00     0.001 N 
ATOM     30  N   UNL     1      23.267  29.606  21.923  1.00  0.00    -0.003 NA
ENDBRANCH  27  28
ENDBRANCH  26  27
ENDBRANCH  25  26
ENDBRANCH  19  25
BRANCH  20  31
ATOM     31  O   UNL     1      17.051  32.559  23.292  1.00  0.00    -0.387 OA
ATOM     32  H   UNL     1      16.523  31.738  23.176  1.00  0.00     0.211 HD
ENDBRANCH  20  31
BRANCH  21  33
ATOM     33  O   UNL     1      19.824  32.235  23.686  1.00  0.00    -0.385 OA
ATOM     34  H   UNL     1      19.786  31.943  22.755  1.00  0.00     0.211 HD
ENDBRANCH  21  33
ENDBRANCH  15  16
ENDBRANCH  10  15
BRANCH  12  35
ATOM     35  O   UNL     1      12.577  32.893  26.293  1.00  0.00    -0.385 OA
ATOM     36  H   UNL     1      12.193  33.795  26.183  1.00  0.00     0.211 HD
ENDBRANCH  12  35
BRANCH  13  37
ATOM     37  O   UNL     1      12.336  31.911  22.957  1.00  0.00    -0.387 OA
ATOM     38  H   UNL     1      11.392  31.852  22.602  1.00  0.00     0.211 HD
ENDBRANCH  13  37
BRANCH  14  39
ATOM     39  O   UNL     1      11.965  29.369  23.603  1.00  0.00    -0.387 OA
ATOM     40  H   UNL     1      11.213  28.888  24.037  1.00  0.00     0.211 HD
ENDBRANCH  14  39
ENDBRANCH   8   9
ENDBRANCH   7   8
ENDBRANCH   1   7
BRANCH   1  41
ATOM     41  C   UNL     1      14.338  30.936  20.640  1.00  0.00     0.364 C 
ATOM     42  O   UNL     1      13.298  31.026  19.974  1.00  0.00    -0.246 OA
BRANCH  41  43
ATOM     43  O   UNL     1      14.835  32.103  21.293  1.00  0.00    -0.477 OA
ATOM     44  H   UNL     1      15.807  32.311  21.211  1.00  0.00     0.296 HD
ENDBRANCH  41  43
ENDBRANCH   1  41
BRANCH   3  45
ATOM     45  O   UNL     1      16.861  27.723  20.342  1.00  0.00    -0.391 OA
ATOM     46  H   UNL     1      17.473  28.502  20.378  1.00  0.00     0.211 HD
ENDBRANCH   3  45
BRANCH   5  47
ATOM     47  C   UNL     1      18.064  30.940  18.973  1.00  0.00     0.176 C 
BRANCH  47  48
ATOM     48  O   UNL     1      18.736  29.995  18.170  1.00  0.00    -0.388 OA
ATOM     49  H   UNL     1      18.731  30.380  17.259  1.00  0.00     0.211 HD
ENDBRANCH  47  48
BRANCH  47  50
ATOM     50  C   UNL     1      18.700  31.025  20.286  1.00  0.00     0.165 C 
BRANCH  50  51
ATOM     51  O   UNL     1      18.617  32.277  20.921  1.00  0.00    -0.388 OA
ATOM     52  H   UNL     1      17.663  32.445  21.182  1.00  0.00     0.211 HD
ENDBRANCH  50  51
BRANCH  50  53
ATOM     53  C   UNL     1      20.084  30.515  20.421  1.00  0.00     0.154 C 
BRANCH  53  54
ATOM     54  N   UNL     1      20.198  29.248  21.043  1.00  0.00    -0.319 N 
ATOM     55  C   UNL     1      20.312  27.990  20.434  1.00  0.00     0.407 C 
ATOM     56  H   UNL     1      20.194  29.268  22.140  1.00  0.00     0.167 HD
ATOM     57  O   UNL     1      20.304  27.873  19.199  1.00  0.00    -0.225 OA
BRANCH  55  58
ATOM     58  O   UNL     1      20.438  26.847  21.261  1.00  0.00    -0.443 OA
BRANCH  58  59
ATOM     59  C   UNL     1      21.732  26.367  21.524  1.00  0.00     0.294 C 
BRANCH  59  60
ATOM     60  C   UNL     1      21.780  25.789  22.876  1.00  0.00     0.120 A 
ATOM     61  C   UNL     1      22.255  26.422  23.995  1.00  0.00     0.138 A 
ATOM     62  N   UNL     1      21.380  24.567  23.274  1.00  0.00    -0.132 NA
ATOM     63  N   UNL     1      22.130  25.577  25.021  1.00  0.00    -0.246 N 
ATOM     64  N   UNL     1      21.598  24.463  24.555  1.00  0.00    -0.066 NA
BRANCH  63  65
ATOM     65  C   UNL     1      22.530  25.903  26.375  1.00  0.00     0.065 C 
ATOM     66  C   UNL     1      21.510  26.822  26.969  1.00  0.00     0.034 C 
ATOM     67  C   UNL     1      22.728  24.633  27.178  1.00  0.00     0.034 C 
ATOM     68  C   UNL     1      23.863  26.629  26.353  1.00  0.00     0.034 C 
ATOM     69  C   UNL     1      21.869  27.161  28.393  1.00  0.00    -0.008 C 
ATOM     70  C   UNL     1      23.021  24.993  28.605  1.00  0.00    -0.008 C 
ATOM     71  C   UNL     1      24.234  26.940  27.783  1.00  0.00    -0.008 C 
ATOM     72  C   UNL     1      23.211  27.849  28.406  1.00  0.00     0.007 C 
ATOM     73  C   UNL     1      21.944  25.867  29.171  1.00  0.00     0.007 C 
ATOM     74  C   UNL     1      24.363  25.709  28.636  1.00  0.00     0.007 C 
ENDBRANCH  63  65
ENDBRANCH  59  60
ENDBRANCH  58  59
ENDBRANCH  55  58
ENDBRANCH  53  54
ENDBRANCH  50  53
ENDBRANCH  47  50
ENDBRANCH   5  47
BRANCH   4  75
ATOM     75  N   UNL     1      15.759  29.075  17.169  1.00  0.00    -0.348 N 
ATOM     76  C   UNL     1      16.296  28.971  15.856  1.00  0.00     0.217 C 
ATOM     77  H   UNL     1      14.728  29.242  17.280  1.00  0.00     0.163 HD
ATOM     78  C   UNL     1      15.398  29.100  14.652  1.00  0.00     0.114 C 
ATOM     79  O   UNL     1      17.524  28.772  15.733  1.00  0.00    -0.275 OA
ENDBRANCH   4  75
TORSDOF 30
