REMARK VINA RESULT:    -6.393      2.741      8.499
REMARK INTER + INTRA:         -22.319
REMARK INTER:                 -15.919
REMARK INTRA:                  -6.400
REMARK UNBOUND:                -5.463
REMARK SMILES CC(=O)N[C@@H]1[C@@H](O)C[C@](OC[C@H]2O[C@@H](O[C@H]3[C@H](O)[C@@H](O)[C@H](OCCN=[N+]=[N-])O[C@@H]3CO)[C@H](O)[C@@H](O)[C@H]2O)(C(=O)O)O[C@H]1C(O)[C@H](O)CNC(=O)OCc1cn(COCc2ccccc2)nn1
REMARK SMILES IDX 43 1 42 2 9 3 8 4 41 5 6 6 5 7 10 8 11 9 12 10 14 11 13 12
REMARK SMILES IDX 32 13 34 14 36 15 15 16 16 17 29 18 28 19 21 20 17 21 19 22
REMARK SMILES IDX 30 23 31 24 22 26 23 27 24 28 25 29 26 30 27 31 18 32 20 34
REMARK SMILES IDX 33 36 35 38 37 40 38 42 39 43 40 44 7 46 4 48 2 49 1 51 3 52
REMARK SMILES IDX 44 53 45 55 46 56 47 58 48 59 49 60 50 62 51 63 52 64 53 65
REMARK SMILES IDX 54 66 66 67 55 68 65 69 56 70 57 71 58 72 59 73 60 74 64 75
REMARK SMILES IDX 61 76 63 77 62 78
REMARK H PARENT 31 25 18 33 20 35 33 37 35 39 37 41 40 45 7 47 4 50 44 54
REMARK H PARENT 46 57 48 61
REMARK Flexibility Score: inf
ROOT
ATOM      1  C   UNL     1      15.778  30.201  11.603  1.00  0.00     0.176 C 
ENDROOT
BRANCH   1   2
ATOM      2  C   UNL     1      14.703  30.448  12.684  1.00  0.00     0.178 C 
ATOM      3  C   UNL     1      14.679  30.980  14.947  1.00  0.00     0.272 C 
ATOM      4  C   UNL     1      13.534  29.995  15.155  1.00  0.00     0.113 C 
ATOM      5  O   UNL     1      15.396  30.499  13.895  1.00  0.00    -0.332 OA
ATOM      6  C   UNL     1      13.701  28.819  14.222  1.00  0.00     0.145 C 
ATOM      7  C   UNL     1      13.703  29.338  12.752  1.00  0.00     0.142 C 
BRANCH   3   8
ATOM      8  O   UNL     1      15.470  31.044  16.111  1.00  0.00    -0.338 OA
BRANCH   8   9
ATOM      9  C   UNL     1      14.880  30.730  17.275  1.00  0.00     0.199 C 
BRANCH   9  10
ATOM     10  C   UNL     1      15.913  30.326  18.302  1.00  0.00     0.179 C 
ATOM     11  C   UNL     1      16.422  30.087  20.497  1.00  0.00     0.282 C 
ATOM     12  O   UNL     1      15.385  30.442  19.604  1.00  0.00    -0.341 OA
ATOM     13  C   UNL     1      16.625  28.575  20.497  1.00  0.00     0.202 C 
ATOM     14  C   UNL     1      15.934  28.068  19.223  1.00  0.00     0.179 C 
ATOM     15  C   UNL     1      16.449  28.955  18.108  1.00  0.00     0.177 C 
BRANCH  11  16
ATOM     16  O   UNL     1      16.035  30.459  21.755  1.00  0.00    -0.341 OA
BRANCH  16  17
ATOM     17  C   UNL     1      14.745  30.965  21.822  1.00  0.00     0.184 C 
ATOM     18  C   UNL     1      14.645  32.239  22.582  1.00  0.00     0.178 C 
ATOM     19  O   UNL     1      14.802  31.997  23.913  1.00  0.00    -0.341 OA
ATOM     20  C   UNL     1      13.784  31.285  24.503  1.00  0.00     0.281 C 
ATOM     21  C   UNL     1      13.838  29.918  22.369  1.00  0.00     0.180 C 
ATOM     22  C   UNL     1      13.231  30.176  23.698  1.00  0.00     0.202 C 
BRANCH  18  23
ATOM     23  C   UNL     1      13.358  32.947  22.229  1.00  0.00     0.191 C 
BRANCH  23  24
ATOM     24  O   UNL     1      13.423  34.309  22.547  1.00  0.00    -0.394 OA
ATOM     25  H   UNL     1      12.768  34.806  21.997  1.00  0.00     0.210 HD
ENDBRANCH  23  24
ENDBRANCH  18  23
BRANCH  20  26
ATOM     26  O   UNL     1      12.761  32.197  24.785  1.00  0.00    -0.350 OA
BRANCH  26  27
ATOM     27  C   UNL     1      12.824  32.745  26.041  1.00  0.00     0.169 C 
BRANCH  27  28
ATOM     28  C   UNL     1      12.645  34.244  25.875  1.00  0.00     0.119 C 
BRANCH  28  29
ATOM     29  N   UNL     1      13.868  34.897  25.466  1.00  0.00    -0.092 NA
ATOM     30  N   UNL     1      14.669  35.319  26.320  1.00  0.00     0.001 N 
ATOM     31  N   UNL     1      15.118  36.164  27.118  1.00  0.00    -0.003 NA
ENDBRANCH  28  29
ENDBRANCH  27  28
ENDBRANCH  26  27
ENDBRANCH  20  26
BRANCH  21  32
ATOM     32  O   UNL     1      12.761  29.698  21.467  1.00  0.00    -0.387 OA
ATOM     33  H   UNL     1      12.308  28.858  21.637  1.00  0.00     0.211 HD
ENDBRANCH  21  32
BRANCH  22  34
ATOM     34  O   UNL     1      13.384  28.999  24.477  1.00  0.00    -0.385 OA
ATOM     35  H   UNL     1      14.363  28.859  24.559  1.00  0.00     0.211 HD
ENDBRANCH  22  34
ENDBRANCH  16  17
ENDBRANCH  11  16
BRANCH  13  36
ATOM     36  O   UNL     1      17.969  28.230  20.356  1.00  0.00    -0.385 OA
ATOM     37  H   UNL     1      18.021  27.243  20.373  1.00  0.00     0.211 HD
ENDBRANCH  13  36
BRANCH  14  38
ATOM     38  O   UNL     1      14.584  28.335  19.411  1.00  0.00    -0.387 OA
ATOM     39  H   UNL     1      14.276  28.185  20.339  1.00  0.00     0.211 HD
ENDBRANCH  14  38
BRANCH  15  40
ATOM     40  O   UNL     1      16.201  28.420  16.854  1.00  0.00    -0.387 OA
ATOM     41  H   UNL     1      16.703  27.583  16.678  1.00  0.00     0.211 HD
ENDBRANCH  15  40
ENDBRANCH   9  10
ENDBRANCH   8   9
ENDBRANCH   3   8
BRANCH   3  42
ATOM     42  C   UNL     1      14.220  32.349  14.713  1.00  0.00     0.364 C 
ATOM     43  O   UNL     1      13.031  32.753  14.617  1.00  0.00    -0.246 OA
BRANCH  42  44
ATOM     44  O   UNL     1      15.186  33.375  14.572  1.00  0.00    -0.477 OA
ATOM     45  H   UNL     1      15.873  33.340  13.820  1.00  0.00     0.296 HD
ENDBRANCH  42  44
ENDBRANCH   3  42
BRANCH   6  46
ATOM     46  O   UNL     1      14.807  28.059  14.375  1.00  0.00    -0.391 OA
ATOM     47  H   UNL     1      15.660  28.568  14.209  1.00  0.00     0.211 HD
ENDBRANCH   6  46
BRANCH   7  48
ATOM     48  N   UNL     1      12.348  29.787  12.545  1.00  0.00    -0.348 N 
ATOM     49  C   UNL     1      11.417  28.897  11.969  1.00  0.00     0.217 C 
ATOM     50  H   UNL     1      12.063  30.733  12.806  1.00  0.00     0.163 HD
ATOM     51  C   UNL     1      10.010  29.332  11.757  1.00  0.00     0.114 C 
ATOM     52  O   UNL     1      11.762  27.721  11.629  1.00  0.00    -0.275 OA
ENDBRANCH   7  48
ENDBRANCH   1   2
BRANCH   1  53
ATOM     53  O   UNL     1      15.198  29.221  10.709  1.00  0.00    -0.388 OA
ATOM     54  H   UNL     1      15.926  28.551  10.547  1.00  0.00     0.211 HD
ENDBRANCH   1  53
BRANCH   1  55
ATOM     55  C   UNL     1      17.042  29.593  12.099  1.00  0.00     0.165 C 
BRANCH  55  56
ATOM     56  O   UNL     1      16.966  28.363  12.688  1.00  0.00    -0.388 OA
ATOM     57  H   UNL     1      17.794  27.835  12.655  1.00  0.00     0.211 HD
ENDBRANCH  55  56
BRANCH  55  58
ATOM     58  C   UNL     1      18.083  30.449  12.710  1.00  0.00     0.154 C 
BRANCH  58  59
ATOM     59  N   UNL     1      19.252  29.811  13.248  1.00  0.00    -0.319 N 
ATOM     60  C   UNL     1      19.341  29.259  14.553  1.00  0.00     0.407 C 
ATOM     61  H   UNL     1      20.110  29.717  12.661  1.00  0.00     0.167 HD
ATOM     62  O   UNL     1      18.365  29.299  15.311  1.00  0.00    -0.225 OA
BRANCH  60  63
ATOM     63  O   UNL     1      20.492  28.649  15.064  1.00  0.00    -0.443 OA
BRANCH  63  64
ATOM     64  C   UNL     1      21.219  29.279  16.120  1.00  0.00     0.294 C 
BRANCH  64  65
ATOM     65  C   UNL     1      21.144  28.520  17.389  1.00  0.00     0.120 A 
ATOM     66  C   UNL     1      22.182  27.761  17.889  1.00  0.00     0.141 A 
ATOM     67  N   UNL     1      20.136  28.398  18.261  1.00  0.00    -0.132 NA
ATOM     68  N   UNL     1      21.764  27.203  19.051  1.00  0.00    -0.226 N 
ATOM     69  N   UNL     1      20.519  27.610  19.247  1.00  0.00    -0.065 NA
BRANCH  68  70
ATOM     70  C   UNL     1      22.498  26.332  19.942  1.00  0.00     0.307 C 
BRANCH  70  71
ATOM     71  O   UNL     1      21.810  26.075  21.097  1.00  0.00    -0.355 OA
BRANCH  71  72
ATOM     72  C   UNL     1      21.981  24.750  21.465  1.00  0.00     0.198 C 
BRANCH  72  73
ATOM     73  C   UNL     1      22.537  24.704  22.864  1.00  0.00    -0.022 A 
ATOM     74  C   UNL     1      21.643  24.726  23.914  1.00  0.00     0.006 A 
ATOM     75  C   UNL     1      23.889  24.643  23.081  1.00  0.00     0.006 A 
ATOM     76  C   UNL     1      22.112  24.686  25.210  1.00  0.00     0.000 A 
ATOM     77  C   UNL     1      24.332  24.605  24.371  1.00  0.00     0.000 A 
ATOM     78  C   UNL     1      23.468  24.625  25.454  1.00  0.00     0.000 A 
ENDBRANCH  72  73
ENDBRANCH  71  72
ENDBRANCH  70  71
ENDBRANCH  68  70
ENDBRANCH  64  65
ENDBRANCH  63  64
ENDBRANCH  60  63
ENDBRANCH  58  59
ENDBRANCH  55  58
ENDBRANCH   1  55
TORSDOF 33
