REMARK VINA RESULT:    -5.497      7.097     11.524
REMARK INTER + INTRA:         -20.675
REMARK INTER:                 -15.574
REMARK INTRA:                  -5.101
REMARK UNBOUND:                -7.145
REMARK SMILES CC(=O)N[C@@H]1[C@@H](O)C[C@](OC[C@H]2O[C@@H](O[C@H]3[C@H](O)[C@@H](O)[C@H](OCCN=[N+]=[N-])O[C@@H]3CO)[C@H](O)[C@@H](O)[C@H]2O)(C(=O)O)O[C@H]1C(O)[C@H](O)CNC(=O)OCc1cn(-c2ccccc2Br)nn1
REMARK SMILES IDX 9 1 8 2 6 3 5 4 42 5 41 6 10 7 11 8 12 9 14 10 13 11 32 12
REMARK SMILES IDX 34 13 36 14 15 15 16 16 29 17 28 18 21 19 17 20 19 21 30 22
REMARK SMILES IDX 31 23 22 25 23 26 24 27 25 28 26 29 27 30 18 31 20 33 33 35
REMARK SMILES IDX 35 37 37 39 38 41 39 42 40 43 7 45 43 47 44 48 45 50 46 51
REMARK SMILES IDX 47 53 48 54 49 55 50 57 51 58 52 59 53 60 54 61 64 62 55 63
REMARK SMILES IDX 63 64 56 65 57 66 61 67 58 68 60 69 62 70 59 71 4 72 2 73
REMARK SMILES IDX 1 75 3 76
REMARK H PARENT 31 24 18 32 20 34 33 36 35 38 37 40 40 44 7 46 44 49 46 52
REMARK H PARENT 48 56 4 74
REMARK Flexibility Score: inf
ROOT
ATOM      1  C   UNL     1      21.280  28.080  23.753  1.00  0.00     0.272 C 
ATOM      2  C   UNL     1      22.734  28.062  24.041  1.00  0.00     0.113 C 
ATOM      3  C   UNL     1      23.016  27.773  25.479  1.00  0.00     0.145 C 
ATOM      4  C   UNL     1      22.224  26.670  26.086  1.00  0.00     0.142 C 
ATOM      5  C   UNL     1      21.075  26.263  25.231  1.00  0.00     0.178 C 
ATOM      6  O   UNL     1      20.483  27.221  24.479  1.00  0.00    -0.332 OA
ENDROOT
BRANCH   1   7
ATOM      7  O   UNL     1      20.931  27.834  22.437  1.00  0.00    -0.338 OA
BRANCH   7   8
ATOM      8  C   UNL     1      21.824  28.170  21.477  1.00  0.00     0.199 C 
BRANCH   8   9
ATOM      9  C   UNL     1      21.011  28.506  20.202  1.00  0.00     0.179 C 
ATOM     10  C   UNL     1      18.792  28.582  19.564  1.00  0.00     0.282 C 
ATOM     11  O   UNL     1      19.805  27.916  20.199  1.00  0.00    -0.341 OA
ATOM     12  C   UNL     1      19.243  29.267  18.293  1.00  0.00     0.202 C 
ATOM     13  C   UNL     1      20.396  30.209  18.568  1.00  0.00     0.179 C 
ATOM     14  C   UNL     1      20.988  29.959  19.941  1.00  0.00     0.177 C 
BRANCH  10  15
ATOM     15  O   UNL     1      18.091  29.434  20.405  1.00  0.00    -0.341 OA
BRANCH  15  16
ATOM     16  C   UNL     1      16.774  29.624  20.058  1.00  0.00     0.184 C 
ATOM     17  C   UNL     1      16.118  30.803  20.735  1.00  0.00     0.178 C 
ATOM     18  O   UNL     1      14.985  31.101  19.992  1.00  0.00    -0.341 OA
ATOM     19  C   UNL     1      14.087  30.090  19.871  1.00  0.00     0.281 C 
ATOM     20  C   UNL     1      15.920  28.430  20.467  1.00  0.00     0.180 C 
ATOM     21  C   UNL     1      14.492  28.736  20.280  1.00  0.00     0.202 C 
BRANCH  17  22
ATOM     22  C   UNL     1      16.977  32.019  20.840  1.00  0.00     0.191 C 
BRANCH  22  23
ATOM     23  O   UNL     1      17.689  32.177  19.654  1.00  0.00    -0.394 OA
ATOM     24  H   UNL     1      17.092  32.484  18.949  1.00  0.00     0.210 HD
ENDBRANCH  22  23
ENDBRANCH  17  22
BRANCH  19  25
ATOM     25  O   UNL     1      13.717  30.050  18.506  1.00  0.00    -0.350 OA
BRANCH  25  26
ATOM     26  C   UNL     1      14.226  31.084  17.772  1.00  0.00     0.169 C 
BRANCH  26  27
ATOM     27  C   UNL     1      14.843  30.704  16.463  1.00  0.00     0.119 C 
BRANCH  27  28
ATOM     28  N   UNL     1      15.624  29.497  16.690  1.00  0.00    -0.092 NA
ATOM     29  N   UNL     1      16.496  29.174  15.897  1.00  0.00     0.001 N 
ATOM     30  N   UNL     1      17.422  28.868  15.155  1.00  0.00    -0.003 NA
ENDBRANCH  27  28
ENDBRANCH  26  27
ENDBRANCH  25  26
ENDBRANCH  19  25
BRANCH  20  31
ATOM     31  O   UNL     1      16.262  27.292  19.754  1.00  0.00    -0.387 OA
ATOM     32  H   UNL     1      16.046  27.352  18.795  1.00  0.00     0.211 HD
ENDBRANCH  20  31
BRANCH  21  33
ATOM     33  O   UNL     1      13.850  28.359  21.497  1.00  0.00    -0.385 OA
ATOM     34  H   UNL     1      12.954  28.763  21.562  1.00  0.00     0.211 HD
ENDBRANCH  21  33
ENDBRANCH  15  16
ENDBRANCH  10  15
BRANCH  12  35
ATOM     35  O   UNL     1      19.542  28.343  17.291  1.00  0.00    -0.385 OA
ATOM     36  H   UNL     1      19.451  27.414  17.615  1.00  0.00     0.211 HD
ENDBRANCH  12  35
BRANCH  13  37
ATOM     37  O   UNL     1      20.024  31.523  18.364  1.00  0.00    -0.387 OA
ATOM     38  H   UNL     1      20.514  32.122  18.963  1.00  0.00     0.211 HD
ENDBRANCH  13  37
BRANCH  14  39
ATOM     39  O   UNL     1      20.256  30.693  20.859  1.00  0.00    -0.387 OA
ATOM     40  H   UNL     1      20.624  30.644  21.774  1.00  0.00     0.211 HD
ENDBRANCH  14  39
ENDBRANCH   8   9
ENDBRANCH   7   8
ENDBRANCH   1   7
BRANCH   1  41
ATOM     41  C   UNL     1      20.795  29.456  24.169  1.00  0.00     0.364 C 
ATOM     42  O   UNL     1      21.462  30.430  23.759  1.00  0.00    -0.246 OA
BRANCH  41  43
ATOM     43  O   UNL     1      19.697  29.668  24.948  1.00  0.00    -0.477 OA
ATOM     44  H   UNL     1      19.755  29.548  25.971  1.00  0.00     0.296 HD
ENDBRANCH  41  43
ENDBRANCH   1  41
BRANCH   3  45
ATOM     45  O   UNL     1      24.403  27.532  25.613  1.00  0.00    -0.391 OA
ATOM     46  H   UNL     1      24.643  27.713  26.563  1.00  0.00     0.211 HD
ENDBRANCH   3  45
BRANCH   5  47
ATOM     47  C   UNL     1      21.359  24.953  24.498  1.00  0.00     0.176 C 
BRANCH  47  48
ATOM     48  O   UNL     1      22.447  24.276  24.988  1.00  0.00    -0.388 OA
ATOM     49  H   UNL     1      22.187  23.633  25.710  1.00  0.00     0.211 HD
ENDBRANCH  47  48
BRANCH  47  50
ATOM     50  C   UNL     1      21.595  25.198  22.998  1.00  0.00     0.165 C 
BRANCH  50  51
ATOM     51  O   UNL     1      20.400  25.009  22.352  1.00  0.00    -0.388 OA
ATOM     52  H   UNL     1      19.597  25.004  22.900  1.00  0.00     0.211 HD
ENDBRANCH  50  51
BRANCH  50  53
ATOM     53  C   UNL     1      22.651  24.277  22.481  1.00  0.00     0.154 C 
BRANCH  53  54
ATOM     54  N   UNL     1      23.822  24.972  22.068  1.00  0.00    -0.319 N 
ATOM     55  C   UNL     1      24.923  25.358  22.862  1.00  0.00     0.407 C 
ATOM     56  H   UNL     1      23.899  25.242  21.037  1.00  0.00     0.167 HD
ATOM     57  O   UNL     1      24.960  25.089  24.067  1.00  0.00    -0.225 OA
BRANCH  55  58
ATOM     58  O   UNL     1      25.994  26.052  22.300  1.00  0.00    -0.443 OA
BRANCH  58  59
ATOM     59  C   UNL     1      26.465  25.871  20.987  1.00  0.00     0.294 C 
BRANCH  59  60
ATOM     60  C   UNL     1      27.480  24.771  20.926  1.00  0.00     0.121 A 
ATOM     61  C   UNL     1      27.174  23.411  20.976  1.00  0.00     0.144 A 
ATOM     62  N   UNL     1      28.798  24.845  20.834  1.00  0.00    -0.131 NA
ATOM     63  N   UNL     1      28.333  22.740  20.910  1.00  0.00    -0.219 N 
ATOM     64  N   UNL     1      29.310  23.609  20.823  1.00  0.00    -0.062 NA
BRANCH  63  65
ATOM     65  C   UNL     1      28.495  21.332  20.931  1.00  0.00     0.081 A 
ATOM     66  C   UNL     1      28.614  20.636  22.113  1.00  0.00     0.029 A 
ATOM     67  C   UNL     1      28.535  20.627  19.758  1.00  0.00     0.043 A 
ATOM     68  C   UNL     1      28.771  19.252  22.094  1.00  0.00     0.002 A 
ATOM     69  C   UNL     1      28.690  19.262  19.732  1.00  0.00     0.018 A 
ATOM     70  Br  UNL     1      28.378  21.554  18.100  1.00  0.00    -0.048 Br
ATOM     71  C   UNL     1      28.809  18.555  20.905  1.00  0.00     0.001 A 
ENDBRANCH  63  65
ENDBRANCH  59  60
ENDBRANCH  58  59
ENDBRANCH  55  58
ENDBRANCH  53  54
ENDBRANCH  50  53
ENDBRANCH  47  50
ENDBRANCH   5  47
BRANCH   4  72
ATOM     72  N   UNL     1      21.772  26.964  27.427  1.00  0.00    -0.348 N 
ATOM     73  C   UNL     1      22.566  26.649  28.557  1.00  0.00     0.217 C 
ATOM     74  H   UNL     1      20.850  27.415  27.580  1.00  0.00     0.163 HD
ATOM     75  C   UNL     1      22.021  26.987  29.906  1.00  0.00     0.114 C 
ATOM     76  O   UNL     1      23.683  26.107  28.454  1.00  0.00    -0.275 OA
ENDBRANCH   4  72
TORSDOF 30
