REMARK VINA RESULT:    -5.620      3.386      5.484
REMARK INTER + INTRA:         -20.594
REMARK INTER:                 -15.419
REMARK INTRA:                  -5.175
REMARK UNBOUND:                -6.268
REMARK SMILES CC(=O)N[C@@H]1[C@@H](O)C[C@](OC[C@H]2O[C@@H](O[C@H]3[C@H](O)[C@@H](O)[C@H](OCCN=[N+]=[N-])O[C@@H]3CO)[C@H](O)[C@@H](O)[C@H]2O)(C(=O)O)O[C@H]1C(O)[C@H](O)CNC(=O)OCc1cn(C(C)(C)CO)nn1
REMARK SMILES IDX 9 1 8 2 6 3 5 4 42 5 41 6 10 7 11 8 12 9 14 10 13 11 32 12
REMARK SMILES IDX 34 13 36 14 15 15 16 16 29 17 28 18 21 19 17 20 19 21 30 22
REMARK SMILES IDX 31 23 22 25 23 26 24 27 25 28 26 29 27 30 18 31 20 33 33 35
REMARK SMILES IDX 35 37 37 39 38 41 39 42 40 43 7 45 43 47 44 48 45 50 46 51
REMARK SMILES IDX 47 53 48 54 49 55 50 57 51 58 52 59 53 60 54 61 62 62 55 63
REMARK SMILES IDX 61 64 56 65 57 66 58 67 59 68 60 69 4 71 2 72 1 74 3 75
REMARK H PARENT 31 24 18 32 20 34 33 36 35 38 37 40 40 44 7 46 44 49 46 52
REMARK H PARENT 48 56 60 70 4 73
REMARK Flexibility Score: inf
ROOT
ATOM      1  C   UNL     1      16.459  29.897  19.863  1.00  0.00     0.272 C 
ATOM      2  C   UNL     1      16.436  30.770  18.637  1.00  0.00     0.113 C 
ATOM      3  C   UNL     1      15.472  31.903  18.898  1.00  0.00     0.145 C 
ATOM      4  C   UNL     1      14.071  31.250  18.879  1.00  0.00     0.142 C 
ATOM      5  C   UNL     1      14.110  30.123  19.866  1.00  0.00     0.178 C 
ATOM      6  O   UNL     1      15.257  30.122  20.635  1.00  0.00    -0.332 OA
ENDROOT
BRANCH   1   7
ATOM      7  O   UNL     1      17.435  30.211  20.752  1.00  0.00    -0.338 OA
BRANCH   7   8
ATOM      8  C   UNL     1      18.627  30.674  20.416  1.00  0.00     0.199 C 
BRANCH   8   9
ATOM      9  C   UNL     1      19.880  29.899  20.422  1.00  0.00     0.179 C 
ATOM     10  C   UNL     1      21.015  28.374  21.728  1.00  0.00     0.282 C 
ATOM     11  O   UNL     1      19.784  28.910  21.458  1.00  0.00    -0.341 OA
ATOM     12  C   UNL     1      22.048  28.516  20.668  1.00  0.00     0.202 C 
ATOM     13  C   UNL     1      21.496  28.511  19.260  1.00  0.00     0.179 C 
ATOM     14  C   UNL     1      20.096  29.031  19.188  1.00  0.00     0.177 C 
BRANCH  10  15
ATOM     15  O   UNL     1      20.822  27.054  22.146  1.00  0.00    -0.341 OA
BRANCH  15  16
ATOM     16  C   UNL     1      21.990  26.355  22.341  1.00  0.00     0.184 C 
ATOM     17  C   UNL     1      21.784  24.867  22.515  1.00  0.00     0.178 C 
ATOM     18  O   UNL     1      22.496  24.331  23.568  1.00  0.00    -0.341 OA
ATOM     19  C   UNL     1      22.188  24.818  24.809  1.00  0.00     0.281 C 
ATOM     20  C   UNL     1      22.591  26.900  23.650  1.00  0.00     0.180 C 
ATOM     21  C   UNL     1      21.745  26.262  24.737  1.00  0.00     0.202 C 
BRANCH  17  22
ATOM     22  C   UNL     1      22.333  24.221  21.248  1.00  0.00     0.191 C 
BRANCH  22  23
ATOM     23  O   UNL     1      21.932  24.962  20.136  1.00  0.00    -0.394 OA
ATOM     24  H   UNL     1      22.675  25.319  19.614  1.00  0.00     0.210 HD
ENDBRANCH  22  23
ENDBRANCH  17  22
BRANCH  19  25
ATOM     25  O   UNL     1      23.300  24.644  25.614  1.00  0.00    -0.350 OA
BRANCH  25  26
ATOM     26  C   UNL     1      23.055  24.513  26.944  1.00  0.00     0.169 C 
BRANCH  26  27
ATOM     27  C   UNL     1      23.929  25.390  27.828  1.00  0.00     0.119 C 
BRANCH  27  28
ATOM     28  N   UNL     1      24.087  26.713  27.255  1.00  0.00    -0.092 NA
ATOM     29  N   UNL     1      25.173  26.975  26.718  1.00  0.00     0.001 N 
ATOM     30  N   UNL     1      26.052  27.212  25.860  1.00  0.00    -0.003 NA
ENDBRANCH  27  28
ENDBRANCH  26  27
ENDBRANCH  25  26
ENDBRANCH  19  25
BRANCH  20  31
ATOM     31  O   UNL     1      23.909  26.436  23.669  1.00  0.00    -0.387 OA
ATOM     32  H   UNL     1      24.121  26.200  22.727  1.00  0.00     0.211 HD
ENDBRANCH  20  31
BRANCH  21  33
ATOM     33  O   UNL     1      20.417  26.263  24.279  1.00  0.00    -0.385 OA
ATOM     34  H   UNL     1      19.789  26.115  25.049  1.00  0.00     0.211 HD
ENDBRANCH  21  33
ENDBRANCH  15  16
ENDBRANCH  10  15
BRANCH  12  35
ATOM     35  O   UNL     1      22.934  29.577  20.862  1.00  0.00    -0.385 OA
ATOM     36  H   UNL     1      23.829  29.189  20.925  1.00  0.00     0.211 HD
ENDBRANCH  12  35
BRANCH  13  37
ATOM     37  O   UNL     1      21.591  27.231  18.687  1.00  0.00    -0.387 OA
ATOM     38  H   UNL     1      21.240  26.539  19.307  1.00  0.00     0.211 HD
ENDBRANCH  13  37
BRANCH  14  39
ATOM     39  O   UNL     1      19.243  27.913  19.329  1.00  0.00    -0.387 OA
ATOM     40  H   UNL     1      18.334  28.213  19.541  1.00  0.00     0.211 HD
ENDBRANCH  14  39
ENDBRANCH   8   9
ENDBRANCH   7   8
ENDBRANCH   1   7
BRANCH   1  41
ATOM     41  C   UNL     1      16.370  28.472  19.548  1.00  0.00     0.364 C 
ATOM     42  O   UNL     1      16.353  27.599  20.419  1.00  0.00    -0.246 OA
BRANCH  41  43
ATOM     43  O   UNL     1      16.299  27.998  18.225  1.00  0.00    -0.477 OA
ATOM     44  H   UNL     1      16.640  27.058  18.056  1.00  0.00     0.296 HD
ENDBRANCH  41  43
ENDBRANCH   1  41
BRANCH   3  45
ATOM     45  O   UNL     1      15.653  32.309  20.222  1.00  0.00    -0.391 OA
ATOM     46  H   UNL     1      15.015  33.007  20.473  1.00  0.00     0.211 HD
ENDBRANCH   3  45
BRANCH   5  47
ATOM     47  C   UNL     1      12.990  30.417  20.882  1.00  0.00     0.176 C 
BRANCH  47  48
ATOM     48  O   UNL     1      12.799  31.820  20.930  1.00  0.00    -0.388 OA
ATOM     49  H   UNL     1      13.300  32.232  21.653  1.00  0.00     0.211 HD
ENDBRANCH  47  48
BRANCH  47  50
ATOM     50  C   UNL     1      13.401  30.053  22.299  1.00  0.00     0.165 C 
BRANCH  50  51
ATOM     51  O   UNL     1      12.961  28.832  22.690  1.00  0.00    -0.388 OA
ATOM     52  H   UNL     1      13.624  28.246  23.124  1.00  0.00     0.211 HD
ENDBRANCH  50  51
BRANCH  50  53
ATOM     53  C   UNL     1      12.947  31.132  23.261  1.00  0.00     0.154 C 
BRANCH  53  54
ATOM     54  N   UNL     1      11.605  31.043  23.707  1.00  0.00    -0.319 N 
ATOM     55  C   UNL     1      10.633  32.027  23.500  1.00  0.00     0.407 C 
ATOM     56  H   UNL     1      11.289  30.165  24.247  1.00  0.00     0.167 HD
ATOM     57  O   UNL     1      10.872  33.078  22.883  1.00  0.00    -0.225 OA
BRANCH  55  58
ATOM     58  O   UNL     1       9.313  31.873  23.987  1.00  0.00    -0.443 OA
BRANCH  58  59
ATOM     59  C   UNL     1       8.226  31.681  23.111  1.00  0.00     0.294 C 
BRANCH  59  60
ATOM     60  C   UNL     1       7.312  30.599  23.529  1.00  0.00     0.120 A 
ATOM     61  C   UNL     1       7.279  29.952  24.747  1.00  0.00     0.139 A 
ATOM     62  N   UNL     1       6.333  30.040  22.801  1.00  0.00    -0.132 NA
ATOM     63  N   UNL     1       6.291  29.024  24.729  1.00  0.00    -0.244 N 
ATOM     64  N   UNL     1       5.731  29.099  23.533  1.00  0.00    -0.066 NA
BRANCH  63  65
ATOM     65  C   UNL     1       5.942  28.148  25.819  1.00  0.00     0.082 C 
ATOM     66  C   UNL     1       5.845  28.935  27.092  1.00  0.00     0.039 C 
ATOM     67  C   UNL     1       7.047  27.101  26.027  1.00  0.00     0.039 C 
BRANCH  65  68
ATOM     68  C   UNL     1       4.661  27.394  25.606  1.00  0.00     0.186 C 
BRANCH  68  69
ATOM     69  O   UNL     1       4.772  26.361  24.704  1.00  0.00    -0.394 OA
ATOM     70  H   UNL     1       5.415  26.498  23.991  1.00  0.00     0.210 HD
ENDBRANCH  68  69
ENDBRANCH  65  68
ENDBRANCH  63  65
ENDBRANCH  59  60
ENDBRANCH  58  59
ENDBRANCH  55  58
ENDBRANCH  53  54
ENDBRANCH  50  53
ENDBRANCH  47  50
ENDBRANCH   5  47
BRANCH   4  71
ATOM     71  N   UNL     1      13.843  30.872  17.521  1.00  0.00    -0.348 N 
ATOM     72  C   UNL     1      13.116  31.609  16.556  1.00  0.00     0.217 C 
ATOM     73  H   UNL     1      14.238  29.952  17.159  1.00  0.00     0.163 HD
ATOM     74  C   UNL     1      12.931  31.129  15.161  1.00  0.00     0.114 C 
ATOM     75  O   UNL     1      12.611  32.697  16.878  1.00  0.00    -0.275 OA
ENDBRANCH   4  71
TORSDOF 32
