REMARK VINA RESULT:    -5.795     10.377     15.892
REMARK INTER + INTRA:         -22.544
REMARK INTER:                 -16.394
REMARK INTRA:                  -6.150
REMARK UNBOUND:                -7.602
REMARK SMILES CC(=O)N[C@@H]1[C@@H](O)C[C@](OC[C@H]2O[C@@H](O[C@H]3[C@H](O)[C@@H](O)[C@H](OCCN=[N+]=[N-])O[C@@H]3CO)[C@H](O)[C@@H](O)[C@H]2O)(C(=O)O)O[C@H]1C(O)[C@H](O)CNC(=O)OCc1cn(CC(=O)Nc2ncccn2)nn1
REMARK SMILES IDX 9 1 8 2 6 3 5 4 42 5 41 6 10 7 11 8 12 9 14 10 13 11 32 12
REMARK SMILES IDX 34 13 36 14 15 15 16 16 29 17 28 18 21 19 17 20 19 21 30 22
REMARK SMILES IDX 31 23 22 25 23 26 24 27 25 28 26 29 27 30 18 31 20 33 33 35
REMARK SMILES IDX 35 37 37 39 38 41 39 42 40 43 7 45 43 47 44 48 45 50 46 51
REMARK SMILES IDX 47 53 48 54 49 55 50 57 51 58 52 59 53 60 54 61 67 62 55 63
REMARK SMILES IDX 66 64 56 65 57 66 58 67 59 68 60 70 61 71 65 72 62 73 64 74
REMARK SMILES IDX 63 75 4 76 2 77 1 79 3 80
REMARK H PARENT 31 24 18 32 20 34 33 36 35 38 37 40 40 44 7 46 44 49 46 52
REMARK H PARENT 48 56 59 69 4 78
REMARK Flexibility Score: inf
ROOT
ATOM      1  C   UNL     1      32.419  17.591  26.516  1.00  0.00     0.272 C 
ATOM      2  C   UNL     1      31.539  17.143  27.671  1.00  0.00     0.113 C 
ATOM      3  C   UNL     1      32.329  16.997  28.908  1.00  0.00     0.145 C 
ATOM      4  C   UNL     1      33.299  18.130  29.207  1.00  0.00     0.142 C 
ATOM      5  C   UNL     1      33.769  18.830  28.013  1.00  0.00     0.178 C 
ATOM      6  O   UNL     1      32.811  18.891  27.011  1.00  0.00    -0.332 OA
ENDROOT
BRANCH   1   7
ATOM      7  O   UNL     1      31.653  17.819  25.456  1.00  0.00    -0.338 OA
BRANCH   7   8
ATOM      8  C   UNL     1      31.742  17.926  24.192  1.00  0.00     0.199 C 
BRANCH   8   9
ATOM      9  C   UNL     1      31.743  19.167  23.363  1.00  0.00     0.179 C 
ATOM     10  C   UNL     1      30.239  20.850  22.764  1.00  0.00     0.282 C 
ATOM     11  O   UNL     1      30.362  19.645  23.381  1.00  0.00    -0.341 OA
ATOM     12  C   UNL     1      30.717  21.980  23.731  1.00  0.00     0.202 C 
ATOM     13  C   UNL     1      31.554  21.211  24.734  1.00  0.00     0.179 C 
ATOM     14  C   UNL     1      32.495  20.343  23.868  1.00  0.00     0.177 C 
BRANCH  10  15
ATOM     15  O   UNL     1      28.887  21.099  22.489  1.00  0.00    -0.341 OA
BRANCH  15  16
ATOM     16  C   UNL     1      28.566  20.903  21.152  1.00  0.00     0.184 C 
ATOM     17  C   UNL     1      29.720  20.121  20.509  1.00  0.00     0.178 C 
ATOM     18  O   UNL     1      30.172  20.753  19.360  1.00  0.00    -0.341 OA
ATOM     19  C   UNL     1      30.709  22.015  19.655  1.00  0.00     0.281 C 
ATOM     20  C   UNL     1      28.332  22.203  20.480  1.00  0.00     0.180 C 
ATOM     21  C   UNL     1      29.543  22.913  19.954  1.00  0.00     0.202 C 
BRANCH  17  22
ATOM     22  C   UNL     1      29.233  18.743  20.094  1.00  0.00     0.191 C 
BRANCH  22  23
ATOM     23  O   UNL     1      28.637  18.080  21.168  1.00  0.00    -0.394 OA
ATOM     24  H   UNL     1      27.763  18.485  21.420  1.00  0.00     0.210 HD
ENDBRANCH  22  23
ENDBRANCH  17  22
BRANCH  19  25
ATOM     25  O   UNL     1      31.362  22.424  18.508  1.00  0.00    -0.350 OA
BRANCH  25  26
ATOM     26  C   UNL     1      31.505  21.429  17.563  1.00  0.00     0.169 C 
BRANCH  26  27
ATOM     27  C   UNL     1      32.941  21.031  17.297  1.00  0.00     0.119 C 
BRANCH  27  28
ATOM     28  N   UNL     1      33.185  19.638  17.635  1.00  0.00    -0.092 NA
ATOM     29  N   UNL     1      33.126  19.228  18.798  1.00  0.00     0.001 N 
ATOM     30  N   UNL     1      33.155  19.040  20.010  1.00  0.00    -0.003 NA
ENDBRANCH  27  28
ENDBRANCH  26  27
ENDBRANCH  25  26
ENDBRANCH  19  25
BRANCH  20  31
ATOM     31  O   UNL     1      27.497  21.990  19.349  1.00  0.00    -0.387 OA
ATOM     32  H   UNL     1      27.154  22.872  19.023  1.00  0.00     0.211 HD
ENDBRANCH  20  31
BRANCH  21  33
ATOM     33  O   UNL     1      29.926  23.883  20.874  1.00  0.00    -0.385 OA
ATOM     34  H   UNL     1      30.789  24.277  20.601  1.00  0.00     0.211 HD
ENDBRANCH  21  33
ENDBRANCH  15  16
ENDBRANCH  10  15
BRANCH  12  35
ATOM     35  O   UNL     1      31.616  22.790  23.027  1.00  0.00    -0.385 OA
ATOM     36  H   UNL     1      31.604  22.463  22.087  1.00  0.00     0.211 HD
ENDBRANCH  12  35
BRANCH  13  37
ATOM     37  O   UNL     1      30.816  20.478  25.623  1.00  0.00    -0.387 OA
ATOM     38  H   UNL     1      30.500  20.988  26.394  1.00  0.00     0.211 HD
ENDBRANCH  13  37
BRANCH  14  39
ATOM     39  O   UNL     1      33.654  20.184  24.542  1.00  0.00    -0.387 OA
ATOM     40  H   UNL     1      33.630  20.596  25.440  1.00  0.00     0.211 HD
ENDBRANCH  14  39
ENDBRANCH   8   9
ENDBRANCH   7   8
ENDBRANCH   1   7
BRANCH   1  41
ATOM     41  C   UNL     1      33.615  16.809  26.286  1.00  0.00     0.364 C 
ATOM     42  O   UNL     1      34.621  17.340  25.705  1.00  0.00    -0.246 OA
BRANCH  41  43
ATOM     43  O   UNL     1      33.789  15.492  26.638  1.00  0.00    -0.477 OA
ATOM     44  H   UNL     1      34.212  14.791  26.079  1.00  0.00     0.296 HD
ENDBRANCH  41  43
ENDBRANCH   1  41
BRANCH   3  45
ATOM     45  O   UNL     1      31.404  16.881  29.975  1.00  0.00    -0.391 OA
ATOM     46  H   UNL     1      31.697  17.487  30.721  1.00  0.00     0.211 HD
ENDBRANCH   3  45
BRANCH   5  47
ATOM     47  C   UNL     1      34.155  20.316  28.240  1.00  0.00     0.176 C 
BRANCH  47  48
ATOM     48  O   UNL     1      34.888  20.879  27.267  1.00  0.00    -0.388 OA
ATOM     49  H   UNL     1      35.601  20.300  26.876  1.00  0.00     0.211 HD
ENDBRANCH  47  48
BRANCH  47  50
ATOM     50  C   UNL     1      33.224  21.103  29.023  1.00  0.00     0.165 C 
BRANCH  50  51
ATOM     51  O   UNL     1      31.981  21.100  28.188  1.00  0.00    -0.388 OA
ATOM     52  H   UNL     1      31.739  20.175  28.024  1.00  0.00     0.211 HD
ENDBRANCH  50  51
BRANCH  50  53
ATOM     53  C   UNL     1      33.399  22.471  29.466  1.00  0.00     0.154 C 
BRANCH  53  54
ATOM     54  N   UNL     1      32.660  23.595  29.122  1.00  0.00    -0.319 N 
ATOM     55  C   UNL     1      32.329  24.232  27.908  1.00  0.00     0.407 C 
ATOM     56  H   UNL     1      32.227  24.118  30.011  1.00  0.00     0.167 HD
ATOM     57  O   UNL     1      32.738  23.793  26.817  1.00  0.00    -0.225 OA
BRANCH  55  58
ATOM     58  O   UNL     1      31.541  25.354  27.880  1.00  0.00    -0.443 OA
BRANCH  58  59
ATOM     59  C   UNL     1      31.162  26.181  28.886  1.00  0.00     0.294 C 
BRANCH  59  60
ATOM     60  C   UNL     1      29.771  25.978  29.352  1.00  0.00     0.120 A 
ATOM     61  C   UNL     1      28.791  26.969  29.497  1.00  0.00     0.138 A 
ATOM     62  N   UNL     1      29.151  24.851  29.799  1.00  0.00    -0.132 NA
ATOM     63  N   UNL     1      27.669  26.444  30.001  1.00  0.00    -0.243 N 
ATOM     64  N   UNL     1      27.928  25.159  30.169  1.00  0.00    -0.067 NA
BRANCH  63  65
ATOM     65  C   UNL     1      26.407  27.085  30.317  1.00  0.00     0.246 C 
BRANCH  65  66
ATOM     66  C   UNL     1      25.491  26.900  29.126  1.00  0.00     0.248 C 
ATOM     67  O   UNL     1      24.776  27.834  28.690  1.00  0.00    -0.272 OA
ATOM     68  N   UNL     1      25.427  25.645  28.471  1.00  0.00    -0.293 N 
ATOM     69  H   UNL     1      26.047  24.900  28.878  1.00  0.00     0.173 HD
BRANCH  68  70
ATOM     70  C   UNL     1      24.635  25.329  27.347  1.00  0.00     0.229 A 
ATOM     71  N   UNL     1      25.056  25.402  26.073  1.00  0.00    -0.221 NA
ATOM     72  N   UNL     1      23.363  24.935  27.562  1.00  0.00    -0.221 NA
ATOM     73  C   UNL     1      24.253  25.097  25.011  1.00  0.00     0.117 A 
ATOM     74  C   UNL     1      22.536  24.624  26.563  1.00  0.00     0.117 A 
ATOM     75  C   UNL     1      22.959  24.697  25.263  1.00  0.00     0.040 A 
ENDBRANCH  68  70
ENDBRANCH  65  66
ENDBRANCH  63  65
ENDBRANCH  59  60
ENDBRANCH  58  59
ENDBRANCH  55  58
ENDBRANCH  53  54
ENDBRANCH  50  53
ENDBRANCH  47  50
ENDBRANCH   5  47
BRANCH   4  76
ATOM     76  N   UNL     1      34.286  17.577  30.085  1.00  0.00    -0.348 N 
ATOM     77  C   UNL     1      34.145  17.659  31.522  1.00  0.00     0.217 C 
ATOM     78  H   UNL     1      35.149  17.090  29.724  1.00  0.00     0.163 HD
ATOM     79  C   UNL     1      35.197  17.062  32.369  1.00  0.00     0.114 C 
ATOM     80  O   UNL     1      33.152  18.226  32.021  1.00  0.00    -0.275 OA
ENDBRANCH   4  76
TORSDOF 32
