REMARK VINA RESULT:    -5.338     12.615     18.514
REMARK INTER + INTRA:         -19.909
REMARK INTER:                 -13.140
REMARK INTRA:                  -6.769
REMARK UNBOUND:                -6.769
REMARK SMILES CC(=O)N[C@@H]1[C@@H](O)C[C@](OC[C@H]2O[C@@H](O[C@H]3[C@H](O)[C@@H](O)[C@H](OCCN=[N+]=[N-])O[C@@H]3CO)[C@H](O)[C@@H](O)[C@H]2O)(C(=O)O)O[C@H]1C(O)[C@H](O)CNC(=O)OCc1cn(-c2cccnc2)nn1
REMARK SMILES IDX 9 1 8 2 6 3 5 4 42 5 41 6 10 7 11 8 12 9 14 10 13 11 32 12
REMARK SMILES IDX 34 13 36 14 15 15 16 16 29 17 28 18 21 19 17 20 19 21 30 22
REMARK SMILES IDX 31 23 22 25 23 26 24 27 25 28 26 29 27 30 18 31 20 33 33 35
REMARK SMILES IDX 35 37 37 39 38 41 39 42 40 43 7 45 43 47 44 48 45 50 46 51
REMARK SMILES IDX 47 53 48 54 49 55 50 57 51 58 52 59 53 60 54 61 63 62 55 63
REMARK SMILES IDX 62 64 56 65 57 66 61 67 58 68 60 69 59 70 4 71 2 72 1 74
REMARK SMILES IDX 3 75
REMARK H PARENT 31 24 18 32 20 34 33 36 35 38 37 40 40 44 7 46 44 49 46 52
REMARK H PARENT 48 56 4 73
REMARK Flexibility Score: inf
ROOT
ATOM      1  C   UNL     1       4.746  23.642  33.591  1.00  0.00     0.272 C 
ATOM      2  C   UNL     1       5.699  22.999  32.667  1.00  0.00     0.113 C 
ATOM      3  C   UNL     1       5.567  21.516  32.662  1.00  0.00     0.145 C 
ATOM      4  C   UNL     1       4.143  21.023  32.723  1.00  0.00     0.142 C 
ATOM      5  C   UNL     1       3.138  22.118  32.769  1.00  0.00     0.178 C 
ATOM      6  O   UNL     1       3.467  23.121  33.670  1.00  0.00    -0.332 OA
ENDROOT
BRANCH   1   7
ATOM      7  O   UNL     1       4.552  24.991  33.298  1.00  0.00    -0.338 OA
BRANCH   7   8
ATOM      8  C   UNL     1       4.721  25.372  32.006  1.00  0.00     0.199 C 
BRANCH   8   9
ATOM      9  C   UNL     1       3.574  26.345  31.671  1.00  0.00     0.179 C 
ATOM     10  C   UNL     1       4.900  28.273  31.569  1.00  0.00     0.282 C 
ATOM     11  O   UNL     1       3.854  27.574  32.130  1.00  0.00    -0.341 OA
ATOM     12  C   UNL     1       4.894  28.116  30.087  1.00  0.00     0.202 C 
ATOM     13  C   UNL     1       3.475  27.699  29.672  1.00  0.00     0.179 C 
ATOM     14  C   UNL     1       3.222  26.293  30.194  1.00  0.00     0.177 C 
BRANCH  10  15
ATOM     15  O   UNL     1       6.059  27.814  32.192  1.00  0.00    -0.341 OA
BRANCH  15  16
ATOM     16  C   UNL     1       6.672  28.726  32.986  1.00  0.00     0.184 C 
ATOM     17  C   UNL     1       6.704  28.408  34.450  1.00  0.00     0.178 C 
ATOM     18  O   UNL     1       7.797  29.080  34.997  1.00  0.00    -0.341 OA
ATOM     19  C   UNL     1       7.920  30.395  34.560  1.00  0.00     0.281 C 
ATOM     20  C   UNL     1       6.043  30.113  32.913  1.00  0.00     0.180 C 
ATOM     21  C   UNL     1       6.622  30.973  34.046  1.00  0.00     0.202 C 
BRANCH  17  22
ATOM     22  C   UNL     1       6.772  26.972  34.817  1.00  0.00     0.191 C 
BRANCH  22  23
ATOM     23  O   UNL     1       7.459  26.222  33.899  1.00  0.00    -0.394 OA
ATOM     24  H   UNL     1       7.093  26.433  33.002  1.00  0.00     0.210 HD
ENDBRANCH  22  23
ENDBRANCH  17  22
BRANCH  19  25
ATOM     25  O   UNL     1       8.890  30.568  33.615  1.00  0.00    -0.350 OA
BRANCH  25  26
ATOM     26  C   UNL     1      10.152  30.164  33.862  1.00  0.00     0.169 C 
BRANCH  26  27
ATOM     27  C   UNL     1      10.786  29.197  32.926  1.00  0.00     0.119 C 
BRANCH  27  28
ATOM     28  N   UNL     1      11.486  28.102  33.503  1.00  0.00    -0.092 NA
ATOM     29  N   UNL     1      11.059  26.930  33.459  1.00  0.00     0.001 N 
ATOM     30  N   UNL     1      10.347  25.980  33.830  1.00  0.00    -0.003 NA
ENDBRANCH  27  28
ENDBRANCH  26  27
ENDBRANCH  25  26
ENDBRANCH  19  25
BRANCH  20  31
ATOM     31  O   UNL     1       6.406  30.720  31.719  1.00  0.00    -0.387 OA
ATOM     32  H   UNL     1       6.915  31.562  31.853  1.00  0.00     0.211 HD
ENDBRANCH  20  31
BRANCH  21  33
ATOM     33  O   UNL     1       5.710  31.133  35.087  1.00  0.00    -0.385 OA
ATOM     34  H   UNL     1       5.662  32.094  35.311  1.00  0.00     0.211 HD
ENDBRANCH  21  33
ENDBRANCH  15  16
ENDBRANCH  10  15
BRANCH  12  35
ATOM     35  O   UNL     1       5.062  29.376  29.481  1.00  0.00    -0.385 OA
ATOM     36  H   UNL     1       5.405  29.228  28.547  1.00  0.00     0.211 HD
ENDBRANCH  12  35
BRANCH  13  37
ATOM     37  O   UNL     1       3.261  27.810  28.322  1.00  0.00    -0.387 OA
ATOM     38  H   UNL     1       3.459  26.948  27.878  1.00  0.00     0.211 HD
ENDBRANCH  13  37
BRANCH  14  39
ATOM     39  O   UNL     1       3.954  25.356  29.495  1.00  0.00    -0.387 OA
ATOM     40  H   UNL     1       3.565  25.291  28.582  1.00  0.00     0.211 HD
ENDBRANCH  14  39
ENDBRANCH   8   9
ENDBRANCH   7   8
ENDBRANCH   1   7
BRANCH   1  41
ATOM     41  C   UNL     1       5.368  23.585  34.972  1.00  0.00     0.364 C 
ATOM     42  O   UNL     1       6.606  23.599  35.065  1.00  0.00    -0.246 OA
BRANCH  41  43
ATOM     43  O   UNL     1       4.622  23.517  36.123  1.00  0.00    -0.477 OA
ATOM     44  H   UNL     1       3.612  23.572  36.169  1.00  0.00     0.296 HD
ENDBRANCH  41  43
ENDBRANCH   1  41
BRANCH   3  45
ATOM     45  O   UNL     1       6.186  21.067  31.473  1.00  0.00    -0.391 OA
ATOM     46  H   UNL     1       6.495  21.806  30.915  1.00  0.00     0.211 HD
ENDBRANCH   3  45
BRANCH   5  47
ATOM     47  C   UNL     1       2.713  22.665  31.448  1.00  0.00     0.176 C 
BRANCH  47  48
ATOM     48  O   UNL     1       1.524  23.410  31.656  1.00  0.00    -0.388 OA
ATOM     49  H   UNL     1       1.775  24.328  31.951  1.00  0.00     0.211 HD
ENDBRANCH  47  48
BRANCH  47  50
ATOM     50  C   UNL     1       2.390  21.671  30.378  1.00  0.00     0.165 C 
BRANCH  50  51
ATOM     51  O   UNL     1       3.644  21.623  29.629  1.00  0.00    -0.388 OA
ATOM     52  H   UNL     1       4.167  20.911  30.071  1.00  0.00     0.211 HD
ENDBRANCH  50  51
BRANCH  50  53
ATOM     53  C   UNL     1       1.421  22.129  29.336  1.00  0.00     0.154 C 
BRANCH  53  54
ATOM     54  N   UNL     1       1.894  23.080  28.383  1.00  0.00    -0.319 N 
ATOM     55  C   UNL     1       1.171  24.325  28.259  1.00  0.00     0.407 C 
ATOM     56  H   UNL     1       2.707  22.988  27.782  1.00  0.00     0.167 HD
ATOM     57  O   UNL     1       0.177  24.501  28.993  1.00  0.00    -0.225 OA
BRANCH  55  58
ATOM     58  O   UNL     1       1.553  25.294  27.366  1.00  0.00    -0.443 OA
BRANCH  58  59
ATOM     59  C   UNL     1       2.112  24.929  26.128  1.00  0.00     0.294 C 
BRANCH  59  60
ATOM     60  C   UNL     1       3.187  25.885  25.789  1.00  0.00     0.121 A 
ATOM     61  C   UNL     1       4.550  25.698  25.782  1.00  0.00     0.144 A 
ATOM     62  N   UNL     1       3.008  27.184  25.403  1.00  0.00    -0.131 NA
ATOM     63  N   UNL     1       5.151  26.838  25.407  1.00  0.00    -0.219 N 
ATOM     64  N   UNL     1       4.191  27.718  25.186  1.00  0.00    -0.062 NA
BRANCH  63  65
ATOM     65  C   UNL     1       6.530  27.155  25.242  1.00  0.00     0.085 A 
ATOM     66  C   UNL     1       7.526  26.206  25.324  1.00  0.00     0.031 A 
ATOM     67  C   UNL     1       6.936  28.453  24.997  1.00  0.00     0.139 A 
ATOM     68  C   UNL     1       8.854  26.538  25.169  1.00  0.00     0.022 A 
ATOM     69  N   UNL     1       8.247  28.768  24.846  1.00  0.00    -0.262 NA
ATOM     70  C   UNL     1       9.219  27.842  24.926  1.00  0.00     0.111 A 
ENDBRANCH  63  65
ENDBRANCH  59  60
ENDBRANCH  58  59
ENDBRANCH  55  58
ENDBRANCH  53  54
ENDBRANCH  50  53
ENDBRANCH  47  50
ENDBRANCH   5  47
BRANCH   4  71
ATOM     71  N   UNL     1       3.956  20.132  33.864  1.00  0.00    -0.348 N 
ATOM     72  C   UNL     1       3.033  19.058  33.886  1.00  0.00     0.217 C 
ATOM     73  H   UNL     1       4.526  20.266  34.744  1.00  0.00     0.163 HD
ATOM     74  C   UNL     1       2.872  18.174  35.083  1.00  0.00     0.114 C 
ATOM     75  O   UNL     1       2.314  18.820  32.878  1.00  0.00    -0.275 OA
ENDBRANCH   4  71
TORSDOF 30
