REMARK VINA RESULT:    -6.666      3.403      7.606
REMARK INTER + INTRA:         -23.211
REMARK INTER:                 -15.521
REMARK INTRA:                  -7.690
REMARK UNBOUND:                -5.634
REMARK SMILES CC(=O)N[C@@H]1[C@@H](O)C[C@](OC[C@H]2O[C@@H](O[C@H]3[C@H](O)[C@@H](O)[C@H](OCCN=[N+]=[N-])O[C@@H]3CO)[C@H](O)[C@@H](O)[C@H]2O)(C(=O)O)O[C@H]1C(O)[C@H](O)CNC(=O)OCc1cn(Cc2ccccc2OC(C)=O)nn1
REMARK SMILES IDX 43 1 42 2 9 3 8 4 41 5 6 6 5 7 10 8 11 9 12 10 14 11 13 12
REMARK SMILES IDX 32 13 34 14 36 15 15 16 16 17 29 18 28 19 21 20 17 21 19 22
REMARK SMILES IDX 30 23 31 24 22 26 23 27 24 28 25 29 26 30 27 31 18 32 20 34
REMARK SMILES IDX 33 36 35 38 37 40 38 42 39 43 40 44 7 46 4 48 2 49 1 51 3 52
REMARK SMILES IDX 44 53 45 55 46 56 47 58 48 59 49 60 50 62 51 63 52 64 53 65
REMARK SMILES IDX 54 66 68 67 55 68 67 69 56 70 57 71 62 72 58 73 61 74 59 75
REMARK SMILES IDX 60 76 63 77 64 78 66 79 65 80
REMARK H PARENT 31 25 18 33 20 35 33 37 35 39 37 41 40 45 7 47 4 50 44 54
REMARK H PARENT 46 57 48 61
REMARK Flexibility Score: inf
ROOT
ATOM      1  C   UNL     1      14.598  28.930  20.918  1.00  0.00     0.176 C 
ENDROOT
BRANCH   1   2
ATOM      2  C   UNL     1      15.524  29.989  21.496  1.00  0.00     0.178 C 
ATOM      3  C   UNL     1      17.789  30.427  21.832  1.00  0.00     0.272 C 
ATOM      4  C   UNL     1      17.144  31.438  22.774  1.00  0.00     0.113 C 
ATOM      5  O   UNL     1      16.804  29.485  21.449  1.00  0.00    -0.332 OA
ATOM      6  C   UNL     1      16.257  30.636  23.712  1.00  0.00     0.145 C 
ATOM      7  C   UNL     1      15.073  30.192  22.943  1.00  0.00     0.142 C 
BRANCH   3   8
ATOM      8  O   UNL     1      18.786  29.705  22.415  1.00  0.00    -0.338 OA
BRANCH   8   9
ATOM      9  C   UNL     1      20.068  30.137  22.289  1.00  0.00     0.199 C 
BRANCH   9  10
ATOM     10  C   UNL     1      20.986  28.904  22.367  1.00  0.00     0.179 C 
ATOM     11  C   UNL     1      21.233  26.913  23.488  1.00  0.00     0.282 C 
ATOM     12  O   UNL     1      20.365  28.037  23.272  1.00  0.00    -0.341 OA
ATOM     13  C   UNL     1      21.123  26.099  22.248  1.00  0.00     0.202 C 
ATOM     14  C   UNL     1      21.764  26.936  21.127  1.00  0.00     0.179 C 
ATOM     15  C   UNL     1      21.141  28.286  21.015  1.00  0.00     0.177 C 
BRANCH  11  16
ATOM     16  O   UNL     1      20.776  26.362  24.660  1.00  0.00    -0.341 OA
BRANCH  16  17
ATOM     17  C   UNL     1      21.730  26.480  25.687  1.00  0.00     0.184 C 
ATOM     18  C   UNL     1      22.535  27.724  25.625  1.00  0.00     0.178 C 
ATOM     19  O   UNL     1      23.903  27.500  25.810  1.00  0.00    -0.341 OA
ATOM     20  C   UNL     1      24.204  26.669  26.881  1.00  0.00     0.281 C 
ATOM     21  C   UNL     1      22.778  25.334  25.427  1.00  0.00     0.180 C 
ATOM     22  C   UNL     1      23.603  25.278  26.683  1.00  0.00     0.202 C 
BRANCH  18  23
ATOM     23  C   UNL     1      22.041  28.873  26.447  1.00  0.00     0.191 C 
BRANCH  23  24
ATOM     24  O   UNL     1      20.665  28.977  26.307  1.00  0.00    -0.394 OA
ATOM     25  H   UNL     1      20.338  29.794  26.736  1.00  0.00     0.210 HD
ENDBRANCH  23  24
ENDBRANCH  18  23
BRANCH  20  26
ATOM     26  O   UNL     1      23.726  27.162  28.043  1.00  0.00    -0.350 OA
BRANCH  26  27
ATOM     27  C   UNL     1      23.635  26.397  29.146  1.00  0.00     0.169 C 
BRANCH  27  28
ATOM     28  C   UNL     1      22.572  26.695  30.141  1.00  0.00     0.119 C 
BRANCH  28  29
ATOM     29  N   UNL     1      21.295  26.785  29.521  1.00  0.00    -0.092 NA
ATOM     30  N   UNL     1      20.261  26.877  30.146  1.00  0.00     0.001 N 
ATOM     31  N   UNL     1      19.323  27.229  30.866  1.00  0.00    -0.003 NA
ENDBRANCH  28  29
ENDBRANCH  27  28
ENDBRANCH  26  27
ENDBRANCH  20  26
BRANCH  21  32
ATOM     32  O   UNL     1      22.115  24.167  25.136  1.00  0.00    -0.387 OA
ATOM     33  H   UNL     1      21.928  24.116  24.145  1.00  0.00     0.211 HD
ENDBRANCH  21  32
BRANCH  22  34
ATOM     34  O   UNL     1      24.550  24.279  26.653  1.00  0.00    -0.385 OA
ATOM     35  H   UNL     1      24.515  23.868  25.742  1.00  0.00     0.211 HD
ENDBRANCH  22  34
ENDBRANCH  16  17
ENDBRANCH  11  16
BRANCH  13  36
ATOM     36  O   UNL     1      21.859  24.926  22.282  1.00  0.00    -0.385 OA
ATOM     37  H   UNL     1      21.779  24.419  23.117  1.00  0.00     0.211 HD
ENDBRANCH  13  36
BRANCH  14  38
ATOM     38  O   UNL     1      21.722  26.230  19.923  1.00  0.00    -0.387 OA
ATOM     39  H   UNL     1      22.599  26.397  19.472  1.00  0.00     0.211 HD
ENDBRANCH  14  38
BRANCH  15  40
ATOM     40  O   UNL     1      19.930  28.152  20.340  1.00  0.00    -0.387 OA
ATOM     41  H   UNL     1      19.489  29.002  20.157  1.00  0.00     0.211 HD
ENDBRANCH  15  40
ENDBRANCH   9  10
ENDBRANCH   8   9
ENDBRANCH   3   8
BRANCH   3  42
ATOM     42  C   UNL     1      18.202  31.194  20.636  1.00  0.00     0.364 C 
ATOM     43  O   UNL     1      18.266  32.421  20.627  1.00  0.00    -0.246 OA
BRANCH  42  44
ATOM     44  O   UNL     1      18.532  30.491  19.475  1.00  0.00    -0.477 OA
ATOM     45  H   UNL     1      17.813  30.009  18.916  1.00  0.00     0.296 HD
ENDBRANCH  42  44
ENDBRANCH   3  42
BRANCH   6  46
ATOM     46  O   UNL     1      17.001  29.505  24.061  1.00  0.00    -0.391 OA
ATOM     47  H   UNL     1      17.088  28.848  23.330  1.00  0.00     0.211 HD
ENDBRANCH   6  46
BRANCH   7  48
ATOM     48  N   UNL     1      13.918  30.987  22.996  1.00  0.00    -0.348 N 
ATOM     49  C   UNL     1      12.866  30.809  23.939  1.00  0.00     0.217 C 
ATOM     50  H   UNL     1      13.825  31.769  22.287  1.00  0.00     0.163 HD
ATOM     51  C   UNL     1      11.668  31.663  23.963  1.00  0.00     0.114 C 
ATOM     52  O   UNL     1      13.003  29.888  24.755  1.00  0.00    -0.275 OA
ENDBRANCH   7  48
ENDBRANCH   1   2
BRANCH   1  53
ATOM     53  O   UNL     1      13.332  29.485  20.887  1.00  0.00    -0.388 OA
ATOM     54  H   UNL     1      12.922  29.523  19.998  1.00  0.00     0.211 HD
ENDBRANCH   1  53
BRANCH   1  55
ATOM     55  C   UNL     1      15.071  28.358  19.624  1.00  0.00     0.165 C 
BRANCH  55  56
ATOM     56  O   UNL     1      16.191  27.566  19.892  1.00  0.00    -0.388 OA
ATOM     57  H   UNL     1      16.248  27.314  20.826  1.00  0.00     0.211 HD
ENDBRANCH  55  56
BRANCH  55  58
ATOM     58  C   UNL     1      15.388  29.413  18.592  1.00  0.00     0.154 C 
BRANCH  58  59
ATOM     59  N   UNL     1      16.446  29.072  17.699  1.00  0.00    -0.319 N 
ATOM     60  C   UNL     1      16.344  29.110  16.284  1.00  0.00     0.407 C 
ATOM     61  H   UNL     1      17.377  28.768  18.096  1.00  0.00     0.167 HD
ATOM     62  O   UNL     1      15.246  29.465  15.787  1.00  0.00    -0.225 OA
BRANCH  60  63
ATOM     63  O   UNL     1      17.372  28.780  15.435  1.00  0.00    -0.443 OA
BRANCH  63  64
ATOM     64  C   UNL     1      18.605  29.498  15.404  1.00  0.00     0.294 C 
BRANCH  64  65
ATOM     65  C   UNL     1      19.650  28.808  16.174  1.00  0.00     0.120 A 
ATOM     66  C   UNL     1      20.961  28.708  15.770  1.00  0.00     0.138 A 
ATOM     67  N   UNL     1      19.579  28.173  17.350  1.00  0.00    -0.132 NA
ATOM     68  N   UNL     1      21.645  28.027  16.691  1.00  0.00    -0.248 N 
ATOM     69  N   UNL     1      20.759  27.711  17.655  1.00  0.00    -0.067 NA
BRANCH  68  70
ATOM     70  C   UNL     1      23.044  27.647  16.729  1.00  0.00     0.185 C 
BRANCH  70  71
ATOM     71  C   UNL     1      23.230  26.219  16.452  1.00  0.00     0.016 A 
ATOM     72  C   UNL     1      23.880  25.398  17.307  1.00  0.00     0.135 A 
ATOM     73  C   UNL     1      22.687  25.731  15.260  1.00  0.00     0.009 A 
ATOM     74  C   UNL     1      24.003  24.046  16.982  1.00  0.00     0.047 A 
ATOM     75  C   UNL     1      22.815  24.402  14.951  1.00  0.00     0.001 A 
ATOM     76  C   UNL     1      23.472  23.549  15.807  1.00  0.00     0.004 A 
BRANCH  72  77
ATOM     77  O   UNL     1      24.434  25.833  18.493  1.00  0.00    -0.426 OA
BRANCH  77  78
ATOM     78  C   UNL     1      24.791  24.868  19.441  1.00  0.00     0.308 C 
ATOM     79  O   UNL     1      23.900  24.389  20.177  1.00  0.00    -0.252 OA
ATOM     80  C   UNL     1      26.187  24.437  19.555  1.00  0.00     0.139 C 
ENDBRANCH  77  78
ENDBRANCH  72  77
ENDBRANCH  70  71
ENDBRANCH  68  70
ENDBRANCH  64  65
ENDBRANCH  63  64
ENDBRANCH  60  63
ENDBRANCH  58  59
ENDBRANCH  55  58
ENDBRANCH   1  55
TORSDOF 33
