REMARK VINA RESULT:    -8.855      2.882      5.398
REMARK INTER + INTRA:         -21.136
REMARK INTER:                 -14.312
REMARK INTRA:                  -6.824
REMARK UNBOUND:                 2.731
REMARK SMILES CC(=O)N[C@@H]1[C@@H](O)C[C@](OC[C@H]2O[C@@H](O[C@H]3[C@H](O)[C@@H](O)[C@H](OCCN=[N+]=[N-])O[C@@H]3CO)[C@H](O)[C@@H](O)[C@H]2O)(C(=O)O)O[C@H]1C(O)[C@H](O)CNC(=O)OCc1cn(C2CCc3ccccc3NC2=O)nn1
REMARK SMILES IDX 43 1 42 2 9 3 8 4 41 5 6 6 5 7 10 8 11 9 12 10 14 11 13 12
REMARK SMILES IDX 32 13 34 14 36 15 15 16 16 17 29 18 28 19 21 20 17 21 19 22
REMARK SMILES IDX 30 23 31 24 22 26 23 27 24 28 25 29 26 30 27 31 18 32 20 34
REMARK SMILES IDX 33 36 35 38 37 40 38 42 39 43 40 44 7 46 4 48 2 49 1 51 3 52
REMARK SMILES IDX 44 53 45 55 46 56 47 58 48 59 49 60 50 62 51 63 52 64 53 65
REMARK SMILES IDX 54 66 69 67 55 68 68 69 56 70 57 71 66 73 65 74 67 75 64 77
REMARK SMILES IDX 59 78 63 79 60 80 62 81 61 82 58 83
REMARK H PARENT 31 25 18 33 20 35 33 37 35 39 37 41 40 45 7 47 4 50 44 54
REMARK H PARENT 46 57 48 61 65 76
REMARK Flexibility Score: 90.00
ROOT
ATOM      1  C   UNL     1      18.443  30.275  23.319  1.00  0.00     0.176 C 
ENDROOT
BRANCH   1   2
ATOM      2  C   UNL     1      16.925  30.229  23.586  1.00  0.00     0.178 C 
ATOM      3  C   UNL     1      15.303  30.626  21.883  1.00  0.00     0.272 C 
ATOM      4  C   UNL     1      14.891  31.880  22.542  1.00  0.00     0.113 C 
ATOM      5  O   UNL     1      16.208  29.807  22.562  1.00  0.00    -0.332 OA
ATOM      6  C   UNL     1      15.996  32.523  23.308  1.00  0.00     0.145 C 
ATOM      7  C   UNL     1      16.523  31.493  24.297  1.00  0.00     0.142 C 
BRANCH   3   8
ATOM      8  O   UNL     1      15.808  30.749  20.637  1.00  0.00    -0.338 OA
BRANCH   8   9
ATOM      9  C   UNL     1      15.354  31.569  19.703  1.00  0.00     0.199 C 
BRANCH   9  10
ATOM     10  C   UNL     1      15.034  31.210  18.318  1.00  0.00     0.179 C 
ATOM     11  C   UNL     1      15.989  30.080  16.539  1.00  0.00     0.282 C 
ATOM     12  O   UNL     1      16.041  30.267  17.920  1.00  0.00    -0.341 OA
ATOM     13  C   UNL     1      14.741  30.500  15.870  1.00  0.00     0.202 C 
ATOM     14  C   UNL     1      13.479  30.417  16.657  1.00  0.00     0.179 C 
ATOM     15  C   UNL     1      13.764  30.381  18.138  1.00  0.00     0.177 C 
BRANCH  11  16
ATOM     16  O   UNL     1      16.378  28.753  16.260  1.00  0.00    -0.341 OA
BRANCH  16  17
ATOM     17  C   UNL     1      17.641  28.470  16.709  1.00  0.00     0.184 C 
ATOM     18  C   UNL     1      17.808  28.450  18.206  1.00  0.00     0.178 C 
ATOM     19  O   UNL     1      19.111  28.004  18.438  1.00  0.00    -0.341 OA
ATOM     20  C   UNL     1      20.044  29.004  18.208  1.00  0.00     0.281 C 
ATOM     21  C   UNL     1      18.653  29.472  16.173  1.00  0.00     0.180 C 
ATOM     22  C   UNL     1      19.580  30.014  17.200  1.00  0.00     0.202 C 
BRANCH  18  23
ATOM     23  C   UNL     1      16.884  27.447  18.866  1.00  0.00     0.191 C 
BRANCH  23  24
ATOM     24  O   UNL     1      16.534  27.837  20.157  1.00  0.00    -0.394 OA
ATOM     25  H   UNL     1      16.903  28.710  20.411  1.00  0.00     0.210 HD
ENDBRANCH  23  24
ENDBRANCH  18  23
BRANCH  20  26
ATOM     26  O   UNL     1      21.242  28.414  17.852  1.00  0.00    -0.350 OA
BRANCH  26  27
ATOM     27  C   UNL     1      22.251  28.714  18.751  1.00  0.00     0.169 C 
BRANCH  27  28
ATOM     28  C   UNL     1      23.078  27.547  19.185  1.00  0.00     0.119 C 
BRANCH  28  29
ATOM     29  N   UNL     1      22.936  27.372  20.621  1.00  0.00    -0.092 NA
ATOM     30  N   UNL     1      21.826  27.192  21.154  1.00  0.00     0.001 N 
ATOM     31  N   UNL     1      20.801  26.562  21.453  1.00  0.00    -0.003 NA
ENDBRANCH  28  29
ENDBRANCH  27  28
ENDBRANCH  26  27
ENDBRANCH  20  26
BRANCH  21  32
ATOM     32  O   UNL     1      19.325  28.967  15.050  1.00  0.00    -0.387 OA
ATOM     33  H   UNL     1      19.468  27.994  15.181  1.00  0.00     0.211 HD
ENDBRANCH  21  32
BRANCH  22  34
ATOM     34  O   UNL     1      19.043  31.133  17.878  1.00  0.00    -0.385 OA
ATOM     35  H   UNL     1      18.753  31.833  17.264  1.00  0.00     0.211 HD
ENDBRANCH  22  34
ENDBRANCH  16  17
ENDBRANCH  11  16
BRANCH  13  36
ATOM     36  O   UNL     1      14.922  31.748  15.266  1.00  0.00    -0.385 OA
ATOM     37  H   UNL     1      15.889  31.967  15.238  1.00  0.00     0.211 HD
ENDBRANCH  13  36
BRANCH  14  38
ATOM     38  O   UNL     1      12.644  29.378  16.249  1.00  0.00    -0.387 OA
ATOM     39  H   UNL     1      12.858  28.607  16.837  1.00  0.00     0.211 HD
ENDBRANCH  14  38
BRANCH  15  40
ATOM     40  O   UNL     1      14.027  29.048  18.541  1.00  0.00    -0.387 OA
ATOM     41  H   UNL     1      14.564  28.655  17.819  1.00  0.00     0.211 HD
ENDBRANCH  15  40
ENDBRANCH   9  10
ENDBRANCH   8   9
ENDBRANCH   3   8
BRANCH   3  42
ATOM     42  C   UNL     1      14.082  29.733  21.890  1.00  0.00     0.364 C 
ATOM     43  O   UNL     1      12.981  30.154  22.159  1.00  0.00    -0.246 OA
BRANCH  42  44
ATOM     44  O   UNL     1      14.218  28.376  21.578  1.00  0.00    -0.477 OA
ATOM     45  H   UNL     1      14.847  27.769  22.076  1.00  0.00     0.296 HD
ENDBRANCH  42  44
ENDBRANCH   3  42
BRANCH   6  46
ATOM     46  O   UNL     1      17.003  32.860  22.388  1.00  0.00    -0.391 OA
ATOM     47  H   UNL     1      16.675  32.944  21.477  1.00  0.00     0.211 HD
ENDBRANCH   6  46
BRANCH   7  48
ATOM     48  N   UNL     1      15.553  31.329  25.326  1.00  0.00    -0.348 N 
ATOM     49  C   UNL     1      15.952  31.192  26.686  1.00  0.00     0.217 C 
ATOM     50  H   UNL     1      14.528  31.301  25.111  1.00  0.00     0.163 HD
ATOM     51  C   UNL     1      14.977  31.017  27.796  1.00  0.00     0.114 C 
ATOM     52  O   UNL     1      17.162  31.225  26.936  1.00  0.00    -0.275 OA
ENDBRANCH   7  48
ENDBRANCH   1   2
BRANCH   1  53
ATOM     53  O   UNL     1      19.051  29.165  23.915  1.00  0.00    -0.388 OA
ATOM     54  H   UNL     1      19.936  29.362  24.294  1.00  0.00     0.211 HD
ENDBRANCH   1  53
BRANCH   1  55
ATOM     55  C   UNL     1      18.783  30.268  21.873  1.00  0.00     0.165 C 
BRANCH  55  56
ATOM     56  O   UNL     1      18.918  29.007  21.305  1.00  0.00    -0.388 OA
ATOM     57  H   UNL     1      18.006  28.626  21.197  1.00  0.00     0.211 HD
ENDBRANCH  55  56
BRANCH  55  58
ATOM     58  C   UNL     1      19.974  31.074  21.469  1.00  0.00     0.154 C 
BRANCH  58  59
ATOM     59  N   UNL     1      20.813  31.516  22.540  1.00  0.00    -0.319 N 
ATOM     60  C   UNL     1      22.122  31.037  22.778  1.00  0.00     0.407 C 
ATOM     61  H   UNL     1      20.438  32.238  23.189  1.00  0.00     0.167 HD
ATOM     62  O   UNL     1      22.637  30.166  22.035  1.00  0.00    -0.225 OA
BRANCH  60  63
ATOM     63  O   UNL     1      22.835  31.537  23.842  1.00  0.00    -0.443 OA
BRANCH  63  64
ATOM     64  C   UNL     1      22.361  31.573  25.142  1.00  0.00     0.294 C 
BRANCH  64  65
ATOM     65  C   UNL     1      21.891  30.251  25.561  1.00  0.00     0.120 A 
ATOM     66  C   UNL     1      22.589  29.070  25.479  1.00  0.00     0.139 A 
ATOM     67  N   UNL     1      20.694  29.916  26.099  1.00  0.00    -0.132 NA
ATOM     68  N   UNL     1      21.821  28.061  25.960  1.00  0.00    -0.240 N 
ATOM     69  N   UNL     1      20.682  28.612  26.325  1.00  0.00    -0.066 NA
BRANCH  68  70
ATOM     70  C   UNL     1      22.191  26.639  26.056  1.00  0.00     0.198 C 
BRANCH  70  71
ATOM     71  C   UNL     1      21.622  25.977  24.858  1.00  0.00     0.042 CG0
ATOM     72  G   UNL     1      22.164  24.636  24.504  1.00  0.00     0.000 G0
ENDBRANCH  70  71
BRANCH  70  73
ATOM     73  C   UNL     1      23.651  26.615  26.184  1.00  0.00     0.249 C 
ATOM     74  N   UNL     1      24.653  26.373  25.208  1.00  0.00    -0.324 N 
ATOM     75  O   UNL     1      24.082  26.848  27.346  1.00  0.00    -0.272 OA
ATOM     76  H   UNL     1      25.613  26.749  25.369  1.00  0.00     0.170 HD
BRANCH  74  77
ATOM     77  C   UNL     1      24.426  25.631  23.990  1.00  0.00     0.044 A 
ATOM     78  C   UNL     1      23.338  24.843  23.634  1.00  0.00    -0.024 A 
ATOM     79  C   UNL     1      25.475  25.771  23.107  1.00  0.00     0.026 A 
ATOM     80  C   UNL     1      23.280  24.199  22.420  1.00  0.00     0.006 A 
ATOM     81  C   UNL     1      25.443  25.135  21.882  1.00  0.00     0.002 A 
ATOM     82  C   UNL     1      24.333  24.349  21.552  1.00  0.00     0.000 A 
BRANCH  78  83
ATOM     83  C   UNL     1      22.156  24.630  24.517  1.00  0.00     0.040 CG0
ATOM     84  G   UNL     1      21.618  25.976  24.854  1.00  0.00     0.000 G0
ENDBRANCH  78  83
ENDBRANCH  74  77
ENDBRANCH  70  73
ENDBRANCH  68  70
ENDBRANCH  64  65
ENDBRANCH  63  64
ENDBRANCH  60  63
ENDBRANCH  58  59
ENDBRANCH  55  58
ENDBRANCH   1  55
TORSDOF 30
