REMARK VINA RESULT:    -4.572      3.905      9.857
REMARK INTER + INTRA:         -22.361
REMARK INTER:                 -15.286
REMARK INTRA:                  -7.075
REMARK UNBOUND:               -10.839
REMARK SMILES CC(=O)N[C@@H]1[C@@H](O)C[C@](OC[C@H]2O[C@@H](O[C@H]3[C@H](O)[C@@H](O)[C@H](OCCN=[N+]=[N-])O[C@@H]3CO)[C@H](O)[C@@H](O)[C@H]2O)(C(=O)O)O[C@H]1C(O)[C@H](O)CNC(=O)OCc1cn(-c2ccccc2C(C)C)nn1
REMARK SMILES IDX 9 1 8 2 6 3 5 4 42 5 41 6 10 7 11 8 12 9 14 10 13 11 32 12
REMARK SMILES IDX 34 13 36 14 15 15 16 16 29 17 28 18 21 19 17 20 19 21 30 22
REMARK SMILES IDX 31 23 22 25 23 26 24 27 25 28 26 29 27 30 18 31 20 33 33 35
REMARK SMILES IDX 35 37 37 39 38 41 39 42 40 43 7 45 43 47 44 48 45 50 46 51
REMARK SMILES IDX 47 53 48 54 49 55 50 57 51 58 52 59 53 60 54 61 66 62 55 63
REMARK SMILES IDX 65 64 56 65 61 66 57 67 60 68 58 69 59 70 62 71 63 72 64 73
REMARK SMILES IDX 4 74 2 75 1 77 3 78
REMARK H PARENT 31 24 18 32 20 34 33 36 35 38 37 40 40 44 7 46 44 49 46 52
REMARK H PARENT 48 56 4 76
REMARK Flexibility Score: inf
ROOT
ATOM      1  C   UNL     1       1.007  22.094  34.602  1.00  0.00     0.272 C 
ATOM      2  C   UNL     1       1.546  21.539  35.900  1.00  0.00     0.113 C 
ATOM      3  C   UNL     1       2.997  21.149  35.664  1.00  0.00     0.145 C 
ATOM      4  C   UNL     1       2.981  19.937  34.714  1.00  0.00     0.142 C 
ATOM      5  C   UNL     1       2.117  20.289  33.562  1.00  0.00     0.178 C 
ATOM      6  O   UNL     1       1.875  21.654  33.558  1.00  0.00    -0.332 OA
ENDROOT
BRANCH   1   7
ATOM      7  O   UNL     1       1.097  23.435  34.540  1.00  0.00    -0.338 OA
BRANCH   7   8
ATOM      8  C   UNL     1       1.303  24.241  33.556  1.00  0.00     0.199 C 
BRANCH   8   9
ATOM      9  C   UNL     1       2.549  25.040  33.355  1.00  0.00     0.179 C 
ATOM     10  C   UNL     1       4.737  25.244  33.936  1.00  0.00     0.282 C 
ATOM     11  O   UNL     1       3.530  24.772  34.277  1.00  0.00    -0.341 OA
ATOM     12  C   UNL     1       4.770  26.300  32.840  1.00  0.00     0.202 C 
ATOM     13  C   UNL     1       4.058  25.834  31.598  1.00  0.00     0.179 C 
ATOM     14  C   UNL     1       3.136  24.708  31.964  1.00  0.00     0.177 C 
BRANCH  10  15
ATOM     15  O   UNL     1       5.729  24.348  33.679  1.00  0.00    -0.341 OA
BRANCH  15  16
ATOM     16  C   UNL     1       6.667  24.081  34.644  1.00  0.00     0.184 C 
ATOM     17  C   UNL     1       6.745  25.124  35.710  1.00  0.00     0.178 C 
ATOM     18  O   UNL     1       7.967  25.686  35.838  1.00  0.00    -0.341 OA
ATOM     19  C   UNL     1       9.063  24.905  36.035  1.00  0.00     0.281 C 
ATOM     20  C   UNL     1       8.004  23.708  34.148  1.00  0.00     0.180 C 
ATOM     21  C   UNL     1       8.923  23.547  35.347  1.00  0.00     0.202 C 
BRANCH  17  22
ATOM     22  C   UNL     1       6.308  24.616  37.093  1.00  0.00     0.191 C 
BRANCH  22  23
ATOM     23  O   UNL     1       5.477  23.493  36.879  1.00  0.00    -0.394 OA
ATOM     24  H   UNL     1       4.968  23.364  37.740  1.00  0.00     0.210 HD
ENDBRANCH  22  23
ENDBRANCH  17  22
BRANCH  19  25
ATOM     25  O   UNL     1       9.262  24.676  37.371  1.00  0.00    -0.350 OA
BRANCH  25  26
ATOM     26  C   UNL     1      10.378  25.187  37.954  1.00  0.00     0.169 C 
BRANCH  26  27
ATOM     27  C   UNL     1      11.438  24.246  38.390  1.00  0.00     0.119 C 
BRANCH  27  28
ATOM     28  N   UNL     1      12.185  23.731  37.292  1.00  0.00    -0.092 NA
ATOM     29  N   UNL     1      12.730  24.366  36.411  1.00  0.00     0.001 N 
ATOM     30  N   UNL     1      13.344  25.146  35.693  1.00  0.00    -0.003 NA
ENDBRANCH  27  28
ENDBRANCH  26  27
ENDBRANCH  25  26
ENDBRANCH  19  25
BRANCH  20  31
ATOM     31  O   UNL     1       8.049  22.497  33.461  1.00  0.00    -0.387 OA
ATOM     32  H   UNL     1       8.906  22.061  33.665  1.00  0.00     0.211 HD
ENDBRANCH  20  31
BRANCH  21  33
ATOM     33  O   UNL     1      10.196  23.140  34.941  1.00  0.00    -0.385 OA
ATOM     34  H   UNL     1      10.101  22.771  34.027  1.00  0.00     0.211 HD
ENDBRANCH  21  33
ENDBRANCH  15  16
ENDBRANCH  10  15
BRANCH  12  35
ATOM     35  O   UNL     1       4.192  27.453  33.342  1.00  0.00    -0.385 OA
ATOM     36  H   UNL     1       3.642  27.899  32.623  1.00  0.00     0.211 HD
ENDBRANCH  12  35
BRANCH  13  37
ATOM     37  O   UNL     1       5.007  25.432  30.648  1.00  0.00    -0.387 OA
ATOM     38  H   UNL     1       5.628  26.193  30.535  1.00  0.00     0.211 HD
ENDBRANCH  13  37
BRANCH  14  39
ATOM     39  O   UNL     1       3.855  23.538  32.096  1.00  0.00    -0.387 OA
ATOM     40  H   UNL     1       3.604  22.940  31.348  1.00  0.00     0.211 HD
ENDBRANCH  14  39
ENDBRANCH   8   9
ENDBRANCH   7   8
ENDBRANCH   1   7
BRANCH   1  41
ATOM     41  C   UNL     1      -0.339  21.586  34.309  1.00  0.00     0.364 C 
ATOM     42  O   UNL     1      -0.774  21.785  33.118  1.00  0.00    -0.246 OA
BRANCH  41  43
ATOM     43  O   UNL     1      -1.208  20.927  35.136  1.00  0.00    -0.477 OA
ATOM     44  H   UNL     1      -0.981  20.209  35.799  1.00  0.00     0.296 HD
ENDBRANCH  41  43
ENDBRANCH   1  41
BRANCH   3  45
ATOM     45  O   UNL     1       3.644  22.158  34.944  1.00  0.00    -0.391 OA
ATOM     46  H   UNL     1       3.647  22.967  35.515  1.00  0.00     0.211 HD
ENDBRANCH   3  45
BRANCH   5  47
ATOM     47  C   UNL     1       2.636  19.978  32.191  1.00  0.00     0.176 C 
BRANCH  47  48
ATOM     48  O   UNL     1       3.967  20.526  32.211  1.00  0.00    -0.388 OA
ATOM     49  H   UNL     1       4.304  20.261  31.298  1.00  0.00     0.211 HD
ENDBRANCH  47  48
BRANCH  47  50
ATOM     50  C   UNL     1       1.953  20.647  31.042  1.00  0.00     0.165 C 
BRANCH  50  51
ATOM     51  O   UNL     1       0.625  20.339  30.922  1.00  0.00    -0.388 OA
ATOM     52  H   UNL     1       0.575  19.472  30.441  1.00  0.00     0.211 HD
ENDBRANCH  50  51
BRANCH  50  53
ATOM     53  C   UNL     1       2.769  20.705  29.806  1.00  0.00     0.154 C 
BRANCH  53  54
ATOM     54  N   UNL     1       3.212  22.029  29.413  1.00  0.00    -0.319 N 
ATOM     55  C   UNL     1       2.640  22.705  28.307  1.00  0.00     0.407 C 
ATOM     56  H   UNL     1       3.964  22.540  29.923  1.00  0.00     0.167 HD
ATOM     57  O   UNL     1       1.732  22.224  27.593  1.00  0.00    -0.225 OA
BRANCH  55  58
ATOM     58  O   UNL     1       3.050  24.000  27.909  1.00  0.00    -0.443 OA
BRANCH  58  59
ATOM     59  C   UNL     1       3.612  24.195  26.647  1.00  0.00     0.294 C 
BRANCH  59  60
ATOM     60  C   UNL     1       3.754  25.660  26.413  1.00  0.00     0.121 A 
ATOM     61  C   UNL     1       4.650  26.567  26.934  1.00  0.00     0.144 A 
ATOM     62  N   UNL     1       2.968  26.415  25.581  1.00  0.00    -0.131 NA
ATOM     63  N   UNL     1       4.426  27.800  26.451  1.00  0.00    -0.220 N 
ATOM     64  N   UNL     1       3.382  27.664  25.621  1.00  0.00    -0.062 NA
BRANCH  63  65
ATOM     65  C   UNL     1       5.115  29.017  26.715  1.00  0.00     0.070 A 
ATOM     66  C   UNL     1       6.157  29.395  25.897  1.00  0.00    -0.020 A 
ATOM     67  C   UNL     1       4.804  29.850  27.767  1.00  0.00     0.029 A 
ATOM     68  C   UNL     1       6.858  30.562  26.128  1.00  0.00     0.006 A 
ATOM     69  C   UNL     1       5.496  31.022  28.011  1.00  0.00     0.002 A 
ATOM     70  C   UNL     1       6.538  31.384  27.182  1.00  0.00     0.000 A 
BRANCH  66  71
ATOM     71  C   UNL     1       6.516  28.535  24.751  1.00  0.00     0.015 C 
ATOM     72  C   UNL     1       8.032  28.410  24.713  1.00  0.00     0.012 C 
ATOM     73  C   UNL     1       6.072  29.215  23.446  1.00  0.00     0.012 C 
ENDBRANCH  66  71
ENDBRANCH  63  65
ENDBRANCH  59  60
ENDBRANCH  58  59
ENDBRANCH  55  58
ENDBRANCH  53  54
ENDBRANCH  50  53
ENDBRANCH  47  50
ENDBRANCH   5  47
BRANCH   4  74
ATOM     74  N   UNL     1       2.482  18.814  35.475  1.00  0.00    -0.348 N 
ATOM     75  C   UNL     1       3.182  18.155  36.497  1.00  0.00     0.217 C 
ATOM     76  H   UNL     1       1.510  18.453  35.238  1.00  0.00     0.163 HD
ATOM     77  C   UNL     1       2.525  16.997  37.191  1.00  0.00     0.114 C 
ATOM     78  O   UNL     1       4.320  18.517  36.825  1.00  0.00    -0.275 OA
ENDBRANCH   4  74
TORSDOF 31
