REMARK VINA RESULT:    -6.001      4.759     10.035
REMARK INTER + INTRA:         -23.317
REMARK INTER:                 -15.388
REMARK INTRA:                  -7.929
REMARK UNBOUND:                -7.494
REMARK SMILES CC(=O)N[C@@H]1[C@@H](O)C[C@](OC[C@H]2O[C@@H](O[C@H]3[C@H](O)[C@@H](O)[C@H](OCCN=[N+]=[N-])O[C@@H]3CO)[C@H](O)[C@@H](O)[C@H]2O)(C(=O)O)O[C@H]1C(O)[C@H](O)CNC(=O)OCc1cn(C(C)CC(=O)c2ccccc2)nn1
REMARK SMILES IDX 43 1 42 2 9 3 8 4 41 5 6 6 5 7 10 8 11 9 12 10 14 11 13 12
REMARK SMILES IDX 32 13 34 14 36 15 15 16 16 17 29 18 28 19 21 20 17 21 19 22
REMARK SMILES IDX 30 23 31 24 22 26 23 27 24 28 25 29 26 30 27 31 18 32 20 34
REMARK SMILES IDX 33 36 35 38 37 40 38 42 39 43 40 44 7 46 4 48 2 49 1 51 3 52
REMARK SMILES IDX 44 53 45 55 46 56 47 58 48 59 49 60 50 62 51 63 52 64 53 65
REMARK SMILES IDX 54 66 68 67 55 68 67 69 56 70 57 71 58 72 59 73 60 74 61 75
REMARK SMILES IDX 62 76 66 77 63 78 65 79 64 80
REMARK H PARENT 31 25 18 33 20 35 33 37 35 39 37 41 40 45 7 47 4 50 44 54
REMARK H PARENT 46 57 48 61
REMARK Flexibility Score: inf
ROOT
ATOM      1  C   UNL     1      17.311  33.503  24.885  1.00  0.00     0.176 C 
ENDROOT
BRANCH   1   2
ATOM      2  C   UNL     1      16.341  32.789  25.719  1.00  0.00     0.178 C 
ATOM      3  C   UNL     1      14.738  31.429  24.648  1.00  0.00     0.272 C 
ATOM      4  C   UNL     1      13.693  31.679  25.681  1.00  0.00     0.113 C 
ATOM      5  O   UNL     1      15.984  31.547  25.367  1.00  0.00    -0.332 OA
ATOM      6  C   UNL     1      14.120  32.761  26.655  1.00  0.00     0.145 C 
ATOM      7  C   UNL     1      15.118  33.674  26.050  1.00  0.00     0.142 C 
BRANCH   3   8
ATOM      8  O   UNL     1      14.848  32.151  23.572  1.00  0.00    -0.338 OA
BRANCH   8   9
ATOM      9  C   UNL     1      14.391  32.195  22.371  1.00  0.00     0.199 C 
BRANCH   9  10
ATOM     10  C   UNL     1      14.747  31.318  21.215  1.00  0.00     0.179 C 
ATOM     11  C   UNL     1      16.518  29.832  20.706  1.00  0.00     0.282 C 
ATOM     12  O   UNL     1      16.000  30.878  21.373  1.00  0.00    -0.341 OA
ATOM     13  C   UNL     1      15.644  28.627  20.811  1.00  0.00     0.202 C 
ATOM     14  C   UNL     1      14.221  28.923  20.663  1.00  0.00     0.179 C 
ATOM     15  C   UNL     1      13.744  30.332  20.764  1.00  0.00     0.177 C 
BRANCH  11  16
ATOM     16  O   UNL     1      17.777  29.592  21.320  1.00  0.00    -0.341 OA
BRANCH  16  17
ATOM     17  C   UNL     1      18.781  29.946  20.452  1.00  0.00     0.184 C 
ATOM     18  C   UNL     1      19.296  28.758  19.693  1.00  0.00     0.178 C 
ATOM     19  O   UNL     1      19.915  27.841  20.528  1.00  0.00    -0.341 OA
ATOM     20  C   UNL     1      20.916  28.301  21.325  1.00  0.00     0.281 C 
ATOM     21  C   UNL     1      19.937  30.561  21.269  1.00  0.00     0.180 C 
ATOM     22  C   UNL     1      20.614  29.535  22.102  1.00  0.00     0.202 C 
BRANCH  18  23
ATOM     23  C   UNL     1      20.199  29.175  18.549  1.00  0.00     0.191 C 
BRANCH  23  24
ATOM     24  O   UNL     1      20.731  28.089  17.866  1.00  0.00    -0.394 OA
ATOM     25  H   UNL     1      19.991  27.584  17.433  1.00  0.00     0.210 HD
ENDBRANCH  23  24
ENDBRANCH  18  23
BRANCH  20  26
ATOM     26  O   UNL     1      22.145  28.390  20.720  1.00  0.00    -0.350 OA
BRANCH  26  27
ATOM     27  C   UNL     1      23.171  27.771  21.380  1.00  0.00     0.169 C 
BRANCH  27  28
ATOM     28  C   UNL     1      23.616  26.500  20.709  1.00  0.00     0.119 C 
BRANCH  28  29
ATOM     29  N   UNL     1      23.862  26.782  19.307  1.00  0.00    -0.092 NA
ATOM     30  N   UNL     1      23.284  26.123  18.446  1.00  0.00     0.001 N 
ATOM     31  N   UNL     1      22.551  25.597  17.607  1.00  0.00    -0.003 NA
ENDBRANCH  28  29
ENDBRANCH  27  28
ENDBRANCH  26  27
ENDBRANCH  20  26
BRANCH  21  32
ATOM     32  O   UNL     1      20.803  31.265  20.442  1.00  0.00    -0.387 OA
ATOM     33  H   UNL     1      20.775  30.951  19.506  1.00  0.00     0.211 HD
ENDBRANCH  21  32
BRANCH  22  34
ATOM     34  O   UNL     1      19.927  29.282  23.291  1.00  0.00    -0.385 OA
ATOM     35  H   UNL     1      18.975  29.472  23.093  1.00  0.00     0.211 HD
ENDBRANCH  22  34
ENDBRANCH  16  17
ENDBRANCH  11  16
BRANCH  13  36
ATOM     36  O   UNL     1      16.011  27.679  19.812  1.00  0.00    -0.385 OA
ATOM     37  H   UNL     1      16.041  26.809  20.291  1.00  0.00     0.211 HD
ENDBRANCH  13  36
BRANCH  14  38
ATOM     38  O   UNL     1      13.512  28.113  21.596  1.00  0.00    -0.387 OA
ATOM     39  H   UNL     1      14.115  27.491  22.065  1.00  0.00     0.211 HD
ENDBRANCH  14  38
BRANCH  15  40
ATOM     40  O   UNL     1      12.547  30.331  21.452  1.00  0.00    -0.387 OA
ATOM     41  H   UNL     1      11.789  29.899  21.051  1.00  0.00     0.211 HD
ENDBRANCH  15  40
ENDBRANCH   9  10
ENDBRANCH   8   9
ENDBRANCH   3   8
BRANCH   3  42
ATOM     42  C   UNL     1      14.707  29.934  24.336  1.00  0.00     0.364 C 
ATOM     43  O   UNL     1      15.769  29.311  24.223  1.00  0.00    -0.246 OA
BRANCH  42  44
ATOM     44  O   UNL     1      13.510  29.270  24.184  1.00  0.00    -0.477 OA
ATOM     45  H   UNL     1      13.147  29.177  23.242  1.00  0.00     0.296 HD
ENDBRANCH  42  44
ENDBRANCH   3  42
BRANCH   6  46
ATOM     46  O   UNL     1      13.023  33.422  27.193  1.00  0.00    -0.391 OA
ATOM     47  H   UNL     1      12.217  33.196  26.620  1.00  0.00     0.211 HD
ENDBRANCH   6  46
BRANCH   7  48
ATOM     48  N   UNL     1      15.577  34.651  27.033  1.00  0.00    -0.348 N 
ATOM     49  C   UNL     1      15.537  36.054  26.810  1.00  0.00     0.217 C 
ATOM     50  H   UNL     1      15.950  34.310  27.937  1.00  0.00     0.163 HD
ATOM     51  C   UNL     1      16.001  37.030  27.798  1.00  0.00     0.114 C 
ATOM     52  O   UNL     1      15.079  36.483  25.696  1.00  0.00    -0.275 OA
ENDBRANCH   7  48
ENDBRANCH   1   2
BRANCH   1  53
ATOM     53  O   UNL     1      16.737  34.456  24.009  1.00  0.00    -0.388 OA
ATOM     54  H   UNL     1      15.969  33.988  23.559  1.00  0.00     0.211 HD
ENDBRANCH   1  53
BRANCH   1  55
ATOM     55  C   UNL     1      18.251  32.675  24.036  1.00  0.00     0.165 C 
BRANCH  55  56
ATOM     56  O   UNL     1      18.265  31.349  24.326  1.00  0.00    -0.388 OA
ATOM     57  H   UNL     1      18.930  31.167  25.030  1.00  0.00     0.211 HD
ENDBRANCH  55  56
BRANCH  55  58
ATOM     58  C   UNL     1      19.651  33.271  24.240  1.00  0.00     0.154 C 
BRANCH  58  59
ATOM     59  N   UNL     1      20.325  32.614  25.337  1.00  0.00    -0.319 N 
ATOM     60  C   UNL     1      20.470  33.124  26.647  1.00  0.00     0.407 C 
ATOM     61  H   UNL     1      20.761  31.650  25.192  1.00  0.00     0.167 HD
ATOM     62  O   UNL     1      19.958  34.213  26.971  1.00  0.00    -0.225 OA
BRANCH  60  63
ATOM     63  O   UNL     1      21.198  32.423  27.629  1.00  0.00    -0.443 OA
BRANCH  63  64
ATOM     64  C   UNL     1      20.524  31.378  28.363  1.00  0.00     0.294 C 
BRANCH  64  65
ATOM     65  C   UNL     1      20.785  30.143  27.535  1.00  0.00     0.120 A 
ATOM     66  C   UNL     1      21.801  29.218  27.845  1.00  0.00     0.138 A 
ATOM     67  N   UNL     1      20.234  29.700  26.422  1.00  0.00    -0.132 NA
ATOM     68  N   UNL     1      21.818  28.264  26.902  1.00  0.00    -0.249 N 
ATOM     69  N   UNL     1      20.867  28.567  26.053  1.00  0.00    -0.067 NA
BRANCH  68  70
ATOM     70  C   UNL     1      22.768  27.150  26.892  1.00  0.00     0.114 C 
ATOM     71  C   UNL     1      24.158  27.699  26.964  1.00  0.00     0.034 C 
BRANCH  70  72
ATOM     72  C   UNL     1      22.414  26.144  27.938  1.00  0.00     0.108 C 
BRANCH  72  73
ATOM     73  C   UNL     1      22.662  24.791  27.372  1.00  0.00     0.164 C 
ATOM     74  O   UNL     1      22.711  23.791  28.092  1.00  0.00    -0.294 OA
BRANCH  73  75
ATOM     75  C   UNL     1      22.846  24.692  25.916  1.00  0.00     0.018 A 
ATOM     76  C   UNL     1      24.056  24.556  25.341  1.00  0.00     0.012 A 
ATOM     77  C   UNL     1      21.685  24.740  25.128  1.00  0.00     0.012 A 
ATOM     78  C   UNL     1      24.169  24.457  23.943  1.00  0.00     0.001 A 
ATOM     79  C   UNL     1      21.816  24.642  23.773  1.00  0.00     0.001 A 
ATOM     80  C   UNL     1      23.035  24.502  23.166  1.00  0.00     0.000 A 
ENDBRANCH  73  75
ENDBRANCH  72  73
ENDBRANCH  70  72
ENDBRANCH  68  70
ENDBRANCH  64  65
ENDBRANCH  63  64
ENDBRANCH  60  63
ENDBRANCH  58  59
ENDBRANCH  55  58
ENDBRANCH   1  55
TORSDOF 33
