REMARK VINA RESULT:    -7.237      0.000      0.000
REMARK INTER + INTRA:         -26.866
REMARK INTER:                 -15.891
REMARK INTRA:                 -10.975
REMARK UNBOUND:                -7.995
REMARK SMILES CC(=O)N[C@@H]1[C@@H](O)C[C@](OC[C@H]2O[C@@H](O[C@H]3[C@H](O)[C@@H](O)[C@H](OCCN=[N+]=[N-])O[C@@H]3CO)[C@H](O)[C@@H](O)[C@H]2O)(C(=O)O)O[C@H]1C(O)[C@H](O)CNC(=O)OCc1cn(-c2ccc(-c3c4ccc(=O)cc-4oc4cc(O)ccc34)c(C(=O)[O-])c2)nn1
REMARK SMILES IDX 9 1 8 2 6 3 5 4 42 5 41 6 10 7 11 8 12 9 14 10 13 11 32 12
REMARK SMILES IDX 34 13 36 14 15 15 16 16 29 17 28 18 21 19 17 20 19 21 30 22
REMARK SMILES IDX 31 23 22 25 23 26 24 27 25 28 26 29 27 30 18 31 20 33 33 35
REMARK SMILES IDX 35 37 37 39 38 41 39 42 40 43 7 45 43 47 44 48 45 50 46 51
REMARK SMILES IDX 47 53 48 54 49 55 50 57 51 58 52 59 53 60 54 61 82 62 55 63
REMARK SMILES IDX 81 64 56 65 80 66 57 67 76 68 58 69 59 70 77 71 78 72 79 73
REMARK SMILES IDX 60 74 75 75 61 76 74 77 69 78 67 79 62 80 73 81 70 82 68 83
REMARK SMILES IDX 66 84 63 85 71 86 64 87 65 88 72 89 4 91 2 92 1 94 3 95
REMARK H PARENT 31 24 18 32 20 34 33 36 35 38 37 40 40 44 7 46 44 49 46 52
REMARK H PARENT 48 56 72 90 4 93
REMARK Flexibility Score: inf
ROOT
ATOM      1  C   UNL     1      21.139  30.787  23.734  1.00  0.00     0.272 C 
ATOM      2  C   UNL     1      20.255  31.422  24.779  1.00  0.00     0.113 C 
ATOM      3  C   UNL     1      18.815  31.515  24.362  1.00  0.00     0.145 C 
ATOM      4  C   UNL     1      18.750  31.306  22.870  1.00  0.00     0.142 C 
ATOM      5  C   UNL     1      19.869  32.116  22.272  1.00  0.00     0.178 C 
ATOM      6  O   UNL     1      21.068  31.492  22.508  1.00  0.00    -0.332 OA
ENDROOT
BRANCH   1   7
ATOM      7  O   UNL     1      20.932  29.455  23.503  1.00  0.00    -0.338 OA
BRANCH   7   8
ATOM      8  C   UNL     1      21.155  28.654  24.566  1.00  0.00     0.199 C 
BRANCH   8   9
ATOM      9  C   UNL     1      21.231  27.175  24.157  1.00  0.00     0.179 C 
ATOM     10  C   UNL     1      21.436  25.814  22.307  1.00  0.00     0.282 C 
ATOM     11  O   UNL     1      20.967  26.977  22.852  1.00  0.00    -0.341 OA
ATOM     12  C   UNL     1      21.577  24.682  23.249  1.00  0.00     0.202 C 
ATOM     13  C   UNL     1      22.342  25.047  24.499  1.00  0.00     0.179 C 
ATOM     14  C   UNL     1      22.509  26.556  24.588  1.00  0.00     0.177 C 
BRANCH  10  15
ATOM     15  O   UNL     1      22.560  26.148  21.553  1.00  0.00    -0.341 OA
BRANCH  15  16
ATOM     16  C   UNL     1      22.268  26.710  20.353  1.00  0.00     0.184 C 
ATOM     17  C   UNL     1      22.961  26.032  19.211  1.00  0.00     0.178 C 
ATOM     18  O   UNL     1      22.319  26.342  18.004  1.00  0.00    -0.341 OA
ATOM     19  C   UNL     1      21.988  27.690  17.940  1.00  0.00     0.281 C 
ATOM     20  C   UNL     1      22.715  28.180  20.254  1.00  0.00     0.180 C 
ATOM     21  C   UNL     1      22.864  28.537  18.790  1.00  0.00     0.202 C 
BRANCH  17  22
ATOM     22  C   UNL     1      22.935  24.545  19.393  1.00  0.00     0.191 C 
BRANCH  22  23
ATOM     23  O   UNL     1      22.341  23.966  18.270  1.00  0.00    -0.394 OA
ATOM     24  H   UNL     1      21.850  24.680  17.807  1.00  0.00     0.210 HD
ENDBRANCH  22  23
ENDBRANCH  17  22
BRANCH  19  25
ATOM     25  O   UNL     1      20.652  27.892  18.214  1.00  0.00    -0.350 OA
BRANCH  25  26
ATOM     26  C   UNL     1      20.027  28.802  17.371  1.00  0.00     0.169 C 
BRANCH  26  27
ATOM     27  C   UNL     1      18.549  28.756  17.711  1.00  0.00     0.119 C 
BRANCH  27  28
ATOM     28  N   UNL     1      18.328  28.576  19.121  1.00  0.00    -0.092 NA
ATOM     29  N   UNL     1      17.220  28.176  19.502  1.00  0.00     0.001 N 
ATOM     30  N   UNL     1      16.313  27.563  20.067  1.00  0.00    -0.003 NA
ENDBRANCH  27  28
ENDBRANCH  26  27
ENDBRANCH  25  26
ENDBRANCH  19  25
BRANCH  20  31
ATOM     31  O   UNL     1      21.668  28.941  20.767  1.00  0.00    -0.387 OA
ATOM     32  H   UNL     1      21.721  29.894  20.539  1.00  0.00     0.211 HD
ENDBRANCH  20  31
BRANCH  21  33
ATOM     33  O   UNL     1      24.193  28.537  18.363  1.00  0.00    -0.385 OA
ATOM     34  H   UNL     1      24.565  27.650  18.660  1.00  0.00     0.211 HD
ENDBRANCH  21  33
ENDBRANCH  15  16
ENDBRANCH  10  15
BRANCH  12  35
ATOM     35  O   UNL     1      20.302  24.177  23.611  1.00  0.00    -0.385 OA
ATOM     36  H   UNL     1      19.823  23.905  22.772  1.00  0.00     0.211 HD
ENDBRANCH  12  35
BRANCH  13  37
ATOM     37  O   UNL     1      23.543  24.366  24.603  1.00  0.00    -0.387 OA
ATOM     38  H   UNL     1      24.262  25.033  24.697  1.00  0.00     0.211 HD
ENDBRANCH  13  37
BRANCH  14  39
ATOM     39  O   UNL     1      23.613  26.904  23.821  1.00  0.00    -0.387 OA
ATOM     40  H   UNL     1      24.055  27.656  24.314  1.00  0.00     0.211 HD
ENDBRANCH  14  39
ENDBRANCH   8   9
ENDBRANCH   7   8
ENDBRANCH   1   7
BRANCH   1  41
ATOM     41  C   UNL     1      22.552  31.082  24.200  1.00  0.00     0.364 C 
ATOM     42  O   UNL     1      22.817  31.699  25.247  1.00  0.00    -0.246 OA
BRANCH  41  43
ATOM     43  O   UNL     1      23.635  30.654  23.438  1.00  0.00    -0.477 OA
ATOM     44  H   UNL     1      24.578  30.707  23.797  1.00  0.00     0.296 HD
ENDBRANCH  41  43
ENDBRANCH   1  41
BRANCH   3  45
ATOM     45  O   UNL     1      18.064  30.617  25.095  1.00  0.00    -0.391 OA
ATOM     46  H   UNL     1      17.814  31.060  25.944  1.00  0.00     0.211 HD
ENDBRANCH   3  45
BRANCH   5  47
ATOM     47  C   UNL     1      19.723  32.191  20.748  1.00  0.00     0.176 C 
BRANCH  47  48
ATOM     48  O   UNL     1      19.867  30.878  20.240  1.00  0.00    -0.388 OA
ATOM     49  H   UNL     1      19.516  30.784  19.340  1.00  0.00     0.211 HD
ENDBRANCH  47  48
BRANCH  47  50
ATOM     50  C   UNL     1      20.833  32.987  20.144  1.00  0.00     0.165 C 
BRANCH  50  51
ATOM     51  O   UNL     1      20.317  33.902  19.224  1.00  0.00    -0.388 OA
ATOM     52  H   UNL     1      19.467  33.541  18.864  1.00  0.00     0.211 HD
ENDBRANCH  50  51
BRANCH  50  53
ATOM     53  C   UNL     1      21.944  32.196  19.548  1.00  0.00     0.154 C 
BRANCH  53  54
ATOM     54  N   UNL     1      22.959  31.861  20.521  1.00  0.00    -0.319 N 
ATOM     55  C   UNL     1      24.304  31.561  20.201  1.00  0.00     0.407 C 
ATOM     56  H   UNL     1      22.735  31.824  21.562  1.00  0.00     0.167 HD
ATOM     57  O   UNL     1      24.680  31.577  19.013  1.00  0.00    -0.225 OA
BRANCH  55  58
ATOM     58  O   UNL     1      25.253  31.241  21.164  1.00  0.00    -0.443 OA
BRANCH  58  59
ATOM     59  C   UNL     1      26.517  30.659  20.827  1.00  0.00     0.294 C 
BRANCH  59  60
ATOM     60  C   UNL     1      26.404  29.218  21.164  1.00  0.00     0.121 A 
ATOM     61  C   UNL     1      26.981  28.168  20.504  1.00  0.00     0.144 A 
ATOM     62  N   UNL     1      25.704  28.666  22.197  1.00  0.00    -0.131 NA
ATOM     63  N   UNL     1      26.638  27.017  21.119  1.00  0.00    -0.220 N 
ATOM     64  N   UNL     1      25.862  27.357  22.145  1.00  0.00    -0.062 NA
BRANCH  63  65
ATOM     65  C   UNL     1      27.046  25.715  20.728  1.00  0.00     0.067 A 
ATOM     66  C   UNL     1      28.312  25.454  20.261  1.00  0.00     0.039 A 
ATOM     67  C   UNL     1      26.145  24.683  20.826  1.00  0.00     0.029 A 
ATOM     68  C   UNL     1      28.659  24.173  19.900  1.00  0.00     0.007 A 
ATOM     69  C   UNL     1      26.495  23.401  20.463  1.00  0.00     0.012 A 
ATOM     70  C   UNL     1      27.756  23.117  19.993  1.00  0.00    -0.008 A 
BRANCH  68  71
ATOM     71  C   UNL     1      29.999  23.860  19.399  1.00  0.00     0.072 C 
ATOM     72  O   UNL     1      30.282  23.913  18.178  1.00  0.00    -0.545 OA
ATOM     73  O   UNL     1      30.981  23.498  20.288  1.00  0.00    -0.545 OA
ENDBRANCH  68  71
BRANCH  70  74
ATOM     74  C   UNL     1      28.136  21.769  19.611  1.00  0.00     0.004 A 
ATOM     75  C   UNL     1      27.944  21.367  18.313  1.00  0.00     0.026 A 
ATOM     76  C   UNL     1      28.679  20.881  20.505  1.00  0.00     0.026 A 
ATOM     77  C   UNL     1      27.406  22.188  17.349  1.00  0.00     0.016 A 
ATOM     78  C   UNL     1      28.310  20.072  17.964  1.00  0.00     0.139 A 
ATOM     79  C   UNL     1      29.053  19.513  20.086  1.00  0.00     0.139 A 
ATOM     80  C   UNL     1      28.901  21.211  21.818  1.00  0.00     0.016 A 
ATOM     81  C   UNL     1      27.217  21.773  16.044  1.00  0.00     0.047 A 
ATOM     82  C   UNL     1      28.118  19.667  16.666  1.00  0.00     0.093 A 
ATOM     83  O   UNL     1      28.831  19.225  18.830  1.00  0.00    -0.456 OA
ATOM     84  C   UNL     1      29.595  18.630  20.984  1.00  0.00     0.099 A 
ATOM     85  C   UNL     1      29.449  20.309  22.712  1.00  0.00     0.053 A 
ATOM     86  C   UNL     1      27.577  20.491  15.689  1.00  0.00     0.119 A 
ATOM     87  C   UNL     1      29.786  19.038  22.283  1.00  0.00     0.182 A 
ATOM     88  O   UNL     1      30.281  18.263  23.145  1.00  0.00    -0.290 OA
BRANCH  86  89
ATOM     89  O   UNL     1      27.384  20.083  14.378  1.00  0.00    -0.508 OA
ATOM     90  H   UNL     1      28.059  19.421  14.004  1.00  0.00     0.293 HD
ENDBRANCH  86  89
ENDBRANCH  70  74
ENDBRANCH  63  65
ENDBRANCH  59  60
ENDBRANCH  58  59
ENDBRANCH  55  58
ENDBRANCH  53  54
ENDBRANCH  50  53
ENDBRANCH  47  50
ENDBRANCH   5  47
BRANCH   4  91
ATOM     91  N   UNL     1      17.461  31.660  22.314  1.00  0.00    -0.348 N 
ATOM     92  C   UNL     1      16.461  30.671  22.243  1.00  0.00     0.217 C 
ATOM     93  H   UNL     1      17.234  32.616  21.962  1.00  0.00     0.163 HD
ATOM     94  C   UNL     1      15.106  30.922  21.692  1.00  0.00     0.114 C 
ATOM     95  O   UNL     1      16.676  29.480  22.658  1.00  0.00    -0.275 OA
ENDBRANCH   4  91
TORSDOF 33
