REMARK VINA RESULT:    -4.236      1.671      2.206
REMARK INTER + INTRA:         -22.588
REMARK INTER:                 -15.140
REMARK INTRA:                  -7.448
REMARK UNBOUND:               -11.418
REMARK SMILES CC(=O)N[C@@H]1[C@@H](O)C[C@](OC[C@H]2O[C@@H](O[C@H]3[C@H](O)[C@@H](O)[C@H](OCCN=[N+]=[N-])O[C@@H]3CO)[C@H](O)[C@@H](O)[C@H]2O)(C(=O)O)O[C@H]1C(O)[C@H](O)CNC(=O)OCc1cn(CC(=O)NCc2cccs2)nn1
REMARK SMILES IDX 43 1 42 2 9 3 8 4 41 5 6 6 5 7 10 8 11 9 12 10 14 11 13 12
REMARK SMILES IDX 32 13 34 14 36 15 15 16 16 17 29 18 28 19 21 20 17 21 19 22
REMARK SMILES IDX 30 23 31 24 22 26 23 27 24 28 25 29 26 30 27 31 18 32 20 34
REMARK SMILES IDX 33 36 35 38 37 40 38 42 39 43 40 44 7 46 4 48 2 49 1 51 3 52
REMARK SMILES IDX 44 53 45 55 46 56 47 58 48 59 49 60 50 62 51 63 52 64 53 65
REMARK SMILES IDX 54 66 67 67 55 68 66 69 56 70 57 71 58 72 59 73 60 75 61 76
REMARK SMILES IDX 62 77 65 78 63 79 64 80
REMARK H PARENT 31 25 18 33 20 35 33 37 35 39 37 41 40 45 7 47 4 50 44 54
REMARK H PARENT 46 57 48 61 59 74
REMARK Flexibility Score: inf
ROOT
ATOM      1  C   UNL     1       3.302  24.801  32.166  1.00  0.00     0.176 C 
ENDROOT
BRANCH   1   2
ATOM      2  C   UNL     1       3.952  23.442  32.168  1.00  0.00     0.178 C 
ATOM      3  C   UNL     1       2.478  21.659  31.676  1.00  0.00     0.272 C 
ATOM      4  C   UNL     1       2.114  21.646  33.170  1.00  0.00     0.113 C 
ATOM      5  O   UNL     1       3.287  22.653  31.296  1.00  0.00    -0.332 OA
ATOM      6  C   UNL     1       3.354  21.778  33.957  1.00  0.00     0.145 C 
ATOM      7  C   UNL     1       4.274  22.879  33.497  1.00  0.00     0.142 C 
BRANCH   3   8
ATOM      8  O   UNL     1       1.261  21.732  31.040  1.00  0.00    -0.338 OA
BRANCH   8   9
ATOM      9  C   UNL     1       0.925  22.787  30.295  1.00  0.00     0.199 C 
BRANCH   9  10
ATOM     10  C   UNL     1       0.661  22.610  28.827  1.00  0.00     0.179 C 
ATOM     11  C   UNL     1       0.598  23.968  26.978  1.00  0.00     0.282 C 
ATOM     12  O   UNL     1       1.220  23.760  28.217  1.00  0.00    -0.341 OA
ATOM     13  C   UNL     1       0.470  22.700  26.202  1.00  0.00     0.202 C 
ATOM     14  C   UNL     1       1.277  21.552  26.713  1.00  0.00     0.179 C 
ATOM     15  C   UNL     1       1.416  21.459  28.198  1.00  0.00     0.177 C 
BRANCH  11  16
ATOM     16  O   UNL     1       1.215  24.934  26.233  1.00  0.00    -0.341 OA
BRANCH  16  17
ATOM     17  C   UNL     1       2.301  25.523  26.877  1.00  0.00     0.184 C 
ATOM     18  C   UNL     1       2.237  26.985  26.947  1.00  0.00     0.178 C 
ATOM     19  O   UNL     1       3.119  27.717  26.199  1.00  0.00    -0.341 OA
ATOM     20  C   UNL     1       3.861  27.069  25.265  1.00  0.00     0.281 C 
ATOM     21  C   UNL     1       3.548  24.917  26.297  1.00  0.00     0.180 C 
ATOM     22  C   UNL     1       4.613  25.940  25.993  1.00  0.00     0.202 C 
BRANCH  18  23
ATOM     23  C   UNL     1       2.465  27.457  28.398  1.00  0.00     0.191 C 
BRANCH  23  24
ATOM     24  O   UNL     1       1.750  26.711  29.309  1.00  0.00    -0.394 OA
ATOM     25  H   UNL     1       0.904  26.421  28.872  1.00  0.00     0.210 HD
ENDBRANCH  23  24
ENDBRANCH  18  23
BRANCH  20  26
ATOM     26  O   UNL     1       4.882  27.930  24.829  1.00  0.00    -0.350 OA
BRANCH  26  27
ATOM     27  C   UNL     1       5.476  28.598  25.880  1.00  0.00     0.169 C 
BRANCH  27  28
ATOM     28  C   UNL     1       6.949  28.798  25.513  1.00  0.00     0.119 C 
BRANCH  28  29
ATOM     29  N   UNL     1       7.677  27.563  25.766  1.00  0.00    -0.092 NA
ATOM     30  N   UNL     1       8.803  27.415  25.295  1.00  0.00     0.001 N 
ATOM     31  N   UNL     1      10.011  27.287  25.020  1.00  0.00    -0.003 NA
ENDBRANCH  28  29
ENDBRANCH  27  28
ENDBRANCH  26  27
ENDBRANCH  20  26
BRANCH  21  32
ATOM     32  O   UNL     1       4.061  23.874  27.073  1.00  0.00    -0.387 OA
ATOM     33  H   UNL     1       4.834  23.428  26.609  1.00  0.00     0.211 HD
ENDBRANCH  21  32
BRANCH  22  34
ATOM     34  O   UNL     1       5.550  25.359  25.163  1.00  0.00    -0.385 OA
ATOM     35  H   UNL     1       5.645  24.392  25.363  1.00  0.00     0.211 HD
ENDBRANCH  22  34
ENDBRANCH  16  17
ENDBRANCH  11  16
BRANCH  13  36
ATOM     36  O   UNL     1      -0.882  22.311  26.060  1.00  0.00    -0.385 OA
ATOM     37  H   UNL     1      -1.283  22.599  25.225  1.00  0.00     0.211 HD
ENDBRANCH  13  36
BRANCH  14  38
ATOM     38  O   UNL     1       2.535  21.504  26.067  1.00  0.00    -0.387 OA
ATOM     39  H   UNL     1       2.666  22.326  25.533  1.00  0.00     0.211 HD
ENDBRANCH  14  38
BRANCH  15  40
ATOM     40  O   UNL     1       2.795  21.618  28.479  1.00  0.00    -0.387 OA
ATOM     41  H   UNL     1       3.052  22.565  28.555  1.00  0.00     0.211 HD
ENDBRANCH  15  40
ENDBRANCH   9  10
ENDBRANCH   8   9
ENDBRANCH   3   8
BRANCH   3  42
ATOM     42  C   UNL     1       3.136  20.335  31.449  1.00  0.00     0.364 C 
ATOM     43  O   UNL     1       2.680  19.238  31.844  1.00  0.00    -0.246 OA
BRANCH  42  44
ATOM     44  O   UNL     1       4.336  20.288  30.750  1.00  0.00    -0.477 OA
ATOM     45  H   UNL     1       5.166  20.728  31.126  1.00  0.00     0.296 HD
ENDBRANCH  42  44
ENDBRANCH   3  42
BRANCH   6  46
ATOM     46  O   UNL     1       3.020  21.937  35.333  1.00  0.00    -0.391 OA
ATOM     47  H   UNL     1       2.051  21.863  35.475  1.00  0.00     0.211 HD
ENDBRANCH   6  46
BRANCH   7  48
ATOM     48  N   UNL     1       5.660  22.465  33.589  1.00  0.00    -0.348 N 
ATOM     49  C   UNL     1       6.674  23.421  33.806  1.00  0.00     0.217 C 
ATOM     50  H   UNL     1       5.948  21.455  33.493  1.00  0.00     0.163 HD
ATOM     51  C   UNL     1       8.095  22.976  33.897  1.00  0.00     0.114 C 
ATOM     52  O   UNL     1       6.459  24.650  33.930  1.00  0.00    -0.275 OA
ENDBRANCH   7  48
ENDBRANCH   1   2
BRANCH   1  53
ATOM     53  O   UNL     1       2.803  25.222  33.364  1.00  0.00    -0.388 OA
ATOM     54  H   UNL     1       2.160  24.627  33.805  1.00  0.00     0.211 HD
ENDBRANCH   1  53
BRANCH   1  55
ATOM     55  C   UNL     1       4.068  25.876  31.425  1.00  0.00     0.165 C 
BRANCH  55  56
ATOM     56  O   UNL     1       5.343  25.516  31.109  1.00  0.00    -0.388 OA
ATOM     57  H   UNL     1       5.496  24.549  31.022  1.00  0.00     0.211 HD
ENDBRANCH  55  56
BRANCH  55  58
ATOM     58  C   UNL     1       4.043  27.173  32.216  1.00  0.00     0.154 C 
BRANCH  58  59
ATOM     59  N   UNL     1       5.157  27.306  33.108  1.00  0.00    -0.319 N 
ATOM     60  C   UNL     1       6.226  28.230  33.003  1.00  0.00     0.407 C 
ATOM     61  H   UNL     1       5.246  26.661  33.972  1.00  0.00     0.167 HD
ATOM     62  O   UNL     1       6.294  29.052  32.090  1.00  0.00    -0.225 OA
BRANCH  60  63
ATOM     63  O   UNL     1       7.271  28.249  33.949  1.00  0.00    -0.443 OA
BRANCH  63  64
ATOM     64  C   UNL     1       8.598  27.932  33.680  1.00  0.00     0.294 C 
BRANCH  64  65
ATOM     65  C   UNL     1       9.170  26.888  34.541  1.00  0.00     0.120 A 
ATOM     66  C   UNL     1      10.220  26.048  34.243  1.00  0.00     0.138 A 
ATOM     67  N   UNL     1       8.774  26.557  35.799  1.00  0.00    -0.132 NA
ATOM     68  N   UNL     1      10.435  25.246  35.293  1.00  0.00    -0.243 N 
ATOM     69  N   UNL     1       9.554  25.578  36.206  1.00  0.00    -0.067 NA
BRANCH  68  70
ATOM     70  C   UNL     1      11.414  24.199  35.491  1.00  0.00     0.245 C 
BRANCH  70  71
ATOM     71  C   UNL     1      12.565  24.767  36.218  1.00  0.00     0.242 C 
ATOM     72  O   UNL     1      13.652  24.937  35.637  1.00  0.00    -0.273 OA
ATOM     73  N   UNL     1      12.447  25.124  37.583  1.00  0.00    -0.350 N 
ATOM     74  H   UNL     1      11.540  24.994  38.114  1.00  0.00     0.163 HD
BRANCH  73  75
ATOM     75  C   UNL     1      13.538  25.679  38.322  1.00  0.00     0.162 C 
BRANCH  75  76
ATOM     76  C   UNL     1      13.338  27.128  38.466  1.00  0.00     0.024 A 
ATOM     77  C   UNL     1      14.198  28.129  38.783  1.00  0.00     0.017 A 
ATOM     78  S   UNL     1      11.809  27.962  38.232  1.00  0.00    -0.147 S 
ATOM     79  C   UNL     1      13.747  29.391  38.841  1.00  0.00     0.012 A 
ATOM     80  C   UNL     1      12.453  29.659  38.588  1.00  0.00     0.065 A 
ENDBRANCH  75  76
ENDBRANCH  73  75
ENDBRANCH  70  71
ENDBRANCH  68  70
ENDBRANCH  64  65
ENDBRANCH  63  64
ENDBRANCH  60  63
ENDBRANCH  58  59
ENDBRANCH  55  58
ENDBRANCH   1  55
TORSDOF 33
