REMARK VINA RESULT:    -6.033      5.054     13.530
REMARK INTER + INTRA:         -21.149
REMARK INTER:                 -13.614
REMARK INTRA:                  -7.534
REMARK UNBOUND:                -6.298
REMARK SMILES CC(=O)N[C@@H]1[C@@H](O)C[C@](OC[C@H]2O[C@@H](O[C@H]3[C@H](O)[C@@H](O)[C@H](OCCN=[N+]=[N-])O[C@@H]3CO)[C@H](O)[C@@H](O)[C@H]2O)(C(=O)O)O[C@H]1C(O)[C@H](O)CNC(=O)OCc1cn(-c2c(C)cc(C)cc2C)nn1
REMARK SMILES IDX 9 1 8 2 6 3 5 4 42 5 41 6 10 7 11 8 12 9 14 10 13 11 32 12
REMARK SMILES IDX 34 13 36 14 15 15 16 16 29 17 28 18 21 19 17 20 19 21 30 22
REMARK SMILES IDX 31 23 22 25 23 26 24 27 25 28 26 29 27 30 18 31 20 33 33 35
REMARK SMILES IDX 35 37 37 39 38 41 39 42 40 43 7 45 43 47 44 48 45 50 46 51
REMARK SMILES IDX 47 53 48 54 49 55 50 57 51 58 52 59 53 60 54 61 66 62 55 63
REMARK SMILES IDX 65 64 56 65 57 66 63 67 58 68 59 69 62 70 64 71 60 72 61 73
REMARK SMILES IDX 4 74 2 75 1 77 3 78
REMARK H PARENT 31 24 18 32 20 34 33 36 35 38 37 40 40 44 7 46 44 49 46 52
REMARK H PARENT 48 56 4 76
REMARK Flexibility Score: inf
ROOT
ATOM      1  C   UNL     1      23.557  27.795  20.529  1.00  0.00     0.272 C 
ATOM      2  C   UNL     1      24.265  29.056  20.220  1.00  0.00     0.113 C 
ATOM      3  C   UNL     1      24.399  30.047  21.349  1.00  0.00     0.145 C 
ATOM      4  C   UNL     1      23.190  29.986  22.228  1.00  0.00     0.142 C 
ATOM      5  C   UNL     1      22.071  29.422  21.343  1.00  0.00     0.178 C 
ATOM      6  O   UNL     1      22.351  28.035  21.202  1.00  0.00    -0.332 OA
ENDROOT
BRANCH   1   7
ATOM      7  O   UNL     1      24.255  26.814  21.167  1.00  0.00    -0.338 OA
BRANCH   7   8
ATOM      8  C   UNL     1      24.410  25.604  20.600  1.00  0.00     0.199 C 
BRANCH   8   9
ATOM      9  C   UNL     1      24.092  24.547  21.668  1.00  0.00     0.179 C 
ATOM     10  C   UNL     1      23.518  24.528  23.898  1.00  0.00     0.282 C 
ATOM     11  O   UNL     1      24.376  25.031  22.931  1.00  0.00    -0.341 OA
ATOM     12  C   UNL     1      22.174  25.155  23.630  1.00  0.00     0.202 C 
ATOM     13  C   UNL     1      21.700  24.581  22.303  1.00  0.00     0.179 C 
ATOM     14  C   UNL     1      22.762  23.911  21.504  1.00  0.00     0.177 C 
BRANCH  10  15
ATOM     15  O   UNL     1      23.981  24.630  25.154  1.00  0.00    -0.341 OA
BRANCH  15  16
ATOM     16  C   UNL     1      24.046  25.841  25.742  1.00  0.00     0.184 C 
ATOM     17  C   UNL     1      25.495  26.289  25.821  1.00  0.00     0.178 C 
ATOM     18  O   UNL     1      26.033  26.150  27.065  1.00  0.00    -0.341 OA
ATOM     19  C   UNL     1      25.429  26.918  28.047  1.00  0.00     0.281 C 
ATOM     20  C   UNL     1      23.477  25.731  27.160  1.00  0.00     0.180 C 
ATOM     21  C   UNL     1      23.945  26.905  28.001  1.00  0.00     0.202 C 
BRANCH  17  22
ATOM     22  C   UNL     1      25.665  27.685  25.245  1.00  0.00     0.191 C 
BRANCH  22  23
ATOM     23  O   UNL     1      24.979  27.806  24.040  1.00  0.00    -0.394 OA
ATOM     24  H   UNL     1      25.569  27.893  23.257  1.00  0.00     0.210 HD
ENDBRANCH  22  23
ENDBRANCH  17  22
BRANCH  19  25
ATOM     25  O   UNL     1      25.884  28.244  28.001  1.00  0.00    -0.350 OA
BRANCH  25  26
ATOM     26  C   UNL     1      26.749  28.567  29.016  1.00  0.00     0.169 C 
BRANCH  26  27
ATOM     27  C   UNL     1      26.268  29.633  29.951  1.00  0.00     0.119 C 
BRANCH  27  28
ATOM     28  N   UNL     1      25.892  29.098  31.248  1.00  0.00    -0.092 NA
ATOM     29  N   UNL     1      24.697  28.872  31.523  1.00  0.00     0.001 N 
ATOM     30  N   UNL     1      23.480  28.661  31.577  1.00  0.00    -0.003 NA
ENDBRANCH  27  28
ENDBRANCH  26  27
ENDBRANCH  25  26
ENDBRANCH  19  25
BRANCH  20  31
ATOM     31  O   UNL     1      22.105  25.706  27.191  1.00  0.00    -0.387 OA
ATOM     32  H   UNL     1      21.668  25.676  26.302  1.00  0.00     0.211 HD
ENDBRANCH  20  31
BRANCH  21  33
ATOM     33  O   UNL     1      23.451  26.704  29.287  1.00  0.00    -0.385 OA
ATOM     34  H   UNL     1      23.892  27.315  29.941  1.00  0.00     0.211 HD
ENDBRANCH  21  33
ENDBRANCH  15  16
ENDBRANCH  10  15
BRANCH  12  35
ATOM     35  O   UNL     1      21.224  24.814  24.588  1.00  0.00    -0.385 OA
ATOM     36  H   UNL     1      20.442  24.420  24.093  1.00  0.00     0.211 HD
ENDBRANCH  12  35
BRANCH  13  37
ATOM     37  O   UNL     1      21.092  25.559  21.517  1.00  0.00    -0.387 OA
ATOM     38  H   UNL     1      21.529  25.679  20.635  1.00  0.00     0.211 HD
ENDBRANCH  13  37
BRANCH  14  39
ATOM     39  O   UNL     1      22.368  23.975  20.145  1.00  0.00    -0.387 OA
ATOM     40  H   UNL     1      22.492  23.102  19.706  1.00  0.00     0.211 HD
ENDBRANCH  14  39
ENDBRANCH   8   9
ENDBRANCH   7   8
ENDBRANCH   1   7
BRANCH   1  41
ATOM     41  C   UNL     1      23.081  27.248  19.201  1.00  0.00     0.364 C 
ATOM     42  O   UNL     1      21.965  26.721  19.140  1.00  0.00    -0.246 OA
BRANCH  41  43
ATOM     43  O   UNL     1      23.864  27.326  18.066  1.00  0.00    -0.477 OA
ATOM     44  H   UNL     1      23.916  26.619  17.354  1.00  0.00     0.296 HD
ENDBRANCH  41  43
ENDBRANCH   1  41
BRANCH   3  45
ATOM     45  O   UNL     1      25.593  29.759  22.008  1.00  0.00    -0.391 OA
ATOM     46  H   UNL     1      25.417  29.023  22.679  1.00  0.00     0.211 HD
ENDBRANCH   3  45
BRANCH   5  47
ATOM     47  C   UNL     1      20.721  29.463  21.943  1.00  0.00     0.176 C 
BRANCH  47  48
ATOM     48  O   UNL     1      20.655  28.353  22.862  1.00  0.00    -0.388 OA
ATOM     49  H   UNL     1      20.373  27.547  22.359  1.00  0.00     0.211 HD
ENDBRANCH  47  48
BRANCH  47  50
ATOM     50  C   UNL     1      19.541  29.178  21.035  1.00  0.00     0.165 C 
BRANCH  50  51
ATOM     51  O   UNL     1      19.697  27.760  20.790  1.00  0.00    -0.388 OA
ATOM     52  H   UNL     1      20.227  27.635  19.979  1.00  0.00     0.211 HD
ENDBRANCH  50  51
BRANCH  50  53
ATOM     53  C   UNL     1      19.736  29.771  19.661  1.00  0.00     0.154 C 
BRANCH  53  54
ATOM     54  N   UNL     1      18.545  30.116  18.947  1.00  0.00    -0.319 N 
ATOM     55  C   UNL     1      17.807  29.097  18.273  1.00  0.00     0.407 C 
ATOM     56  H   UNL     1      18.205  31.119  18.907  1.00  0.00     0.167 HD
ATOM     57  O   UNL     1      18.270  27.925  18.343  1.00  0.00    -0.225 OA
BRANCH  55  58
ATOM     58  O   UNL     1      16.636  29.360  17.572  1.00  0.00    -0.443 OA
BRANCH  58  59
ATOM     59  C   UNL     1      15.537  30.011  18.163  1.00  0.00     0.294 C 
BRANCH  59  60
ATOM     60  C   UNL     1      15.301  29.625  19.580  1.00  0.00     0.121 A 
ATOM     61  C   UNL     1      15.132  30.443  20.673  1.00  0.00     0.144 A 
ATOM     62  N   UNL     1      15.207  28.354  20.069  1.00  0.00    -0.131 NA
ATOM     63  N   UNL     1      14.947  29.683  21.765  1.00  0.00    -0.220 N 
ATOM     64  N   UNL     1      15.000  28.420  21.346  1.00  0.00    -0.062 NA
BRANCH  63  65
ATOM     65  C   UNL     1      14.738  30.101  23.128  1.00  0.00     0.072 A 
ATOM     66  C   UNL     1      13.437  30.199  23.554  1.00  0.00    -0.025 A 
ATOM     67  C   UNL     1      15.795  30.378  23.922  1.00  0.00    -0.025 A 
ATOM     68  C   UNL     1      12.288  29.882  22.638  1.00  0.00     0.047 C 
ATOM     69  C   UNL     1      13.216  30.601  24.856  1.00  0.00     0.009 A 
ATOM     70  C   UNL     1      15.522  30.783  25.234  1.00  0.00     0.009 A 
ATOM     71  C   UNL     1      17.216  30.281  23.497  1.00  0.00     0.047 C 
ATOM     72  C   UNL     1      14.241  30.899  25.717  1.00  0.00    -0.050 A 
ATOM     73  C   UNL     1      13.937  31.323  27.106  1.00  0.00     0.044 C 
ENDBRANCH  63  65
ENDBRANCH  59  60
ENDBRANCH  58  59
ENDBRANCH  55  58
ENDBRANCH  53  54
ENDBRANCH  50  53
ENDBRANCH  47  50
ENDBRANCH   5  47
BRANCH   4  74
ATOM     74  N   UNL     1      22.842  31.160  22.903  1.00  0.00    -0.348 N 
ATOM     75  C   UNL     1      22.975  31.326  24.312  1.00  0.00     0.217 C 
ATOM     76  H   UNL     1      22.485  31.977  22.375  1.00  0.00     0.163 HD
ATOM     77  C   UNL     1      22.595  32.596  25.002  1.00  0.00     0.114 C 
ATOM     78  O   UNL     1      23.427  30.367  24.961  1.00  0.00    -0.275 OA
ENDBRANCH   4  74
TORSDOF 30
