REMARK VINA RESULT:    -5.995      8.977     12.857
REMARK INTER + INTRA:         -22.144
REMARK INTER:                 -14.411
REMARK INTRA:                  -7.733
REMARK UNBOUND:                -7.387
REMARK SMILES CC(=O)N[C@@H]1[C@@H](O)C[C@](OC[C@H]2O[C@@H](O[C@H]3[C@H](O)[C@@H](O)[C@H](OCCN=[N+]=[N-])O[C@@H]3CO)[C@H](O)[C@@H](O)[C@H]2O)(C(=O)O)O[C@H]1C(O)[C@H](O)CNC(=O)OCc1cn(C23CC4CC(CC(C4)C2)C3)nn1
REMARK SMILES IDX 9 1 8 2 6 3 5 4 42 5 41 6 10 7 11 8 12 9 14 10 13 11 32 12
REMARK SMILES IDX 34 13 36 14 15 15 16 16 29 17 28 18 21 19 17 20 19 21 30 22
REMARK SMILES IDX 31 23 22 25 23 26 24 27 25 28 26 29 27 30 18 31 20 33 33 35
REMARK SMILES IDX 35 37 37 39 38 41 39 42 40 43 7 45 43 47 44 48 45 50 46 51
REMARK SMILES IDX 47 53 48 54 49 55 50 57 51 58 52 59 53 60 54 61 67 62 55 63
REMARK SMILES IDX 66 64 56 65 65 66 64 67 57 68 60 69 62 70 58 71 59 72 61 73
REMARK SMILES IDX 63 74 4 75 2 76 1 78 3 79
REMARK H PARENT 31 24 18 32 20 34 33 36 35 38 37 40 40 44 7 46 44 49 46 52
REMARK H PARENT 48 56 4 77
REMARK Flexibility Score: inf
ROOT
ATOM      1  C   UNL     1      33.795  19.026  23.795  1.00  0.00     0.272 C 
ATOM      2  C   UNL     1      33.569  20.375  24.386  1.00  0.00     0.113 C 
ATOM      3  C   UNL     1      32.086  20.666  24.506  1.00  0.00     0.145 C 
ATOM      4  C   UNL     1      31.617  20.938  23.070  1.00  0.00     0.142 C 
ATOM      5  C   UNL     1      32.217  19.843  22.239  1.00  0.00     0.178 C 
ATOM      6  O   UNL     1      32.669  18.752  22.937  1.00  0.00    -0.332 OA
ENDROOT
BRANCH   1   7
ATOM      7  O   UNL     1      33.832  17.988  24.618  1.00  0.00    -0.338 OA
BRANCH   7   8
ATOM      8  C   UNL     1      34.628  17.731  25.624  1.00  0.00     0.199 C 
BRANCH   8   9
ATOM      9  C   UNL     1      34.169  17.584  27.036  1.00  0.00     0.179 C 
ATOM     10  C   UNL     1      32.858  18.385  28.676  1.00  0.00     0.282 C 
ATOM     11  O   UNL     1      33.204  18.614  27.328  1.00  0.00    -0.341 OA
ATOM     12  C   UNL     1      31.718  17.420  28.640  1.00  0.00     0.202 C 
ATOM     13  C   UNL     1      31.985  16.444  27.509  1.00  0.00     0.179 C 
ATOM     14  C   UNL     1      33.464  16.253  27.276  1.00  0.00     0.177 C 
BRANCH  10  15
ATOM     15  O   UNL     1      32.586  19.580  29.332  1.00  0.00    -0.341 OA
BRANCH  15  16
ATOM     16  C   UNL     1      33.334  20.581  28.786  1.00  0.00     0.184 C 
ATOM     17  C   UNL     1      34.383  21.196  29.640  1.00  0.00     0.178 C 
ATOM     18  O   UNL     1      35.270  21.851  28.756  1.00  0.00    -0.341 OA
ATOM     19  C   UNL     1      34.667  23.006  28.204  1.00  0.00     0.281 C 
ATOM     20  C   UNL     1      32.469  21.752  28.309  1.00  0.00     0.180 C 
ATOM     21  C   UNL     1      33.353  22.695  27.570  1.00  0.00     0.202 C 
BRANCH  17  22
ATOM     22  C   UNL     1      35.106  20.294  30.567  1.00  0.00     0.191 C 
BRANCH  22  23
ATOM     23  O   UNL     1      34.381  20.250  31.769  1.00  0.00    -0.394 OA
ATOM     24  H   UNL     1      33.550  19.716  31.674  1.00  0.00     0.210 HD
ENDBRANCH  22  23
ENDBRANCH  17  22
BRANCH  19  25
ATOM     25  O   UNL     1      35.540  23.426  27.227  1.00  0.00    -0.350 OA
BRANCH  25  26
ATOM     26  C   UNL     1      35.995  22.494  26.371  1.00  0.00     0.169 C 
BRANCH  26  27
ATOM     27  C   UNL     1      37.227  22.924  25.639  1.00  0.00     0.119 C 
BRANCH  27  28
ATOM     28  N   UNL     1      37.056  22.734  24.193  1.00  0.00    -0.092 NA
ATOM     29  N   UNL     1      36.075  23.248  23.670  1.00  0.00     0.001 N 
ATOM     30  N   UNL     1      35.029  23.464  23.021  1.00  0.00    -0.003 NA
ENDBRANCH  27  28
ENDBRANCH  26  27
ENDBRANCH  25  26
ENDBRANCH  19  25
BRANCH  20  31
ATOM     31  O   UNL     1      31.458  21.320  27.452  1.00  0.00    -0.387 OA
ATOM     32  H   UNL     1      31.737  20.477  27.030  1.00  0.00     0.211 HD
ENDBRANCH  20  31
BRANCH  21  33
ATOM     33  O   UNL     1      32.638  23.879  27.402  1.00  0.00    -0.385 OA
ATOM     34  H   UNL     1      33.229  24.606  27.125  1.00  0.00     0.211 HD
ENDBRANCH  21  33
ENDBRANCH  15  16
ENDBRANCH  10  15
BRANCH  12  35
ATOM     35  O   UNL     1      31.443  16.779  29.821  1.00  0.00    -0.385 OA
ATOM     36  H   UNL     1      31.395  15.803  29.680  1.00  0.00     0.211 HD
ENDBRANCH  12  35
BRANCH  13  37
ATOM     37  O   UNL     1      31.326  16.791  26.337  1.00  0.00    -0.387 OA
ATOM     38  H   UNL     1      30.541  17.384  26.568  1.00  0.00     0.211 HD
ENDBRANCH  13  37
BRANCH  14  39
ATOM     39  O   UNL     1      33.619  15.483  26.131  1.00  0.00    -0.387 OA
ATOM     40  H   UNL     1      34.576  15.372  25.889  1.00  0.00     0.211 HD
ENDBRANCH  14  39
ENDBRANCH   8   9
ENDBRANCH   7   8
ENDBRANCH   1   7
BRANCH   1  41
ATOM     41  C   UNL     1      34.906  19.079  22.831  1.00  0.00     0.364 C 
ATOM     42  O   UNL     1      35.286  18.158  22.096  1.00  0.00    -0.246 OA
BRANCH  41  43
ATOM     43  O   UNL     1      35.589  20.329  22.768  1.00  0.00    -0.477 OA
ATOM     44  H   UNL     1      35.712  20.757  21.875  1.00  0.00     0.296 HD
ENDBRANCH  41  43
ENDBRANCH   1  41
BRANCH   3  45
ATOM     45  O   UNL     1      31.426  19.525  24.944  1.00  0.00    -0.391 OA
ATOM     46  H   UNL     1      32.020  19.076  25.598  1.00  0.00     0.211 HD
ENDBRANCH   3  45
BRANCH   5  47
ATOM     47  C   UNL     1      31.137  19.228  21.270  1.00  0.00     0.176 C 
BRANCH  47  48
ATOM     48  O   UNL     1      31.226  20.120  20.181  1.00  0.00    -0.388 OA
ATOM     49  H   UNL     1      30.300  20.434  20.028  1.00  0.00     0.211 HD
ENDBRANCH  47  48
BRANCH  47  50
ATOM     50  C   UNL     1      29.810  19.308  21.876  1.00  0.00     0.165 C 
BRANCH  50  51
ATOM     51  O   UNL     1      29.452  18.225  22.699  1.00  0.00    -0.388 OA
ATOM     52  H   UNL     1      28.788  17.652  22.210  1.00  0.00     0.211 HD
ENDBRANCH  50  51
BRANCH  50  53
ATOM     53  C   UNL     1      28.664  19.635  20.998  1.00  0.00     0.154 C 
BRANCH  53  54
ATOM     54  N   UNL     1      28.529  21.007  20.673  1.00  0.00    -0.319 N 
ATOM     55  C   UNL     1      28.154  21.575  19.447  1.00  0.00     0.407 C 
ATOM     56  H   UNL     1      28.751  21.701  21.493  1.00  0.00     0.167 HD
ATOM     57  O   UNL     1      27.906  20.864  18.461  1.00  0.00    -0.225 OA
BRANCH  55  58
ATOM     58  O   UNL     1      28.063  22.985  19.355  1.00  0.00    -0.443 OA
BRANCH  58  59
ATOM     59  C   UNL     1      26.787  23.551  19.189  1.00  0.00     0.294 C 
BRANCH  59  60
ATOM     60  C   UNL     1      26.203  23.849  20.505  1.00  0.00     0.120 A 
ATOM     61  C   UNL     1      24.952  24.368  20.720  1.00  0.00     0.138 A 
ATOM     62  N   UNL     1      26.755  23.679  21.720  1.00  0.00    -0.132 NA
ATOM     63  N   UNL     1      24.789  24.493  22.040  1.00  0.00    -0.246 N 
ATOM     64  N   UNL     1      25.895  24.069  22.619  1.00  0.00    -0.066 NA
BRANCH  63  65
ATOM     65  C   UNL     1      23.579  25.011  22.647  1.00  0.00     0.065 C 
ATOM     66  C   UNL     1      22.406  24.576  21.827  1.00  0.00     0.034 C 
ATOM     67  C   UNL     1      23.493  24.568  24.094  1.00  0.00     0.034 C 
ATOM     68  C   UNL     1      23.618  26.528  22.647  1.00  0.00     0.034 C 
ATOM     69  C   UNL     1      21.120  25.065  22.443  1.00  0.00    -0.008 C 
ATOM     70  C   UNL     1      22.179  25.009  24.667  1.00  0.00    -0.008 C 
ATOM     71  C   UNL     1      22.341  27.014  23.292  1.00  0.00    -0.008 C 
ATOM     72  C   UNL     1      21.147  26.572  22.494  1.00  0.00     0.007 C 
ATOM     73  C   UNL     1      21.035  24.502  23.843  1.00  0.00     0.007 C 
ATOM     74  C   UNL     1      22.178  26.530  24.706  1.00  0.00     0.007 C 
ENDBRANCH  63  65
ENDBRANCH  59  60
ENDBRANCH  58  59
ENDBRANCH  55  58
ENDBRANCH  53  54
ENDBRANCH  50  53
ENDBRANCH  47  50
ENDBRANCH   5  47
BRANCH   4  75
ATOM     75  N   UNL     1      32.162  22.237  22.661  1.00  0.00    -0.348 N 
ATOM     76  C   UNL     1      31.312  23.287  22.216  1.00  0.00     0.217 C 
ATOM     77  H   UNL     1      33.199  22.406  22.688  1.00  0.00     0.163 HD
ATOM     78  C   UNL     1      31.892  24.613  21.792  1.00  0.00     0.114 C 
ATOM     79  O   UNL     1      30.080  23.078  22.187  1.00  0.00    -0.275 OA
ENDBRANCH   4  75
TORSDOF 30
