REMARK VINA RESULT:    -6.646      3.369      8.482
REMARK INTER + INTRA:         -21.495
REMARK INTER:                 -11.201
REMARK INTRA:                 -10.294
REMARK UNBOUND:                -4.749
REMARK SMILES CC(=O)N[C@@H]1[C@@H](O)C[C@](OC[C@H]2O[C@@H](O[C@H]3[C@H](O)[C@@H](O)[C@H](OCCN=[N+]=[N-])O[C@@H]3CO)[C@H](O)[C@@H](O)[C@H]2O)(C(=O)O)O[C@H]1C(O)[C@H](O)CNC(=O)OCc1cn(-c2ccccc2C(C)=O)nn1
REMARK SMILES IDX 9 1 8 2 6 3 5 4 42 5 41 6 10 7 11 8 12 9 14 10 13 11 32 12
REMARK SMILES IDX 34 13 36 14 15 15 16 16 29 17 28 18 21 19 17 20 19 21 30 22
REMARK SMILES IDX 31 23 22 25 23 26 24 27 25 28 26 29 27 30 18 31 20 33 33 35
REMARK SMILES IDX 35 37 37 39 38 41 39 42 40 43 7 45 43 47 44 48 45 50 46 51
REMARK SMILES IDX 47 53 48 54 49 55 50 57 51 58 52 59 53 60 54 61 66 62 55 63
REMARK SMILES IDX 65 64 56 65 61 66 57 67 60 68 58 69 59 70 62 71 64 72 63 73
REMARK SMILES IDX 4 74 2 75 1 77 3 78
REMARK H PARENT 31 24 18 32 20 34 33 36 35 38 37 40 40 44 7 46 44 49 46 52
REMARK H PARENT 48 56 4 76
REMARK Flexibility Score: inf
ROOT
ATOM      1  C   UNL     1      25.336  30.039  17.590  1.00  0.00     0.272 C 
ATOM      2  C   UNL     1      26.801  30.351  17.485  1.00  0.00     0.113 C 
ATOM      3  C   UNL     1      27.165  31.276  18.616  1.00  0.00     0.145 C 
ATOM      4  C   UNL     1      26.998  30.433  19.868  1.00  0.00     0.142 C 
ATOM      5  C   UNL     1      25.523  30.145  19.959  1.00  0.00     0.178 C 
ATOM      6  O   UNL     1      24.783  30.346  18.854  1.00  0.00    -0.332 OA
ENDROOT
BRANCH   1   7
ATOM      7  O   UNL     1      24.941  28.827  17.295  1.00  0.00    -0.338 OA
BRANCH   7   8
ATOM      8  C   UNL     1      25.533  27.691  17.100  1.00  0.00     0.199 C 
BRANCH   8   9
ATOM      9  C   UNL     1      24.873  26.378  16.908  1.00  0.00     0.179 C 
ATOM     10  C   UNL     1      24.105  24.581  18.147  1.00  0.00     0.282 C 
ATOM     11  O   UNL     1      24.570  25.882  18.214  1.00  0.00    -0.341 OA
ATOM     12  C   UNL     1      23.703  24.094  16.807  1.00  0.00     0.202 C 
ATOM     13  C   UNL     1      23.088  25.105  15.890  1.00  0.00     0.179 C 
ATOM     14  C   UNL     1      23.464  26.513  16.283  1.00  0.00     0.177 C 
BRANCH  10  15
ATOM     15  O   UNL     1      23.044  24.426  19.038  1.00  0.00    -0.341 OA
BRANCH  15  16
ATOM     16  C   UNL     1      23.288  25.067  20.251  1.00  0.00     0.184 C 
ATOM     17  C   UNL     1      23.606  24.009  21.279  1.00  0.00     0.178 C 
ATOM     18  O   UNL     1      22.729  23.957  22.331  1.00  0.00    -0.341 OA
ATOM     19  C   UNL     1      22.500  25.141  22.987  1.00  0.00     0.281 C 
ATOM     20  C   UNL     1      21.949  25.697  20.661  1.00  0.00     0.180 C 
ATOM     21  C   UNL     1      22.126  26.264  22.033  1.00  0.00     0.202 C 
BRANCH  17  22
ATOM     22  C   UNL     1      25.043  24.204  21.727  1.00  0.00     0.191 C 
BRANCH  22  23
ATOM     23  O   UNL     1      25.329  23.234  22.686  1.00  0.00    -0.394 OA
ATOM     24  H   UNL     1      25.531  22.352  22.323  1.00  0.00     0.210 HD
ENDBRANCH  22  23
ENDBRANCH  17  22
BRANCH  19  25
ATOM     25  O   UNL     1      23.503  25.525  23.856  1.00  0.00    -0.350 OA
BRANCH  25  26
ATOM     26  C   UNL     1      23.082  25.310  25.160  1.00  0.00     0.169 C 
BRANCH  26  27
ATOM     27  C   UNL     1      22.954  26.648  25.871  1.00  0.00     0.119 C 
BRANCH  27  28
ATOM     28  N   UNL     1      21.563  26.863  26.289  1.00  0.00    -0.092 NA
ATOM     29  N   UNL     1      20.870  27.541  25.532  1.00  0.00     0.001 N 
ATOM     30  N   UNL     1      20.101  28.283  24.945  1.00  0.00    -0.003 NA
ENDBRANCH  27  28
ENDBRANCH  26  27
ENDBRANCH  25  26
ENDBRANCH  19  25
BRANCH  20  31
ATOM     31  O   UNL     1      21.576  26.629  19.721  1.00  0.00    -0.387 OA
ATOM     32  H   UNL     1      22.140  27.462  19.773  1.00  0.00     0.211 HD
ENDBRANCH  20  31
BRANCH  21  33
ATOM     33  O   UNL     1      20.999  26.967  22.465  1.00  0.00    -0.385 OA
ATOM     34  H   UNL     1      20.850  27.750  21.852  1.00  0.00     0.211 HD
ENDBRANCH  21  33
ENDBRANCH  15  16
ENDBRANCH  10  15
BRANCH  12  35
ATOM     35  O   UNL     1      24.730  23.370  16.182  1.00  0.00    -0.385 OA
ATOM     36  H   UNL     1      25.240  22.828  16.836  1.00  0.00     0.211 HD
ENDBRANCH  12  35
BRANCH  13  37
ATOM     37  O   UNL     1      21.684  25.036  15.899  1.00  0.00    -0.387 OA
ATOM     38  H   UNL     1      21.362  25.955  15.705  1.00  0.00     0.211 HD
ENDBRANCH  13  37
BRANCH  14  39
ATOM     39  O   UNL     1      22.583  27.029  17.241  1.00  0.00    -0.387 OA
ATOM     40  H   UNL     1      21.989  26.334  17.625  1.00  0.00     0.211 HD
ENDBRANCH  14  39
ENDBRANCH   8   9
ENDBRANCH   7   8
ENDBRANCH   1   7
BRANCH   1  41
ATOM     41  C   UNL     1      24.676  31.078  16.748  1.00  0.00     0.364 C 
ATOM     42  O   UNL     1      23.961  31.988  17.292  1.00  0.00    -0.246 OA
BRANCH  41  43
ATOM     43  O   UNL     1      24.748  31.170  15.382  1.00  0.00    -0.477 OA
ATOM     44  H   UNL     1      25.604  31.388  14.891  1.00  0.00     0.296 HD
ENDBRANCH  41  43
ENDBRANCH   1  41
BRANCH   3  45
ATOM     45  O   UNL     1      28.494  31.643  18.421  1.00  0.00    -0.391 OA
ATOM     46  H   UNL     1      28.588  32.628  18.332  1.00  0.00     0.211 HD
ENDBRANCH   3  45
BRANCH   5  47
ATOM     47  C   UNL     1      25.309  28.738  20.604  1.00  0.00     0.176 C 
BRANCH  47  48
ATOM     48  O   UNL     1      24.007  28.353  20.103  1.00  0.00    -0.388 OA
ATOM     49  H   UNL     1      23.618  27.873  20.897  1.00  0.00     0.211 HD
ENDBRANCH  47  48
BRANCH  47  50
ATOM     50  C   UNL     1      25.182  28.830  22.066  1.00  0.00     0.165 C 
BRANCH  50  51
ATOM     51  O   UNL     1      25.221  27.554  22.682  1.00  0.00    -0.388 OA
ATOM     52  H   UNL     1      26.094  27.124  22.551  1.00  0.00     0.211 HD
ENDBRANCH  50  51
BRANCH  50  53
ATOM     53  C   UNL     1      24.365  29.841  22.734  1.00  0.00     0.154 C 
BRANCH  53  54
ATOM     54  N   UNL     1      22.967  29.619  22.775  1.00  0.00    -0.319 N 
ATOM     55  C   UNL     1      21.966  30.161  21.937  1.00  0.00     0.407 C 
ATOM     56  H   UNL     1      22.580  28.957  23.524  1.00  0.00     0.167 HD
ATOM     57  O   UNL     1      22.311  30.962  21.038  1.00  0.00    -0.225 OA
BRANCH  55  58
ATOM     58  O   UNL     1      20.616  29.862  22.045  1.00  0.00    -0.443 OA
BRANCH  58  59
ATOM     59  C   UNL     1      19.663  30.569  21.294  1.00  0.00     0.294 C 
BRANCH  59  60
ATOM     60  C   UNL     1      19.275  29.696  20.132  1.00  0.00     0.121 A 
ATOM     61  C   UNL     1      18.781  30.104  18.915  1.00  0.00     0.144 A 
ATOM     62  N   UNL     1      19.327  28.360  20.049  1.00  0.00    -0.131 NA
ATOM     63  N   UNL     1      18.554  28.990  18.146  1.00  0.00    -0.220 N 
ATOM     64  N   UNL     1      18.900  27.951  18.876  1.00  0.00    -0.062 NA
BRANCH  63  65
ATOM     65  C   UNL     1      18.004  29.029  16.836  1.00  0.00     0.077 A 
ATOM     66  C   UNL     1      18.699  29.080  15.681  1.00  0.00     0.043 A 
ATOM     67  C   UNL     1      16.596  29.006  16.781  1.00  0.00     0.029 A 
ATOM     68  C   UNL     1      17.970  29.107  14.473  1.00  0.00     0.014 A 
ATOM     69  C   UNL     1      15.911  29.034  15.587  1.00  0.00     0.002 A 
ATOM     70  C   UNL     1      16.607  29.085  14.404  1.00  0.00     0.001 A 
BRANCH  66  71
ATOM     71  C   UNL     1      20.142  29.112  15.642  1.00  0.00     0.161 C 
ATOM     72  O   UNL     1      20.703  27.992  15.332  1.00  0.00    -0.294 OA
ATOM     73  C   UNL     1      21.046  30.234  15.902  1.00  0.00     0.093 C 
ENDBRANCH  66  71
ENDBRANCH  63  65
ENDBRANCH  59  60
ENDBRANCH  58  59
ENDBRANCH  55  58
ENDBRANCH  53  54
ENDBRANCH  50  53
ENDBRANCH  47  50
ENDBRANCH   5  47
BRANCH   4  74
ATOM     74  N   UNL     1      27.522  31.077  21.035  1.00  0.00    -0.348 N 
ATOM     75  C   UNL     1      28.521  30.510  21.864  1.00  0.00     0.217 C 
ATOM     76  H   UNL     1      27.128  32.026  21.269  1.00  0.00     0.163 HD
ATOM     77  C   UNL     1      29.001  31.277  23.066  1.00  0.00     0.114 C 
ATOM     78  O   UNL     1      28.964  29.385  21.555  1.00  0.00    -0.275 OA
ENDBRANCH   4  74
TORSDOF 31
