REMARK VINA RESULT:    -5.928      3.332      9.298
REMARK INTER + INTRA:         -21.979
REMARK INTER:                 -14.592
REMARK INTRA:                  -7.387
REMARK UNBOUND:                -7.387
REMARK SMILES CC(=O)N[C@@H]1[C@@H](O)C[C@](OC[C@H]2O[C@@H](O[C@H]3[C@H](O)[C@@H](O)[C@H](OCCN=[N+]=[N-])O[C@@H]3CO)[C@H](O)[C@@H](O)[C@H]2O)(C(=O)O)O[C@H]1C(O)[C@H](O)CNC(=O)OCc1cn(C23CC4CC(CC(C4)C2)C3)nn1
REMARK SMILES IDX 9 1 8 2 6 3 5 4 42 5 41 6 10 7 11 8 12 9 14 10 13 11 32 12
REMARK SMILES IDX 34 13 36 14 15 15 16 16 29 17 28 18 21 19 17 20 19 21 30 22
REMARK SMILES IDX 31 23 22 25 23 26 24 27 25 28 26 29 27 30 18 31 20 33 33 35
REMARK SMILES IDX 35 37 37 39 38 41 39 42 40 43 7 45 43 47 44 48 45 50 46 51
REMARK SMILES IDX 47 53 48 54 49 55 50 57 51 58 52 59 53 60 54 61 67 62 55 63
REMARK SMILES IDX 66 64 56 65 65 66 64 67 57 68 60 69 62 70 58 71 59 72 61 73
REMARK SMILES IDX 63 74 4 75 2 76 1 78 3 79
REMARK H PARENT 31 24 18 32 20 34 33 36 35 38 37 40 40 44 7 46 44 49 46 52
REMARK H PARENT 48 56 4 77
REMARK Flexibility Score: inf
ROOT
ATOM      1  C   UNL     1      19.450  29.846  23.297  1.00  0.00     0.272 C 
ATOM      2  C   UNL     1      19.812  31.262  23.005  1.00  0.00     0.113 C 
ATOM      3  C   UNL     1      19.617  31.573  21.535  1.00  0.00     0.145 C 
ATOM      4  C   UNL     1      20.777  30.864  20.821  1.00  0.00     0.142 C 
ATOM      5  C   UNL     1      20.828  29.487  21.413  1.00  0.00     0.178 C 
ATOM      6  O   UNL     1      19.703  29.094  22.094  1.00  0.00    -0.332 OA
ENDROOT
BRANCH   1   7
ATOM      7  O   UNL     1      18.184  29.578  23.583  1.00  0.00    -0.338 OA
BRANCH   7   8
ATOM      8  C   UNL     1      17.176  30.382  23.807  1.00  0.00     0.199 C 
BRANCH   8   9
ATOM      9  C   UNL     1      16.060  30.610  22.843  1.00  0.00     0.179 C 
ATOM     10  C   UNL     1      14.609  29.685  21.399  1.00  0.00     0.282 C 
ATOM     11  O   UNL     1      15.643  29.344  22.295  1.00  0.00    -0.341 OA
ATOM     12  C   UNL     1      13.354  29.671  22.211  1.00  0.00     0.202 C 
ATOM     13  C   UNL     1      13.694  30.224  23.582  1.00  0.00     0.179 C 
ATOM     14  C   UNL     1      14.833  31.213  23.518  1.00  0.00     0.177 C 
BRANCH  10  15
ATOM     15  O   UNL     1      14.598  28.833  20.301  1.00  0.00    -0.341 OA
BRANCH  15  16
ATOM     16  C   UNL     1      15.527  29.248  19.393  1.00  0.00     0.184 C 
ATOM     17  C   UNL     1      15.064  29.489  18.002  1.00  0.00     0.178 C 
ATOM     18  O   UNL     1      16.052  30.301  17.398  1.00  0.00    -0.341 OA
ATOM     19  C   UNL     1      17.232  29.559  17.159  1.00  0.00     0.281 C 
ATOM     20  C   UNL     1      16.687  28.256  19.261  1.00  0.00     0.180 C 
ATOM     21  C   UNL     1      17.723  28.885  18.396  1.00  0.00     0.202 C 
BRANCH  17  22
ATOM     22  C   UNL     1      13.709  30.069  17.838  1.00  0.00     0.191 C 
BRANCH  22  23
ATOM     23  O   UNL     1      13.168  29.551  16.650  1.00  0.00    -0.394 OA
ATOM     24  H   UNL     1      13.786  28.905  16.219  1.00  0.00     0.210 HD
ENDBRANCH  22  23
ENDBRANCH  17  22
BRANCH  19  25
ATOM     25  O   UNL     1      18.162  30.495  16.767  1.00  0.00    -0.350 OA
BRANCH  25  26
ATOM     26  C   UNL     1      18.659  30.378  15.522  1.00  0.00     0.169 C 
BRANCH  26  27
ATOM     27  C   UNL     1      20.152  30.457  15.479  1.00  0.00     0.119 C 
BRANCH  27  28
ATOM     28  N   UNL     1      20.731  29.850  16.684  1.00  0.00    -0.092 NA
ATOM     29  N   UNL     1      21.142  28.700  16.594  1.00  0.00     0.001 N 
ATOM     30  N   UNL     1      21.367  27.483  16.766  1.00  0.00    -0.003 NA
ENDBRANCH  27  28
ENDBRANCH  26  27
ENDBRANCH  25  26
ENDBRANCH  19  25
BRANCH  20  31
ATOM     31  O   UNL     1      17.254  27.970  20.502  1.00  0.00    -0.387 OA
ATOM     32  H   UNL     1      17.347  28.806  21.010  1.00  0.00     0.211 HD
ENDBRANCH  20  31
BRANCH  21  33
ATOM     33  O   UNL     1      18.622  27.882  18.040  1.00  0.00    -0.385 OA
ATOM     34  H   UNL     1      19.508  28.062  18.410  1.00  0.00     0.211 HD
ENDBRANCH  21  33
ENDBRANCH  15  16
ENDBRANCH  10  15
BRANCH  12  35
ATOM     35  O   UNL     1      12.276  30.308  21.650  1.00  0.00    -0.385 OA
ATOM     36  H   UNL     1      11.569  29.657  21.429  1.00  0.00     0.211 HD
ENDBRANCH  12  35
BRANCH  13  37
ATOM     37  O   UNL     1      13.942  29.224  24.514  1.00  0.00    -0.387 OA
ATOM     38  H   UNL     1      13.060  28.896  24.882  1.00  0.00     0.211 HD
ENDBRANCH  13  37
BRANCH  14  39
ATOM     39  O   UNL     1      15.186  31.542  24.819  1.00  0.00    -0.387 OA
ATOM     40  H   UNL     1      16.172  31.562  24.939  1.00  0.00     0.211 HD
ENDBRANCH  14  39
ENDBRANCH   8   9
ENDBRANCH   7   8
ENDBRANCH   1   7
BRANCH   1  41
ATOM     41  C   UNL     1      20.424  29.260  24.233  1.00  0.00     0.364 C 
ATOM     42  O   UNL     1      21.357  29.853  24.789  1.00  0.00    -0.246 OA
BRANCH  41  43
ATOM     43  O   UNL     1      20.244  27.870  24.496  1.00  0.00    -0.477 OA
ATOM     44  H   UNL     1      19.966  27.279  23.742  1.00  0.00     0.296 HD
ENDBRANCH  41  43
ENDBRANCH   1  41
BRANCH   3  45
ATOM     45  O   UNL     1      18.441  30.984  21.091  1.00  0.00    -0.391 OA
ATOM     46  H   UNL     1      17.728  31.669  21.154  1.00  0.00     0.211 HD
ENDBRANCH   3  45
BRANCH   5  47
ATOM     47  C   UNL     1      20.959  28.401  20.278  1.00  0.00     0.176 C 
BRANCH  47  48
ATOM     48  O   UNL     1      20.029  27.440  20.728  1.00  0.00    -0.388 OA
ATOM     49  H   UNL     1      20.482  26.569  20.614  1.00  0.00     0.211 HD
ENDBRANCH  47  48
BRANCH  47  50
ATOM     50  C   UNL     1      22.305  27.832  20.277  1.00  0.00     0.165 C 
BRANCH  50  51
ATOM     51  O   UNL     1      23.163  28.304  19.267  1.00  0.00    -0.388 OA
ATOM     52  H   UNL     1      22.698  28.220  18.382  1.00  0.00     0.211 HD
ENDBRANCH  50  51
BRANCH  50  53
ATOM     53  C   UNL     1      22.437  26.359  20.360  1.00  0.00     0.154 C 
BRANCH  53  54
ATOM     54  N   UNL     1      22.867  25.866  21.616  1.00  0.00    -0.319 N 
ATOM     55  C   UNL     1      22.081  25.436  22.694  1.00  0.00     0.407 C 
ATOM     56  H   UNL     1      23.955  25.820  21.748  1.00  0.00     0.167 HD
ATOM     57  O   UNL     1      20.842  25.474  22.639  1.00  0.00    -0.225 OA
BRANCH  55  58
ATOM     58  O   UNL     1      22.732  24.956  23.856  1.00  0.00    -0.443 OA
BRANCH  58  59
ATOM     59  C   UNL     1      21.935  24.628  24.966  1.00  0.00     0.294 C 
BRANCH  59  60
ATOM     60  C   UNL     1      22.315  25.469  26.112  1.00  0.00     0.120 A 
ATOM     61  C   UNL     1      23.419  25.283  26.903  1.00  0.00     0.138 A 
ATOM     62  N   UNL     1      21.679  26.551  26.599  1.00  0.00    -0.132 NA
ATOM     63  N   UNL     1      23.418  26.245  27.830  1.00  0.00    -0.246 N 
ATOM     64  N   UNL     1      22.354  26.996  27.621  1.00  0.00    -0.066 NA
BRANCH  63  65
ATOM     65  C   UNL     1      24.441  26.372  28.848  1.00  0.00     0.065 C 
ATOM     66  C   UNL     1      24.565  27.814  29.228  1.00  0.00     0.034 C 
ATOM     67  C   UNL     1      24.120  25.471  30.023  1.00  0.00     0.034 C 
ATOM     68  C   UNL     1      25.777  25.915  28.289  1.00  0.00     0.034 C 
ATOM     69  C   UNL     1      25.598  27.988  30.312  1.00  0.00    -0.008 C 
ATOM     70  C   UNL     1      25.121  25.708  31.115  1.00  0.00    -0.008 C 
ATOM     71  C   UNL     1      26.803  26.063  29.388  1.00  0.00    -0.008 C 
ATOM     72  C   UNL     1      26.930  27.503  29.798  1.00  0.00     0.007 C 
ATOM     73  C   UNL     1      25.167  27.155  31.498  1.00  0.00     0.007 C 
ATOM     74  C   UNL     1      26.479  25.245  30.606  1.00  0.00     0.007 C 
ENDBRANCH  63  65
ENDBRANCH  59  60
ENDBRANCH  58  59
ENDBRANCH  55  58
ENDBRANCH  53  54
ENDBRANCH  50  53
ENDBRANCH  47  50
ENDBRANCH   5  47
BRANCH   4  75
ATOM     75  N   UNL     1      22.009  31.594  21.139  1.00  0.00    -0.348 N 
ATOM     76  C   UNL     1      23.048  31.741  20.178  1.00  0.00     0.217 C 
ATOM     77  H   UNL     1      22.141  32.017  22.091  1.00  0.00     0.163 HD
ATOM     78  C   UNL     1      24.310  32.489  20.526  1.00  0.00     0.114 C 
ATOM     79  O   UNL     1      22.883  31.235  19.047  1.00  0.00    -0.275 OA
ENDBRANCH   4  75
TORSDOF 30
