REMARK VINA RESULT:    -5.523      5.743     12.832
REMARK INTER + INTRA:         -23.302
REMARK INTER:                 -18.270
REMARK INTRA:                  -5.032
REMARK UNBOUND:                -8.417
REMARK SMILES CC(=O)N[C@@H]1[C@@H](O)C[C@](OC[C@H]2O[C@@H](O[C@H]3[C@H](O)[C@@H](O)[C@H](OCCN=[N+]=[N-])O[C@@H]3CO)[C@H](O)[C@@H](O)[C@H]2O)(C(=O)O)O[C@H]1C(O)[C@H](O)CNC(=O)OCc1cn(CCNC(=O)NCc2ccco2)nn1
REMARK SMILES IDX 43 1 42 2 9 3 8 4 41 5 6 6 5 7 10 8 11 9 12 10 14 11 13 12
REMARK SMILES IDX 32 13 34 14 36 15 15 16 16 17 29 18 28 19 21 20 17 21 19 22
REMARK SMILES IDX 30 23 31 24 22 26 23 27 24 28 25 29 26 30 27 31 18 32 20 34
REMARK SMILES IDX 33 36 35 38 37 40 38 42 39 43 40 44 7 46 4 48 2 49 1 51 3 52
REMARK SMILES IDX 44 53 45 55 46 56 47 58 48 59 49 60 50 62 51 63 52 64 53 65
REMARK SMILES IDX 54 66 69 67 55 68 68 69 56 70 57 71 58 72 59 73 60 75 61 76
REMARK SMILES IDX 62 78 63 79 64 80 67 81 65 82 66 83
REMARK H PARENT 31 25 18 33 20 35 33 37 35 39 37 41 40 45 7 47 4 50 44 54
REMARK H PARENT 46 57 48 61 58 74 61 77
REMARK Flexibility Score: inf
ROOT
ATOM      1  C   UNL     1      21.233  27.413  20.438  1.00  0.00     0.176 C 
ENDROOT
BRANCH   1   2
ATOM      2  C   UNL     1      22.235  27.272  21.539  1.00  0.00     0.178 C 
ATOM      3  C   UNL     1      23.483  25.293  21.117  1.00  0.00     0.272 C 
ATOM      4  C   UNL     1      22.214  24.627  21.740  1.00  0.00     0.113 C 
ATOM      5  O   UNL     1      23.381  26.636  21.170  1.00  0.00    -0.332 OA
ATOM      6  C   UNL     1      21.732  25.331  22.945  1.00  0.00     0.145 C 
ATOM      7  C   UNL     1      21.701  26.837  22.855  1.00  0.00     0.142 C 
BRANCH   3   8
ATOM      8  O   UNL     1      23.430  24.904  19.796  1.00  0.00    -0.338 OA
BRANCH   8   9
ATOM      9  C   UNL     1      24.390  25.241  18.939  1.00  0.00     0.199 C 
BRANCH   9  10
ATOM     10  C   UNL     1      24.429  24.981  17.513  1.00  0.00     0.179 C 
ATOM     11  C   UNL     1      24.195  23.535  15.748  1.00  0.00     0.282 C 
ATOM     12  O   UNL     1      23.874  23.789  17.082  1.00  0.00    -0.341 OA
ATOM     13  C   UNL     1      24.576  24.728  14.952  1.00  0.00     0.202 C 
ATOM     14  C   UNL     1      23.929  26.022  15.355  1.00  0.00     0.179 C 
ATOM     15  C   UNL     1      23.590  26.070  16.816  1.00  0.00     0.177 C 
BRANCH  11  16
ATOM     16  O   UNL     1      23.191  22.843  15.091  1.00  0.00    -0.341 OA
BRANCH  16  17
ATOM     17  C   UNL     1      23.609  22.335  13.844  1.00  0.00     0.184 C 
ATOM     18  C   UNL     1      22.429  22.396  12.919  1.00  0.00     0.178 C 
ATOM     19  O   UNL     1      22.415  21.342  12.009  1.00  0.00    -0.341 OA
ATOM     20  C   UNL     1      22.194  20.186  12.748  1.00  0.00     0.281 C 
ATOM     21  C   UNL     1      24.173  20.973  14.077  1.00  0.00     0.180 C 
ATOM     22  C   UNL     1      23.438  19.827  13.490  1.00  0.00     0.202 C 
BRANCH  18  23
ATOM     23  C   UNL     1      22.547  23.673  12.086  1.00  0.00     0.191 C 
BRANCH  23  24
ATOM     24  O   UNL     1      21.905  23.419  10.854  1.00  0.00    -0.394 OA
ATOM     25  H   UNL     1      22.159  24.198  10.278  1.00  0.00     0.210 HD
ENDBRANCH  23  24
ENDBRANCH  18  23
BRANCH  20  26
ATOM     26  O   UNL     1      21.951  19.171  11.819  1.00  0.00    -0.350 OA
BRANCH  26  27
ATOM     27  C   UNL     1      21.047  19.580  10.838  1.00  0.00     0.169 C 
BRANCH  27  28
ATOM     28  C   UNL     1      19.696  18.965  11.210  1.00  0.00     0.119 C 
BRANCH  28  29
ATOM     29  N   UNL     1      18.825  19.160  10.065  1.00  0.00    -0.092 NA
ATOM     30  N   UNL     1      19.115  18.687   8.956  1.00  0.00     0.001 N 
ATOM     31  N   UNL     1      19.266  17.957   7.962  1.00  0.00    -0.003 NA
ENDBRANCH  28  29
ENDBRANCH  27  28
ENDBRANCH  26  27
ENDBRANCH  20  26
BRANCH  21  32
ATOM     32  O   UNL     1      25.500  20.986  13.605  1.00  0.00    -0.387 OA
ATOM     33  H   UNL     1      26.148  21.086  14.326  1.00  0.00     0.211 HD
ENDBRANCH  21  32
BRANCH  22  34
ATOM     34  O   UNL     1      23.028  18.978  14.549  1.00  0.00    -0.385 OA
ATOM     35  H   UNL     1      23.882  18.682  14.989  1.00  0.00     0.211 HD
ENDBRANCH  22  34
ENDBRANCH  16  17
ENDBRANCH  11  16
BRANCH  13  36
ATOM     36  O   UNL     1      25.962  24.860  14.796  1.00  0.00    -0.385 OA
ATOM     37  H   UNL     1      26.421  24.977  15.658  1.00  0.00     0.211 HD
ENDBRANCH  13  36
BRANCH  14  38
ATOM     38  O   UNL     1      22.800  26.306  14.576  1.00  0.00    -0.387 OA
ATOM     39  H   UNL     1      22.047  26.377  15.226  1.00  0.00     0.211 HD
ENDBRANCH  14  38
BRANCH  15  40
ATOM     40  O   UNL     1      22.251  25.916  17.085  1.00  0.00    -0.387 OA
ATOM     41  H   UNL     1      21.768  26.652  16.666  1.00  0.00     0.211 HD
ENDBRANCH  15  40
ENDBRANCH   9  10
ENDBRANCH   8   9
ENDBRANCH   3   8
BRANCH   3  42
ATOM     42  C   UNL     1      24.585  24.650  21.830  1.00  0.00     0.364 C 
ATOM     43  O   UNL     1      25.538  25.305  22.277  1.00  0.00    -0.246 OA
BRANCH  42  44
ATOM     44  O   UNL     1      24.652  23.272  22.059  1.00  0.00    -0.477 OA
ATOM     45  H   UNL     1      24.267  22.635  21.361  1.00  0.00     0.296 HD
ENDBRANCH  42  44
ENDBRANCH   3  42
BRANCH   6  46
ATOM     46  O   UNL     1      20.429  24.870  23.211  1.00  0.00    -0.391 OA
ATOM     47  H   UNL     1      19.967  25.528  23.790  1.00  0.00     0.211 HD
ENDBRANCH   6  46
BRANCH   7  48
ATOM     48  N   UNL     1      22.485  27.385  23.963  1.00  0.00    -0.348 N 
ATOM     49  C   UNL     1      21.904  27.633  25.214  1.00  0.00     0.217 C 
ATOM     50  H   UNL     1      23.493  27.585  23.794  1.00  0.00     0.163 HD
ATOM     51  C   UNL     1      22.661  28.193  26.374  1.00  0.00     0.114 C 
ATOM     52  O   UNL     1      20.668  27.364  25.348  1.00  0.00    -0.275 OA
ENDBRANCH   7  48
ENDBRANCH   1   2
BRANCH   1  53
ATOM     53  O   UNL     1      21.959  27.639  19.215  1.00  0.00    -0.388 OA
ATOM     54  H   UNL     1      22.266  26.764  18.934  1.00  0.00     0.211 HD
ENDBRANCH   1  53
BRANCH   1  55
ATOM     55  C   UNL     1      20.330  28.610  20.507  1.00  0.00     0.165 C 
BRANCH  55  56
ATOM     56  O   UNL     1      19.012  28.377  20.819  1.00  0.00    -0.388 OA
ATOM     57  H   UNL     1      18.882  27.644  21.471  1.00  0.00     0.211 HD
ENDBRANCH  55  56
BRANCH  55  58
ATOM     58  C   UNL     1      20.441  29.461  19.237  1.00  0.00     0.154 C 
BRANCH  58  59
ATOM     59  N   UNL     1      19.248  29.344  18.433  1.00  0.00    -0.319 N 
ATOM     60  C   UNL     1      19.138  28.464  17.332  1.00  0.00     0.407 C 
ATOM     61  H   UNL     1      18.430  29.935  18.677  1.00  0.00     0.167 HD
ATOM     62  O   UNL     1      20.118  27.737  17.024  1.00  0.00    -0.225 OA
BRANCH  60  63
ATOM     63  O   UNL     1      17.976  28.375  16.573  1.00  0.00    -0.443 OA
BRANCH  63  64
ATOM     64  C   UNL     1      16.850  29.162  16.948  1.00  0.00     0.294 C 
BRANCH  64  65
ATOM     65  C   UNL     1      16.498  28.709  18.329  1.00  0.00     0.120 A 
ATOM     66  C   UNL     1      15.861  29.470  19.271  1.00  0.00     0.138 A 
ATOM     67  N   UNL     1      16.740  27.491  18.873  1.00  0.00    -0.132 NA
ATOM     68  N   UNL     1      15.738  28.705  20.346  1.00  0.00    -0.250 N 
ATOM     69  N   UNL     1      16.272  27.509  20.099  1.00  0.00    -0.067 NA
BRANCH  68  70
ATOM     70  C   UNL     1      15.121  29.127  21.603  1.00  0.00     0.167 C 
BRANCH  70  71
ATOM     71  C   UNL     1      13.654  28.699  21.546  1.00  0.00     0.141 C 
BRANCH  71  72
ATOM     72  N   UNL     1      12.865  29.895  21.602  1.00  0.00    -0.336 N 
ATOM     73  C   UNL     1      12.123  30.296  22.731  1.00  0.00     0.315 C 
ATOM     74  H   UNL     1      12.856  30.492  20.732  1.00  0.00     0.165 HD
ATOM     75  O   UNL     1      12.096  29.600  23.769  1.00  0.00    -0.249 OA
ATOM     76  N   UNL     1      11.393  31.531  22.673  1.00  0.00    -0.331 N 
ATOM     77  H   UNL     1      11.445  32.083  21.780  1.00  0.00     0.165 HD
BRANCH  76  78
ATOM     78  C   UNL     1      10.627  31.974  23.804  1.00  0.00     0.193 C 
BRANCH  78  79
ATOM     79  C   UNL     1       9.210  31.542  23.672  1.00  0.00     0.122 A 
ATOM     80  C   UNL     1       8.663  30.439  24.317  1.00  0.00     0.047 A 
ATOM     81  O   UNL     1       8.289  32.100  22.962  1.00  0.00    -0.467 OA
ATOM     82  C   UNL     1       7.355  30.391  23.935  1.00  0.00     0.042 A 
ATOM     83  C   UNL     1       7.155  31.445  23.086  1.00  0.00     0.195 A 
ENDBRANCH  78  79
ENDBRANCH  76  78
ENDBRANCH  71  72
ENDBRANCH  70  71
ENDBRANCH  68  70
ENDBRANCH  64  65
ENDBRANCH  63  64
ENDBRANCH  60  63
ENDBRANCH  58  59
ENDBRANCH  55  58
ENDBRANCH   1  55
TORSDOF 34
