REMARK VINA RESULT:    -6.839      3.583      4.254
REMARK INTER + INTRA:         -22.585
REMARK INTER:                 -15.001
REMARK INTRA:                  -7.585
REMARK UNBOUND:                -5.351
REMARK SMILES CC(=O)N[C@@H]1[C@@H](O)C[C@](OC[C@H]2O[C@@H](O[C@H]3[C@H](O)[C@@H](O)[C@H](OCCN=[N+]=[N-])O[C@@H]3CO)[C@H](O)[C@@H](O)[C@H]2O)(C(=O)O)O[C@H]1C(O)[C@H](O)CNC(=O)OCc1cn(-c2ccc([N+](=O)[O-])cc2)nn1
REMARK SMILES IDX 9 1 8 2 6 3 5 4 42 5 41 6 10 7 11 8 12 9 14 10 13 11 32 12
REMARK SMILES IDX 34 13 36 14 15 15 16 16 29 17 28 18 21 19 17 20 19 21 30 22
REMARK SMILES IDX 31 23 22 25 23 26 24 27 25 28 26 29 27 30 18 31 20 33 33 35
REMARK SMILES IDX 35 37 37 39 38 41 39 42 40 43 7 45 43 47 44 48 45 50 46 51
REMARK SMILES IDX 47 53 48 54 49 55 50 57 51 58 52 59 53 60 54 61 66 62 55 63
REMARK SMILES IDX 65 64 56 65 57 66 64 67 58 68 63 69 59 70 60 71 61 72 62 73
REMARK SMILES IDX 4 74 2 75 1 77 3 78
REMARK H PARENT 31 24 18 32 20 34 33 36 35 38 37 40 40 44 7 46 44 49 46 52
REMARK H PARENT 48 56 4 76
REMARK Flexibility Score: inf
ROOT
ATOM      1  C   UNL     1      19.930  19.421  10.371  1.00  0.00     0.272 C 
ATOM      2  C   UNL     1      19.303  19.085   9.057  1.00  0.00     0.113 C 
ATOM      3  C   UNL     1      19.983  19.803   7.971  1.00  0.00     0.145 C 
ATOM      4  C   UNL     1      20.924  20.940   8.406  1.00  0.00     0.142 C 
ATOM      5  C   UNL     1      20.362  21.599   9.577  1.00  0.00     0.178 C 
ATOM      6  O   UNL     1      19.818  20.786  10.567  1.00  0.00    -0.332 OA
ENDROOT
BRANCH   1   7
ATOM      7  O   UNL     1      21.183  18.931  10.571  1.00  0.00    -0.338 OA
BRANCH   7   8
ATOM      8  C   UNL     1      21.355  17.594  10.414  1.00  0.00     0.199 C 
BRANCH   8   9
ATOM      9  C   UNL     1      22.666  17.271   9.707  1.00  0.00     0.179 C 
ATOM     10  C   UNL     1      24.230  16.597  11.310  1.00  0.00     0.282 C 
ATOM     11  O   UNL     1      23.773  17.556  10.462  1.00  0.00    -0.341 OA
ATOM     12  C   UNL     1      23.552  15.288  11.332  1.00  0.00     0.202 C 
ATOM     13  C   UNL     1      23.152  14.849   9.949  1.00  0.00     0.179 C 
ATOM     14  C   UNL     1      22.706  15.942   9.044  1.00  0.00     0.177 C 
BRANCH  10  15
ATOM     15  O   UNL     1      24.380  17.184  12.563  1.00  0.00    -0.341 OA
BRANCH  15  16
ATOM     16  C   UNL     1      24.562  18.526  12.602  1.00  0.00     0.184 C 
ATOM     17  C   UNL     1      25.946  18.953  13.039  1.00  0.00     0.178 C 
ATOM     18  O   UNL     1      25.975  20.362  13.093  1.00  0.00    -0.341 OA
ATOM     19  C   UNL     1      25.249  20.787  14.205  1.00  0.00     0.281 C 
ATOM     20  C   UNL     1      23.638  19.053  13.718  1.00  0.00     0.180 C 
ATOM     21  C   UNL     1      23.782  20.559  13.816  1.00  0.00     0.202 C 
BRANCH  17  22
ATOM     22  C   UNL     1      27.046  18.553  12.090  1.00  0.00     0.191 C 
BRANCH  22  23
ATOM     23  O   UNL     1      26.572  18.909  10.803  1.00  0.00    -0.394 OA
ATOM     24  H   UNL     1      26.226  19.841  10.807  1.00  0.00     0.210 HD
ENDBRANCH  22  23
ENDBRANCH  17  22
BRANCH  19  25
ATOM     25  O   UNL     1      25.436  22.128  14.416  1.00  0.00    -0.350 OA
BRANCH  25  26
ATOM     26  C   UNL     1      26.427  22.722  13.677  1.00  0.00     0.169 C 
BRANCH  26  27
ATOM     27  C   UNL     1      25.977  23.859  12.805  1.00  0.00     0.119 C 
BRANCH  27  28
ATOM     28  N   UNL     1      26.299  23.527  11.415  1.00  0.00    -0.092 NA
ATOM     29  N   UNL     1      25.767  22.561  10.888  1.00  0.00     0.001 N 
ATOM     30  N   UNL     1      25.054  21.747  10.324  1.00  0.00    -0.003 NA
ENDBRANCH  27  28
ENDBRANCH  26  27
ENDBRANCH  25  26
ENDBRANCH  19  25
BRANCH  20  31
ATOM     31  O   UNL     1      22.345  18.642  13.554  1.00  0.00    -0.387 OA
ATOM     32  H   UNL     1      21.789  19.210  12.986  1.00  0.00     0.211 HD
ENDBRANCH  20  31
BRANCH  21  33
ATOM     33  O   UNL     1      22.912  21.052  14.750  1.00  0.00    -0.385 OA
ATOM     34  H   UNL     1      22.009  20.698  14.568  1.00  0.00     0.211 HD
ENDBRANCH  21  33
ENDBRANCH  15  16
ENDBRANCH  10  15
BRANCH  12  35
ATOM     35  O   UNL     1      24.471  14.309  11.759  1.00  0.00    -0.385 OA
ATOM     36  H   UNL     1      24.023  13.498  12.064  1.00  0.00     0.211 HD
ENDBRANCH  12  35
BRANCH  13  37
ATOM     37  O   UNL     1      22.171  13.834  10.061  1.00  0.00    -0.387 OA
ATOM     38  H   UNL     1      22.341  13.189   9.355  1.00  0.00     0.211 HD
ENDBRANCH  13  37
BRANCH  14  39
ATOM     39  O   UNL     1      21.507  15.704   8.387  1.00  0.00    -0.387 OA
ATOM     40  H   UNL     1      20.776  15.929   9.025  1.00  0.00     0.211 HD
ENDBRANCH  14  39
ENDBRANCH   8   9
ENDBRANCH   7   8
ENDBRANCH   1   7
BRANCH   1  41
ATOM     41  C   UNL     1      19.030  18.870  11.458  1.00  0.00     0.364 C 
ATOM     42  O   UNL     1      19.328  19.027  12.657  1.00  0.00    -0.246 OA
BRANCH  41  43
ATOM     43  O   UNL     1      17.892  18.194  11.115  1.00  0.00    -0.477 OA
ATOM     44  H   UNL     1      17.124  17.986  11.747  1.00  0.00     0.296 HD
ENDBRANCH  41  43
ENDBRANCH   1  41
BRANCH   3  45
ATOM     45  O   UNL     1      20.759  18.937   7.203  1.00  0.00    -0.391 OA
ATOM     46  H   UNL     1      21.424  19.428   6.682  1.00  0.00     0.211 HD
ENDBRANCH   3  45
BRANCH   5  47
ATOM     47  C   UNL     1      21.077  22.639  10.322  1.00  0.00     0.176 C 
BRANCH  47  48
ATOM     48  O   UNL     1      20.500  23.912  10.320  1.00  0.00    -0.388 OA
ATOM     49  H   UNL     1      20.961  24.571   9.773  1.00  0.00     0.211 HD
ENDBRANCH  47  48
BRANCH  47  50
ATOM     50  C   UNL     1      21.529  22.402  11.726  1.00  0.00     0.165 C 
BRANCH  50  51
ATOM     51  O   UNL     1      20.607  21.901  12.592  1.00  0.00    -0.388 OA
ATOM     52  H   UNL     1      21.017  21.416  13.355  1.00  0.00     0.211 HD
ENDBRANCH  50  51
BRANCH  50  53
ATOM     53  C   UNL     1      22.448  23.476  12.243  1.00  0.00     0.154 C 
BRANCH  53  54
ATOM     54  N   UNL     1      22.464  23.625  13.674  1.00  0.00    -0.319 N 
ATOM     55  C   UNL     1      22.811  24.818  14.352  1.00  0.00     0.407 C 
ATOM     56  H   UNL     1      22.205  22.814  14.296  1.00  0.00     0.167 HD
ATOM     57  O   UNL     1      23.137  25.818  13.706  1.00  0.00    -0.225 OA
BRANCH  55  58
ATOM     58  O   UNL     1      22.800  24.902  15.746  1.00  0.00    -0.443 OA
BRANCH  58  59
ATOM     59  C   UNL     1      23.670  25.709  16.495  1.00  0.00     0.294 C 
BRANCH  59  60
ATOM     60  C   UNL     1      24.975  25.040  16.675  1.00  0.00     0.121 A 
ATOM     61  C   UNL     1      25.267  23.896  17.416  1.00  0.00     0.144 A 
ATOM     62  N   UNL     1      26.176  25.397  16.131  1.00  0.00    -0.131 NA
ATOM     63  N   UNL     1      26.577  23.609  17.303  1.00  0.00    -0.220 N 
ATOM     64  N   UNL     1      27.094  24.532  16.523  1.00  0.00    -0.062 NA
BRANCH  63  65
ATOM     65  C   UNL     1      27.277  22.510  17.897  1.00  0.00     0.067 A 
ATOM     66  C   UNL     1      27.652  21.381  17.209  1.00  0.00     0.035 A 
ATOM     67  C   UNL     1      27.598  22.562  19.246  1.00  0.00     0.035 A 
ATOM     68  C   UNL     1      28.324  20.335  17.839  1.00  0.00     0.088 A 
ATOM     69  C   UNL     1      28.263  21.529  19.873  1.00  0.00     0.088 A 
ATOM     70  C   UNL     1      28.640  20.396  19.185  1.00  0.00     0.269 A 
BRANCH  70  71
ATOM     71  N   UNL     1      29.324  19.321  19.818  1.00  0.00     0.062 N 
ATOM     72  O   UNL     1      30.555  19.167  19.793  1.00  0.00    -0.258 OA
ATOM     73  O   UNL     1      28.571  18.396  20.497  1.00  0.00    -0.258 OA
ENDBRANCH  70  71
ENDBRANCH  63  65
ENDBRANCH  59  60
ENDBRANCH  58  59
ENDBRANCH  55  58
ENDBRANCH  53  54
ENDBRANCH  50  53
ENDBRANCH  47  50
ENDBRANCH   5  47
BRANCH   4  74
ATOM     74  N   UNL     1      20.822  21.833   7.240  1.00  0.00    -0.348 N 
ATOM     75  C   UNL     1      21.939  22.471   6.674  1.00  0.00     0.217 C 
ATOM     76  H   UNL     1      19.882  21.974   6.831  1.00  0.00     0.163 HD
ATOM     77  C   UNL     1      21.724  23.361   5.493  1.00  0.00     0.114 C 
ATOM     78  O   UNL     1      23.088  22.324   7.116  1.00  0.00    -0.275 OA
ENDBRANCH   4  74
TORSDOF 31
