REMARK VINA RESULT:    -4.811      3.247      5.330
REMARK INTER + INTRA:         -22.209
REMARK INTER:                 -15.309
REMARK INTRA:                  -6.901
REMARK UNBOUND:                -8.679
REMARK SMILES CCOC(CCn1cc(COC(=O)NC[C@@H](O)C(O)[C@@H]2O[C@@](OC[C@H]3O[C@@H](O[C@H]4[C@H](O)[C@@H](O)[C@H](OCCN=[N+]=[N-])O[C@@H]4CO)[C@H](O)[C@@H](O)[C@H]3O)(C(=O)O)C[C@H](O)[C@H]2NC(C)=O)nn1)OCC
REMARK SMILES IDX 18 1 20 2 22 3 54 4 21 5 55 6 57 7 23 8 24 9 25 10 27 11
REMARK SMILES IDX 26 12 45 13 47 14 49 15 28 16 29 17 42 18 41 19 34 20 30 21
REMARK SMILES IDX 32 22 43 23 44 24 35 26 36 27 37 28 38 29 39 30 40 31 31 32
REMARK SMILES IDX 33 34 46 36 48 38 50 40 51 42 52 43 53 44 56 46 58 48 59 49
REMARK SMILES IDX 60 51 61 52 19 53 16 55 17 56 15 58 14 59 12 60 13 62 11 63
REMARK SMILES IDX 10 64 9 65 8 66 62 67 7 68 63 69 6 70 5 71 4 72 3 73 2 74
REMARK SMILES IDX 1 75 64 76 65 77 66 78
REMARK H PARENT 44 25 31 33 33 35 46 37 48 39 50 41 53 45 56 47 58 50 19 54
REMARK H PARENT 17 57 14 61
REMARK Flexibility Score: inf
ROOT
ATOM      1  C   UNL     1      15.849  32.809  24.788  1.00  0.00     0.176 C 
ENDROOT
BRANCH   1   2
ATOM      2  C   UNL     1      14.759  32.433  23.828  1.00  0.00     0.178 C 
ATOM      3  C   UNL     1      13.437  30.688  23.080  1.00  0.00     0.272 C 
ATOM      4  C   UNL     1      12.843  31.821  22.320  1.00  0.00     0.113 C 
ATOM      5  O   UNL     1      14.519  31.070  23.905  1.00  0.00    -0.332 OA
ATOM      6  C   UNL     1      13.805  32.746  21.659  1.00  0.00     0.145 C 
ATOM      7  C   UNL     1      15.163  32.678  22.371  1.00  0.00     0.142 C 
BRANCH   3   8
ATOM      8  O   UNL     1      13.798  29.588  22.413  1.00  0.00    -0.338 OA
BRANCH   8   9
ATOM      9  C   UNL     1      13.275  29.274  21.215  1.00  0.00     0.199 C 
BRANCH   9  10
ATOM     10  C   UNL     1      14.359  29.049  20.185  1.00  0.00     0.179 C 
ATOM     11  C   UNL     1      15.172  29.587  18.161  1.00  0.00     0.282 C 
ATOM     12  O   UNL     1      14.534  30.111  19.317  1.00  0.00    -0.341 OA
ATOM     13  C   UNL     1      16.573  29.259  18.520  1.00  0.00     0.202 C 
ATOM     14  C   UNL     1      16.589  28.288  19.677  1.00  0.00     0.179 C 
ATOM     15  C   UNL     1      15.696  28.683  20.823  1.00  0.00     0.177 C 
BRANCH  11  16
ATOM     16  O   UNL     1      15.023  30.501  17.113  1.00  0.00    -0.341 OA
BRANCH  16  17
ATOM     17  C   UNL     1      13.977  30.116  16.335  1.00  0.00     0.184 C 
ATOM     18  C   UNL     1      14.204  29.891  14.890  1.00  0.00     0.178 C 
ATOM     19  O   UNL     1      13.127  29.144  14.394  1.00  0.00    -0.341 OA
ATOM     20  C   UNL     1      11.951  29.909  14.417  1.00  0.00     0.281 C 
ATOM     21  C   UNL     1      12.840  31.187  16.381  1.00  0.00     0.180 C 
ATOM     22  C   UNL     1      11.634  30.435  15.801  1.00  0.00     0.202 C 
BRANCH  18  23
ATOM     23  C   UNL     1      15.464  29.116  14.645  1.00  0.00     0.191 C 
BRANCH  23  24
ATOM     24  O   UNL     1      15.251  28.004  13.829  1.00  0.00    -0.394 OA
ATOM     25  H   UNL     1      15.812  28.004  13.033  1.00  0.00     0.210 HD
ENDBRANCH  23  24
ENDBRANCH  18  23
BRANCH  20  26
ATOM     26  O   UNL     1      10.924  29.064  14.037  1.00  0.00    -0.350 OA
BRANCH  26  27
ATOM     27  C   UNL     1      10.516  29.143  12.740  1.00  0.00     0.169 C 
BRANCH  27  28
ATOM     28  C   UNL     1      10.823  27.860  12.014  1.00  0.00     0.119 C 
BRANCH  28  29
ATOM     29  N   UNL     1      12.144  27.961  11.399  1.00  0.00    -0.092 NA
ATOM     30  N   UNL     1      12.164  27.749  10.169  1.00  0.00     0.001 N 
ATOM     31  N   UNL     1      12.466  27.219   9.098  1.00  0.00    -0.003 NA
ENDBRANCH  28  29
ENDBRANCH  27  28
ENDBRANCH  26  27
ENDBRANCH  20  26
BRANCH  21  32
ATOM     32  O   UNL     1      12.589  31.589  17.665  1.00  0.00    -0.387 OA
ATOM     33  H   UNL     1      12.551  30.838  18.307  1.00  0.00     0.211 HD
ENDBRANCH  21  32
BRANCH  22  34
ATOM     34  O   UNL     1      10.531  31.243  15.734  1.00  0.00    -0.385 OA
ATOM     35  H   UNL     1      10.737  31.964  15.060  1.00  0.00     0.211 HD
ENDBRANCH  22  34
ENDBRANCH  16  17
ENDBRANCH  11  16
BRANCH  13  36
ATOM     36  O   UNL     1      17.233  28.606  17.467  1.00  0.00    -0.385 OA
ATOM     37  H   UNL     1      16.637  28.460  16.699  1.00  0.00     0.211 HD
ENDBRANCH  13  36
BRANCH  14  38
ATOM     38  O   UNL     1      17.884  27.993  20.091  1.00  0.00    -0.387 OA
ATOM     39  H   UNL     1      18.557  28.485  19.547  1.00  0.00     0.211 HD
ENDBRANCH  14  38
BRANCH  15  40
ATOM     40  O   UNL     1      16.183  29.773  21.528  1.00  0.00    -0.387 OA
ATOM     41  H   UNL     1      16.079  30.603  21.011  1.00  0.00     0.211 HD
ENDBRANCH  15  40
ENDBRANCH   9  10
ENDBRANCH   8   9
ENDBRANCH   3   8
BRANCH   3  42
ATOM     42  C   UNL     1      12.398  30.258  24.070  1.00  0.00     0.364 C 
ATOM     43  O   UNL     1      12.670  29.491  25.012  1.00  0.00    -0.246 OA
BRANCH  42  44
ATOM     44  O   UNL     1      11.083  30.700  23.977  1.00  0.00    -0.477 OA
ATOM     45  H   UNL     1      10.338  30.029  24.132  1.00  0.00     0.296 HD
ENDBRANCH  42  44
ENDBRANCH   3  42
BRANCH   6  46
ATOM     46  O   UNL     1      13.950  32.563  20.307  1.00  0.00    -0.391 OA
ATOM     47  H   UNL     1      14.177  31.637  20.042  1.00  0.00     0.211 HD
ENDBRANCH   6  46
BRANCH   7  48
ATOM     48  N   UNL     1      15.935  33.863  22.186  1.00  0.00    -0.348 N 
ATOM     49  C   UNL     1      17.122  33.778  21.405  1.00  0.00     0.217 C 
ATOM     50  H   UNL     1      15.675  34.783  22.589  1.00  0.00     0.163 HD
ATOM     51  C   UNL     1      17.948  34.995  21.195  1.00  0.00     0.114 C 
ATOM     52  O   UNL     1      17.492  32.675  20.879  1.00  0.00    -0.275 OA
ENDBRANCH   7  48
ENDBRANCH   1   2
BRANCH   1  53
ATOM     53  O   UNL     1      15.218  33.124  26.005  1.00  0.00    -0.388 OA
ATOM     54  H   UNL     1      14.931  34.084  26.009  1.00  0.00     0.211 HD
ENDBRANCH   1  53
BRANCH   1  55
ATOM     55  C   UNL     1      16.691  31.574  25.040  1.00  0.00     0.165 C 
BRANCH  55  56
ATOM     56  O   UNL     1      16.669  31.221  26.358  1.00  0.00    -0.388 OA
ATOM     57  H   UNL     1      17.095  31.873  26.969  1.00  0.00     0.211 HD
ENDBRANCH  55  56
BRANCH  55  58
ATOM     58  C   UNL     1      18.103  31.800  24.574  1.00  0.00     0.154 C 
BRANCH  58  59
ATOM     59  N   UNL     1      18.454  31.179  23.330  1.00  0.00    -0.319 N 
ATOM     60  C   UNL     1      19.039  29.911  23.194  1.00  0.00     0.407 C 
ATOM     61  H   UNL     1      18.241  31.752  22.456  1.00  0.00     0.167 HD
ATOM     62  O   UNL     1      19.310  29.180  24.161  1.00  0.00    -0.225 OA
BRANCH  60  63
ATOM     63  O   UNL     1      19.352  29.401  21.913  1.00  0.00    -0.443 OA
BRANCH  63  64
ATOM     64  C   UNL     1      20.731  29.301  21.526  1.00  0.00     0.294 C 
BRANCH  64  65
ATOM     65  C   UNL     1      21.065  27.864  21.348  1.00  0.00     0.120 A 
ATOM     66  C   UNL     1      21.415  26.961  22.323  1.00  0.00     0.138 A 
ATOM     67  N   UNL     1      21.090  27.202  20.190  1.00  0.00    -0.132 NA
ATOM     68  N   UNL     1      21.639  25.783  21.704  1.00  0.00    -0.252 N 
ATOM     69  N   UNL     1      21.432  25.964  20.412  1.00  0.00    -0.067 NA
BRANCH  68  70
ATOM     70  C   UNL     1      22.027  24.579  22.379  1.00  0.00     0.151 C 
BRANCH  70  71
ATOM     71  C   UNL     1      23.478  24.512  22.761  1.00  0.00     0.086 C 
BRANCH  71  72
ATOM     72  C   UNL     1      23.624  24.896  24.233  1.00  0.00     0.251 C 
BRANCH  72  73
ATOM     73  O   UNL     1      22.426  24.577  24.844  1.00  0.00    -0.353 OA
BRANCH  73  74
ATOM     74  C   UNL     1      22.299  25.160  26.098  1.00  0.00     0.160 C 
ATOM     75  C   UNL     1      22.950  24.314  27.174  1.00  0.00     0.035 C 
ENDBRANCH  73  74
ENDBRANCH  72  73
BRANCH  72  76
ATOM     76  O   UNL     1      24.054  26.179  24.392  1.00  0.00    -0.353 OA
BRANCH  76  77
ATOM     77  C   UNL     1      25.402  26.379  24.524  1.00  0.00     0.160 C 
ATOM     78  C   UNL     1      25.701  26.836  25.933  1.00  0.00     0.035 C 
ENDBRANCH  76  77
ENDBRANCH  72  76
ENDBRANCH  71  72
ENDBRANCH  70  71
ENDBRANCH  68  70
ENDBRANCH  64  65
ENDBRANCH  63  64
ENDBRANCH  60  63
ENDBRANCH  58  59
ENDBRANCH  55  58
ENDBRANCH   1  55
TORSDOF 36
