REMARK VINA RESULT:    -6.195      2.554      5.748
REMARK INTER + INTRA:         -22.059
REMARK INTER:                 -13.927
REMARK INTRA:                  -8.132
REMARK UNBOUND:                -6.268
REMARK SMILES CC(=O)N[C@@H]1[C@@H](O)C[C@](OC[C@H]2O[C@@H](O[C@H]3[C@H](O)[C@@H](O)[C@H](OCCN=[N+]=[N-])O[C@@H]3CO)[C@H](O)[C@@H](O)[C@H]2O)(C(=O)O)O[C@H]1C(O)[C@H](O)CNC(=O)OCc1cn(C(C)(C)CO)nn1
REMARK SMILES IDX 9 1 8 2 6 3 5 4 42 5 41 6 10 7 11 8 12 9 14 10 13 11 32 12
REMARK SMILES IDX 34 13 36 14 15 15 16 16 29 17 28 18 21 19 17 20 19 21 30 22
REMARK SMILES IDX 31 23 22 25 23 26 24 27 25 28 26 29 27 30 18 31 20 33 33 35
REMARK SMILES IDX 35 37 37 39 38 41 39 42 40 43 7 45 43 47 44 48 45 50 46 51
REMARK SMILES IDX 47 53 48 54 49 55 50 57 51 58 52 59 53 60 54 61 62 62 55 63
REMARK SMILES IDX 61 64 56 65 57 66 58 67 59 68 60 69 4 71 2 72 1 74 3 75
REMARK H PARENT 31 24 18 32 20 34 33 36 35 38 37 40 40 44 7 46 44 49 46 52
REMARK H PARENT 48 56 60 70 4 73
REMARK Flexibility Score: inf
ROOT
ATOM      1  C   UNL     1      17.094  31.896  22.161  1.00  0.00     0.272 C 
ATOM      2  C   UNL     1      17.342  31.483  23.587  1.00  0.00     0.113 C 
ATOM      3  C   UNL     1      16.759  30.103  23.773  1.00  0.00     0.145 C 
ATOM      4  C   UNL     1      15.227  30.306  23.738  1.00  0.00     0.142 C 
ATOM      5  C   UNL     1      14.920  31.029  22.461  1.00  0.00     0.178 C 
ATOM      6  O   UNL     1      16.009  31.111  21.615  1.00  0.00    -0.332 OA
ENDROOT
BRANCH   1   7
ATOM      7  O   UNL     1      18.112  31.607  21.312  1.00  0.00    -0.338 OA
BRANCH   7   8
ATOM      8  C   UNL     1      19.392  31.646  21.644  1.00  0.00     0.199 C 
BRANCH   8   9
ATOM      9  C   UNL     1      20.355  30.544  21.473  1.00  0.00     0.179 C 
ATOM     10  C   UNL     1      21.306  28.819  22.673  1.00  0.00     0.282 C 
ATOM     11  O   UNL     1      20.238  29.674  22.609  1.00  0.00    -0.341 OA
ATOM     12  C   UNL     1      22.064  28.608  21.411  1.00  0.00     0.202 C 
ATOM     13  C   UNL     1      21.220  28.697  20.159  1.00  0.00     0.179 C 
ATOM     14  C   UNL     1      20.036  29.594  20.324  1.00  0.00     0.177 C 
BRANCH  10  15
ATOM     15  O   UNL     1      20.866  27.632  23.264  1.00  0.00    -0.341 OA
BRANCH  15  16
ATOM     16  C   UNL     1      21.856  26.693  23.432  1.00  0.00     0.184 C 
ATOM     17  C   UNL     1      21.332  25.303  23.716  1.00  0.00     0.178 C 
ATOM     18  O   UNL     1      21.982  24.670  24.756  1.00  0.00    -0.341 OA
ATOM     19  C   UNL     1      21.889  25.277  25.979  1.00  0.00     0.281 C 
ATOM     20  C   UNL     1      22.664  27.148  24.661  1.00  0.00     0.180 C 
ATOM     21  C   UNL     1      21.781  26.779  25.839  1.00  0.00     0.202 C 
BRANCH  17  22
ATOM     22  C   UNL     1      21.621  24.485  22.463  1.00  0.00     0.191 C 
BRANCH  22  23
ATOM     23  O   UNL     1      21.219  25.202  21.335  1.00  0.00    -0.394 OA
ATOM     24  H   UNL     1      20.263  25.392  21.311  1.00  0.00     0.210 HD
ENDBRANCH  22  23
ENDBRANCH  17  22
BRANCH  19  25
ATOM     25  O   UNL     1      22.990  24.891  26.721  1.00  0.00    -0.350 OA
BRANCH  25  26
ATOM     26  C   UNL     1      22.754  24.603  28.029  1.00  0.00     0.169 C 
BRANCH  26  27
ATOM     27  C   UNL     1      23.576  25.429  29.006  1.00  0.00     0.119 C 
BRANCH  27  28
ATOM     28  N   UNL     1      22.929  26.695  29.293  1.00  0.00    -0.092 NA
ATOM     29  N   UNL     1      21.703  26.679  29.475  1.00  0.00     0.001 N 
ATOM     30  N   UNL     1      20.579  26.728  30.020  1.00  0.00    -0.003 NA
ENDBRANCH  27  28
ENDBRANCH  26  27
ENDBRANCH  25  26
ENDBRANCH  19  25
BRANCH  20  31
ATOM     31  O   UNL     1      23.840  26.393  24.628  1.00  0.00    -0.387 OA
ATOM     32  H   UNL     1      24.152  26.431  23.685  1.00  0.00     0.211 HD
ENDBRANCH  20  31
BRANCH  21  33
ATOM     33  O   UNL     1      20.457  27.064  25.467  1.00  0.00    -0.385 OA
ATOM     34  H   UNL     1      20.107  26.340  24.866  1.00  0.00     0.211 HD
ENDBRANCH  21  33
ENDBRANCH  15  16
ENDBRANCH  10  15
BRANCH  12  35
ATOM     35  O   UNL     1      23.223  29.377  21.297  1.00  0.00    -0.385 OA
ATOM     36  H   UNL     1      23.930  28.778  20.982  1.00  0.00     0.211 HD
ENDBRANCH  12  35
BRANCH  13  37
ATOM     37  O   UNL     1      20.831  27.419  19.723  1.00  0.00    -0.387 OA
ATOM     38  H   UNL     1      21.451  27.079  19.025  1.00  0.00     0.211 HD
ENDBRANCH  13  37
BRANCH  14  39
ATOM     39  O   UNL     1      18.969  28.777  20.763  1.00  0.00    -0.387 OA
ATOM     40  H   UNL     1      19.289  27.861  20.904  1.00  0.00     0.211 HD
ENDBRANCH  14  39
ENDBRANCH   8   9
ENDBRANCH   7   8
ENDBRANCH   1   7
BRANCH   1  41
ATOM     41  C   UNL     1      16.585  33.262  22.045  1.00  0.00     0.364 C 
ATOM     42  O   UNL     1      16.510  34.027  23.010  1.00  0.00    -0.246 OA
BRANCH  41  43
ATOM     43  O   UNL     1      16.144  33.799  20.821  1.00  0.00    -0.477 OA
ATOM     44  H   UNL     1      15.148  33.760  20.636  1.00  0.00     0.296 HD
ENDBRANCH  41  43
ENDBRANCH   1  41
BRANCH   3  45
ATOM     45  O   UNL     1      17.044  29.369  22.619  1.00  0.00    -0.391 OA
ATOM     46  H   UNL     1      16.916  28.410  22.764  1.00  0.00     0.211 HD
ENDBRANCH   3  45
BRANCH   5  47
ATOM     47  C   UNL     1      13.932  30.127  21.698  1.00  0.00     0.176 C 
BRANCH  47  48
ATOM     48  O   UNL     1      14.290  28.779  21.941  1.00  0.00    -0.388 OA
ATOM     49  H   UNL     1      14.083  28.504  22.849  1.00  0.00     0.211 HD
ENDBRANCH  47  48
BRANCH  47  50
ATOM     50  C   UNL     1      14.074  30.280  20.192  1.00  0.00     0.165 C 
BRANCH  50  51
ATOM     51  O   UNL     1      13.156  31.116  19.646  1.00  0.00    -0.388 OA
ATOM     52  H   UNL     1      13.417  32.063  19.572  1.00  0.00     0.211 HD
ENDBRANCH  50  51
BRANCH  50  53
ATOM     53  C   UNL     1      14.035  28.918  19.529  1.00  0.00     0.154 C 
BRANCH  53  54
ATOM     54  N   UNL     1      15.162  28.577  18.741  1.00  0.00    -0.319 N 
ATOM     55  C   UNL     1      16.287  27.897  19.217  1.00  0.00     0.407 C 
ATOM     56  H   UNL     1      15.174  28.851  17.699  1.00  0.00     0.167 HD
ATOM     57  O   UNL     1      16.386  27.519  20.395  1.00  0.00    -0.225 OA
BRANCH  55  58
ATOM     58  O   UNL     1      17.383  27.602  18.370  1.00  0.00    -0.443 OA
BRANCH  58  59
ATOM     59  C   UNL     1      17.609  28.331  17.185  1.00  0.00     0.294 C 
BRANCH  59  60
ATOM     60  C   UNL     1      19.027  28.678  16.964  1.00  0.00     0.120 A 
ATOM     61  C   UNL     1      19.576  29.940  16.861  1.00  0.00     0.139 A 
ATOM     62  N   UNL     1      20.057  27.827  16.825  1.00  0.00    -0.132 NA
ATOM     63  N   UNL     1      20.913  29.826  16.664  1.00  0.00    -0.244 N 
ATOM     64  N   UNL     1      21.178  28.530  16.646  1.00  0.00    -0.066 NA
BRANCH  63  65
ATOM     65  C   UNL     1      21.835  30.923  16.511  1.00  0.00     0.082 C 
ATOM     66  C   UNL     1      22.979  30.760  17.468  1.00  0.00     0.039 C 
ATOM     67  C   UNL     1      21.142  32.246  16.866  1.00  0.00     0.039 C 
BRANCH  65  68
ATOM     68  C   UNL     1      22.375  31.072  15.118  1.00  0.00     0.186 C 
BRANCH  68  69
ATOM     69  O   UNL     1      21.947  30.092  14.252  1.00  0.00    -0.394 OA
ATOM     70  H   UNL     1      22.142  30.250  13.315  1.00  0.00     0.210 HD
ENDBRANCH  68  69
ENDBRANCH  65  68
ENDBRANCH  63  65
ENDBRANCH  59  60
ENDBRANCH  58  59
ENDBRANCH  55  58
ENDBRANCH  53  54
ENDBRANCH  50  53
ENDBRANCH  47  50
ENDBRANCH   5  47
BRANCH   4  71
ATOM     71  N   UNL     1      14.906  31.012  24.938  1.00  0.00    -0.348 N 
ATOM     72  C   UNL     1      13.728  30.865  25.707  1.00  0.00     0.217 C 
ATOM     73  H   UNL     1      15.591  31.729  25.323  1.00  0.00     0.163 HD
ATOM     74  C   UNL     1      13.483  31.650  26.946  1.00  0.00     0.114 C 
ATOM     75  O   UNL     1      12.861  30.054  25.341  1.00  0.00    -0.275 OA
ENDBRANCH   4  71
TORSDOF 32
