REMARK VINA RESULT:    -6.345      3.171      8.027
REMARK INTER + INTRA:         -20.634
REMARK INTER:                 -10.947
REMARK INTRA:                  -9.687
REMARK UNBOUND:                -5.017
REMARK SMILES CC(=O)N[C@@H]1[C@@H](O)C[C@](OC[C@H]2O[C@@H](O[C@H]3[C@H](O)[C@@H](O)[C@H](OCCN=[N+]=[N-])O[C@@H]3CO)[C@H](O)[C@@H](O)[C@H]2O)(C(=O)O)O[C@H]1C(O)[C@H](O)CNC(=O)OCc1cn(C2CCCCC2)nn1
REMARK SMILES IDX 9 1 8 2 6 3 5 4 42 5 41 6 10 7 11 8 12 9 14 10 13 11 32 12
REMARK SMILES IDX 34 13 36 14 15 15 16 16 29 17 28 18 21 19 17 20 19 21 30 22
REMARK SMILES IDX 31 23 22 25 23 26 24 27 25 28 26 29 27 30 18 31 20 33 33 35
REMARK SMILES IDX 35 37 37 39 38 41 39 42 40 43 7 45 43 47 44 48 45 50 46 51
REMARK SMILES IDX 47 53 48 54 49 55 50 57 51 58 52 59 53 60 54 61 63 62 55 63
REMARK SMILES IDX 62 64 56 65 57 66 61 67 58 68 60 69 59 70 4 71 2 72 1 74
REMARK SMILES IDX 3 75
REMARK H PARENT 31 24 18 32 20 34 33 36 35 38 37 40 40 44 7 46 44 49 46 52
REMARK H PARENT 48 56 4 73
REMARK Flexibility Score: inf
ROOT
ATOM      1  C   UNL     1      14.812  30.193  22.656  1.00  0.00     0.272 C 
ATOM      2  C   UNL     1      14.064  29.109  21.794  1.00  0.00     0.113 C 
ATOM      3  C   UNL     1      14.678  29.053  20.429  1.00  0.00     0.145 C 
ATOM      4  C   UNL     1      14.666  30.409  19.774  1.00  0.00     0.142 C 
ATOM      5  C   UNL     1      14.937  31.529  20.715  1.00  0.00     0.178 C 
ATOM      6  O   UNL     1      14.840  31.376  22.020  1.00  0.00    -0.332 OA
ENDROOT
BRANCH   1   7
ATOM      7  O   UNL     1      16.009  29.654  22.840  1.00  0.00    -0.338 OA
BRANCH   7   8
ATOM      8  C   UNL     1      16.842  29.587  23.823  1.00  0.00     0.199 C 
BRANCH   8   9
ATOM      9  C   UNL     1      17.971  30.587  24.012  1.00  0.00     0.179 C 
ATOM     10  C   UNL     1      20.195  29.947  24.392  1.00  0.00     0.282 C 
ATOM     11  O   UNL     1      18.914  30.158  24.890  1.00  0.00    -0.341 OA
ATOM     12  C   UNL     1      20.666  31.169  23.697  1.00  0.00     0.202 C 
ATOM     13  C   UNL     1      19.687  31.713  22.685  1.00  0.00     0.179 C 
ATOM     14  C   UNL     1      18.504  30.826  22.603  1.00  0.00     0.177 C 
BRANCH  10  15
ATOM     15  O   UNL     1      20.191  28.770  23.739  1.00  0.00    -0.341 OA
BRANCH  15  16
ATOM     16  C   UNL     1      21.165  27.854  23.967  1.00  0.00     0.184 C 
ATOM     17  C   UNL     1      21.455  27.147  22.660  1.00  0.00     0.178 C 
ATOM     18  O   UNL     1      22.617  26.401  22.710  1.00  0.00    -0.341 OA
ATOM     19  C   UNL     1      22.966  25.971  23.962  1.00  0.00     0.281 C 
ATOM     20  C   UNL     1      20.764  26.753  24.927  1.00  0.00     0.180 C 
ATOM     21  C   UNL     1      21.784  25.646  24.799  1.00  0.00     0.202 C 
BRANCH  17  22
ATOM     22  C   UNL     1      21.384  28.046  21.460  1.00  0.00     0.191 C 
BRANCH  22  23
ATOM     23  O   UNL     1      20.195  27.759  20.789  1.00  0.00    -0.394 OA
ATOM     24  H   UNL     1      20.269  27.913  19.817  1.00  0.00     0.210 HD
ENDBRANCH  22  23
ENDBRANCH  17  22
BRANCH  19  25
ATOM     25  O   UNL     1      23.882  26.833  24.505  1.00  0.00    -0.350 OA
BRANCH  25  26
ATOM     26  C   UNL     1      24.689  26.273  25.482  1.00  0.00     0.169 C 
BRANCH  26  27
ATOM     27  C   UNL     1      24.924  27.170  26.667  1.00  0.00     0.119 C 
BRANCH  27  28
ATOM     28  N   UNL     1      23.651  27.405  27.316  1.00  0.00    -0.092 NA
ATOM     29  N   UNL     1      23.240  26.502  28.057  1.00  0.00     0.001 N 
ATOM     30  N   UNL     1      22.502  25.546  28.356  1.00  0.00    -0.003 NA
ENDBRANCH  27  28
ENDBRANCH  26  27
ENDBRANCH  25  26
ENDBRANCH  19  25
BRANCH  20  31
ATOM     31  O   UNL     1      20.719  27.153  26.240  1.00  0.00    -0.387 OA
ATOM     32  H   UNL     1      20.150  26.574  26.805  1.00  0.00     0.211 HD
ENDBRANCH  20  31
BRANCH  21  33
ATOM     33  O   UNL     1      21.113  24.574  24.159  1.00  0.00    -0.385 OA
ATOM     34  H   UNL     1      20.214  24.446  24.549  1.00  0.00     0.211 HD
ENDBRANCH  21  33
ENDBRANCH  15  16
ENDBRANCH  10  15
BRANCH  12  35
ATOM     35  O   UNL     1      20.781  32.168  24.699  1.00  0.00    -0.385 OA
ATOM     36  H   UNL     1      21.309  31.852  25.464  1.00  0.00     0.211 HD
ENDBRANCH  12  35
BRANCH  13  37
ATOM     37  O   UNL     1      20.287  31.832  21.416  1.00  0.00    -0.387 OA
ATOM     38  H   UNL     1      20.822  32.642  21.401  1.00  0.00     0.211 HD
ENDBRANCH  13  37
BRANCH  14  39
ATOM     39  O   UNL     1      18.632  29.684  21.861  1.00  0.00    -0.387 OA
ATOM     40  H   UNL     1      19.556  29.352  21.964  1.00  0.00     0.211 HD
ENDBRANCH  14  39
ENDBRANCH   8   9
ENDBRANCH   7   8
ENDBRANCH   1   7
BRANCH   1  41
ATOM     41  C   UNL     1      13.903  30.345  23.845  1.00  0.00     0.364 C 
ATOM     42  O   UNL     1      13.624  31.412  24.378  1.00  0.00    -0.246 OA
BRANCH  41  43
ATOM     43  O   UNL     1      13.311  29.199  24.414  1.00  0.00    -0.477 OA
ATOM     44  H   UNL     1      13.574  28.898  25.339  1.00  0.00     0.296 HD
ENDBRANCH  41  43
ENDBRANCH   1  41
BRANCH   3  45
ATOM     45  O   UNL     1      15.950  28.497  20.462  1.00  0.00    -0.391 OA
ATOM     46  H   UNL     1      16.129  28.101  19.561  1.00  0.00     0.211 HD
ENDBRANCH   3  45
BRANCH   5  47
ATOM     47  C   UNL     1      16.351  32.124  20.433  1.00  0.00     0.176 C 
BRANCH  47  48
ATOM     48  O   UNL     1      16.773  31.686  19.163  1.00  0.00    -0.388 OA
ATOM     49  H   UNL     1      16.192  30.982  18.812  1.00  0.00     0.211 HD
ENDBRANCH  47  48
BRANCH  47  50
ATOM     50  C   UNL     1      16.357  33.610  20.545  1.00  0.00     0.165 C 
BRANCH  50  51
ATOM     51  O   UNL     1      15.702  34.101  19.391  1.00  0.00    -0.388 OA
ATOM     52  H   UNL     1      15.920  33.573  18.600  1.00  0.00     0.211 HD
ENDBRANCH  50  51
BRANCH  50  53
ATOM     53  C   UNL     1      17.680  34.277  20.595  1.00  0.00     0.154 C 
BRANCH  53  54
ATOM     54  N   UNL     1      18.724  33.660  19.819  1.00  0.00    -0.319 N 
ATOM     55  C   UNL     1      19.028  34.038  18.483  1.00  0.00     0.407 C 
ATOM     56  H   UNL     1      19.289  32.906  20.247  1.00  0.00     0.167 HD
ATOM     57  O   UNL     1      18.372  34.952  17.924  1.00  0.00    -0.225 OA
BRANCH  55  58
ATOM     58  O   UNL     1      20.024  33.434  17.768  1.00  0.00    -0.443 OA
BRANCH  58  59
ATOM     59  C   UNL     1      20.746  32.282  18.132  1.00  0.00     0.294 C 
BRANCH  59  60
ATOM     60  C   UNL     1      19.837  31.116  18.094  1.00  0.00     0.120 A 
ATOM     61  C   UNL     1      19.215  30.697  16.953  1.00  0.00     0.138 A 
ATOM     62  N   UNL     1      19.455  30.295  19.078  1.00  0.00    -0.132 NA
ATOM     63  N   UNL     1      18.457  29.618  17.255  1.00  0.00    -0.249 N 
ATOM     64  N   UNL     1      18.623  29.397  18.557  1.00  0.00    -0.067 NA
BRANCH  63  65
ATOM     65  C   UNL     1      17.631  28.868  16.330  1.00  0.00     0.109 C 
ATOM     66  C   UNL     1      17.868  29.498  14.960  1.00  0.00     0.027 C 
ATOM     67  C   UNL     1      16.168  29.028  16.680  1.00  0.00     0.027 C 
ATOM     68  C   UNL     1      17.097  28.702  13.908  1.00  0.00     0.002 C 
ATOM     69  C   UNL     1      15.333  29.474  15.498  1.00  0.00     0.002 C 
ATOM     70  C   UNL     1      15.652  28.650  14.287  1.00  0.00     0.000 C 
ENDBRANCH  63  65
ENDBRANCH  59  60
ENDBRANCH  58  59
ENDBRANCH  55  58
ENDBRANCH  53  54
ENDBRANCH  50  53
ENDBRANCH  47  50
ENDBRANCH   5  47
BRANCH   4  71
ATOM     71  N   UNL     1      13.497  30.599  18.955  1.00  0.00    -0.348 N 
ATOM     72  C   UNL     1      13.422  31.476  17.861  1.00  0.00     0.217 C 
ATOM     73  H   UNL     1      12.593  30.058  19.150  1.00  0.00     0.163 HD
ATOM     74  C   UNL     1      12.171  31.615  17.040  1.00  0.00     0.114 C 
ATOM     75  O   UNL     1      14.379  32.173  17.526  1.00  0.00    -0.275 OA
ENDBRANCH   4  71
TORSDOF 30
