REMARK VINA RESULT:    -6.195      2.201      2.817
REMARK INTER + INTRA:         -22.730
REMARK INTER:                 -15.707
REMARK INTRA:                  -7.023
REMARK UNBOUND:                -6.938
REMARK SMILES CC(=O)N[C@@H]1[C@@H](O)C[C@](OC[C@H]2O[C@@H](O[C@H]3[C@H](O)[C@@H](O)[C@H](OCCN=[N+]=[N-])O[C@@H]3CO)[C@H](O)[C@@H](O)[C@H]2O)(C(=O)O)O[C@H]1C(O)[C@H](O)CNC(=O)OCc1cn(Cc2cc(Br)cc(Br)c2O)nn1
REMARK SMILES IDX 9 1 8 2 6 3 5 4 42 5 41 6 10 7 11 8 12 9 14 10 13 11 32 12
REMARK SMILES IDX 34 13 36 14 15 15 16 16 29 17 28 18 21 19 17 20 19 21 30 22
REMARK SMILES IDX 31 23 22 25 23 26 24 27 25 28 26 29 27 30 18 31 20 33 33 35
REMARK SMILES IDX 35 37 37 39 38 41 39 42 40 43 7 45 43 47 44 48 45 50 46 51
REMARK SMILES IDX 47 53 48 54 49 55 50 57 51 58 52 59 53 60 54 61 67 62 55 63
REMARK SMILES IDX 66 64 56 65 57 66 58 67 64 68 59 69 62 70 60 71 61 72 63 73
REMARK SMILES IDX 65 74 4 76 2 77 1 79 3 80
REMARK H PARENT 31 24 18 32 20 34 33 36 35 38 37 40 40 44 7 46 44 49 46 52
REMARK H PARENT 48 56 65 75 4 78
REMARK Flexibility Score: inf
ROOT
ATOM      1  C   UNL     1      23.179  25.736  24.691  1.00  0.00     0.272 C 
ATOM      2  C   UNL     1      22.608  24.633  25.705  1.00  0.00     0.113 C 
ATOM      3  C   UNL     1      23.241  24.788  27.028  1.00  0.00     0.145 C 
ATOM      4  C   UNL     1      23.044  26.191  27.540  1.00  0.00     0.142 C 
ATOM      5  C   UNL     1      22.721  27.217  26.496  1.00  0.00     0.178 C 
ATOM      6  O   UNL     1      22.868  26.944  25.205  1.00  0.00    -0.332 OA
ENDROOT
BRANCH   1   7
ATOM      7  O   UNL     1      22.418  25.456  23.607  1.00  0.00    -0.338 OA
BRANCH   7   8
ATOM      8  C   UNL     1      22.730  25.692  22.347  1.00  0.00     0.199 C 
BRANCH   8   9
ATOM      9  C   UNL     1      22.863  27.077  21.817  1.00  0.00     0.179 C 
ATOM     10  C   UNL     1      23.890  26.554  19.792  1.00  0.00     0.282 C 
ATOM     11  O   UNL     1      23.901  27.236  20.965  1.00  0.00    -0.341 OA
ATOM     12  C   UNL     1      22.550  26.564  19.130  1.00  0.00     0.202 C 
ATOM     13  C   UNL     1      21.680  27.648  19.704  1.00  0.00     0.179 C 
ATOM     14  C   UNL     1      21.555  27.575  21.198  1.00  0.00     0.177 C 
BRANCH  10  15
ATOM     15  O   UNL     1      24.427  25.266  19.950  1.00  0.00    -0.341 OA
BRANCH  15  16
ATOM     16  C   UNL     1      25.763  25.169  19.638  1.00  0.00     0.184 C 
ATOM     17  C   UNL     1      26.023  24.061  18.644  1.00  0.00     0.178 C 
ATOM     18  O   UNL     1      27.341  23.742  18.483  1.00  0.00    -0.341 OA
ATOM     19  C   UNL     1      28.257  24.645  18.994  1.00  0.00     0.281 C 
ATOM     20  C   UNL     1      26.594  24.774  20.864  1.00  0.00     0.180 C 
ATOM     21  C   UNL     1      28.035  24.950  20.450  1.00  0.00     0.202 C 
BRANCH  17  22
ATOM     22  C   UNL     1      25.379  24.321  17.298  1.00  0.00     0.191 C 
BRANCH  22  23
ATOM     23  O   UNL     1      24.038  24.002  17.309  1.00  0.00    -0.394 OA
ATOM     24  H   UNL     1      23.618  24.396  16.509  1.00  0.00     0.210 HD
ENDBRANCH  22  23
ENDBRANCH  17  22
BRANCH  19  25
ATOM     25  O   UNL     1      28.255  25.781  18.201  1.00  0.00    -0.350 OA
BRANCH  25  26
ATOM     26  C   UNL     1      28.968  26.794  18.784  1.00  0.00     0.169 C 
BRANCH  26  27
ATOM     27  C   UNL     1      28.589  28.178  18.379  1.00  0.00     0.119 C 
BRANCH  27  28
ATOM     28  N   UNL     1      28.228  29.017  19.503  1.00  0.00    -0.092 NA
ATOM     29  N   UNL     1      27.524  28.630  20.415  1.00  0.00     0.001 N 
ATOM     30  N   UNL     1      27.058  28.315  21.508  1.00  0.00    -0.003 NA
ENDBRANCH  27  28
ENDBRANCH  26  27
ENDBRANCH  25  26
ENDBRANCH  19  25
BRANCH  20  31
ATOM     31  O   UNL     1      26.265  25.467  21.997  1.00  0.00    -0.387 OA
ATOM     32  H   UNL     1      26.866  26.279  22.012  1.00  0.00     0.211 HD
ENDBRANCH  20  31
BRANCH  21  33
ATOM     33  O   UNL     1      28.889  24.168  21.220  1.00  0.00    -0.385 OA
ATOM     34  H   UNL     1      29.811  24.276  20.930  1.00  0.00     0.211 HD
ENDBRANCH  21  33
ENDBRANCH  15  16
ENDBRANCH  10  15
BRANCH  12  35
ATOM     35  O   UNL     1      22.761  26.795  17.749  1.00  0.00    -0.385 OA
ATOM     36  H   UNL     1      23.289  27.627  17.711  1.00  0.00     0.211 HD
ENDBRANCH  12  35
BRANCH  13  37
ATOM     37  O   UNL     1      20.425  27.687  19.097  1.00  0.00    -0.387 OA
ATOM     38  H   UNL     1      20.228  26.756  18.823  1.00  0.00     0.211 HD
ENDBRANCH  13  37
BRANCH  14  39
ATOM     39  O   UNL     1      20.529  26.712  21.539  1.00  0.00    -0.387 OA
ATOM     40  H   UNL     1      19.884  26.617  20.788  1.00  0.00     0.211 HD
ENDBRANCH  14  39
ENDBRANCH   8   9
ENDBRANCH   7   8
ENDBRANCH   1   7
BRANCH   1  41
ATOM     41  C   UNL     1      24.611  25.469  24.609  1.00  0.00     0.364 C 
ATOM     42  O   UNL     1      25.471  26.421  24.724  1.00  0.00    -0.246 OA
BRANCH  41  43
ATOM     43  O   UNL     1      25.166  24.231  24.417  1.00  0.00    -0.477 OA
ATOM     44  H   UNL     1      25.688  23.775  25.151  1.00  0.00     0.296 HD
ENDBRANCH  41  43
ENDBRANCH   1  41
BRANCH   3  45
ATOM     45  O   UNL     1      22.688  23.838  27.906  1.00  0.00    -0.391 OA
ATOM     46  H   UNL     1      22.113  23.216  27.405  1.00  0.00     0.211 HD
ENDBRANCH   3  45
BRANCH   5  47
ATOM     47  C   UNL     1      21.385  27.835  26.860  1.00  0.00     0.176 C 
BRANCH  47  48
ATOM     48  O   UNL     1      20.887  27.212  28.032  1.00  0.00    -0.388 OA
ATOM     49  H   UNL     1      21.186  27.687  28.832  1.00  0.00     0.211 HD
ENDBRANCH  47  48
BRANCH  47  50
ATOM     50  C   UNL     1      21.360  29.303  26.966  1.00  0.00     0.165 C 
BRANCH  50  51
ATOM     51  O   UNL     1      21.128  29.740  28.252  1.00  0.00    -0.388 OA
ATOM     52  H   UNL     1      20.170  29.739  28.504  1.00  0.00     0.211 HD
ENDBRANCH  50  51
BRANCH  50  53
ATOM     53  C   UNL     1      20.524  30.063  25.994  1.00  0.00     0.154 C 
BRANCH  53  54
ATOM     54  N   UNL     1      20.696  29.749  24.618  1.00  0.00    -0.319 N 
ATOM     55  C   UNL     1      19.539  29.828  23.770  1.00  0.00     0.407 C 
ATOM     56  H   UNL     1      21.586  29.448  24.190  1.00  0.00     0.167 HD
ATOM     57  O   UNL     1      18.420  30.175  24.284  1.00  0.00    -0.225 OA
BRANCH  55  58
ATOM     58  O   UNL     1      19.645  29.540  22.439  1.00  0.00    -0.443 OA
BRANCH  58  59
ATOM     59  C   UNL     1      19.026  30.309  21.441  1.00  0.00     0.294 C 
BRANCH  59  60
ATOM     60  C   UNL     1      17.927  29.550  20.804  1.00  0.00     0.120 A 
ATOM     61  C   UNL     1      16.668  29.983  20.407  1.00  0.00     0.138 A 
ATOM     62  N   UNL     1      17.947  28.249  20.471  1.00  0.00    -0.132 NA
ATOM     63  N   UNL     1      15.979  28.968  19.864  1.00  0.00    -0.248 N 
ATOM     64  N   UNL     1      16.798  27.914  19.919  1.00  0.00    -0.067 NA
BRANCH  63  65
ATOM     65  C   UNL     1      14.621  28.942  19.310  1.00  0.00     0.185 C 
BRANCH  65  66
ATOM     66  C   UNL     1      13.788  29.848  20.135  1.00  0.00     0.018 A 
ATOM     67  C   UNL     1      13.474  31.099  19.639  1.00  0.00     0.025 A 
ATOM     68  C   UNL     1      13.311  29.485  21.389  1.00  0.00     0.134 A 
ATOM     69  C   UNL     1      12.697  31.997  20.356  1.00  0.00     0.019 A 
ATOM     70  C   UNL     1      12.532  30.360  22.129  1.00  0.00     0.061 A 
ATOM     71  Br  UNL     1      12.290  33.710  19.633  1.00  0.00    -0.051 Br
ATOM     72  C   UNL     1      12.238  31.614  21.593  1.00  0.00     0.035 A 
ATOM     73  Br  UNL     1      11.895  29.842  23.829  1.00  0.00    -0.047 Br
BRANCH  68  74
ATOM     74  O   UNL     1      13.661  28.223  21.826  1.00  0.00    -0.506 OA
ATOM     75  H   UNL     1      14.298  27.668  21.279  1.00  0.00     0.293 HD
ENDBRANCH  68  74
ENDBRANCH  65  66
ENDBRANCH  63  65
ENDBRANCH  59  60
ENDBRANCH  58  59
ENDBRANCH  55  58
ENDBRANCH  53  54
ENDBRANCH  50  53
ENDBRANCH  47  50
ENDBRANCH   5  47
BRANCH   4  76
ATOM     76  N   UNL     1      24.144  26.551  28.409  1.00  0.00    -0.348 N 
ATOM     77  C   UNL     1      23.970  26.459  29.814  1.00  0.00     0.217 C 
ATOM     78  H   UNL     1      25.069  26.884  28.052  1.00  0.00     0.163 HD
ATOM     79  C   UNL     1      25.107  26.832  30.712  1.00  0.00     0.114 C 
ATOM     80  O   UNL     1      22.856  26.061  30.294  1.00  0.00    -0.275 OA
ENDBRANCH   4  76
TORSDOF 32
