REMARK VINA RESULT:    -6.169      4.348      7.606
REMARK INTER + INTRA:         -21.483
REMARK INTER:                 -15.011
REMARK INTRA:                  -6.473
REMARK UNBOUND:                -6.298
REMARK SMILES CC(=O)N[C@@H]1[C@@H](O)C[C@](OC[C@H]2O[C@@H](O[C@H]3[C@H](O)[C@@H](O)[C@H](OCCN=[N+]=[N-])O[C@@H]3CO)[C@H](O)[C@@H](O)[C@H]2O)(C(=O)O)O[C@H]1C(O)[C@H](O)CNC(=O)OCc1cn(-c2c(C)cc(C)cc2C)nn1
REMARK SMILES IDX 9 1 8 2 6 3 5 4 42 5 41 6 10 7 11 8 12 9 14 10 13 11 32 12
REMARK SMILES IDX 34 13 36 14 15 15 16 16 29 17 28 18 21 19 17 20 19 21 30 22
REMARK SMILES IDX 31 23 22 25 23 26 24 27 25 28 26 29 27 30 18 31 20 33 33 35
REMARK SMILES IDX 35 37 37 39 38 41 39 42 40 43 7 45 43 47 44 48 45 50 46 51
REMARK SMILES IDX 47 53 48 54 49 55 50 57 51 58 52 59 53 60 54 61 66 62 55 63
REMARK SMILES IDX 65 64 56 65 57 66 63 67 58 68 59 69 62 70 64 71 60 72 61 73
REMARK SMILES IDX 4 74 2 75 1 77 3 78
REMARK H PARENT 31 24 18 32 20 34 33 36 35 38 37 40 40 44 7 46 44 49 46 52
REMARK H PARENT 48 56 4 76
REMARK Flexibility Score: inf
ROOT
ATOM      1  C   UNL     1      15.789  31.412  21.395  1.00  0.00     0.272 C 
ATOM      2  C   UNL     1      16.060  32.473  20.402  1.00  0.00     0.113 C 
ATOM      3  C   UNL     1      15.049  32.633  19.294  1.00  0.00     0.145 C 
ATOM      4  C   UNL     1      14.479  31.299  18.927  1.00  0.00     0.142 C 
ATOM      5  C   UNL     1      15.535  30.273  19.357  1.00  0.00     0.178 C 
ATOM      6  O   UNL     1      15.451  30.201  20.774  1.00  0.00    -0.332 OA
ENDROOT
BRANCH   1   7
ATOM      7  O   UNL     1      14.899  31.685  22.390  1.00  0.00    -0.338 OA
BRANCH   7   8
ATOM      8  C   UNL     1      15.279  32.380  23.478  1.00  0.00     0.199 C 
BRANCH   8   9
ATOM      9  C   UNL     1      14.272  32.076  24.597  1.00  0.00     0.179 C 
ATOM     10  C   UNL     1      12.066  31.439  24.749  1.00  0.00     0.282 C 
ATOM     11  O   UNL     1      12.980  32.302  24.164  1.00  0.00    -0.341 OA
ATOM     12  C   UNL     1      12.345  30.078  24.165  1.00  0.00     0.202 C 
ATOM     13  C   UNL     1      13.712  29.667  24.693  1.00  0.00     0.179 C 
ATOM     14  C   UNL     1      14.509  30.779  25.278  1.00  0.00     0.177 C 
BRANCH  10  15
ATOM     15  O   UNL     1      10.792  31.860  24.689  1.00  0.00    -0.341 OA
BRANCH  15  16
ATOM     16  C   UNL     1      10.091  31.699  23.549  1.00  0.00     0.184 C 
ATOM     17  C   UNL     1      10.092  33.000  22.766  1.00  0.00     0.178 C 
ATOM     18  O   UNL     1       8.919  33.687  22.865  1.00  0.00    -0.341 OA
ATOM     19  C   UNL     1       7.815  33.027  22.348  1.00  0.00     0.281 C 
ATOM     20  C   UNL     1       8.649  31.329  23.906  1.00  0.00     0.180 C 
ATOM     21  C   UNL     1       7.735  31.593  22.722  1.00  0.00     0.202 C 
BRANCH  17  22
ATOM     22  C   UNL     1      10.534  32.770  21.330  1.00  0.00     0.191 C 
BRANCH  22  23
ATOM     23  O   UNL     1      11.839  32.285  21.290  1.00  0.00    -0.394 OA
ATOM     24  H   UNL     1      11.998  31.640  20.564  1.00  0.00     0.210 HD
ENDBRANCH  22  23
ENDBRANCH  17  22
BRANCH  19  25
ATOM     25  O   UNL     1       7.765  33.146  20.951  1.00  0.00    -0.350 OA
BRANCH  25  26
ATOM     26  C   UNL     1       7.182  32.073  20.327  1.00  0.00     0.169 C 
BRANCH  26  27
ATOM     27  C   UNL     1       5.973  32.391  19.503  1.00  0.00     0.119 C 
BRANCH  27  28
ATOM     28  N   UNL     1       5.783  31.447  18.417  1.00  0.00    -0.092 NA
ATOM     29  N   UNL     1       5.386  30.286  18.641  1.00  0.00     0.001 N 
ATOM     30  N   UNL     1       4.932  29.216  19.063  1.00  0.00    -0.003 NA
ENDBRANCH  27  28
ENDBRANCH  26  27
ENDBRANCH  25  26
ENDBRANCH  19  25
BRANCH  20  31
ATOM     31  O   UNL     1       8.502  30.014  24.271  1.00  0.00    -0.387 OA
ATOM     32  H   UNL     1       8.159  29.872  25.190  1.00  0.00     0.211 HD
ENDBRANCH  20  31
BRANCH  21  33
ATOM     33  O   UNL     1       6.439  31.302  23.139  1.00  0.00    -0.385 OA
ATOM     34  H   UNL     1       6.412  31.104  24.117  1.00  0.00     0.211 HD
ENDBRANCH  21  33
ENDBRANCH  15  16
ENDBRANCH  10  15
BRANCH  12  35
ATOM     35  O   UNL     1      11.435  29.115  24.590  1.00  0.00    -0.385 OA
ATOM     36  H   UNL     1      11.854  28.220  24.408  1.00  0.00     0.211 HD
ENDBRANCH  12  35
BRANCH  13  37
ATOM     37  O   UNL     1      14.469  29.042  23.703  1.00  0.00    -0.387 OA
ATOM     38  H   UNL     1      14.047  28.217  23.351  1.00  0.00     0.211 HD
ENDBRANCH  13  37
BRANCH  14  39
ATOM     39  O   UNL     1      15.875  30.423  25.165  1.00  0.00    -0.387 OA
ATOM     40  H   UNL     1      16.176  29.941  25.969  1.00  0.00     0.211 HD
ENDBRANCH  14  39
ENDBRANCH   8   9
ENDBRANCH   7   8
ENDBRANCH   1   7
BRANCH   1  41
ATOM     41  C   UNL     1      17.122  31.086  22.032  1.00  0.00     0.364 C 
ATOM     42  O   UNL     1      18.020  31.934  22.004  1.00  0.00    -0.246 OA
BRANCH  41  43
ATOM     43  O   UNL     1      17.353  29.866  22.637  1.00  0.00    -0.477 OA
ATOM     44  H   UNL     1      17.752  29.744  23.552  1.00  0.00     0.296 HD
ENDBRANCH  41  43
ENDBRANCH   1  41
BRANCH   3  45
ATOM     45  O   UNL     1      14.098  33.551  19.736  1.00  0.00    -0.391 OA
ATOM     46  H   UNL     1      14.566  34.248  20.300  1.00  0.00     0.211 HD
ENDBRANCH   3  45
BRANCH   5  47
ATOM     47  C   UNL     1      15.281  28.889  18.906  1.00  0.00     0.176 C 
BRANCH  47  48
ATOM     48  O   UNL     1      14.326  28.332  19.834  1.00  0.00    -0.388 OA
ATOM     49  H   UNL     1      14.747  27.556  20.286  1.00  0.00     0.211 HD
ENDBRANCH  47  48
BRANCH  47  50
ATOM     50  C   UNL     1      16.421  27.896  19.007  1.00  0.00     0.165 C 
BRANCH  50  51
ATOM     51  O   UNL     1      16.484  27.670  20.436  1.00  0.00    -0.388 OA
ATOM     52  H   UNL     1      17.123  28.296  20.828  1.00  0.00     0.211 HD
ENDBRANCH  50  51
BRANCH  50  53
ATOM     53  C   UNL     1      17.754  28.544  18.719  1.00  0.00     0.154 C 
BRANCH  53  54
ATOM     54  N   UNL     1      18.583  28.815  19.854  1.00  0.00    -0.319 N 
ATOM     55  C   UNL     1      19.786  29.566  19.684  1.00  0.00     0.407 C 
ATOM     56  H   UNL     1      18.319  28.462  20.817  1.00  0.00     0.167 HD
ATOM     57  O   UNL     1      20.053  29.944  18.511  1.00  0.00    -0.225 OA
BRANCH  55  58
ATOM     58  O   UNL     1      20.630  29.875  20.744  1.00  0.00    -0.443 OA
BRANCH  58  59
ATOM     59  C   UNL     1      20.660  29.114  21.928  1.00  0.00     0.294 C 
BRANCH  59  60
ATOM     60  C   UNL     1      21.243  27.756  21.754  1.00  0.00     0.121 A 
ATOM     61  C   UNL     1      22.568  27.385  21.776  1.00  0.00     0.144 A 
ATOM     62  N   UNL     1      20.553  26.599  21.534  1.00  0.00    -0.131 NA
ATOM     63  N   UNL     1      22.655  26.060  21.576  1.00  0.00    -0.220 N 
ATOM     64  N   UNL     1      21.403  25.627  21.434  1.00  0.00    -0.062 NA
BRANCH  63  65
ATOM     65  C   UNL     1      23.834  25.235  21.511  1.00  0.00     0.072 A 
ATOM     66  C   UNL     1      24.216  24.606  22.670  1.00  0.00    -0.025 A 
ATOM     67  C   UNL     1      24.511  25.109  20.348  1.00  0.00    -0.025 A 
ATOM     68  C   UNL     1      23.435  24.774  23.944  1.00  0.00     0.047 C 
ATOM     69  C   UNL     1      25.346  23.814  22.628  1.00  0.00     0.009 A 
ATOM     70  C   UNL     1      25.650  24.296  20.355  1.00  0.00     0.009 A 
ATOM     71  C   UNL     1      24.126  25.771  19.074  1.00  0.00     0.047 C 
ATOM     72  C   UNL     1      26.080  23.641  21.483  1.00  0.00    -0.050 A 
ATOM     73  C   UNL     1      27.284  22.774  21.505  1.00  0.00     0.044 C 
ENDBRANCH  63  65
ENDBRANCH  59  60
ENDBRANCH  58  59
ENDBRANCH  55  58
ENDBRANCH  53  54
ENDBRANCH  50  53
ENDBRANCH  47  50
ENDBRANCH   5  47
BRANCH   4  74
ATOM     74  N   UNL     1      14.040  31.143  17.609  1.00  0.00    -0.348 N 
ATOM     75  C   UNL     1      12.742  31.523  17.162  1.00  0.00     0.217 C 
ATOM     76  H   UNL     1      14.678  30.752  16.892  1.00  0.00     0.163 HD
ATOM     77  C   UNL     1      12.305  31.344  15.744  1.00  0.00     0.114 C 
ATOM     78  O   UNL     1      11.970  32.018  18.000  1.00  0.00    -0.275 OA
ENDBRANCH   4  74
TORSDOF 30
