REMARK VINA RESULT:    -5.748      8.738     16.373
REMARK INTER + INTRA:         -24.738
REMARK INTER:                 -15.049
REMARK INTRA:                  -9.689
REMARK UNBOUND:                -9.245
REMARK SMILES CC(=O)N[C@@H]1[C@@H](O)C[C@](OC[C@H]2O[C@@H](O[C@H]3[C@H](O)[C@@H](O)[C@H](OCCN=[N+]=[N-])O[C@@H]3CO)[C@H](O)[C@@H](O)[C@H]2O)(C(=O)O)O[C@H]1C(O)[C@H](O)CNC(=O)OCc1cn([C@@H](C)C(=O)OCc2ccccc2)nn1
REMARK SMILES IDX 43 1 42 2 9 3 8 4 41 5 6 6 5 7 10 8 11 9 12 10 14 11 13 12
REMARK SMILES IDX 32 13 34 14 36 15 15 16 16 17 29 18 28 19 21 20 17 21 19 22
REMARK SMILES IDX 30 23 31 24 22 26 23 27 24 28 25 29 26 30 27 31 18 32 20 34
REMARK SMILES IDX 33 36 35 38 37 40 38 42 39 43 40 44 7 46 4 48 2 49 1 51 3 52
REMARK SMILES IDX 44 53 45 55 46 56 47 58 48 59 49 60 50 62 51 63 52 64 53 65
REMARK SMILES IDX 54 66 69 67 55 68 68 69 56 70 57 71 58 72 59 73 60 74 61 75
REMARK SMILES IDX 62 76 63 77 67 78 64 79 66 80 65 81
REMARK H PARENT 31 25 18 33 20 35 33 37 35 39 37 41 40 45 7 47 4 50 44 54
REMARK H PARENT 46 57 48 61
REMARK Flexibility Score: inf
ROOT
ATOM      1  C   UNL     1      17.213  30.046  21.290  1.00  0.00     0.176 C 
ENDROOT
BRANCH   1   2
ATOM      2  C   UNL     1      17.056  30.354  19.852  1.00  0.00     0.178 C 
ATOM      3  C   UNL     1      14.800  29.892  19.468  1.00  0.00     0.272 C 
ATOM      4  C   UNL     1      15.206  28.765  18.599  1.00  0.00     0.113 C 
ATOM      5  O   UNL     1      15.850  30.879  19.471  1.00  0.00    -0.332 OA
ATOM      6  C   UNL     1      16.525  28.138  18.987  1.00  0.00     0.145 C 
ATOM      7  C   UNL     1      17.564  29.218  19.002  1.00  0.00     0.142 C 
BRANCH   3   8
ATOM      8  O   UNL     1      14.496  29.712  20.728  1.00  0.00    -0.338 OA
BRANCH   8   9
ATOM      9  C   UNL     1      13.714  28.876  21.347  1.00  0.00     0.199 C 
BRANCH   9  10
ATOM     10  C   UNL     1      13.055  29.180  22.663  1.00  0.00     0.179 C 
ATOM     11  C   UNL     1      13.628  30.042  24.747  1.00  0.00     0.282 C 
ATOM     12  O   UNL     1      14.012  29.311  23.626  1.00  0.00    -0.341 OA
ATOM     13  C   UNL     1      12.154  30.083  24.930  1.00  0.00     0.202 C 
ATOM     14  C   UNL     1      11.485  30.776  23.775  1.00  0.00     0.179 C 
ATOM     15  C   UNL     1      12.225  30.474  22.522  1.00  0.00     0.177 C 
BRANCH  11  16
ATOM     16  O   UNL     1      14.283  31.241  24.687  1.00  0.00    -0.341 OA
BRANCH  16  17
ATOM     17  C   UNL     1      14.543  31.835  25.886  1.00  0.00     0.184 C 
ATOM     18  C   UNL     1      15.102  33.215  25.649  1.00  0.00     0.178 C 
ATOM     19  O   UNL     1      15.517  33.776  26.862  1.00  0.00    -0.341 OA
ATOM     20  C   UNL     1      16.819  33.255  27.072  1.00  0.00     0.281 C 
ATOM     21  C   UNL     1      15.570  31.077  26.712  1.00  0.00     0.180 C 
ATOM     22  C   UNL     1      16.869  31.771  26.886  1.00  0.00     0.202 C 
BRANCH  18  23
ATOM     23  C   UNL     1      14.190  34.132  24.892  1.00  0.00     0.191 C 
BRANCH  23  24
ATOM     24  O   UNL     1      14.190  33.692  23.565  1.00  0.00    -0.394 OA
ATOM     25  H   UNL     1      14.560  34.357  22.937  1.00  0.00     0.210 HD
ENDBRANCH  23  24
ENDBRANCH  18  23
BRANCH  20  26
ATOM     26  O   UNL     1      17.247  33.691  28.285  1.00  0.00    -0.350 OA
BRANCH  26  27
ATOM     27  C   UNL     1      17.392  32.799  29.295  1.00  0.00     0.169 C 
BRANCH  27  28
ATOM     28  C   UNL     1      16.518  32.946  30.488  1.00  0.00     0.119 C 
BRANCH  28  29
ATOM     29  N   UNL     1      15.188  32.463  30.389  1.00  0.00    -0.092 NA
ATOM     30  N   UNL     1      14.260  33.166  30.009  1.00  0.00     0.001 N 
ATOM     31  N   UNL     1      13.313  33.770  29.472  1.00  0.00    -0.003 NA
ENDBRANCH  28  29
ENDBRANCH  27  28
ENDBRANCH  26  27
ENDBRANCH  20  26
BRANCH  21  32
ATOM     32  O   UNL     1      15.064  30.744  27.971  1.00  0.00    -0.387 OA
ATOM     33  H   UNL     1      14.995  29.773  28.115  1.00  0.00     0.211 HD
ENDBRANCH  21  32
BRANCH  22  34
ATOM     34  O   UNL     1      17.745  31.378  25.869  1.00  0.00    -0.385 OA
ATOM     35  H   UNL     1      17.186  30.958  25.161  1.00  0.00     0.211 HD
ENDBRANCH  22  34
ENDBRANCH  16  17
ENDBRANCH  11  16
BRANCH  13  36
ATOM     36  O   UNL     1      11.687  28.753  25.059  1.00  0.00    -0.385 OA
ATOM     37  H   UNL     1      11.005  28.658  24.327  1.00  0.00     0.211 HD
ENDBRANCH  13  36
BRANCH  14  38
ATOM     38  O   UNL     1      11.395  32.124  24.057  1.00  0.00    -0.387 OA
ATOM     39  H   UNL     1      12.266  32.509  24.350  1.00  0.00     0.211 HD
ENDBRANCH  14  38
BRANCH  15  40
ATOM     40  O   UNL     1      13.009  31.535  22.091  1.00  0.00    -0.387 OA
ATOM     41  H   UNL     1      12.437  32.361  22.029  1.00  0.00     0.211 HD
ENDBRANCH  15  40
ENDBRANCH   9  10
ENDBRANCH   8   9
ENDBRANCH   3   8
BRANCH   3  42
ATOM     42  C   UNL     1      13.747  30.684  18.718  1.00  0.00     0.364 C 
ATOM     43  O   UNL     1      13.255  31.718  19.190  1.00  0.00    -0.246 OA
BRANCH  42  44
ATOM     44  O   UNL     1      13.302  30.266  17.466  1.00  0.00    -0.477 OA
ATOM     45  H   UNL     1      13.086  29.301  17.236  1.00  0.00     0.296 HD
ENDBRANCH  42  44
ENDBRANCH   3  42
BRANCH   6  46
ATOM     46  O   UNL     1      16.459  27.438  20.187  1.00  0.00    -0.391 OA
ATOM     47  H   UNL     1      17.213  27.751  20.740  1.00  0.00     0.211 HD
ENDBRANCH   6  46
BRANCH   7  48
ATOM     48  N   UNL     1      17.809  29.647  17.631  1.00  0.00    -0.348 N 
ATOM     49  C   UNL     1      18.811  28.963  16.873  1.00  0.00     0.217 C 
ATOM     50  H   UNL     1      17.299  30.425  17.168  1.00  0.00     0.163 HD
ATOM     51  C   UNL     1      19.064  29.404  15.468  1.00  0.00     0.114 C 
ATOM     52  O   UNL     1      19.460  28.013  17.389  1.00  0.00    -0.275 OA
ENDBRANCH   7  48
ENDBRANCH   1   2
BRANCH   1  53
ATOM     53  O   UNL     1      18.514  29.529  21.501  1.00  0.00    -0.388 OA
ATOM     54  H   UNL     1      18.785  29.655  22.451  1.00  0.00     0.211 HD
ENDBRANCH   1  53
BRANCH   1  55
ATOM     55  C   UNL     1      17.168  31.288  22.194  1.00  0.00     0.165 C 
BRANCH  55  56
ATOM     56  O   UNL     1      15.903  31.619  22.564  1.00  0.00    -0.388 OA
ATOM     57  H   UNL     1      15.293  30.847  22.481  1.00  0.00     0.211 HD
ENDBRANCH  55  56
BRANCH  55  58
ATOM     58  C   UNL     1      17.993  32.395  21.620  1.00  0.00     0.154 C 
BRANCH  58  59
ATOM     59  N   UNL     1      19.263  32.484  22.285  1.00  0.00    -0.319 N 
ATOM     60  C   UNL     1      19.527  33.187  23.484  1.00  0.00     0.407 C 
ATOM     61  H   UNL     1      20.118  31.990  21.876  1.00  0.00     0.167 HD
ATOM     62  O   UNL     1      18.641  33.820  24.063  1.00  0.00    -0.225 OA
BRANCH  60  63
ATOM     63  O   UNL     1      20.809  33.186  24.056  1.00  0.00    -0.443 OA
BRANCH  63  64
ATOM     64  C   UNL     1      21.009  33.072  25.442  1.00  0.00     0.294 C 
BRANCH  64  65
ATOM     65  C   UNL     1      20.869  31.642  25.800  1.00  0.00     0.120 A 
ATOM     66  C   UNL     1      21.199  30.539  25.044  1.00  0.00     0.139 A 
ATOM     67  N   UNL     1      20.376  31.178  26.954  1.00  0.00    -0.132 NA
ATOM     68  N   UNL     1      20.896  29.421  25.759  1.00  0.00    -0.238 N 
ATOM     69  N   UNL     1      20.401  29.838  26.909  1.00  0.00    -0.066 NA
BRANCH  68  70
ATOM     70  C   UNL     1      21.114  28.094  25.240  1.00  0.00     0.215 C 
ATOM     71  C   UNL     1      21.574  28.138  23.794  1.00  0.00     0.046 C 
BRANCH  70  72
ATOM     72  C   UNL     1      22.137  27.365  26.070  1.00  0.00     0.331 C 
ATOM     73  O   UNL     1      23.208  27.933  26.342  1.00  0.00    -0.250 OA
BRANCH  72  74
ATOM     74  O   UNL     1      21.909  26.089  26.531  1.00  0.00    -0.459 OA
BRANCH  74  75
ATOM     75  C   UNL     1      22.549  24.931  26.054  1.00  0.00     0.268 C 
BRANCH  75  76
ATOM     76  C   UNL     1      22.405  24.730  24.597  1.00  0.00    -0.011 A 
ATOM     77  C   UNL     1      21.182  24.622  23.988  1.00  0.00     0.007 A 
ATOM     78  C   UNL     1      23.522  24.644  23.804  1.00  0.00     0.007 A 
ATOM     79  C   UNL     1      21.044  24.432  22.631  1.00  0.00     0.000 A 
ATOM     80  C   UNL     1      23.433  24.455  22.444  1.00  0.00     0.000 A 
ATOM     81  C   UNL     1      22.176  24.349  21.861  1.00  0.00     0.000 A 
ENDBRANCH  75  76
ENDBRANCH  74  75
ENDBRANCH  72  74
ENDBRANCH  70  72
ENDBRANCH  68  70
ENDBRANCH  64  65
ENDBRANCH  63  64
ENDBRANCH  60  63
ENDBRANCH  58  59
ENDBRANCH  55  58
ENDBRANCH   1  55
TORSDOF 34
