REMARK VINA RESULT:    -4.828      2.448      7.923
REMARK INTER + INTRA:         -20.848
REMARK INTER:                 -12.418
REMARK INTRA:                  -8.430
REMARK UNBOUND:                -8.118
REMARK SMILES CC(=O)N[C@@H]1[C@@H](O)C[C@](OC[C@H]2O[C@@H](O[C@H]3[C@H](O)[C@@H](O)[C@H](OCCN=[N+]=[N-])O[C@@H]3CO)[C@H](O)[C@@H](O)[C@H]2O)(C(=O)O)O[C@H]1C(O)[C@H](O)CNC(=O)OCc1cn(CCOC(C)=O)nn1
REMARK SMILES IDX 43 1 42 2 9 3 8 4 41 5 6 6 5 7 10 8 11 9 12 10 14 11 13 12
REMARK SMILES IDX 32 13 34 14 36 15 15 16 16 17 29 18 28 19 21 20 17 21 19 22
REMARK SMILES IDX 30 23 31 24 22 26 23 27 24 28 25 29 26 30 27 31 18 32 20 34
REMARK SMILES IDX 33 36 35 38 37 40 38 42 39 43 40 44 7 46 4 48 2 49 1 51 3 52
REMARK SMILES IDX 44 53 45 55 46 56 47 58 48 59 49 60 50 62 51 63 52 64 53 65
REMARK SMILES IDX 54 66 63 67 55 68 62 69 56 70 57 71 58 72 59 73 61 74 60 75
REMARK H PARENT 31 25 18 33 20 35 33 37 35 39 37 41 40 45 7 47 4 50 44 54
REMARK H PARENT 46 57 48 61
REMARK Flexibility Score: inf
ROOT
ATOM      1  C   UNL     1       2.170  20.219  32.656  1.00  0.00     0.176 C 
ENDROOT
BRANCH   1   2
ATOM      2  C   UNL     1       2.256  21.342  33.657  1.00  0.00     0.178 C 
ATOM      3  C   UNL     1       1.275  23.456  34.015  1.00  0.00     0.272 C 
ATOM      4  C   UNL     1       2.114  23.327  35.263  1.00  0.00     0.113 C 
ATOM      5  O   UNL     1       1.232  22.238  33.283  1.00  0.00    -0.332 OA
ATOM      6  C   UNL     1       3.512  22.900  34.989  1.00  0.00     0.145 C 
ATOM      7  C   UNL     1       3.516  22.151  33.626  1.00  0.00     0.142 C 
BRANCH   3   8
ATOM      8  O   UNL     1       1.603  24.389  33.155  1.00  0.00    -0.338 OA
BRANCH   8   9
ATOM      9  C   UNL     1       1.360  25.668  33.102  1.00  0.00     0.199 C 
BRANCH   9  10
ATOM     10  C   UNL     1       2.308  26.731  32.742  1.00  0.00     0.179 C 
ATOM     11  C   UNL     1       3.759  28.207  33.756  1.00  0.00     0.282 C 
ATOM     12  O   UNL     1       3.188  26.932  33.875  1.00  0.00    -0.341 OA
ATOM     13  C   UNL     1       4.186  28.559  32.393  1.00  0.00     0.202 C 
ATOM     14  C   UNL     1       4.134  27.494  31.354  1.00  0.00     0.179 C 
ATOM     15  C   UNL     1       3.337  26.282  31.687  1.00  0.00     0.177 C 
BRANCH  11  16
ATOM     16  O   UNL     1       4.719  28.305  34.750  1.00  0.00    -0.341 OA
BRANCH  16  17
ATOM     17  C   UNL     1       5.235  27.094  35.133  1.00  0.00     0.184 C 
ATOM     18  C   UNL     1       5.330  27.030  36.640  1.00  0.00     0.178 C 
ATOM     19  O   UNL     1       5.830  25.754  36.929  1.00  0.00    -0.341 OA
ATOM     20  C   UNL     1       7.171  25.721  36.686  1.00  0.00     0.281 C 
ATOM     21  C   UNL     1       6.603  26.840  34.521  1.00  0.00     0.180 C 
ATOM     22  C   UNL     1       7.651  26.604  35.559  1.00  0.00     0.202 C 
BRANCH  18  23
ATOM     23  C   UNL     1       3.947  27.155  37.253  1.00  0.00     0.191 C 
BRANCH  23  24
ATOM     24  O   UNL     1       3.071  26.300  36.610  1.00  0.00    -0.394 OA
ATOM     25  H   UNL     1       2.649  26.839  35.877  1.00  0.00     0.210 HD
ENDBRANCH  23  24
ENDBRANCH  18  23
BRANCH  20  26
ATOM     26  O   UNL     1       7.525  24.384  36.462  1.00  0.00    -0.350 OA
BRANCH  26  27
ATOM     27  C   UNL     1       8.906  24.219  36.461  1.00  0.00     0.169 C 
BRANCH  27  28
ATOM     28  C   UNL     1       9.201  23.240  35.320  1.00  0.00     0.119 C 
BRANCH  28  29
ATOM     29  N   UNL     1       9.226  23.992  34.077  1.00  0.00    -0.092 NA
ATOM     30  N   UNL     1      10.099  24.833  33.829  1.00  0.00     0.001 N 
ATOM     31  N   UNL     1      10.708  25.916  33.744  1.00  0.00    -0.003 NA
ENDBRANCH  28  29
ENDBRANCH  27  28
ENDBRANCH  26  27
ENDBRANCH  20  26
BRANCH  21  32
ATOM     32  O   UNL     1       6.595  25.825  33.572  1.00  0.00    -0.387 OA
ATOM     33  H   UNL     1       5.713  25.681  33.150  1.00  0.00     0.211 HD
ENDBRANCH  21  32
BRANCH  22  34
ATOM     34  O   UNL     1       8.197  27.796  35.991  1.00  0.00    -0.385 OA
ATOM     35  H   UNL     1       7.460  28.468  36.072  1.00  0.00     0.211 HD
ENDBRANCH  22  34
ENDBRANCH  16  17
ENDBRANCH  11  16
BRANCH  13  36
ATOM     36  O   UNL     1       3.561  29.750  31.937  1.00  0.00    -0.385 OA
ATOM     37  H   UNL     1       4.081  30.185  31.229  1.00  0.00     0.211 HD
ENDBRANCH  13  36
BRANCH  14  38
ATOM     38  O   UNL     1       5.419  27.072  30.982  1.00  0.00    -0.387 OA
ATOM     39  H   UNL     1       6.076  27.745  31.329  1.00  0.00     0.211 HD
ENDBRANCH  14  38
BRANCH  15  40
ATOM     40  O   UNL     1       4.223  25.373  32.329  1.00  0.00    -0.387 OA
ATOM     41  H   UNL     1       4.300  25.582  33.282  1.00  0.00     0.211 HD
ENDBRANCH  15  40
ENDBRANCH   9  10
ENDBRANCH   8   9
ENDBRANCH   3   8
BRANCH   3  42
ATOM     42  C   UNL     1      -0.130  23.535  34.503  1.00  0.00     0.364 C 
ATOM     43  O   UNL     1      -0.498  23.922  35.627  1.00  0.00    -0.246 OA
BRANCH  42  44
ATOM     44  O   UNL     1      -1.186  23.144  33.650  1.00  0.00    -0.477 OA
ATOM     45  H   UNL     1      -2.129  23.406  33.898  1.00  0.00     0.296 HD
ENDBRANCH  42  44
ENDBRANCH   3  42
BRANCH   6  46
ATOM     46  O   UNL     1       4.453  23.903  34.997  1.00  0.00    -0.391 OA
ATOM     47  H   UNL     1       4.651  24.254  35.902  1.00  0.00     0.211 HD
ENDBRANCH   6  46
BRANCH   7  48
ATOM     48  N   UNL     1       4.749  21.453  33.482  1.00  0.00    -0.348 N 
ATOM     49  C   UNL     1       5.883  22.043  32.865  1.00  0.00     0.217 C 
ATOM     50  H   UNL     1       4.836  20.495  33.856  1.00  0.00     0.163 HD
ATOM     51  C   UNL     1       7.174  21.303  32.716  1.00  0.00     0.114 C 
ATOM     52  O   UNL     1       5.854  23.227  32.411  1.00  0.00    -0.275 OA
ENDBRANCH   7  48
ENDBRANCH   1   2
BRANCH   1  53
ATOM     53  O   UNL     1       3.512  19.732  32.555  1.00  0.00    -0.388 OA
ATOM     54  H   UNL     1       4.147  20.470  32.666  1.00  0.00     0.211 HD
ENDBRANCH   1  53
BRANCH   1  55
ATOM     55  C   UNL     1       1.885  20.768  31.278  1.00  0.00     0.165 C 
BRANCH  55  56
ATOM     56  O   UNL     1       0.691  20.207  30.799  1.00  0.00    -0.388 OA
ATOM     57  H   UNL     1       0.319  20.810  30.123  1.00  0.00     0.211 HD
ENDBRANCH  55  56
BRANCH  55  58
ATOM     58  C   UNL     1       3.014  20.571  30.317  1.00  0.00     0.154 C 
BRANCH  58  59
ATOM     59  N   UNL     1       3.221  21.630  29.379  1.00  0.00    -0.319 N 
ATOM     60  C   UNL     1       2.435  21.813  28.225  1.00  0.00     0.407 C 
ATOM     61  H   UNL     1       3.996  22.351  29.512  1.00  0.00     0.167 HD
ATOM     62  O   UNL     1       1.481  21.064  27.931  1.00  0.00    -0.225 OA
BRANCH  60  63
ATOM     63  O   UNL     1       2.681  22.858  27.321  1.00  0.00    -0.443 OA
BRANCH  63  64
ATOM     64  C   UNL     1       2.150  24.141  27.489  1.00  0.00     0.294 C 
BRANCH  64  65
ATOM     65  C   UNL     1       3.201  25.193  27.403  1.00  0.00     0.120 A 
ATOM     66  C   UNL     1       3.555  25.831  26.227  1.00  0.00     0.138 A 
ATOM     67  N   UNL     1       3.969  25.725  28.348  1.00  0.00    -0.132 NA
ATOM     68  N   UNL     1       4.516  26.712  26.520  1.00  0.00    -0.249 N 
ATOM     69  N   UNL     1       4.752  26.632  27.817  1.00  0.00    -0.067 NA
BRANCH  68  70
ATOM     70  C   UNL     1       5.214  27.610  25.588  1.00  0.00     0.187 C 
BRANCH  70  71
ATOM     71  C   UNL     1       6.321  28.341  26.313  1.00  0.00     0.256 C 
BRANCH  71  72
ATOM     72  O   UNL     1       7.468  28.368  25.470  1.00  0.00    -0.464 OA
BRANCH  72  73
ATOM     73  C   UNL     1       8.054  27.182  25.038  1.00  0.00     0.302 C 
ATOM     74  O   UNL     1       8.019  26.920  23.813  1.00  0.00    -0.253 OA
ATOM     75  C   UNL     1       8.716  26.225  25.985  1.00  0.00     0.139 C 
ENDBRANCH  72  73
ENDBRANCH  71  72
ENDBRANCH  70  71
ENDBRANCH  68  70
ENDBRANCH  64  65
ENDBRANCH  63  64
ENDBRANCH  60  63
ENDBRANCH  58  59
ENDBRANCH  55  58
ENDBRANCH   1  55
TORSDOF 33
