REMARK VINA RESULT:    -4.974      2.914      9.423
REMARK INTER + INTRA:         -21.233
REMARK INTER:                 -14.875
REMARK INTRA:                  -6.359
REMARK UNBOUND:                -8.118
REMARK SMILES CC(=O)N[C@@H]1[C@@H](O)C[C@](OC[C@H]2O[C@@H](O[C@H]3[C@H](O)[C@@H](O)[C@H](OCCN=[N+]=[N-])O[C@@H]3CO)[C@H](O)[C@@H](O)[C@H]2O)(C(=O)O)O[C@H]1C(O)[C@H](O)CNC(=O)OCc1cn(CCOC(C)=O)nn1
REMARK SMILES IDX 43 1 42 2 9 3 8 4 41 5 6 6 5 7 10 8 11 9 12 10 14 11 13 12
REMARK SMILES IDX 32 13 34 14 36 15 15 16 16 17 29 18 28 19 21 20 17 21 19 22
REMARK SMILES IDX 30 23 31 24 22 26 23 27 24 28 25 29 26 30 27 31 18 32 20 34
REMARK SMILES IDX 33 36 35 38 37 40 38 42 39 43 40 44 7 46 4 48 2 49 1 51 3 52
REMARK SMILES IDX 44 53 45 55 46 56 47 58 48 59 49 60 50 62 51 63 52 64 53 65
REMARK SMILES IDX 54 66 63 67 55 68 62 69 56 70 57 71 58 72 59 73 61 74 60 75
REMARK H PARENT 31 25 18 33 20 35 33 37 35 39 37 41 40 45 7 47 4 50 44 54
REMARK H PARENT 46 57 48 61
REMARK Flexibility Score: inf
ROOT
ATOM      1  C   UNL     1       2.797  20.302  31.902  1.00  0.00     0.176 C 
ENDROOT
BRANCH   1   2
ATOM      2  C   UNL     1       2.354  21.726  32.118  1.00  0.00     0.178 C 
ATOM      3  C   UNL     1       3.286  23.765  32.847  1.00  0.00     0.272 C 
ATOM      4  C   UNL     1       1.903  24.221  32.452  1.00  0.00     0.113 C 
ATOM      5  O   UNL     1       3.536  22.428  32.435  1.00  0.00    -0.332 OA
ATOM      6  C   UNL     1       0.823  23.357  32.997  1.00  0.00     0.145 C 
ATOM      7  C   UNL     1       1.438  21.956  33.279  1.00  0.00     0.142 C 
BRANCH   3   8
ATOM      8  O   UNL     1       3.607  23.822  34.117  1.00  0.00    -0.338 OA
BRANCH   8   9
ATOM      9  C   UNL     1       3.723  24.813  34.955  1.00  0.00     0.199 C 
BRANCH   9  10
ATOM     10  C   UNL     1       4.931  25.206  35.693  1.00  0.00     0.179 C 
ATOM     11  C   UNL     1       7.012  24.371  36.226  1.00  0.00     0.282 C 
ATOM     12  O   UNL     1       6.012  24.354  35.242  1.00  0.00    -0.341 OA
ATOM     13  C   UNL     1       7.281  25.698  36.799  1.00  0.00     0.202 C 
ATOM     14  C   UNL     1       6.615  26.872  36.171  1.00  0.00     0.179 C 
ATOM     15  C   UNL     1       5.478  26.579  35.256  1.00  0.00     0.177 C 
BRANCH  11  16
ATOM     16  O   UNL     1       8.098  23.693  35.697  1.00  0.00    -0.341 OA
BRANCH  16  17
ATOM     17  C   UNL     1       9.305  24.159  36.149  1.00  0.00     0.184 C 
ATOM     18  C   UNL     1      10.303  24.183  35.014  1.00  0.00     0.178 C 
ATOM     19  O   UNL     1      11.483  24.703  35.563  1.00  0.00    -0.341 OA
ATOM     20  C   UNL     1      12.107  23.742  36.301  1.00  0.00     0.281 C 
ATOM     21  C   UNL     1       9.849  23.318  37.293  1.00  0.00     0.180 C 
ATOM     22  C   UNL     1      11.196  22.752  36.986  1.00  0.00     0.202 C 
BRANCH  18  23
ATOM     23  C   UNL     1       9.826  25.124  33.922  1.00  0.00     0.191 C 
BRANCH  23  24
ATOM     24  O   UNL     1       9.942  26.434  34.349  1.00  0.00    -0.394 OA
ATOM     25  H   UNL     1      10.921  26.586  34.506  1.00  0.00     0.210 HD
ENDBRANCH  23  24
ENDBRANCH  18  23
BRANCH  20  26
ATOM     26  O   UNL     1      12.930  24.394  37.230  1.00  0.00    -0.350 OA
BRANCH  26  27
ATOM     27  C   UNL     1      12.919  25.770  37.039  1.00  0.00     0.169 C 
BRANCH  27  28
ATOM     28  C   UNL     1      12.600  26.373  38.412  1.00  0.00     0.119 C 
BRANCH  28  29
ATOM     29  N   UNL     1      11.171  26.621  38.473  1.00  0.00    -0.092 NA
ATOM     30  N   UNL     1      10.565  27.232  37.583  1.00  0.00     0.001 N 
ATOM     31  N   UNL     1      10.042  28.149  36.924  1.00  0.00    -0.003 NA
ENDBRANCH  28  29
ENDBRANCH  27  28
ENDBRANCH  26  27
ENDBRANCH  20  26
BRANCH  21  32
ATOM     32  O   UNL     1       9.849  23.990  38.509  1.00  0.00    -0.387 OA
ATOM     33  H   UNL     1       8.978  23.970  38.976  1.00  0.00     0.211 HD
ENDBRANCH  21  32
BRANCH  22  34
ATOM     34  O   UNL     1      11.087  21.551  36.313  1.00  0.00    -0.385 OA
ATOM     35  H   UNL     1      10.126  21.415  36.069  1.00  0.00     0.211 HD
ENDBRANCH  22  34
ENDBRANCH  16  17
ENDBRANCH  11  16
BRANCH  13  36
ATOM     36  O   UNL     1       7.110  25.708  38.209  1.00  0.00    -0.385 OA
ATOM     37  H   UNL     1       6.864  26.597  38.539  1.00  0.00     0.211 HD
ENDBRANCH  13  36
BRANCH  14  38
ATOM     38  O   UNL     1       7.531  27.673  35.471  1.00  0.00    -0.387 OA
ATOM     39  H   UNL     1       8.108  28.141  36.144  1.00  0.00     0.211 HD
ENDBRANCH  14  38
BRANCH  15  40
ATOM     40  O   UNL     1       6.030  26.413  33.956  1.00  0.00    -0.387 OA
ATOM     41  H   UNL     1       5.345  26.105  33.328  1.00  0.00     0.211 HD
ENDBRANCH  15  40
ENDBRANCH   9  10
ENDBRANCH   8   9
ENDBRANCH   3   8
BRANCH   3  42
ATOM     42  C   UNL     1       4.209  24.509  31.945  1.00  0.00     0.364 C 
ATOM     43  O   UNL     1       3.881  25.352  31.090  1.00  0.00    -0.246 OA
BRANCH  42  44
ATOM     44  O   UNL     1       5.599  24.274  32.023  1.00  0.00    -0.477 OA
ATOM     45  H   UNL     1       6.121  24.709  32.769  1.00  0.00     0.296 HD
ENDBRANCH  42  44
ENDBRANCH   3  42
BRANCH   6  46
ATOM     46  O   UNL     1       0.179  23.840  34.112  1.00  0.00    -0.391 OA
ATOM     47  H   UNL     1      -0.305  23.142  34.624  1.00  0.00     0.211 HD
ENDBRANCH   6  46
BRANCH   7  48
ATOM     48  N   UNL     1       0.386  21.019  33.490  1.00  0.00    -0.348 N 
ATOM     49  C   UNL     1       0.521  19.919  34.376  1.00  0.00     0.217 C 
ATOM     50  H   UNL     1      -0.516  21.152  33.006  1.00  0.00     0.163 HD
ATOM     51  C   UNL     1      -0.587  18.939  34.592  1.00  0.00     0.114 C 
ATOM     52  O   UNL     1       1.591  19.715  35.027  1.00  0.00    -0.275 OA
ENDBRANCH   7  48
ENDBRANCH   1   2
BRANCH   1  53
ATOM     53  O   UNL     1       3.955  20.162  32.730  1.00  0.00    -0.388 OA
ATOM     54  H   UNL     1       4.639  19.636  32.266  1.00  0.00     0.211 HD
ENDBRANCH   1  53
BRANCH   1  55
ATOM     55  C   UNL     1       3.335  20.129  30.501  1.00  0.00     0.165 C 
BRANCH  55  56
ATOM     56  O   UNL     1       4.688  20.503  30.480  1.00  0.00    -0.388 OA
ATOM     57  H   UNL     1       5.229  19.689  30.420  1.00  0.00     0.211 HD
ENDBRANCH  55  56
BRANCH  55  58
ATOM     58  C   UNL     1       2.542  20.866  29.468  1.00  0.00     0.154 C 
BRANCH  58  59
ATOM     59  N   UNL     1       3.177  22.014  28.902  1.00  0.00    -0.319 N 
ATOM     60  C   UNL     1       2.499  23.211  28.603  1.00  0.00     0.407 C 
ATOM     61  H   UNL     1       4.220  22.021  28.676  1.00  0.00     0.167 HD
ATOM     62  O   UNL     1       1.279  23.370  28.820  1.00  0.00    -0.225 OA
BRANCH  60  63
ATOM     63  O   UNL     1       3.158  24.312  28.033  1.00  0.00    -0.443 OA
BRANCH  63  64
ATOM     64  C   UNL     1       3.477  24.379  26.673  1.00  0.00     0.294 C 
BRANCH  64  65
ATOM     65  C   UNL     1       3.769  25.772  26.238  1.00  0.00     0.120 A 
ATOM     66  C   UNL     1       4.904  26.136  25.533  1.00  0.00     0.138 A 
ATOM     67  N   UNL     1       3.070  26.892  26.399  1.00  0.00    -0.132 NA
ATOM     68  N   UNL     1       4.834  27.451  25.307  1.00  0.00    -0.249 N 
ATOM     69  N   UNL     1       3.710  27.891  25.842  1.00  0.00    -0.067 NA
BRANCH  68  70
ATOM     70  C   UNL     1       5.821  28.286  24.607  1.00  0.00     0.187 C 
BRANCH  70  71
ATOM     71  C   UNL     1       7.010  28.537  25.507  1.00  0.00     0.256 C 
BRANCH  71  72
ATOM     72  O   UNL     1       8.197  28.321  24.752  1.00  0.00    -0.464 OA
BRANCH  72  73
ATOM     73  C   UNL     1       9.112  27.347  25.139  1.00  0.00     0.302 C 
ATOM     74  O   UNL     1      10.333  27.594  24.990  1.00  0.00    -0.253 OA
ATOM     75  C   UNL     1       8.686  26.032  25.720  1.00  0.00     0.139 C 
ENDBRANCH  72  73
ENDBRANCH  71  72
ENDBRANCH  70  71
ENDBRANCH  68  70
ENDBRANCH  64  65
ENDBRANCH  63  64
ENDBRANCH  60  63
ENDBRANCH  58  59
ENDBRANCH  55  58
ENDBRANCH   1  55
TORSDOF 33
