REMARK VINA RESULT:    -5.178     11.938     15.208
REMARK INTER + INTRA:         -20.398
REMARK INTER:                 -15.651
REMARK INTRA:                  -4.747
REMARK UNBOUND:                -7.652
REMARK SMILES CC(=O)N[C@@H]1[C@@H](O)C[C@](OC[C@H]2O[C@@H](O[C@H]3[C@H](O)[C@@H](O)[C@H](OCCN=[N+]=[N-])O[C@@H]3CO)[C@H](O)[C@@H](O)[C@H]2O)(C(=O)O)O[C@H]1C(O)[C@H](O)CNC(=O)OCc1cn(-c2ccc(Br)cc2)nn1
REMARK SMILES IDX 9 1 8 2 6 3 5 4 42 5 41 6 10 7 11 8 12 9 14 10 13 11 32 12
REMARK SMILES IDX 34 13 36 14 15 15 16 16 29 17 28 18 21 19 17 20 19 21 30 22
REMARK SMILES IDX 31 23 22 25 23 26 24 27 25 28 26 29 27 30 18 31 20 33 33 35
REMARK SMILES IDX 35 37 37 39 38 41 39 42 40 43 7 45 43 47 44 48 45 50 46 51
REMARK SMILES IDX 47 53 48 54 49 55 50 57 51 58 52 59 53 60 54 61 64 62 55 63
REMARK SMILES IDX 63 64 56 65 57 66 62 67 58 68 61 69 59 70 60 71 4 72 2 73
REMARK SMILES IDX 1 75 3 76
REMARK H PARENT 31 24 18 32 20 34 33 36 35 38 37 40 40 44 7 46 44 49 46 52
REMARK H PARENT 48 56 4 74
REMARK Flexibility Score: inf
ROOT
ATOM      1  C   UNL     1      16.063  29.342  19.354  1.00  0.00     0.272 C 
ATOM      2  C   UNL     1      14.637  28.884  19.764  1.00  0.00     0.113 C 
ATOM      3  C   UNL     1      14.624  28.694  21.235  1.00  0.00     0.145 C 
ATOM      4  C   UNL     1      15.037  30.040  21.863  1.00  0.00     0.142 C 
ATOM      5  C   UNL     1      16.488  30.210  21.481  1.00  0.00     0.178 C 
ATOM      6  O   UNL     1      16.497  30.388  20.115  1.00  0.00    -0.332 OA
ENDROOT
BRANCH   1   7
ATOM      7  O   UNL     1      15.865  29.796  18.046  1.00  0.00    -0.338 OA
BRANCH   7   8
ATOM      8  C   UNL     1      16.958  30.325  17.429  1.00  0.00     0.199 C 
BRANCH   8   9
ATOM      9  C   UNL     1      16.935  29.810  15.975  1.00  0.00     0.179 C 
ATOM     10  C   UNL     1      15.333  29.166  14.418  1.00  0.00     0.282 C 
ATOM     11  O   UNL     1      15.790  29.116  15.712  1.00  0.00    -0.341 OA
ATOM     12  C   UNL     1      16.368  29.468  13.412  1.00  0.00     0.202 C 
ATOM     13  C   UNL     1      17.249  30.641  13.704  1.00  0.00     0.179 C 
ATOM     14  C   UNL     1      17.065  31.065  15.125  1.00  0.00     0.177 C 
BRANCH  10  15
ATOM     15  O   UNL     1      14.209  29.992  14.426  1.00  0.00    -0.341 OA
BRANCH  15  16
ATOM     16  C   UNL     1      13.346  29.707  13.384  1.00  0.00     0.184 C 
ATOM     17  C   UNL     1      12.732  30.943  12.811  1.00  0.00     0.178 C 
ATOM     18  O   UNL     1      12.015  30.633  11.691  1.00  0.00    -0.341 OA
ATOM     19  C   UNL     1      11.647  29.339  11.485  1.00  0.00     0.281 C 
ATOM     20  C   UNL     1      12.156  28.873  13.888  1.00  0.00     0.180 C 
ATOM     21  C   UNL     1      11.244  28.566  12.720  1.00  0.00     0.202 C 
BRANCH  17  22
ATOM     22  C   UNL     1      13.829  31.913  12.413  1.00  0.00     0.191 C 
BRANCH  22  23
ATOM     23  O   UNL     1      14.485  31.473  11.288  1.00  0.00    -0.394 OA
ATOM     24  H   UNL     1      13.915  30.904  10.743  1.00  0.00     0.210 HD
ENDBRANCH  22  23
ENDBRANCH  17  22
BRANCH  19  25
ATOM     25  O   UNL     1      12.548  28.629  10.699  1.00  0.00    -0.350 OA
BRANCH  25  26
ATOM     26  C   UNL     1      11.957  27.790   9.774  1.00  0.00     0.169 C 
BRANCH  26  27
ATOM     27  C   UNL     1      10.594  28.212   9.337  1.00  0.00     0.119 C 
BRANCH  27  28
ATOM     28  N   UNL     1       9.694  27.072   9.362  1.00  0.00    -0.092 NA
ATOM     29  N   UNL     1       9.185  26.780  10.447  1.00  0.00     0.001 N 
ATOM     30  N   UNL     1       8.531  26.487  11.470  1.00  0.00    -0.003 NA
ENDBRANCH  27  28
ENDBRANCH  26  27
ENDBRANCH  25  26
ENDBRANCH  19  25
BRANCH  20  31
ATOM     31  O   UNL     1      12.606  27.747  14.555  1.00  0.00    -0.387 OA
ATOM     32  H   UNL     1      11.851  27.209  14.914  1.00  0.00     0.211 HD
ENDBRANCH  20  31
BRANCH  21  33
ATOM     33  O   UNL     1       9.907  28.756  12.993  1.00  0.00    -0.385 OA
ATOM     34  H   UNL     1       9.507  27.881  13.213  1.00  0.00     0.211 HD
ENDBRANCH  21  33
ENDBRANCH  15  16
ENDBRANCH  10  15
BRANCH  12  35
ATOM     35  O   UNL     1      17.142  28.285  13.255  1.00  0.00    -0.385 OA
ATOM     36  H   UNL     1      16.582  27.584  12.810  1.00  0.00     0.211 HD
ENDBRANCH  12  35
BRANCH  13  37
ATOM     37  O   UNL     1      16.921  31.731  12.863  1.00  0.00    -0.387 OA
ATOM     38  H   UNL     1      16.523  31.324  12.053  1.00  0.00     0.211 HD
ENDBRANCH  13  37
BRANCH  14  39
ATOM     39  O   UNL     1      15.975  31.916  15.291  1.00  0.00    -0.387 OA
ATOM     40  H   UNL     1      15.294  31.506  15.880  1.00  0.00     0.211 HD
ENDBRANCH  14  39
ENDBRANCH   8   9
ENDBRANCH   7   8
ENDBRANCH   1   7
BRANCH   1  41
ATOM     41  C   UNL     1      16.891  28.138  19.322  1.00  0.00     0.364 C 
ATOM     42  O   UNL     1      16.607  27.117  18.650  1.00  0.00    -0.246 OA
BRANCH  41  43
ATOM     43  O   UNL     1      18.061  28.074  20.053  1.00  0.00    -0.477 OA
ATOM     44  H   UNL     1      18.402  28.828  20.648  1.00  0.00     0.296 HD
ENDBRANCH  41  43
ENDBRANCH   1  41
BRANCH   3  45
ATOM     45  O   UNL     1      13.348  28.444  21.718  1.00  0.00    -0.391 OA
ATOM     46  H   UNL     1      13.130  29.096  22.417  1.00  0.00     0.211 HD
ENDBRANCH   3  45
BRANCH   5  47
ATOM     47  C   UNL     1      17.169  31.388  22.090  1.00  0.00     0.176 C 
BRANCH  47  48
ATOM     48  O   UNL     1      17.886  31.997  21.021  1.00  0.00    -0.388 OA
ATOM     49  H   UNL     1      18.487  32.684  21.405  1.00  0.00     0.211 HD
ENDBRANCH  47  48
BRANCH  47  50
ATOM     50  C   UNL     1      18.260  31.040  23.092  1.00  0.00     0.165 C 
BRANCH  50  51
ATOM     51  O   UNL     1      17.859  31.739  24.264  1.00  0.00    -0.388 OA
ATOM     52  H   UNL     1      18.655  32.234  24.637  1.00  0.00     0.211 HD
ENDBRANCH  50  51
BRANCH  50  53
ATOM     53  C   UNL     1      19.580  31.604  22.696  1.00  0.00     0.154 C 
BRANCH  53  54
ATOM     54  N   UNL     1      20.559  30.585  22.492  1.00  0.00    -0.319 N 
ATOM     55  C   UNL     1      20.765  29.877  21.266  1.00  0.00     0.407 C 
ATOM     56  H   UNL     1      21.211  30.295  23.290  1.00  0.00     0.167 HD
ATOM     57  O   UNL     1      20.037  30.153  20.284  1.00  0.00    -0.225 OA
BRANCH  55  58
ATOM     58  O   UNL     1      21.735  28.912  21.134  1.00  0.00    -0.443 OA
BRANCH  58  59
ATOM     59  C   UNL     1      21.396  27.625  20.686  1.00  0.00     0.294 C 
BRANCH  59  60
ATOM     60  C   UNL     1      21.293  26.724  21.855  1.00  0.00     0.121 A 
ATOM     61  C   UNL     1      21.817  27.013  23.121  1.00  0.00     0.144 A 
ATOM     62  N   UNL     1      20.730  25.513  21.983  1.00  0.00    -0.131 NA
ATOM     63  N   UNL     1      21.551  25.981  23.941  1.00  0.00    -0.220 N 
ATOM     64  N   UNL     1      20.894  25.092  23.223  1.00  0.00    -0.062 NA
BRANCH  63  65
ATOM     65  C   UNL     1      21.947  25.940  25.306  1.00  0.00     0.066 A 
ATOM     66  C   UNL     1      21.736  26.933  26.209  1.00  0.00     0.029 A 
ATOM     67  C   UNL     1      22.589  24.779  25.722  1.00  0.00     0.029 A 
ATOM     68  C   UNL     1      22.162  26.763  27.509  1.00  0.00     0.018 A 
ATOM     69  C   UNL     1      23.009  24.624  27.024  1.00  0.00     0.018 A 
ATOM     70  C   UNL     1      22.798  25.627  27.947  1.00  0.00     0.018 A 
ATOM     71  Br  UNL     1      23.368  25.431  29.757  1.00  0.00    -0.051 Br
ENDBRANCH  63  65
ENDBRANCH  59  60
ENDBRANCH  58  59
ENDBRANCH  55  58
ENDBRANCH  53  54
ENDBRANCH  50  53
ENDBRANCH  47  50
ENDBRANCH   5  47
BRANCH   4  72
ATOM     72  N   UNL     1      14.785  29.924  23.267  1.00  0.00    -0.348 N 
ATOM     73  C   UNL     1      14.135  30.946  24.010  1.00  0.00     0.217 C 
ATOM     74  H   UNL     1      15.086  29.069  23.768  1.00  0.00     0.163 HD
ATOM     75  C   UNL     1      13.864  30.855  25.465  1.00  0.00     0.114 C 
ATOM     76  O   UNL     1      13.756  32.008  23.417  1.00  0.00    -0.275 OA
ENDBRANCH   4  72
TORSDOF 30
