REMARK VINA RESULT:    -5.489      7.322     13.780
REMARK INTER + INTRA:         -20.546
REMARK INTER:                 -13.434
REMARK INTRA:                  -7.112
REMARK UNBOUND:                -7.035
REMARK SMILES CC(=O)N[C@@H]1[C@@H](O)C[C@](OC[C@H]2O[C@@H](O[C@H]3[C@H](O)[C@@H](O)[C@H](OCCN=[N+]=[N-])O[C@@H]3CO)[C@H](O)[C@@H](O)[C@H]2O)(C(=O)O)O[C@H]1C(O)[C@H](O)CNC(=O)OCc1cn([C@@H]2C[C@H]3CC[C@@H](C2)N3C)nn1
REMARK SMILES IDX 9 1 8 2 6 3 5 4 42 5 41 6 10 7 11 8 12 9 14 10 13 11 32 12
REMARK SMILES IDX 34 13 36 14 15 15 16 16 29 17 28 18 21 19 17 20 19 21 30 22
REMARK SMILES IDX 31 23 22 25 23 26 24 27 25 28 26 29 27 30 18 31 20 33 33 35
REMARK SMILES IDX 35 37 37 39 38 41 39 42 40 43 7 45 43 47 44 48 45 50 46 51
REMARK SMILES IDX 47 53 48 54 49 55 50 57 51 58 52 59 53 60 54 61 66 62 55 63
REMARK SMILES IDX 65 64 56 65 62 66 57 67 61 68 58 69 63 70 60 71 59 72 64 73
REMARK SMILES IDX 4 74 2 75 1 77 3 78
REMARK H PARENT 31 24 18 32 20 34 33 36 35 38 37 40 40 44 7 46 44 49 46 52
REMARK H PARENT 48 56 4 76
REMARK Flexibility Score: inf
ROOT
ATOM      1  C   UNL     1      21.758  21.674  12.272  1.00  0.00     0.272 C 
ATOM      2  C   UNL     1      20.388  21.126  12.251  1.00  0.00     0.113 C 
ATOM      3  C   UNL     1      20.386  19.610  12.113  1.00  0.00     0.145 C 
ATOM      4  C   UNL     1      21.233  19.211  10.882  1.00  0.00     0.142 C 
ATOM      5  C   UNL     1      22.473  20.008  10.798  1.00  0.00     0.178 C 
ATOM      6  O   UNL     1      22.682  20.624  12.015  1.00  0.00    -0.332 OA
ENDROOT
BRANCH   1   7
ATOM      7  O   UNL     1      22.221  22.407  13.305  1.00  0.00    -0.338 OA
BRANCH   7   8
ATOM      8  C   UNL     1      23.252  22.253  14.071  1.00  0.00     0.199 C 
BRANCH   8   9
ATOM      9  C   UNL     1      24.431  23.190  13.859  1.00  0.00     0.179 C 
ATOM     10  C   UNL     1      25.080  24.676  15.561  1.00  0.00     0.282 C 
ATOM     11  O   UNL     1      24.170  24.353  14.597  1.00  0.00    -0.341 OA
ATOM     12  C   UNL     1      26.483  24.790  15.064  1.00  0.00     0.202 C 
ATOM     13  C   UNL     1      26.828  23.536  14.339  1.00  0.00     0.179 C 
ATOM     14  C   UNL     1      25.719  22.546  14.266  1.00  0.00     0.177 C 
BRANCH  10  15
ATOM     15  O   UNL     1      24.949  23.934  16.722  1.00  0.00    -0.341 OA
BRANCH  15  16
ATOM     16  C   UNL     1      24.582  24.668  17.830  1.00  0.00     0.184 C 
ATOM     17  C   UNL     1      25.405  24.348  19.013  1.00  0.00     0.178 C 
ATOM     18  O   UNL     1      25.145  25.206  20.087  1.00  0.00    -0.341 OA
ATOM     19  C   UNL     1      23.964  25.934  19.937  1.00  0.00     0.281 C 
ATOM     20  C   UNL     1      23.133  24.239  18.245  1.00  0.00     0.180 C 
ATOM     21  C   UNL     1      22.804  25.116  19.409  1.00  0.00     0.202 C 
BRANCH  17  22
ATOM     22  C   UNL     1      26.875  24.220  18.815  1.00  0.00     0.191 C 
BRANCH  22  23
ATOM     23  O   UNL     1      27.165  23.123  18.007  1.00  0.00    -0.394 OA
ATOM     24  H   UNL     1      27.676  23.432  17.218  1.00  0.00     0.210 HD
ENDBRANCH  22  23
ENDBRANCH  17  22
BRANCH  19  25
ATOM     25  O   UNL     1      24.162  27.124  19.294  1.00  0.00    -0.350 OA
BRANCH  25  26
ATOM     26  C   UNL     1      23.105  27.890  18.949  1.00  0.00     0.169 C 
BRANCH  26  27
ATOM     27  C   UNL     1      23.334  28.831  17.825  1.00  0.00     0.119 C 
BRANCH  27  28
ATOM     28  N   UNL     1      23.213  28.277  16.521  1.00  0.00    -0.092 NA
ATOM     29  N   UNL     1      22.220  27.659  16.125  1.00  0.00     0.001 N 
ATOM     30  N   UNL     1      21.613  26.692  15.651  1.00  0.00    -0.003 NA
ENDBRANCH  27  28
ENDBRANCH  26  27
ENDBRANCH  25  26
ENDBRANCH  19  25
BRANCH  20  31
ATOM     31  O   UNL     1      22.243  24.458  17.224  1.00  0.00    -0.387 OA
ATOM     32  H   UNL     1      22.336  25.383  16.871  1.00  0.00     0.211 HD
ENDBRANCH  20  31
BRANCH  21  33
ATOM     33  O   UNL     1      22.279  24.360  20.462  1.00  0.00    -0.385 OA
ATOM     34  H   UNL     1      22.401  23.421  20.257  1.00  0.00     0.211 HD
ENDBRANCH  21  33
ENDBRANCH  15  16
ENDBRANCH  10  15
BRANCH  12  35
ATOM     35  O   UNL     1      26.576  25.889  14.185  1.00  0.00    -0.385 OA
ATOM     36  H   UNL     1      25.942  26.582  14.512  1.00  0.00     0.211 HD
ENDBRANCH  12  35
BRANCH  13  37
ATOM     37  O   UNL     1      27.946  22.902  14.934  1.00  0.00    -0.387 OA
ATOM     38  H   UNL     1      28.686  23.547  15.037  1.00  0.00     0.211 HD
ENDBRANCH  13  37
BRANCH  14  39
ATOM     39  O   UNL     1      25.639  21.825  15.464  1.00  0.00    -0.387 OA
ATOM     40  H   UNL     1      25.369  22.490  16.161  1.00  0.00     0.211 HD
ENDBRANCH  14  39
ENDBRANCH   8   9
ENDBRANCH   7   8
ENDBRANCH   1   7
BRANCH   1  41
ATOM     41  C   UNL     1      21.879  22.613  11.088  1.00  0.00     0.364 C 
ATOM     42  O   UNL     1      22.949  23.063  10.647  1.00  0.00    -0.246 OA
BRANCH  41  43
ATOM     43  O   UNL     1      20.725  23.026  10.416  1.00  0.00    -0.477 OA
ATOM     44  H   UNL     1      20.744  23.869   9.831  1.00  0.00     0.296 HD
ENDBRANCH  41  43
ENDBRANCH   1  41
BRANCH   3  45
ATOM     45  O   UNL     1      20.775  18.936  13.248  1.00  0.00    -0.391 OA
ATOM     46  H   UNL     1      20.416  19.432  14.045  1.00  0.00     0.211 HD
ENDBRANCH   3  45
BRANCH   5  47
ATOM     47  C   UNL     1      23.735  19.069  10.718  1.00  0.00     0.176 C 
BRANCH  47  48
ATOM     48  O   UNL     1      23.354  17.957  11.587  1.00  0.00    -0.388 OA
ATOM     49  H   UNL     1      22.658  18.344  12.200  1.00  0.00     0.211 HD
ENDBRANCH  47  48
BRANCH  47  50
ATOM     50  C   UNL     1      24.912  19.636  11.437  1.00  0.00     0.165 C 
BRANCH  50  51
ATOM     51  O   UNL     1      25.210  20.894  10.966  1.00  0.00    -0.388 OA
ATOM     52  H   UNL     1      26.133  21.047  10.707  1.00  0.00     0.211 HD
ENDBRANCH  50  51
BRANCH  50  53
ATOM     53  C   UNL     1      26.082  18.737  11.577  1.00  0.00     0.154 C 
BRANCH  53  54
ATOM     54  N   UNL     1      27.192  19.432  12.229  1.00  0.00    -0.319 N 
ATOM     55  C   UNL     1      27.321  19.443  13.622  1.00  0.00     0.407 C 
ATOM     56  H   UNL     1      27.879  19.911  11.629  1.00  0.00     0.167 HD
ATOM     57  O   UNL     1      26.453  18.837  14.317  1.00  0.00    -0.225 OA
BRANCH  55  58
ATOM     58  O   UNL     1      28.361  20.090  14.282  1.00  0.00    -0.443 OA
BRANCH  58  59
ATOM     59  C   UNL     1      29.228  19.372  15.150  1.00  0.00     0.294 C 
BRANCH  59  60
ATOM     60  C   UNL     1      28.827  19.613  16.571  1.00  0.00     0.120 A 
ATOM     61  C   UNL     1      29.236  18.911  17.685  1.00  0.00     0.138 A 
ATOM     62  N   UNL     1      27.997  20.547  17.023  1.00  0.00    -0.132 NA
ATOM     63  N   UNL     1      28.653  19.428  18.775  1.00  0.00    -0.249 N 
ATOM     64  N   UNL     1      27.891  20.441  18.323  1.00  0.00    -0.067 NA
BRANCH  63  65
ATOM     65  C   UNL     1      28.755  19.051  20.164  1.00  0.00     0.112 C 
ATOM     66  C   UNL     1      30.130  18.609  20.570  1.00  0.00     0.046 C 
ATOM     67  C   UNL     1      28.435  20.293  21.010  1.00  0.00     0.046 C 
ATOM     68  C   UNL     1      31.084  19.774  20.586  1.00  0.00     0.058 C 
ATOM     69  C   UNL     1      29.474  21.367  20.753  1.00  0.00     0.058 C 
ATOM     70  N   UNL     1      30.461  20.847  19.822  1.00  0.00    -0.300 NA
ATOM     71  C   UNL     1      31.234  20.368  21.962  1.00  0.00     0.021 C 
ATOM     72  C   UNL     1      30.324  21.565  21.993  1.00  0.00     0.021 C 
ATOM     73  C   UNL     1      31.473  21.807  19.504  1.00  0.00     0.105 C 
ENDBRANCH  63  65
ENDBRANCH  59  60
ENDBRANCH  58  59
ENDBRANCH  55  58
ENDBRANCH  53  54
ENDBRANCH  50  53
ENDBRANCH  47  50
ENDBRANCH   5  47
BRANCH   4  74
ATOM     74  N   UNL     1      20.347  19.292   9.714  1.00  0.00    -0.348 N 
ATOM     75  C   UNL     1      20.129  18.135   8.874  1.00  0.00     0.217 C 
ATOM     76  H   UNL     1      19.837  20.146   9.421  1.00  0.00     0.163 HD
ATOM     77  C   UNL     1      19.261  18.132   7.693  1.00  0.00     0.114 C 
ATOM     78  O   UNL     1      20.730  17.090   9.203  1.00  0.00    -0.275 OA
ENDBRANCH   4  74
TORSDOF 30
