REMARK VINA RESULT:    -4.739      6.044     13.248
REMARK INTER + INTRA:         -21.275
REMARK INTER:                 -14.401
REMARK INTRA:                  -6.874
REMARK UNBOUND:                -8.780
REMARK SMILES COc1ccc(Cn2cc(COC(=O)NC[C@@H](O)C(O)[C@@H]3O[C@@](OC[C@H]4O[C@@H](O[C@H]5[C@H](O)[C@@H](O)[C@H](OCCN=[N+]=[N-])O[C@@H]5CO)[C@H](O)[C@@H](O)[C@H]4O)(C(=O)O)C[C@H](O)[C@H]3NC(C)=O)nn2)cc1OC
REMARK SMILES IDX 23 1 55 2 56 3 58 4 21 5 22 6 24 7 25 8 26 9 28 10 27 11
REMARK SMILES IDX 46 12 48 13 50 14 29 15 30 16 43 17 42 18 35 19 31 20 33 21
REMARK SMILES IDX 44 22 45 23 36 25 37 26 38 27 39 28 40 29 41 30 32 31 34 33
REMARK SMILES IDX 47 35 49 37 51 39 52 41 53 42 54 43 57 45 19 47 20 48 17 50
REMARK SMILES IDX 18 51 16 53 15 54 13 55 14 57 12 58 11 59 10 60 9 61 63 62
REMARK SMILES IDX 8 63 64 64 7 65 6 66 65 67 5 68 66 69 4 70 3 71 67 72 68 73
REMARK SMILES IDX 2 74 1 75 59 76 60 77 61 79 62 80
REMARK H PARENT 45 24 32 32 34 34 47 36 49 38 51 40 54 44 57 46 20 49 18 52
REMARK H PARENT 15 56 59 78
REMARK Flexibility Score: inf
ROOT
ATOM      1  C   UNL     1      17.931  31.658  25.478  1.00  0.00     0.272 C 
ATOM      2  C   UNL     1      18.126  32.613  26.642  1.00  0.00     0.113 C 
ATOM      3  C   UNL     1      17.656  32.199  27.989  1.00  0.00     0.145 C 
ATOM      4  C   UNL     1      16.596  31.110  27.850  1.00  0.00     0.142 C 
ATOM      5  C   UNL     1      15.904  31.399  26.578  1.00  0.00     0.178 C 
ATOM      6  O   UNL     1      16.693  30.985  25.521  1.00  0.00    -0.332 OA
ENDROOT
BRANCH   1   7
ATOM      7  O   UNL     1      18.936  30.713  25.637  1.00  0.00    -0.338 OA
BRANCH   7   8
ATOM      8  C   UNL     1      20.169  31.017  25.146  1.00  0.00     0.199 C 
BRANCH   8   9
ATOM      9  C   UNL     1      20.866  29.787  24.632  1.00  0.00     0.179 C 
ATOM     10  C   UNL     1      21.360  27.599  24.993  1.00  0.00     0.282 C 
ATOM     11  O   UNL     1      20.373  28.627  25.256  1.00  0.00    -0.341 OA
ATOM     12  C   UNL     1      21.281  27.191  23.596  1.00  0.00     0.202 C 
ATOM     13  C   UNL     1      21.187  28.372  22.645  1.00  0.00     0.179 C 
ATOM     14  C   UNL     1      20.484  29.566  23.161  1.00  0.00     0.177 C 
BRANCH  10  15
ATOM     15  O   UNL     1      21.124  26.601  25.917  1.00  0.00    -0.341 OA
BRANCH  15  16
ATOM     16  C   UNL     1      22.061  26.665  26.948  1.00  0.00     0.184 C 
ATOM     17  C   UNL     1      22.734  25.378  27.217  1.00  0.00     0.178 C 
ATOM     18  O   UNL     1      23.821  25.625  28.050  1.00  0.00    -0.341 OA
ATOM     19  C   UNL     1      23.579  26.568  28.984  1.00  0.00     0.281 C 
ATOM     20  C   UNL     1      21.311  27.129  28.203  1.00  0.00     0.180 C 
ATOM     21  C   UNL     1      22.140  26.709  29.424  1.00  0.00     0.202 C 
BRANCH  17  22
ATOM     22  C   UNL     1      23.153  24.652  25.959  1.00  0.00     0.191 C 
BRANCH  22  23
ATOM     23  O   UNL     1      24.082  25.472  25.321  1.00  0.00    -0.394 OA
ATOM     24  H   UNL     1      23.652  26.358  25.126  1.00  0.00     0.210 HD
ENDBRANCH  22  23
ENDBRANCH  17  22
BRANCH  19  25
ATOM     25  O   UNL     1      23.936  27.849  28.427  1.00  0.00    -0.350 OA
BRANCH  25  26
ATOM     26  C   UNL     1      25.286  28.072  28.764  1.00  0.00     0.169 C 
BRANCH  26  27
ATOM     27  C   UNL     1      26.111  28.568  27.590  1.00  0.00     0.119 C 
BRANCH  27  28
ATOM     28  N   UNL     1      25.619  27.958  26.386  1.00  0.00    -0.092 NA
ATOM     29  N   UNL     1      26.006  28.305  25.267  1.00  0.00     0.001 N 
ATOM     30  N   UNL     1      26.440  28.978  24.310  1.00  0.00    -0.003 NA
ENDBRANCH  27  28
ENDBRANCH  26  27
ENDBRANCH  25  26
ENDBRANCH  19  25
BRANCH  20  31
ATOM     31  O   UNL     1      21.290  28.514  28.181  1.00  0.00    -0.387 OA
ATOM     32  H   UNL     1      20.392  28.815  28.514  1.00  0.00     0.211 HD
ENDBRANCH  20  31
BRANCH  21  33
ATOM     33  O   UNL     1      21.667  25.496  29.866  1.00  0.00    -0.385 OA
ATOM     34  H   UNL     1      20.717  25.342  29.611  1.00  0.00     0.211 HD
ENDBRANCH  21  33
ENDBRANCH  15  16
ENDBRANCH  10  15
BRANCH  12  35
ATOM     35  O   UNL     1      22.401  26.475  23.204  1.00  0.00    -0.385 OA
ATOM     36  H   UNL     1      22.885  26.079  23.986  1.00  0.00     0.211 HD
ENDBRANCH  12  35
BRANCH  13  37
ATOM     37  O   UNL     1      20.585  27.902  21.447  1.00  0.00    -0.387 OA
ATOM     38  H   UNL     1      21.089  28.315  20.698  1.00  0.00     0.211 HD
ENDBRANCH  13  37
BRANCH  14  39
ATOM     39  O   UNL     1      19.084  29.381  23.166  1.00  0.00    -0.387 OA
ATOM     40  H   UNL     1      18.794  28.856  23.988  1.00  0.00     0.211 HD
ENDBRANCH  14  39
ENDBRANCH   8   9
ENDBRANCH   7   8
ENDBRANCH   1   7
BRANCH   1  41
ATOM     41  C   UNL     1      17.989  32.445  24.220  1.00  0.00     0.364 C 
ATOM     42  O   UNL     1      17.628  31.969  23.141  1.00  0.00    -0.246 OA
BRANCH  41  43
ATOM     43  O   UNL     1      18.461  33.783  24.156  1.00  0.00    -0.477 OA
ATOM     44  H   UNL     1      19.418  33.898  23.750  1.00  0.00     0.296 HD
ENDBRANCH  41  43
ENDBRANCH   1  41
BRANCH   3  45
ATOM     45  O   UNL     1      18.682  31.708  28.760  1.00  0.00    -0.391 OA
ATOM     46  H   UNL     1      18.388  30.881  29.242  1.00  0.00     0.211 HD
ENDBRANCH   3  45
BRANCH   5  47
ATOM     47  C   UNL     1      14.496  31.017  26.551  1.00  0.00     0.176 C 
BRANCH  47  48
ATOM     48  O   UNL     1      13.606  31.883  27.175  1.00  0.00    -0.388 OA
ATOM     49  H   UNL     1      12.906  32.237  26.615  1.00  0.00     0.211 HD
ENDBRANCH  47  48
BRANCH  47  50
ATOM     50  C   UNL     1      13.967  31.231  25.031  1.00  0.00     0.165 C 
BRANCH  50  51
ATOM     51  O   UNL     1      13.373  32.432  24.985  1.00  0.00    -0.388 OA
ATOM     52  H   UNL     1      13.522  32.980  25.810  1.00  0.00     0.211 HD
ENDBRANCH  50  51
BRANCH  50  53
ATOM     53  C   UNL     1      13.354  30.019  24.541  1.00  0.00     0.154 C 
BRANCH  53  54
ATOM     54  N   UNL     1      13.979  29.086  23.665  1.00  0.00    -0.319 N 
ATOM     55  C   UNL     1      13.557  29.111  22.313  1.00  0.00     0.407 C 
ATOM     56  H   UNL     1      14.684  28.394  23.912  1.00  0.00     0.167 HD
ATOM     57  O   UNL     1      12.656  29.929  21.931  1.00  0.00    -0.225 OA
BRANCH  55  58
ATOM     58  O   UNL     1      14.048  28.294  21.301  1.00  0.00    -0.443 OA
BRANCH  58  59
ATOM     59  C   UNL     1      14.347  28.956  20.024  1.00  0.00     0.294 C 
BRANCH  59  60
ATOM     60  C   UNL     1      15.836  28.884  19.965  1.00  0.00     0.120 A 
ATOM     61  C   UNL     1      16.671  29.890  19.425  1.00  0.00     0.138 A 
ATOM     62  N   UNL     1      16.626  27.938  20.458  1.00  0.00    -0.132 NA
ATOM     63  N   UNL     1      17.937  29.463  19.646  1.00  0.00    -0.248 N 
ATOM     64  N   UNL     1      17.902  28.325  20.246  1.00  0.00    -0.067 NA
BRANCH  63  65
ATOM     65  C   UNL     1      19.152  30.247  19.295  1.00  0.00     0.181 C 
BRANCH  65  66
ATOM     66  C   UNL     1      19.780  29.414  18.177  1.00  0.00    -0.023 A 
ATOM     67  C   UNL     1      19.311  29.452  16.882  1.00  0.00     0.056 A 
ATOM     68  C   UNL     1      20.908  28.722  18.479  1.00  0.00     0.010 A 
ATOM     69  C   UNL     1      20.089  28.732  15.931  1.00  0.00     0.161 A 
ATOM     70  C   UNL     1      21.675  28.006  17.509  1.00  0.00     0.051 A 
ATOM     71  C   UNL     1      21.203  28.055  16.224  1.00  0.00     0.160 A 
BRANCH  69  72
ATOM     72  O   UNL     1      19.664  28.725  14.601  1.00  0.00    -0.493 OA
ATOM     73  C   UNL     1      18.534  29.488  14.165  1.00  0.00     0.278 C 
ENDBRANCH  69  72
BRANCH  71  74
ATOM     74  O   UNL     1      21.913  27.397  15.181  1.00  0.00    -0.493 OA
ATOM     75  C   UNL     1      22.341  26.037  15.406  1.00  0.00     0.278 C 
ENDBRANCH  71  74
ENDBRANCH  65  66
ENDBRANCH  63  65
ENDBRANCH  59  60
ENDBRANCH  58  59
ENDBRANCH  55  58
ENDBRANCH  53  54
ENDBRANCH  50  53
ENDBRANCH  47  50
ENDBRANCH   5  47
BRANCH   4  76
ATOM     76  N   UNL     1      15.760  31.136  29.020  1.00  0.00    -0.348 N 
ATOM     77  C   UNL     1      16.094  30.342  30.123  1.00  0.00     0.217 C 
ATOM     78  H   UNL     1      14.901  31.746  29.112  1.00  0.00     0.163 HD
ATOM     79  C   UNL     1      15.322  30.235  31.398  1.00  0.00     0.114 C 
ATOM     80  O   UNL     1      17.150  29.587  30.142  1.00  0.00    -0.275 OA
ENDBRANCH   4  76
TORSDOF 33
