REMARK VINA RESULT:    -4.545      3.484      6.433
REMARK INTER + INTRA:         -22.127
REMARK INTER:                 -12.383
REMARK INTRA:                  -9.744
REMARK UNBOUND:                -9.744
REMARK SMILES CC(=O)N[C@@H]1[C@@H](O)C[C@](OC[C@H]2O[C@@H](O[C@H]3[C@H](O)[C@@H](O)[C@H](OCCN=[N+]=[N-])O[C@@H]3CO)[C@H](O)[C@@H](O)[C@H]2O)(C(=O)O)O[C@H]1C(O)[C@H](O)CNC(=O)OCc1cn(CC(O)Cn2ccnc2[N+](=O)[O-])nn1
REMARK SMILES IDX 43 1 42 2 9 3 8 4 41 5 6 6 5 7 10 8 11 9 12 10 14 11 13 12
REMARK SMILES IDX 32 13 34 14 36 15 15 16 16 17 29 18 28 19 21 20 17 21 19 22
REMARK SMILES IDX 30 23 31 24 22 26 23 27 24 28 25 29 26 30 27 31 18 32 20 34
REMARK SMILES IDX 33 36 35 38 37 40 38 42 39 43 40 44 7 46 4 48 2 49 1 51 3 52
REMARK SMILES IDX 44 53 45 55 46 56 47 58 48 59 49 60 50 62 51 63 52 64 53 65
REMARK SMILES IDX 54 66 69 67 55 68 68 69 56 70 57 71 58 72 59 74 60 75 61 76
REMARK SMILES IDX 64 77 62 78 63 79 65 80 66 81 67 82
REMARK H PARENT 31 25 18 33 20 35 33 37 35 39 37 41 40 45 7 47 4 50 44 54
REMARK H PARENT 46 57 48 61 58 73
REMARK Flexibility Score: inf
ROOT
ATOM      1  C   UNL     1      23.395  28.294  17.343  1.00  0.00     0.176 C 
ENDROOT
BRANCH   1   2
ATOM      2  C   UNL     1      23.682  28.625  18.839  1.00  0.00     0.178 C 
ATOM      3  C   UNL     1      22.553  29.777  20.497  1.00  0.00     0.272 C 
ATOM      4  C   UNL     1      23.836  30.411  20.945  1.00  0.00     0.113 C 
ATOM      5  O   UNL     1      22.611  29.469  19.142  1.00  0.00    -0.332 OA
ATOM      6  C   UNL     1      24.773  30.663  19.771  1.00  0.00     0.145 C 
ATOM      7  C   UNL     1      24.933  29.395  18.942  1.00  0.00     0.142 C 
BRANCH   3   8
ATOM      8  O   UNL     1      21.461  30.630  20.590  1.00  0.00    -0.338 OA
BRANCH   8   9
ATOM      9  C   UNL     1      21.439  31.571  21.549  1.00  0.00     0.199 C 
BRANCH   9  10
ATOM     10  C   UNL     1      20.246  31.463  22.479  1.00  0.00     0.179 C 
ATOM     11  C   UNL     1      18.155  30.697  22.642  1.00  0.00     0.282 C 
ATOM     12  O   UNL     1      19.437  30.341  22.154  1.00  0.00    -0.341 OA
ATOM     13  C   UNL     1      18.201  30.929  24.132  1.00  0.00     0.202 C 
ATOM     14  C   UNL     1      19.543  30.391  24.624  1.00  0.00     0.179 C 
ATOM     15  C   UNL     1      20.623  31.221  23.923  1.00  0.00     0.177 C 
BRANCH  11  16
ATOM     16  O   UNL     1      17.209  29.737  22.347  1.00  0.00    -0.341 OA
BRANCH  16  17
ATOM     17  C   UNL     1      16.952  29.807  20.997  1.00  0.00     0.184 C 
ATOM     18  C   UNL     1      15.495  30.082  20.661  1.00  0.00     0.178 C 
ATOM     19  O   UNL     1      15.520  30.508  19.329  1.00  0.00    -0.341 OA
ATOM     20  C   UNL     1      15.873  29.538  18.432  1.00  0.00     0.281 C 
ATOM     21  C   UNL     1      17.272  28.502  20.283  1.00  0.00     0.180 C 
ATOM     22  C   UNL     1      16.922  28.571  18.844  1.00  0.00     0.202 C 
BRANCH  18  23
ATOM     23  C   UNL     1      14.847  31.092  21.538  1.00  0.00     0.191 C 
BRANCH  23  24
ATOM     24  O   UNL     1      14.379  30.447  22.676  1.00  0.00    -0.394 OA
ATOM     25  H   UNL     1      13.735  30.993  23.193  1.00  0.00     0.210 HD
ENDBRANCH  23  24
ENDBRANCH  18  23
BRANCH  20  26
ATOM     26  O   UNL     1      16.375  30.225  17.294  1.00  0.00    -0.350 OA
BRANCH  26  27
ATOM     27  C   UNL     1      17.194  31.274  17.625  1.00  0.00     0.169 C 
BRANCH  27  28
ATOM     28  C   UNL     1      18.204  31.402  16.476  1.00  0.00     0.119 C 
BRANCH  28  29
ATOM     29  N   UNL     1      19.347  30.563  16.664  1.00  0.00    -0.092 NA
ATOM     30  N   UNL     1      19.550  29.560  15.942  1.00  0.00     0.001 N 
ATOM     31  N   UNL     1      20.119  28.828  15.149  1.00  0.00    -0.003 NA
ENDBRANCH  28  29
ENDBRANCH  27  28
ENDBRANCH  26  27
ENDBRANCH  20  26
BRANCH  21  32
ATOM     32  O   UNL     1      18.653  28.241  20.403  1.00  0.00    -0.387 OA
ATOM     33  H   UNL     1      19.057  28.532  19.566  1.00  0.00     0.211 HD
ENDBRANCH  21  32
BRANCH  22  34
ATOM     34  O   UNL     1      16.444  27.283  18.495  1.00  0.00    -0.385 OA
ATOM     35  H   UNL     1      15.617  27.065  18.999  1.00  0.00     0.211 HD
ENDBRANCH  22  34
ENDBRANCH  16  17
ENDBRANCH  11  16
BRANCH  13  36
ATOM     36  O   UNL     1      18.099  32.299  24.372  1.00  0.00    -0.385 OA
ATOM     37  H   UNL     1      18.440  32.830  23.599  1.00  0.00     0.211 HD
ENDBRANCH  13  36
BRANCH  14  38
ATOM     38  O   UNL     1      19.674  29.104  24.137  1.00  0.00    -0.387 OA
ATOM     39  H   UNL     1      20.274  29.092  23.371  1.00  0.00     0.211 HD
ENDBRANCH  14  38
BRANCH  15  40
ATOM     40  O   UNL     1      21.789  30.500  24.057  1.00  0.00    -0.387 OA
ATOM     41  H   UNL     1      22.033  30.349  25.005  1.00  0.00     0.211 HD
ENDBRANCH  15  40
ENDBRANCH   9  10
ENDBRANCH   8   9
ENDBRANCH   3   8
BRANCH   3  42
ATOM     42  C   UNL     1      22.277  28.548  21.253  1.00  0.00     0.364 C 
ATOM     43  O   UNL     1      21.418  27.685  20.855  1.00  0.00    -0.246 OA
BRANCH  42  44
ATOM     44  O   UNL     1      22.902  28.216  22.439  1.00  0.00    -0.477 OA
ATOM     45  H   UNL     1      22.483  27.604  23.145  1.00  0.00     0.296 HD
ENDBRANCH  42  44
ENDBRANCH   3  42
BRANCH   6  46
ATOM     46  O   UNL     1      24.361  31.733  19.001  1.00  0.00    -0.391 OA
ATOM     47  H   UNL     1      25.104  32.107  18.464  1.00  0.00     0.211 HD
ENDBRANCH   6  46
BRANCH   7  48
ATOM     48  N   UNL     1      26.128  28.702  19.305  1.00  0.00    -0.348 N 
ATOM     49  C   UNL     1      26.330  27.805  20.348  1.00  0.00     0.217 C 
ATOM     50  H   UNL     1      27.025  28.877  18.681  1.00  0.00     0.163 HD
ATOM     51  C   UNL     1      27.677  27.134  20.559  1.00  0.00     0.114 C 
ATOM     52  O   UNL     1      25.460  27.486  21.162  1.00  0.00    -0.275 OA
ENDBRANCH   7  48
ENDBRANCH   1   2
BRANCH   1  53
ATOM     53  O   UNL     1      22.928  29.492  16.746  1.00  0.00    -0.388 OA
ATOM     54  H   UNL     1      23.517  29.811  16.046  1.00  0.00     0.211 HD
ENDBRANCH   1  53
BRANCH   1  55
ATOM     55  C   UNL     1      22.454  27.206  17.112  1.00  0.00     0.165 C 
BRANCH  55  56
ATOM     56  O   UNL     1      21.225  27.287  17.714  1.00  0.00    -0.388 OA
ATOM     57  H   UNL     1      21.237  27.117  18.683  1.00  0.00     0.211 HD
ENDBRANCH  55  56
BRANCH  55  58
ATOM     58  C   UNL     1      23.059  25.812  17.405  1.00  0.00     0.154 C 
BRANCH  58  59
ATOM     59  N   UNL     1      22.707  25.514  18.789  1.00  0.00    -0.319 N 
ATOM     60  C   UNL     1      23.656  24.949  19.701  1.00  0.00     0.407 C 
ATOM     61  H   UNL     1      21.744  25.711  19.143  1.00  0.00     0.167 HD
ATOM     62  O   UNL     1      24.818  24.704  19.311  1.00  0.00    -0.225 OA
BRANCH  60  63
ATOM     63  O   UNL     1      23.315  24.664  21.007  1.00  0.00    -0.443 OA
BRANCH  63  64
ATOM     64  C   UNL     1      22.031  24.606  21.549  1.00  0.00     0.294 C 
BRANCH  64  65
ATOM     65  C   UNL     1      22.106  24.591  23.031  1.00  0.00     0.120 A 
ATOM     66  C   UNL     1      23.255  24.587  23.801  1.00  0.00     0.138 A 
ATOM     67  N   UNL     1      21.103  24.584  23.921  1.00  0.00    -0.132 NA
ATOM     68  N   UNL     1      22.902  24.580  25.111  1.00  0.00    -0.249 N 
ATOM     69  N   UNL     1      21.594  24.577  25.152  1.00  0.00    -0.067 NA
BRANCH  68  70
ATOM     70  C   UNL     1      23.875  24.615  26.198  1.00  0.00     0.181 C 
BRANCH  70  71
ATOM     71  C   UNL     1      23.052  24.832  27.465  1.00  0.00     0.170 C 
BRANCH  71  72
ATOM     72  O   UNL     1      23.085  23.679  28.212  1.00  0.00    -0.388 OA
ATOM     73  H   UNL     1      22.593  23.806  29.058  1.00  0.00     0.211 HD
ENDBRANCH  71  72
BRANCH  71  74
ATOM     74  C   UNL     1      23.543  26.038  28.207  1.00  0.00     0.239 C 
BRANCH  74  75
ATOM     75  N   UNL     1      22.429  26.932  28.478  1.00  0.00    -0.227 N 
ATOM     76  C   UNL     1      21.679  26.830  29.623  1.00  0.00     0.204 A 
ATOM     77  C   UNL     1      21.977  27.948  27.743  1.00  0.00     0.434 A 
ATOM     78  C   UNL     1      20.734  27.830  29.576  1.00  0.00     0.245 A 
ATOM     79  N   UNL     1      20.933  28.498  28.423  1.00  0.00    -0.074 NA
BRANCH  77  80
ATOM     80  N   UNL     1      22.471  28.373  26.484  1.00  0.00    -0.047 N 
ATOM     81  O   UNL     1      23.349  29.289  26.405  1.00  0.00    -0.390 OA
ATOM     82  O   UNL     1      22.050  27.854  25.291  1.00  0.00    -0.390 OA
ENDBRANCH  77  80
ENDBRANCH  74  75
ENDBRANCH  71  74
ENDBRANCH  70  71
ENDBRANCH  68  70
ENDBRANCH  64  65
ENDBRANCH  63  64
ENDBRANCH  60  63
ENDBRANCH  58  59
ENDBRANCH  55  58
ENDBRANCH   1  55
TORSDOF 35
