REMARK VINA RESULT:    -6.062      4.866      8.253
REMARK INTER + INTRA:         -21.139
REMARK INTER:                 -11.700
REMARK INTRA:                  -9.439
REMARK UNBOUND:                -5.863
REMARK SMILES CC(=O)N[C@@H]1[C@@H](O)C[C@](OC[C@H]2O[C@@H](O[C@H]3[C@H](O)[C@@H](O)[C@H](OCCN=[N+]=[N-])O[C@@H]3CO)[C@H](O)[C@@H](O)[C@H]2O)(C(=O)O)O[C@H]1C(O)[C@H](O)CNC(=O)OCc1cn(-c2ncccc2C#N)nn1
REMARK SMILES IDX 9 1 8 2 6 3 5 4 42 5 41 6 10 7 11 8 12 9 14 10 13 11 32 12
REMARK SMILES IDX 34 13 36 14 15 15 16 16 29 17 28 18 21 19 17 20 19 21 30 22
REMARK SMILES IDX 31 23 22 25 23 26 24 27 25 28 26 29 27 30 18 31 20 33 33 35
REMARK SMILES IDX 35 37 37 39 38 41 39 42 40 43 7 45 43 47 44 48 45 50 46 51
REMARK SMILES IDX 47 53 48 54 49 55 50 57 51 58 52 59 53 60 54 61 65 62 55 63
REMARK SMILES IDX 64 64 56 65 57 66 61 67 58 68 60 69 59 70 62 71 63 72 4 73
REMARK SMILES IDX 2 74 1 76 3 77
REMARK H PARENT 31 24 18 32 20 34 33 36 35 38 37 40 40 44 7 46 44 49 46 52
REMARK H PARENT 48 56 4 75
REMARK Flexibility Score: inf
ROOT
ATOM      1  C   UNL     1      23.080  28.311  24.171  1.00  0.00     0.272 C 
ATOM      2  C   UNL     1      24.273  27.473  24.355  1.00  0.00     0.113 C 
ATOM      3  C   UNL     1      24.187  26.567  25.520  1.00  0.00     0.145 C 
ATOM      4  C   UNL     1      22.821  26.112  25.916  1.00  0.00     0.142 C 
ATOM      5  C   UNL     1      21.689  26.554  25.033  1.00  0.00     0.178 C 
ATOM      6  O   UNL     1      21.875  27.689  24.398  1.00  0.00    -0.332 OA
ENDROOT
BRANCH   1   7
ATOM      7  O   UNL     1      22.883  28.996  23.039  1.00  0.00    -0.338 OA
BRANCH   7   8
ATOM      8  C   UNL     1      21.886  29.625  22.499  1.00  0.00     0.199 C 
BRANCH   8   9
ATOM      9  C   UNL     1      21.996  29.433  20.982  1.00  0.00     0.179 C 
ATOM     10  C   UNL     1      21.750  27.950  19.285  1.00  0.00     0.282 C 
ATOM     11  O   UNL     1      22.107  28.104  20.675  1.00  0.00    -0.341 OA
ATOM     12  C   UNL     1      20.282  28.119  19.129  1.00  0.00     0.202 C 
ATOM     13  C   UNL     1      19.811  29.430  19.766  1.00  0.00     0.179 C 
ATOM     14  C   UNL     1      21.006  30.199  20.186  1.00  0.00     0.177 C 
BRANCH  10  15
ATOM     15  O   UNL     1      22.190  26.763  18.813  1.00  0.00    -0.341 OA
BRANCH  15  16
ATOM     16  C   UNL     1      23.405  26.786  18.186  1.00  0.00     0.184 C 
ATOM     17  C   UNL     1      23.223  27.224  16.703  1.00  0.00     0.178 C 
ATOM     18  O   UNL     1      23.479  26.118  15.894  1.00  0.00    -0.341 OA
ATOM     19  C   UNL     1      22.681  25.029  16.277  1.00  0.00     0.281 C 
ATOM     20  C   UNL     1      24.143  25.473  18.190  1.00  0.00     0.180 C 
ATOM     21  C   UNL     1      23.286  24.404  17.502  1.00  0.00     0.202 C 
BRANCH  17  22
ATOM     22  C   UNL     1      24.147  28.366  16.427  1.00  0.00     0.191 C 
BRANCH  22  23
ATOM     23  O   UNL     1      25.360  28.242  17.129  1.00  0.00    -0.394 OA
ATOM     24  H   UNL     1      25.726  29.120  17.391  1.00  0.00     0.210 HD
ENDBRANCH  22  23
ENDBRANCH  17  22
BRANCH  19  25
ATOM     25  O   UNL     1      22.639  24.174  15.200  1.00  0.00    -0.350 OA
BRANCH  25  26
ATOM     26  C   UNL     1      23.630  23.179  15.292  1.00  0.00     0.169 C 
BRANCH  26  27
ATOM     27  C   UNL     1      23.474  22.173  14.170  1.00  0.00     0.119 C 
BRANCH  27  28
ATOM     28  N   UNL     1      23.754  20.857  14.758  1.00  0.00    -0.092 NA
ATOM     29  N   UNL     1      24.128  19.973  13.944  1.00  0.00     0.001 N 
ATOM     30  N   UNL     1      24.146  18.987  13.191  1.00  0.00    -0.003 NA
ENDBRANCH  27  28
ENDBRANCH  26  27
ENDBRANCH  25  26
ENDBRANCH  19  25
BRANCH  20  31
ATOM     31  O   UNL     1      25.373  25.543  17.580  1.00  0.00    -0.387 OA
ATOM     32  H   UNL     1      26.150  25.286  18.102  1.00  0.00     0.211 HD
ENDBRANCH  20  31
BRANCH  21  33
ATOM     33  O   UNL     1      22.320  23.935  18.387  1.00  0.00    -0.385 OA
ATOM     34  H   UNL     1      22.658  23.074  18.755  1.00  0.00     0.211 HD
ENDBRANCH  21  33
ENDBRANCH  15  16
ENDBRANCH  10  15
BRANCH  12  35
ATOM     35  O   UNL     1      19.924  28.117  17.792  1.00  0.00    -0.385 OA
ATOM     36  H   UNL     1      20.713  27.752  17.271  1.00  0.00     0.211 HD
ENDBRANCH  12  35
BRANCH  13  37
ATOM     37  O   UNL     1      18.970  29.130  20.863  1.00  0.00    -0.387 OA
ATOM     38  H   UNL     1      18.019  29.317  20.623  1.00  0.00     0.211 HD
ENDBRANCH  13  37
BRANCH  14  39
ATOM     39  O   UNL     1      20.701  31.399  20.837  1.00  0.00    -0.387 OA
ATOM     40  H   UNL     1      20.573  31.232  21.825  1.00  0.00     0.211 HD
ENDBRANCH  14  39
ENDBRANCH   8   9
ENDBRANCH   7   8
ENDBRANCH   1   7
BRANCH   1  41
ATOM     41  C   UNL     1      23.171  29.380  25.260  1.00  0.00     0.364 C 
ATOM     42  O   UNL     1      22.263  29.684  26.013  1.00  0.00    -0.246 OA
BRANCH  41  43
ATOM     43  O   UNL     1      24.385  30.077  25.423  1.00  0.00    -0.477 OA
ATOM     44  H   UNL     1      24.434  30.986  25.858  1.00  0.00     0.296 HD
ENDBRANCH  41  43
ENDBRANCH   1  41
BRANCH   3  45
ATOM     45  O   UNL     1      25.066  25.478  25.367  1.00  0.00    -0.391 OA
ATOM     46  H   UNL     1      24.491  24.664  25.547  1.00  0.00     0.211 HD
ENDBRANCH   3  45
BRANCH   5  47
ATOM     47  C   UNL     1      21.222  25.399  24.102  1.00  0.00     0.176 C 
BRANCH  47  48
ATOM     48  O   UNL     1      21.929  24.241  24.542  1.00  0.00    -0.388 OA
ATOM     49  H   UNL     1      22.582  23.961  23.879  1.00  0.00     0.211 HD
ENDBRANCH  47  48
BRANCH  47  50
ATOM     50  C   UNL     1      21.507  25.551  22.699  1.00  0.00     0.165 C 
BRANCH  50  51
ATOM     51  O   UNL     1      20.477  26.081  21.882  1.00  0.00    -0.388 OA
ATOM     52  H   UNL     1      20.228  25.389  21.192  1.00  0.00     0.211 HD
ENDBRANCH  50  51
BRANCH  50  53
ATOM     53  C   UNL     1      21.893  24.292  21.991  1.00  0.00     0.154 C 
BRANCH  53  54
ATOM     54  N   UNL     1      23.157  24.175  21.379  1.00  0.00    -0.319 N 
ATOM     55  C   UNL     1      24.414  23.982  21.951  1.00  0.00     0.407 C 
ATOM     56  H   UNL     1      23.181  24.252  20.289  1.00  0.00     0.167 HD
ATOM     57  O   UNL     1      24.479  23.879  23.201  1.00  0.00    -0.225 OA
BRANCH  55  58
ATOM     58  O   UNL     1      25.553  23.902  21.125  1.00  0.00    -0.443 OA
BRANCH  58  59
ATOM     59  C   UNL     1      26.684  24.646  21.467  1.00  0.00     0.294 C 
BRANCH  59  60
ATOM     60  C   UNL     1      26.685  25.971  20.877  1.00  0.00     0.121 A 
ATOM     61  C   UNL     1      25.966  27.028  21.291  1.00  0.00     0.146 A 
ATOM     62  N   UNL     1      27.385  26.375  19.729  1.00  0.00    -0.131 NA
ATOM     63  N   UNL     1      26.165  28.060  20.483  1.00  0.00    -0.201 N 
ATOM     64  N   UNL     1      27.003  27.610  19.597  1.00  0.00    -0.060 NA
BRANCH  63  65
ATOM     65  C   UNL     1      25.685  29.387  20.537  1.00  0.00     0.173 A 
ATOM     66  N   UNL     1      25.012  29.813  19.436  1.00  0.00    -0.236 NA
ATOM     67  C   UNL     1      26.007  30.254  21.589  1.00  0.00     0.097 A 
ATOM     68  C   UNL     1      24.642  31.209  19.376  1.00  0.00     0.113 A 
ATOM     69  C   UNL     1      25.629  31.573  21.457  1.00  0.00     0.025 A 
ATOM     70  C   UNL     1      24.975  31.990  20.374  1.00  0.00     0.022 A 
BRANCH  67  71
ATOM     71  C   UNL     1      26.615  29.856  22.818  1.00  0.00     0.103 C 
ATOM     72  N   UNL     1      27.113  29.524  23.869  1.00  0.00    -0.192 NA
ENDBRANCH  67  71
ENDBRANCH  63  65
ENDBRANCH  59  60
ENDBRANCH  58  59
ENDBRANCH  55  58
ENDBRANCH  53  54
ENDBRANCH  50  53
ENDBRANCH  47  50
ENDBRANCH   5  47
BRANCH   4  73
ATOM     73  N   UNL     1      22.704  26.399  27.329  1.00  0.00    -0.348 N 
ATOM     74  C   UNL     1      22.633  25.491  28.390  1.00  0.00     0.217 C 
ATOM     75  H   UNL     1      22.648  27.440  27.625  1.00  0.00     0.163 HD
ATOM     76  C   UNL     1      22.562  25.982  29.823  1.00  0.00     0.114 C 
ATOM     77  O   UNL     1      22.626  24.246  28.271  1.00  0.00    -0.275 OA
ENDBRANCH   4  73
TORSDOF 31
