REMARK VINA RESULT:    -6.068      5.109     12.520
REMARK INTER + INTRA:         -23.495
REMARK INTER:                 -13.659
REMARK INTRA:                  -9.836
REMARK UNBOUND:                -7.494
REMARK SMILES CC(=O)N[C@@H]1[C@@H](O)C[C@](OC[C@H]2O[C@@H](O[C@H]3[C@H](O)[C@@H](O)[C@H](OCCN=[N+]=[N-])O[C@@H]3CO)[C@H](O)[C@@H](O)[C@H]2O)(C(=O)O)O[C@H]1C(O)[C@H](O)CNC(=O)OCc1cn(C(C)CC(=O)c2ccccc2)nn1
REMARK SMILES IDX 43 1 42 2 9 3 8 4 41 5 6 6 5 7 10 8 11 9 12 10 14 11 13 12
REMARK SMILES IDX 32 13 34 14 36 15 15 16 16 17 29 18 28 19 21 20 17 21 19 22
REMARK SMILES IDX 30 23 31 24 22 26 23 27 24 28 25 29 26 30 27 31 18 32 20 34
REMARK SMILES IDX 33 36 35 38 37 40 38 42 39 43 40 44 7 46 4 48 2 49 1 51 3 52
REMARK SMILES IDX 44 53 45 55 46 56 47 58 48 59 49 60 50 62 51 63 52 64 53 65
REMARK SMILES IDX 54 66 68 67 55 68 67 69 56 70 57 71 58 72 59 73 60 74 61 75
REMARK SMILES IDX 62 76 66 77 63 78 65 79 64 80
REMARK H PARENT 31 25 18 33 20 35 33 37 35 39 37 41 40 45 7 47 4 50 44 54
REMARK H PARENT 46 57 48 61
REMARK Flexibility Score: inf
ROOT
ATOM      1  C   UNL     1      25.010  29.033  26.190  1.00  0.00     0.176 C 
ENDROOT
BRANCH   1   2
ATOM      2  C   UNL     1      23.809  28.195  26.225  1.00  0.00     0.178 C 
ATOM      3  C   UNL     1      21.872  28.975  25.127  1.00  0.00     0.272 C 
ATOM      4  C   UNL     1      20.943  28.323  26.094  1.00  0.00     0.113 C 
ATOM      5  O   UNL     1      23.041  28.128  25.131  1.00  0.00    -0.332 OA
ATOM      6  C   UNL     1      21.690  27.751  27.284  1.00  0.00     0.145 C 
ATOM      7  C   UNL     1      22.979  28.449  27.504  1.00  0.00     0.142 C 
BRANCH   3   8
ATOM      8  O   UNL     1      22.287  30.199  25.270  1.00  0.00    -0.338 OA
BRANCH   8   9
ATOM      9  C   UNL     1      21.827  31.399  25.242  1.00  0.00     0.199 C 
BRANCH   9  10
ATOM     10  C   UNL     1      20.891  32.052  26.207  1.00  0.00     0.179 C 
ATOM     11  C   UNL     1      18.641  31.718  26.865  1.00  0.00     0.282 C 
ATOM     12  O   UNL     1      19.653  31.596  25.988  1.00  0.00    -0.341 OA
ATOM     13  C   UNL     1      19.027  31.223  28.219  1.00  0.00     0.202 C 
ATOM     14  C   UNL     1      20.369  31.629  28.629  1.00  0.00     0.179 C 
ATOM     15  C   UNL     1      21.323  32.163  27.615  1.00  0.00     0.177 C 
BRANCH  11  16
ATOM     16  O   UNL     1      17.589  30.930  26.325  1.00  0.00    -0.341 OA
BRANCH  16  17
ATOM     17  C   UNL     1      16.801  31.715  25.519  1.00  0.00     0.184 C 
ATOM     18  C   UNL     1      15.433  31.124  25.342  1.00  0.00     0.178 C 
ATOM     19  O   UNL     1      15.477  29.919  24.659  1.00  0.00    -0.341 OA
ATOM     20  C   UNL     1      16.100  29.911  23.450  1.00  0.00     0.281 C 
ATOM     21  C   UNL     1      17.481  31.832  24.138  1.00  0.00     0.180 C 
ATOM     22  C   UNL     1      17.451  30.537  23.411  1.00  0.00     0.202 C 
BRANCH  18  23
ATOM     23  C   UNL     1      14.480  32.106  24.692  1.00  0.00     0.191 C 
BRANCH  23  24
ATOM     24  O   UNL     1      13.232  31.550  24.439  1.00  0.00    -0.394 OA
ATOM     25  H   UNL     1      13.162  30.681  24.916  1.00  0.00     0.210 HD
ENDBRANCH  23  24
ENDBRANCH  18  23
BRANCH  20  26
ATOM     26  O   UNL     1      15.330  30.337  22.397  1.00  0.00    -0.350 OA
BRANCH  26  27
ATOM     27  C   UNL     1      15.805  30.017  21.155  1.00  0.00     0.169 C 
BRANCH  27  28
ATOM     28  C   UNL     1      15.193  28.758  20.601  1.00  0.00     0.119 C 
BRANCH  28  29
ATOM     29  N   UNL     1      16.254  27.793  20.373  1.00  0.00    -0.092 NA
ATOM     30  N   UNL     1      16.717  27.660  19.243  1.00  0.00     0.001 N 
ATOM     31  N   UNL     1      17.303  27.682  18.159  1.00  0.00    -0.003 NA
ENDBRANCH  28  29
ENDBRANCH  27  28
ENDBRANCH  26  27
ENDBRANCH  20  26
BRANCH  21  32
ATOM     32  O   UNL     1      16.943  32.889  23.414  1.00  0.00    -0.387 OA
ATOM     33  H   UNL     1      17.626  33.383  22.900  1.00  0.00     0.211 HD
ENDBRANCH  21  32
BRANCH  22  34
ATOM     34  O   UNL     1      18.469  29.675  23.823  1.00  0.00    -0.385 OA
ATOM     35  H   UNL     1      18.018  28.825  24.057  1.00  0.00     0.211 HD
ENDBRANCH  22  34
ENDBRANCH  16  17
ENDBRANCH  11  16
BRANCH  13  36
ATOM     36  O   UNL     1      18.098  31.703  29.187  1.00  0.00    -0.385 OA
ATOM     37  H   UNL     1      17.363  32.105  28.652  1.00  0.00     0.211 HD
ENDBRANCH  13  36
BRANCH  14  38
ATOM     38  O   UNL     1      20.965  30.527  29.308  1.00  0.00    -0.387 OA
ATOM     39  H   UNL     1      21.885  30.735  29.594  1.00  0.00     0.211 HD
ENDBRANCH  14  38
BRANCH  15  40
ATOM     40  O   UNL     1      22.578  31.666  27.903  1.00  0.00    -0.387 OA
ATOM     41  H   UNL     1      22.852  30.846  27.486  1.00  0.00     0.211 HD
ENDBRANCH  15  40
ENDBRANCH   9  10
ENDBRANCH   8   9
ENDBRANCH   3   8
BRANCH   3  42
ATOM     42  C   UNL     1      21.313  28.717  23.729  1.00  0.00     0.364 C 
ATOM     43  O   UNL     1      20.798  27.622  23.469  1.00  0.00    -0.246 OA
BRANCH  42  44
ATOM     44  O   UNL     1      21.372  29.689  22.756  1.00  0.00    -0.477 OA
ATOM     45  H   UNL     1      21.933  29.492  21.936  1.00  0.00     0.296 HD
ENDBRANCH  42  44
ENDBRANCH   3  42
BRANCH   6  46
ATOM     46  O   UNL     1      20.885  27.711  28.417  1.00  0.00    -0.391 OA
ATOM     47  H   UNL     1      20.513  26.770  28.496  1.00  0.00     0.211 HD
ENDBRANCH   6  46
BRANCH   7  48
ATOM     48  N   UNL     1      23.716  27.825  28.598  1.00  0.00    -0.348 N 
ATOM     49  C   UNL     1      24.058  28.511  29.795  1.00  0.00     0.217 C 
ATOM     50  H   UNL     1      24.005  26.835  28.503  1.00  0.00     0.163 HD
ATOM     51  C   UNL     1      24.800  27.881  30.889  1.00  0.00     0.114 C 
ATOM     52  O   UNL     1      23.704  29.734  29.921  1.00  0.00    -0.275 OA
ENDBRANCH   7  48
ENDBRANCH   1   2
BRANCH   1  53
ATOM     53  O   UNL     1      24.771  30.405  26.440  1.00  0.00    -0.388 OA
ATOM     54  H   UNL     1      25.468  30.906  25.914  1.00  0.00     0.211 HD
ENDBRANCH   1  53
BRANCH   1  55
ATOM     55  C   UNL     1      25.864  28.983  24.941  1.00  0.00     0.165 C 
BRANCH  55  56
ATOM     56  O   UNL     1      27.191  28.805  25.162  1.00  0.00    -0.388 OA
ATOM     57  H   UNL     1      27.711  29.426  24.601  1.00  0.00     0.211 HD
ENDBRANCH  55  56
BRANCH  55  58
ATOM     58  C   UNL     1      25.628  30.312  24.207  1.00  0.00     0.154 C 
BRANCH  58  59
ATOM     59  N   UNL     1      24.578  30.167  23.224  1.00  0.00    -0.319 N 
ATOM     60  C   UNL     1      24.563  30.743  21.935  1.00  0.00     0.407 C 
ATOM     61  H   UNL     1      23.720  29.572  23.448  1.00  0.00     0.167 HD
ATOM     62  O   UNL     1      25.529  31.414  21.522  1.00  0.00    -0.225 OA
BRANCH  60  63
ATOM     63  O   UNL     1      23.458  30.584  21.074  1.00  0.00    -0.443 OA
BRANCH  63  64
ATOM     64  C   UNL     1      23.667  29.912  19.813  1.00  0.00     0.294 C 
BRANCH  64  65
ATOM     65  C   UNL     1      22.793  28.686  19.921  1.00  0.00     0.120 A 
ATOM     66  C   UNL     1      23.318  27.385  20.047  1.00  0.00     0.138 A 
ATOM     67  N   UNL     1      21.484  28.534  19.876  1.00  0.00    -0.132 NA
ATOM     68  N   UNL     1      22.302  26.510  20.068  1.00  0.00    -0.249 N 
ATOM     69  N   UNL     1      21.204  27.217  19.966  1.00  0.00    -0.067 NA
BRANCH  68  70
ATOM     70  C   UNL     1      22.483  25.059  20.163  1.00  0.00     0.114 C 
ATOM     71  C   UNL     1      23.083  24.562  18.886  1.00  0.00     0.034 C 
BRANCH  70  72
ATOM     72  C   UNL     1      23.221  24.700  21.410  1.00  0.00     0.108 C 
BRANCH  72  73
ATOM     73  C   UNL     1      22.231  24.614  22.517  1.00  0.00     0.164 C 
ATOM     74  O   UNL     1      21.021  24.531  22.294  1.00  0.00    -0.294 OA
BRANCH  73  75
ATOM     75  C   UNL     1      22.753  24.629  23.892  1.00  0.00     0.018 A 
ATOM     76  C   UNL     1      21.955  24.606  24.976  1.00  0.00     0.012 A 
ATOM     77  C   UNL     1      24.150  24.664  24.037  1.00  0.00     0.012 A 
ATOM     78  C   UNL     1      22.512  24.613  26.267  1.00  0.00     0.001 A 
ATOM     79  C   UNL     1      24.671  24.671  25.298  1.00  0.00     0.001 A 
ATOM     80  C   UNL     1      23.879  24.646  26.415  1.00  0.00     0.000 A 
ENDBRANCH  73  75
ENDBRANCH  72  73
ENDBRANCH  70  72
ENDBRANCH  68  70
ENDBRANCH  64  65
ENDBRANCH  63  64
ENDBRANCH  60  63
ENDBRANCH  58  59
ENDBRANCH  55  58
ENDBRANCH   1  55
TORSDOF 33
