REMARK VINA RESULT:    -5.791      2.715      5.636
REMARK INTER + INTRA:         -23.421
REMARK INTER:                 -15.199
REMARK INTRA:                  -8.222
REMARK UNBOUND:                -7.304
REMARK SMILES CC(=O)N[C@@H]1[C@@H](O)C[C@](OC[C@H]2O[C@@H](O[C@H]3[C@H](O)[C@@H](O)[C@H](OCCN=[N+]=[N-])O[C@@H]3CO)[C@H](O)[C@@H](O)[C@H]2O)(C(=O)O)O[C@H]1C(O)[C@H](O)CNC(=O)OCc1cn(CCCCCC(=O)O)nn1
REMARK SMILES IDX 47 1 45 2 43 3 42 4 9 5 8 6 41 7 6 8 5 9 10 10 11 11 12 12
REMARK SMILES IDX 14 13 13 14 32 15 34 16 36 17 15 18 16 19 29 20 28 21 21 22
REMARK SMILES IDX 17 23 19 24 30 25 31 26 22 28 23 29 24 30 25 31 26 32 27 33
REMARK SMILES IDX 18 34 20 36 33 38 35 40 37 42 38 44 39 45 40 46 7 48 4 50
REMARK SMILES IDX 2 51 1 53 3 54 44 55 46 57 48 59 49 60 50 62 51 63 52 64
REMARK SMILES IDX 53 65 54 66 65 67 55 68 64 69 56 70 57 71 58 72 59 73 60 74
REMARK SMILES IDX 61 75 62 76 63 77
REMARK H PARENT 31 27 18 35 20 37 33 39 35 41 37 43 40 47 7 49 4 52 44 56
REMARK H PARENT 46 58 48 61 63 78
REMARK Flexibility Score: inf
ROOT
ATOM      1  C   UNL     1      20.748  29.229  20.927  1.00  0.00     0.154 C 
ENDROOT
BRANCH   1   2
ATOM      2  C   UNL     1      20.040  29.840  22.112  1.00  0.00     0.165 C 
BRANCH   2   3
ATOM      3  C   UNL     1      20.682  29.278  23.338  1.00  0.00     0.176 C 
BRANCH   3   4
ATOM      4  C   UNL     1      21.804  28.324  23.112  1.00  0.00     0.178 C 
ATOM      5  C   UNL     1      22.386  26.160  22.884  1.00  0.00     0.272 C 
ATOM      6  C   UNL     1      23.605  26.748  22.251  1.00  0.00     0.113 C 
ATOM      7  O   UNL     1      21.597  27.046  23.604  1.00  0.00    -0.332 OA
ATOM      8  C   UNL     1      24.164  27.983  22.848  1.00  0.00     0.145 C 
ATOM      9  C   UNL     1      23.136  28.761  23.679  1.00  0.00     0.142 C 
BRANCH   5  10
ATOM     10  O   UNL     1      22.662  25.006  23.614  1.00  0.00    -0.338 OA
BRANCH  10  11
ATOM     11  C   UNL     1      22.078  24.883  24.834  1.00  0.00     0.199 C 
BRANCH  11  12
ATOM     12  C   UNL     1      22.939  25.661  25.810  1.00  0.00     0.179 C 
ATOM     13  C   UNL     1      23.166  27.435  27.153  1.00  0.00     0.282 C 
ATOM     14  O   UNL     1      22.222  26.486  26.663  1.00  0.00    -0.341 OA
ATOM     15  C   UNL     1      24.510  26.906  27.379  1.00  0.00     0.202 C 
ATOM     16  C   UNL     1      24.654  25.414  27.493  1.00  0.00     0.179 C 
ATOM     17  C   UNL     1      23.618  24.648  26.714  1.00  0.00     0.177 C 
BRANCH  13  18
ATOM     18  O   UNL     1      22.575  28.205  28.151  1.00  0.00    -0.341 OA
BRANCH  18  19
ATOM     19  C   UNL     1      23.146  28.129  29.366  1.00  0.00     0.184 C 
ATOM     20  C   UNL     1      22.165  27.850  30.465  1.00  0.00     0.178 C 
ATOM     21  O   UNL     1      22.945  27.411  31.555  1.00  0.00    -0.341 OA
ATOM     22  C   UNL     1      23.686  28.422  32.064  1.00  0.00     0.281 C 
ATOM     23  C   UNL     1      23.724  29.525  29.781  1.00  0.00     0.180 C 
ATOM     24  C   UNL     1      23.622  29.677  31.278  1.00  0.00     0.202 C 
BRANCH  20  25
ATOM     25  C   UNL     1      21.191  26.746  30.149  1.00  0.00     0.191 C 
BRANCH  25  26
ATOM     26  O   UNL     1      21.853  25.592  29.788  1.00  0.00    -0.394 OA
ATOM     27  H   UNL     1      22.046  25.084  30.620  1.00  0.00     0.210 HD
ENDBRANCH  25  26
ENDBRANCH  20  25
BRANCH  22  28
ATOM     28  O   UNL     1      25.017  28.066  32.319  1.00  0.00    -0.350 OA
BRANCH  28  29
ATOM     29  C   UNL     1      25.166  26.731  32.597  1.00  0.00     0.169 C 
BRANCH  29  30
ATOM     30  C   UNL     1      26.426  26.207  31.923  1.00  0.00     0.119 C 
BRANCH  30  31
ATOM     31  N   UNL     1      26.375  26.428  30.487  1.00  0.00    -0.092 NA
ATOM     32  N   UNL     1      27.436  26.534  29.844  1.00  0.00     0.001 N 
ATOM     33  N   UNL     1      28.360  27.086  29.245  1.00  0.00    -0.003 NA
ENDBRANCH  30  31
ENDBRANCH  29  30
ENDBRANCH  28  29
ENDBRANCH  22  28
BRANCH  23  34
ATOM     34  O   UNL     1      25.077  29.556  29.446  1.00  0.00    -0.387 OA
ATOM     35  H   UNL     1      25.612  29.272  30.244  1.00  0.00     0.211 HD
ENDBRANCH  23  34
BRANCH  24  36
ATOM     36  O   UNL     1      22.592  30.543  31.666  1.00  0.00    -0.385 OA
ATOM     37  H   UNL     1      21.892  30.084  32.193  1.00  0.00     0.211 HD
ENDBRANCH  24  36
ENDBRANCH  18  19
ENDBRANCH  13  18
BRANCH  15  38
ATOM     38  O   UNL     1      25.409  27.285  26.340  1.00  0.00    -0.385 OA
ATOM     39  H   UNL     1      26.209  27.693  26.716  1.00  0.00     0.211 HD
ENDBRANCH  15  38
BRANCH  16  40
ATOM     40  O   UNL     1      24.577  24.965  28.823  1.00  0.00    -0.387 OA
ATOM     41  H   UNL     1      25.356  24.447  29.095  1.00  0.00     0.211 HD
ENDBRANCH  16  40
BRANCH  17  42
ATOM     42  O   UNL     1      22.614  24.192  27.605  1.00  0.00    -0.387 OA
ATOM     43  H   UNL     1      21.942  23.724  27.016  1.00  0.00     0.211 HD
ENDBRANCH  17  42
ENDBRANCH  11  12
ENDBRANCH  10  11
ENDBRANCH   5  10
BRANCH   5  44
ATOM     44  C   UNL     1      21.514  25.698  21.768  1.00  0.00     0.364 C 
ATOM     45  O   UNL     1      21.796  25.972  20.580  1.00  0.00    -0.246 OA
BRANCH  44  46
ATOM     46  O   UNL     1      20.385  24.962  22.032  1.00  0.00    -0.477 OA
ATOM     47  H   UNL     1      20.371  24.164  22.689  1.00  0.00     0.296 HD
ENDBRANCH  44  46
ENDBRANCH   5  44
BRANCH   8  48
ATOM     48  O   UNL     1      25.372  27.827  23.523  1.00  0.00    -0.391 OA
ATOM     49  H   UNL     1      25.171  27.478  24.420  1.00  0.00     0.211 HD
ENDBRANCH   8  48
BRANCH   9  50
ATOM     50  N   UNL     1      23.377  30.161  23.639  1.00  0.00    -0.348 N 
ATOM     51  C   UNL     1      24.195  30.760  24.627  1.00  0.00     0.217 C 
ATOM     52  H   UNL     1      22.970  30.751  22.902  1.00  0.00     0.163 HD
ATOM     53  C   UNL     1      24.467  32.221  24.607  1.00  0.00     0.114 C 
ATOM     54  O   UNL     1      24.727  30.089  25.560  1.00  0.00    -0.275 OA
ENDBRANCH   9  50
ENDBRANCH   3   4
BRANCH   3  55
ATOM     55  O   UNL     1      19.726  28.661  24.177  1.00  0.00    -0.388 OA
ATOM     56  H   UNL     1      19.246  29.346  24.694  1.00  0.00     0.211 HD
ENDBRANCH   3  55
ENDBRANCH   2   3
BRANCH   2  57
ATOM     57  O   UNL     1      18.700  29.476  22.047  1.00  0.00    -0.388 OA
ATOM     58  H   UNL     1      18.201  30.107  22.625  1.00  0.00     0.211 HD
ENDBRANCH   2  57
ENDBRANCH   1   2
BRANCH   1  59
ATOM     59  N   UNL     1      19.935  28.356  20.142  1.00  0.00    -0.319 N 
ATOM     60  C   UNL     1      19.577  28.770  18.819  1.00  0.00     0.407 C 
ATOM     61  H   UNL     1      19.593  27.444  20.484  1.00  0.00     0.167 HD
ATOM     62  O   UNL     1      19.973  29.873  18.368  1.00  0.00    -0.225 OA
BRANCH  60  63
ATOM     63  O   UNL     1      18.795  27.991  17.999  1.00  0.00    -0.443 OA
BRANCH  63  64
ATOM     64  C   UNL     1      17.437  28.172  17.795  1.00  0.00     0.294 C 
BRANCH  64  65
ATOM     65  C   UNL     1      16.593  28.269  18.992  1.00  0.00     0.120 A 
ATOM     66  C   UNL     1      15.315  28.755  19.077  1.00  0.00     0.138 A 
ATOM     67  N   UNL     1      16.957  27.899  20.240  1.00  0.00    -0.132 NA
ATOM     68  N   UNL     1      14.934  28.672  20.353  1.00  0.00    -0.252 N 
ATOM     69  N   UNL     1      15.944  28.153  21.023  1.00  0.00    -0.067 NA
BRANCH  68  70
ATOM     70  C   UNL     1      13.640  29.073  20.885  1.00  0.00     0.146 C 
BRANCH  70  71
ATOM     71  C   UNL     1      13.657  30.589  21.079  1.00  0.00     0.024 C 
BRANCH  71  72
ATOM     72  C   UNL     1      13.291  30.964  22.484  1.00  0.00     0.002 C 
BRANCH  72  73
ATOM     73  C   UNL     1      13.680  29.860  23.425  1.00  0.00     0.012 C 
BRANCH  73  74
ATOM     74  C   UNL     1      14.516  30.324  24.571  1.00  0.00     0.122 C 
BRANCH  74  75
ATOM     75  C   UNL     1      15.943  30.394  24.150  1.00  0.00     0.303 C 
ATOM     76  O   UNL     1      16.533  31.496  24.124  1.00  0.00    -0.252 OA
BRANCH  75  77
ATOM     77  O   UNL     1      16.639  29.247  23.782  1.00  0.00    -0.481 OA
ATOM     78  H   UNL     1      16.415  28.782  22.900  1.00  0.00     0.296 HD
ENDBRANCH  75  77
ENDBRANCH  74  75
ENDBRANCH  73  74
ENDBRANCH  72  73
ENDBRANCH  71  72
ENDBRANCH  70  71
ENDBRANCH  68  70
ENDBRANCH  64  65
ENDBRANCH  63  64
ENDBRANCH  60  63
ENDBRANCH   1  59
TORSDOF 36
