REMARK VINA RESULT:    -6.651     12.755     19.112
REMARK INTER + INTRA:         -21.911
REMARK INTER:                 -16.006
REMARK INTRA:                  -5.905
REMARK UNBOUND:                -5.539
REMARK SMILES CC(=O)N[C@@H]1[C@@H](O)C[C@](OC[C@H]2O[C@@H](O[C@H]3[C@H](O)[C@@H](O)[C@H](OCCN=[N+]=[N-])O[C@@H]3CO)[C@H](O)[C@@H](O)[C@H]2O)(C(=O)O)O[C@H]1C(O)[C@H](O)CNC(=O)OCc1cn(-c2c3ccccc3nc3ccccc23)nn1
REMARK SMILES IDX 9 1 8 2 6 3 5 4 42 5 41 6 10 7 11 8 12 9 14 10 13 11 32 12
REMARK SMILES IDX 34 13 36 14 15 15 16 16 29 17 28 18 21 19 17 20 19 21 30 22
REMARK SMILES IDX 31 23 22 25 23 26 24 27 25 28 26 29 27 30 18 31 20 33 33 35
REMARK SMILES IDX 35 37 37 39 38 41 39 42 40 43 7 45 43 47 44 48 45 50 46 51
REMARK SMILES IDX 47 53 48 54 49 55 50 57 51 58 52 59 53 60 54 61 71 62 55 63
REMARK SMILES IDX 70 64 56 65 57 66 69 67 58 68 62 69 64 70 68 71 59 72 61 73
REMARK SMILES IDX 63 74 65 75 67 76 60 77 66 78 4 79 2 80 1 82 3 83
REMARK H PARENT 31 24 18 32 20 34 33 36 35 38 37 40 40 44 7 46 44 49 46 52
REMARK H PARENT 48 56 4 81
REMARK Flexibility Score: inf
ROOT
ATOM      1  C   UNL     1      13.511  30.232  23.632  1.00  0.00     0.272 C 
ATOM      2  C   UNL     1      12.175  30.382  22.751  1.00  0.00     0.113 C 
ATOM      3  C   UNL     1      11.434  31.475  23.430  1.00  0.00     0.145 C 
ATOM      4  C   UNL     1      12.214  32.761  23.601  1.00  0.00     0.142 C 
ATOM      5  C   UNL     1      13.673  32.585  23.676  1.00  0.00     0.178 C 
ATOM      6  O   UNL     1      14.171  31.361  23.382  1.00  0.00    -0.332 OA
ENDROOT
BRANCH   1   7
ATOM      7  O   UNL     1      14.107  29.180  22.935  1.00  0.00    -0.338 OA
BRANCH   7   8
ATOM      8  C   UNL     1      13.728  29.001  21.648  1.00  0.00     0.199 C 
BRANCH   8   9
ATOM      9  C   UNL     1      14.827  28.836  20.672  1.00  0.00     0.179 C 
ATOM     10  C   UNL     1      15.514  29.145  18.462  1.00  0.00     0.282 C 
ATOM     11  O   UNL     1      14.471  29.228  19.410  1.00  0.00    -0.341 OA
ATOM     12  C   UNL     1      16.719  28.453  18.943  1.00  0.00     0.202 C 
ATOM     13  C   UNL     1      17.214  29.016  20.255  1.00  0.00     0.179 C 
ATOM     14  C   UNL     1      16.112  29.541  21.115  1.00  0.00     0.177 C 
BRANCH  10  15
ATOM     15  O   UNL     1      15.769  30.406  17.939  1.00  0.00    -0.341 OA
BRANCH  15  16
ATOM     16  C   UNL     1      14.881  30.749  16.894  1.00  0.00     0.184 C 
ATOM     17  C   UNL     1      13.508  30.867  17.421  1.00  0.00     0.178 C 
ATOM     18  O   UNL     1      12.504  30.741  16.426  1.00  0.00    -0.341 OA
ATOM     19  C   UNL     1      12.599  29.446  15.931  1.00  0.00     0.281 C 
ATOM     20  C   UNL     1      15.011  29.578  15.907  1.00  0.00     0.180 C 
ATOM     21  C   UNL     1      13.820  29.475  14.997  1.00  0.00     0.202 C 
BRANCH  17  22
ATOM     22  C   UNL     1      13.276  32.216  18.086  1.00  0.00     0.191 C 
BRANCH  22  23
ATOM     23  O   UNL     1      13.848  32.319  19.327  1.00  0.00    -0.394 OA
ATOM     24  H   UNL     1      13.992  31.408  19.693  1.00  0.00     0.210 HD
ENDBRANCH  22  23
ENDBRANCH  17  22
BRANCH  19  25
ATOM     25  O   UNL     1      11.432  29.158  15.269  1.00  0.00    -0.350 OA
BRANCH  25  26
ATOM     26  C   UNL     1      10.979  30.173  14.432  1.00  0.00     0.169 C 
BRANCH  26  27
ATOM     27  C   UNL     1       9.773  29.749  13.622  1.00  0.00     0.119 C 
BRANCH  27  28
ATOM     28  N   UNL     1      10.198  28.640  12.774  1.00  0.00    -0.092 NA
ATOM     29  N   UNL     1      11.265  28.696  12.153  1.00  0.00     0.001 N 
ATOM     30  N   UNL     1      12.348  28.670  11.565  1.00  0.00    -0.003 NA
ENDBRANCH  27  28
ENDBRANCH  26  27
ENDBRANCH  25  26
ENDBRANCH  19  25
BRANCH  20  31
ATOM     31  O   UNL     1      16.209  29.675  15.218  1.00  0.00    -0.387 OA
ATOM     32  H   UNL     1      16.090  29.719  14.237  1.00  0.00     0.211 HD
ENDBRANCH  20  31
BRANCH  21  33
ATOM     33  O   UNL     1      13.906  28.318  14.256  1.00  0.00    -0.385 OA
ATOM     34  H   UNL     1      14.729  27.831  14.564  1.00  0.00     0.211 HD
ENDBRANCH  21  33
ENDBRANCH  15  16
ENDBRANCH  10  15
BRANCH  12  35
ATOM     35  O   UNL     1      16.511  27.067  19.006  1.00  0.00    -0.385 OA
ATOM     36  H   UNL     1      15.707  26.947  19.595  1.00  0.00     0.211 HD
ENDBRANCH  12  35
BRANCH  13  37
ATOM     37  O   UNL     1      18.157  30.019  19.956  1.00  0.00    -0.387 OA
ATOM     38  H   UNL     1      17.931  30.784  20.576  1.00  0.00     0.211 HD
ENDBRANCH  13  37
BRANCH  14  39
ATOM     39  O   UNL     1      15.995  30.916  21.084  1.00  0.00    -0.387 OA
ATOM     40  H   UNL     1      16.113  31.297  20.178  1.00  0.00     0.211 HD
ENDBRANCH  14  39
ENDBRANCH   8   9
ENDBRANCH   7   8
ENDBRANCH   1   7
BRANCH   1  41
ATOM     41  C   UNL     1      13.005  29.872  24.915  1.00  0.00     0.364 C 
ATOM     42  O   UNL     1      13.336  30.524  25.957  1.00  0.00    -0.246 OA
BRANCH  41  43
ATOM     43  O   UNL     1      12.125  28.818  25.187  1.00  0.00    -0.477 OA
ATOM     44  H   UNL     1      11.129  28.996  25.153  1.00  0.00     0.296 HD
ENDBRANCH  41  43
ENDBRANCH   1  41
BRANCH   3  45
ATOM     45  O   UNL     1      10.271  31.711  22.657  1.00  0.00    -0.391 OA
ATOM     46  H   UNL     1       9.540  32.009  23.260  1.00  0.00     0.211 HD
ENDBRANCH   3  45
BRANCH   5  47
ATOM     47  C   UNL     1      14.417  33.554  22.716  1.00  0.00     0.176 C 
BRANCH  47  48
ATOM     48  O   UNL     1      13.568  34.029  21.760  1.00  0.00    -0.388 OA
ATOM     49  H   UNL     1      13.358  35.011  21.844  1.00  0.00     0.211 HD
ENDBRANCH  47  48
BRANCH  47  50
ATOM     50  C   UNL     1      15.326  34.473  23.397  1.00  0.00     0.165 C 
BRANCH  50  51
ATOM     51  O   UNL     1      14.801  35.703  23.800  1.00  0.00    -0.388 OA
ATOM     52  H   UNL     1      13.826  35.650  23.962  1.00  0.00     0.211 HD
ENDBRANCH  50  51
BRANCH  50  53
ATOM     53  C   UNL     1      16.739  34.539  22.964  1.00  0.00     0.154 C 
BRANCH  53  54
ATOM     54  N   UNL     1      17.395  33.381  22.485  1.00  0.00    -0.319 N 
ATOM     55  C   UNL     1      18.171  32.496  23.263  1.00  0.00     0.407 C 
ATOM     56  H   UNL     1      17.296  33.144  21.427  1.00  0.00     0.167 HD
ATOM     57  O   UNL     1      18.402  32.634  24.474  1.00  0.00    -0.225 OA
BRANCH  55  58
ATOM     58  O   UNL     1      18.752  31.352  22.682  1.00  0.00    -0.443 OA
BRANCH  58  59
ATOM     59  C   UNL     1      20.135  31.060  22.775  1.00  0.00     0.294 C 
BRANCH  59  60
ATOM     60  C   UNL     1      20.319  29.733  23.432  1.00  0.00     0.121 A 
ATOM     61  C   UNL     1      21.327  28.814  23.235  1.00  0.00     0.144 A 
ATOM     62  N   UNL     1      19.510  29.174  24.344  1.00  0.00    -0.131 NA
ATOM     63  N   UNL     1      21.124  27.728  24.016  1.00  0.00    -0.219 N 
ATOM     64  N   UNL     1      20.007  27.979  24.679  1.00  0.00    -0.062 NA
BRANCH  63  65
ATOM     65  C   UNL     1      21.957  26.556  24.090  1.00  0.00     0.085 A 
ATOM     66  C   UNL     1      22.415  26.107  25.319  1.00  0.00     0.027 A 
ATOM     67  C   UNL     1      22.328  25.851  22.969  1.00  0.00     0.027 A 
ATOM     68  C   UNL     1      22.077  26.770  26.479  1.00  0.00     0.012 A 
ATOM     69  C   UNL     1      23.226  24.982  25.443  1.00  0.00     0.073 A 
ATOM     70  C   UNL     1      23.131  24.745  23.135  1.00  0.00     0.073 A 
ATOM     71  C   UNL     1      21.912  26.236  21.728  1.00  0.00     0.012 A 
ATOM     72  C   UNL     1      22.530  26.323  27.701  1.00  0.00     0.001 A 
ATOM     73  C   UNL     1      23.678  24.539  26.667  1.00  0.00     0.029 A 
ATOM     74  N   UNL     1      23.570  24.318  24.332  1.00  0.00    -0.248 NA
ATOM     75  C   UNL     1      23.524  24.012  22.034  1.00  0.00     0.029 A 
ATOM     76  C   UNL     1      22.323  25.480  20.637  1.00  0.00     0.001 A 
ATOM     77  C   UNL     1      23.342  25.199  27.824  1.00  0.00     0.002 A 
ATOM     78  C   UNL     1      23.125  24.366  20.758  1.00  0.00     0.002 A 
ENDBRANCH  63  65
ENDBRANCH  59  60
ENDBRANCH  58  59
ENDBRANCH  55  58
ENDBRANCH  53  54
ENDBRANCH  50  53
ENDBRANCH  47  50
ENDBRANCH   5  47
BRANCH   4  79
ATOM     79  N   UNL     1      11.653  33.507  24.705  1.00  0.00    -0.348 N 
ATOM     80  C   UNL     1      11.444  34.918  24.701  1.00  0.00     0.217 C 
ATOM     81  H   UNL     1      11.372  33.024  25.589  1.00  0.00     0.163 HD
ATOM     82  C   UNL     1      10.857  35.579  25.915  1.00  0.00     0.114 C 
ATOM     83  O   UNL     1      11.759  35.549  23.679  1.00  0.00    -0.275 OA
ENDBRANCH   4  79
TORSDOF 30
