REMARK VINA RESULT:    -6.123      2.198      6.280
REMARK INTER + INTRA:         -23.189
REMARK INTER:                 -15.273
REMARK INTRA:                  -7.916
REMARK UNBOUND:                -7.759
REMARK SMILES CC(=O)N[C@@H]1[C@@H](O)C[C@](OC[C@H]2O[C@@H](O[C@H]3[C@H](O)[C@@H](O)[C@H](OCCN=[N+]=[N-])O[C@@H]3CO)[C@H](O)[C@@H](O)[C@H]2O)(C(=O)O)O[C@H]1C(O)[C@H](O)CNC(=O)OCc1cn(-c2cc(Cl)ccc2C(=O)N(C)C)nn1
REMARK SMILES IDX 9 1 8 2 6 3 5 4 42 5 41 6 10 7 11 8 12 9 14 10 13 11 32 12
REMARK SMILES IDX 34 13 36 14 15 15 16 16 29 17 28 18 21 19 17 20 19 21 30 22
REMARK SMILES IDX 31 23 22 25 23 26 24 27 25 28 26 29 27 30 18 31 20 33 33 35
REMARK SMILES IDX 35 37 37 39 38 41 39 42 40 43 7 45 43 47 44 48 45 50 46 51
REMARK SMILES IDX 47 53 48 54 49 55 50 57 51 58 52 59 53 60 54 61 69 62 55 63
REMARK SMILES IDX 68 64 56 65 57 66 62 67 58 68 61 69 59 70 60 71 63 72 64 73
REMARK SMILES IDX 65 74 66 75 67 76 4 77 2 78 1 80 3 81
REMARK H PARENT 31 24 18 32 20 34 33 36 35 38 37 40 40 44 7 46 44 49 46 52
REMARK H PARENT 48 56 4 79
REMARK Flexibility Score: inf
ROOT
ATOM      1  C   UNL     1      14.296  30.640  22.180  1.00  0.00     0.272 C 
ATOM      2  C   UNL     1      13.662  31.833  22.789  1.00  0.00     0.113 C 
ATOM      3  C   UNL     1      14.715  32.753  23.351  1.00  0.00     0.145 C 
ATOM      4  C   UNL     1      15.474  31.960  24.388  1.00  0.00     0.142 C 
ATOM      5  C   UNL     1      16.022  30.717  23.825  1.00  0.00     0.178 C 
ATOM      6  O   UNL     1      15.439  30.156  22.734  1.00  0.00    -0.332 OA
ENDROOT
BRANCH   1   7
ATOM      7  O   UNL     1      14.553  30.828  20.831  1.00  0.00    -0.338 OA
BRANCH   7   8
ATOM      8  C   UNL     1      13.627  31.453  20.073  1.00  0.00     0.199 C 
BRANCH   8   9
ATOM      9  C   UNL     1      14.077  31.449  18.604  1.00  0.00     0.179 C 
ATOM     10  C   UNL     1      16.061  31.145  17.468  1.00  0.00     0.282 C 
ATOM     11  O   UNL     1      15.390  31.818  18.555  1.00  0.00    -0.341 OA
ATOM     12  C   UNL     1      15.139  31.226  16.272  1.00  0.00     0.202 C 
ATOM     13  C   UNL     1      13.916  30.353  16.460  1.00  0.00     0.179 C 
ATOM     14  C   UNL     1      13.656  30.203  17.948  1.00  0.00     0.177 C 
BRANCH  10  15
ATOM     15  O   UNL     1      16.337  29.924  17.915  1.00  0.00    -0.341 OA
BRANCH  15  16
ATOM     16  C   UNL     1      17.583  29.342  17.762  1.00  0.00     0.184 C 
ATOM     17  C   UNL     1      17.915  28.710  19.074  1.00  0.00     0.178 C 
ATOM     18  O   UNL     1      19.184  28.108  19.012  1.00  0.00    -0.341 OA
ATOM     19  C   UNL     1      20.045  29.256  19.097  1.00  0.00     0.281 C 
ATOM     20  C   UNL     1      18.611  30.384  17.401  1.00  0.00     0.180 C 
ATOM     21  C   UNL     1      19.994  29.962  17.792  1.00  0.00     0.202 C 
BRANCH  17  22
ATOM     22  C   UNL     1      16.880  27.677  19.467  1.00  0.00     0.191 C 
BRANCH  22  23
ATOM     23  O   UNL     1      16.172  28.154  20.549  1.00  0.00    -0.394 OA
ATOM     24  H   UNL     1      15.270  28.446  20.263  1.00  0.00     0.210 HD
ENDBRANCH  22  23
ENDBRANCH  17  22
BRANCH  19  25
ATOM     25  O   UNL     1      21.265  28.832  19.455  1.00  0.00    -0.350 OA
BRANCH  25  26
ATOM     26  C   UNL     1      21.531  27.495  19.212  1.00  0.00     0.169 C 
BRANCH  26  27
ATOM     27  C   UNL     1      22.557  27.268  18.122  1.00  0.00     0.119 C 
BRANCH  27  28
ATOM     28  N   UNL     1      21.961  26.602  16.984  1.00  0.00    -0.092 NA
ATOM     29  N   UNL     1      21.588  27.245  16.008  1.00  0.00     0.001 N 
ATOM     30  N   UNL     1      21.357  28.049  15.081  1.00  0.00    -0.003 NA
ENDBRANCH  27  28
ENDBRANCH  26  27
ENDBRANCH  25  26
ENDBRANCH  19  25
BRANCH  20  31
ATOM     31  O   UNL     1      18.635  30.627  16.023  1.00  0.00    -0.387 OA
ATOM     32  H   UNL     1      19.559  30.877  15.728  1.00  0.00     0.211 HD
ENDBRANCH  20  31
BRANCH  21  33
ATOM     33  O   UNL     1      20.812  31.089  17.833  1.00  0.00    -0.385 OA
ATOM     34  H   UNL     1      20.323  31.933  17.732  1.00  0.00     0.211 HD
ENDBRANCH  21  33
ENDBRANCH  15  16
ENDBRANCH  10  15
BRANCH  12  35
ATOM     35  O   UNL     1      14.682  32.558  16.215  1.00  0.00    -0.385 OA
ATOM     36  H   UNL     1      13.683  32.594  16.075  1.00  0.00     0.211 HD
ENDBRANCH  12  35
BRANCH  13  37
ATOM     37  O   UNL     1      14.013  29.106  15.902  1.00  0.00    -0.387 OA
ATOM     38  H   UNL     1      13.592  28.395  16.443  1.00  0.00     0.211 HD
ENDBRANCH  13  37
BRANCH  14  39
ATOM     39  O   UNL     1      14.069  29.015  18.481  1.00  0.00    -0.387 OA
ATOM     40  H   UNL     1      13.839  28.878  19.427  1.00  0.00     0.211 HD
ENDBRANCH  14  39
ENDBRANCH   8   9
ENDBRANCH   7   8
ENDBRANCH   1   7
BRANCH   1  41
ATOM     41  C   UNL     1      13.261  29.499  22.190  1.00  0.00     0.364 C 
ATOM     42  O   UNL     1      12.219  29.716  22.849  1.00  0.00    -0.246 OA
BRANCH  41  43
ATOM     43  O   UNL     1      13.436  28.319  21.539  1.00  0.00    -0.477 OA
ATOM     44  H   UNL     1      13.677  27.451  21.962  1.00  0.00     0.296 HD
ENDBRANCH  41  43
ENDBRANCH   1  41
BRANCH   3  45
ATOM     45  O   UNL     1      15.477  33.264  22.340  1.00  0.00    -0.391 OA
ATOM     46  H   UNL     1      15.298  32.967  21.442  1.00  0.00     0.211 HD
ENDBRANCH   3  45
BRANCH   5  47
ATOM     47  C   UNL     1      17.520  30.733  23.543  1.00  0.00     0.176 C 
BRANCH  47  48
ATOM     48  O   UNL     1      18.256  29.869  24.304  1.00  0.00    -0.388 OA
ATOM     49  H   UNL     1      18.418  30.167  25.239  1.00  0.00     0.211 HD
ENDBRANCH  47  48
BRANCH  47  50
ATOM     50  C   UNL     1      17.910  30.637  22.114  1.00  0.00     0.165 C 
BRANCH  50  51
ATOM     51  O   UNL     1      18.707  29.499  21.847  1.00  0.00    -0.388 OA
ATOM     52  H   UNL     1      18.729  29.299  20.882  1.00  0.00     0.211 HD
ENDBRANCH  50  51
BRANCH  50  53
ATOM     53  C   UNL     1      18.895  31.802  21.863  1.00  0.00     0.154 C 
BRANCH  53  54
ATOM     54  N   UNL     1      20.158  31.528  22.490  1.00  0.00    -0.319 N 
ATOM     55  C   UNL     1      21.373  31.675  21.792  1.00  0.00     0.407 C 
ATOM     56  H   UNL     1      20.219  31.206  23.501  1.00  0.00     0.167 HD
ATOM     57  O   UNL     1      21.390  32.072  20.604  1.00  0.00    -0.225 OA
BRANCH  55  58
ATOM     58  O   UNL     1      22.598  31.380  22.401  1.00  0.00    -0.443 OA
BRANCH  58  59
ATOM     59  C   UNL     1      23.152  30.094  22.363  1.00  0.00     0.294 C 
BRANCH  59  60
ATOM     60  C   UNL     1      22.461  29.183  23.326  1.00  0.00     0.121 A 
ATOM     61  C   UNL     1      23.126  28.239  24.136  1.00  0.00     0.144 A 
ATOM     62  N   UNL     1      21.177  29.059  23.623  1.00  0.00    -0.131 NA
ATOM     63  N   UNL     1      22.226  27.601  24.872  1.00  0.00    -0.219 N 
ATOM     64  N   UNL     1      21.042  28.128  24.532  1.00  0.00    -0.062 NA
BRANCH  63  65
ATOM     65  C   UNL     1      22.338  26.577  25.842  1.00  0.00     0.081 A 
ATOM     66  C   UNL     1      22.364  26.921  27.199  1.00  0.00     0.049 A 
ATOM     67  C   UNL     1      22.458  25.246  25.564  1.00  0.00     0.065 A 
ATOM     68  C   UNL     1      22.503  25.982  28.168  1.00  0.00     0.043 A 
ATOM     69  C   UNL     1      22.604  24.271  26.568  1.00  0.00     0.017 A 
ATOM     70  Cl  UNL     1      22.528  26.483  29.853  1.00  0.00    -0.084 Cl
ATOM     71  C   UNL     1      22.626  24.649  27.888  1.00  0.00     0.021 A 
BRANCH  67  72
ATOM     72  C   UNL     1      22.396  24.739  24.189  1.00  0.00     0.255 C 
ATOM     73  O   UNL     1      21.280  24.455  23.708  1.00  0.00    -0.269 OA
ATOM     74  N   UNL     1      23.565  24.580  23.441  1.00  0.00    -0.345 N 
ATOM     75  C   UNL     1      24.864  24.915  24.019  1.00  0.00     0.146 C 
ATOM     76  C   UNL     1      23.530  24.087  22.066  1.00  0.00     0.146 C 
ENDBRANCH  67  72
ENDBRANCH  63  65
ENDBRANCH  59  60
ENDBRANCH  58  59
ENDBRANCH  55  58
ENDBRANCH  53  54
ENDBRANCH  50  53
ENDBRANCH  47  50
ENDBRANCH   5  47
BRANCH   4  77
ATOM     77  N   UNL     1      14.540  31.730  25.494  1.00  0.00    -0.348 N 
ATOM     78  C   UNL     1      14.959  31.260  26.756  1.00  0.00     0.217 C 
ATOM     79  H   UNL     1      13.526  31.912  25.357  1.00  0.00     0.163 HD
ATOM     80  C   UNL     1      14.020  31.023  27.879  1.00  0.00     0.114 C 
ATOM     81  O   UNL     1      16.184  31.031  26.940  1.00  0.00    -0.275 OA
ENDBRANCH   4  77
TORSDOF 31
