REMARK VINA RESULT:    -6.327     18.072     22.854
REMARK INTER + INTRA:         -24.542
REMARK INTER:                 -16.707
REMARK INTRA:                  -7.835
REMARK UNBOUND:                -6.934
REMARK SMILES CCOCCc1c(-c2ccccc2)nc(N)nc1-n1cc(COC(=O)NC[C@@H](O)C(O)[C@@H]2O[C@@](OC[C@H]3O[C@@H](O[C@H]4[C@H](O)[C@@H](O)[C@H](OCCN=[N+]=[N-])O[C@@H]4CO)[C@H](O)[C@@H](O)[C@H]3O)(C(=O)O)C[C@H](O)[C@H]2NC(C)=O)nn1
REMARK SMILES IDX 30 1 32 2 34 3 66 4 33 5 67 6 69 7 35 8 36 9 37 10 39 11
REMARK SMILES IDX 38 12 57 13 59 14 61 15 40 16 41 17 54 18 53 19 46 20 42 21
REMARK SMILES IDX 44 22 55 23 56 24 47 26 48 27 49 28 50 29 51 30 52 31 43 32
REMARK SMILES IDX 45 34 58 36 60 38 62 40 63 42 64 43 65 44 68 46 70 48 71 49
REMARK SMILES IDX 72 51 73 52 31 53 28 55 29 56 27 58 26 59 24 60 25 62 23 63
REMARK SMILES IDX 22 64 21 65 20 66 74 67 19 68 75 69 18 70 17 71 6 72 15 73
REMARK SMILES IDX 7 74 14 75 5 76 4 77 3 78 2 79 1 80 16 81 8 84 9 85 13 86
REMARK SMILES IDX 10 87 12 88 11 89
REMARK H PARENT 56 25 43 33 45 35 58 37 60 39 62 41 65 45 68 47 70 50 31 54
REMARK H PARENT 29 57 26 61 16 82 16 83
REMARK Flexibility Score: inf
ROOT
ATOM      1  C   UNL     1      24.619  27.153  23.007  1.00  0.00     0.176 C 
ENDROOT
BRANCH   1   2
ATOM      2  C   UNL     1      23.707  26.035  22.602  1.00  0.00     0.178 C 
ATOM      3  C   UNL     1      22.322  25.569  20.773  1.00  0.00     0.272 C 
ATOM      4  C   UNL     1      22.095  24.282  21.568  1.00  0.00     0.113 C 
ATOM      5  O   UNL     1      23.342  26.311  21.249  1.00  0.00    -0.332 OA
ATOM      6  C   UNL     1      21.829  24.545  23.019  1.00  0.00     0.145 C 
ATOM      7  C   UNL     1      22.431  25.897  23.359  1.00  0.00     0.142 C 
BRANCH   3   8
ATOM      8  O   UNL     1      21.109  26.217  20.701  1.00  0.00    -0.338 OA
BRANCH   8   9
ATOM      9  C   UNL     1      21.140  27.573  20.886  1.00  0.00     0.199 C 
BRANCH   9  10
ATOM     10  C   UNL     1      20.538  28.332  19.713  1.00  0.00     0.179 C 
ATOM     11  C   UNL     1      19.219  30.247  19.531  1.00  0.00     0.282 C 
ATOM     12  O   UNL     1      19.495  29.078  20.179  1.00  0.00    -0.341 OA
ATOM     13  C   UNL     1      20.495  31.095  19.610  1.00  0.00     0.202 C 
ATOM     14  C   UNL     1      21.442  30.430  18.612  1.00  0.00     0.179 C 
ATOM     15  C   UNL     1      21.511  28.955  18.796  1.00  0.00     0.177 C 
BRANCH  11  16
ATOM     16  O   UNL     1      18.139  30.869  20.113  1.00  0.00    -0.341 OA
BRANCH  16  17
ATOM     17  C   UNL     1      17.347  29.990  20.834  1.00  0.00     0.184 C 
ATOM     18  C   UNL     1      15.985  29.871  20.240  1.00  0.00     0.178 C 
ATOM     19  O   UNL     1      14.956  30.399  20.955  1.00  0.00    -0.341 OA
ATOM     20  C   UNL     1      14.906  30.182  22.295  1.00  0.00     0.281 C 
ATOM     21  C   UNL     1      17.345  30.320  22.296  1.00  0.00     0.180 C 
ATOM     22  C   UNL     1      16.149  29.682  22.951  1.00  0.00     0.202 C 
BRANCH  18  23
ATOM     23  C   UNL     1      15.696  28.445  19.769  1.00  0.00     0.191 C 
BRANCH  23  24
ATOM     24  O   UNL     1      16.680  27.566  20.185  1.00  0.00    -0.394 OA
ATOM     25  H   UNL     1      17.530  28.073  20.229  1.00  0.00     0.210 HD
ENDBRANCH  23  24
ENDBRANCH  18  23
BRANCH  20  26
ATOM     26  O   UNL     1      13.871  29.286  22.541  1.00  0.00    -0.350 OA
BRANCH  26  27
ATOM     27  C   UNL     1      12.629  29.867  22.629  1.00  0.00     0.169 C 
BRANCH  27  28
ATOM     28  C   UNL     1      11.971  29.715  23.979  1.00  0.00     0.119 C 
BRANCH  28  29
ATOM     29  N   UNL     1      12.988  29.873  25.018  1.00  0.00    -0.092 NA
ATOM     30  N   UNL     1      13.118  30.936  25.638  1.00  0.00     0.001 N 
ATOM     31  N   UNL     1      13.208  32.084  26.071  1.00  0.00    -0.003 NA
ENDBRANCH  28  29
ENDBRANCH  27  28
ENDBRANCH  26  27
ENDBRANCH  20  26
BRANCH  21  32
ATOM     32  O   UNL     1      18.492  29.860  22.949  1.00  0.00    -0.387 OA
ATOM     33  H   UNL     1      19.287  30.418  22.733  1.00  0.00     0.211 HD
ENDBRANCH  21  32
BRANCH  22  34
ATOM     34  O   UNL     1      16.137  30.084  24.286  1.00  0.00    -0.385 OA
ATOM     35  H   UNL     1      16.987  30.511  24.558  1.00  0.00     0.211 HD
ENDBRANCH  22  34
ENDBRANCH  16  17
ENDBRANCH  11  16
BRANCH  13  36
ATOM     36  O   UNL     1      20.286  32.405  19.255  1.00  0.00    -0.385 OA
ATOM     37  H   UNL     1      21.116  32.832  18.908  1.00  0.00     0.211 HD
ENDBRANCH  13  36
BRANCH  14  38
ATOM     38  O   UNL     1      22.658  31.066  18.513  1.00  0.00    -0.387 OA
ATOM     39  H   UNL     1      23.420  30.411  18.478  1.00  0.00     0.211 HD
ENDBRANCH  14  38
BRANCH  15  40
ATOM     40  O   UNL     1      22.815  28.646  19.241  1.00  0.00    -0.387 OA
ATOM     41  H   UNL     1      22.962  29.065  20.127  1.00  0.00     0.211 HD
ENDBRANCH  15  40
ENDBRANCH   9  10
ENDBRANCH   8   9
ENDBRANCH   3   8
BRANCH   3  42
ATOM     42  C   UNL     1      22.692  25.069  19.410  1.00  0.00     0.364 C 
ATOM     43  O   UNL     1      23.453  25.853  18.741  1.00  0.00    -0.246 OA
BRANCH  42  44
ATOM     44  O   UNL     1      22.291  23.885  18.862  1.00  0.00    -0.477 OA
ATOM     45  H   UNL     1      22.737  23.550  18.012  1.00  0.00     0.296 HD
ENDBRANCH  42  44
ENDBRANCH   3  42
BRANCH   6  46
ATOM     46  O   UNL     1      20.436  24.542  23.187  1.00  0.00    -0.391 OA
ATOM     47  H   UNL     1      20.136  23.784  23.726  1.00  0.00     0.211 HD
ENDBRANCH   6  46
BRANCH   7  48
ATOM     48  N   UNL     1      22.488  26.108  24.772  1.00  0.00    -0.348 N 
ATOM     49  C   UNL     1      21.440  26.697  25.526  1.00  0.00     0.217 C 
ATOM     50  H   UNL     1      23.352  25.787  25.259  1.00  0.00     0.163 HD
ATOM     51  C   UNL     1      21.607  26.864  26.984  1.00  0.00     0.114 C 
ATOM     52  O   UNL     1      20.391  27.065  24.956  1.00  0.00    -0.275 OA
ENDBRANCH   7  48
ENDBRANCH   1   2
BRANCH   1  53
ATOM     53  O   UNL     1      25.241  26.706  24.223  1.00  0.00    -0.388 OA
ATOM     54  H   UNL     1      26.184  26.962  24.144  1.00  0.00     0.211 HD
ENDBRANCH   1  53
BRANCH   1  55
ATOM     55  C   UNL     1      24.039  28.478  23.293  1.00  0.00     0.165 C 
BRANCH  55  56
ATOM     56  O   UNL     1      23.660  28.998  22.021  1.00  0.00    -0.388 OA
ATOM     57  H   UNL     1      24.006  29.910  21.952  1.00  0.00     0.211 HD
ENDBRANCH  55  56
BRANCH  55  58
ATOM     58  C   UNL     1      24.885  29.475  23.967  1.00  0.00     0.154 C 
BRANCH  58  59
ATOM     59  N   UNL     1      26.266  29.420  23.683  1.00  0.00    -0.319 N 
ATOM     60  C   UNL     1      26.903  29.964  22.551  1.00  0.00     0.407 C 
ATOM     61  H   UNL     1      26.960  28.924  24.358  1.00  0.00     0.167 HD
ATOM     62  O   UNL     1      26.275  30.569  21.655  1.00  0.00    -0.225 OA
BRANCH  60  63
ATOM     63  O   UNL     1      28.284  29.868  22.352  1.00  0.00    -0.443 OA
BRANCH  63  64
ATOM     64  C   UNL     1      28.853  29.819  21.061  1.00  0.00     0.294 C 
BRANCH  64  65
ATOM     65  C   UNL     1      29.185  28.431  20.662  1.00  0.00     0.121 A 
ATOM     66  C   UNL     1      28.306  27.414  20.393  1.00  0.00     0.146 A 
ATOM     67  N   UNL     1      30.413  27.886  20.506  1.00  0.00    -0.131 NA
ATOM     68  N   UNL     1      29.016  26.265  20.081  1.00  0.00    -0.202 N 
ATOM     69  N   UNL     1      30.263  26.618  20.167  1.00  0.00    -0.060 NA
BRANCH  68  70
ATOM     70  C   UNL     1      28.308  25.086  19.791  1.00  0.00     0.164 A 
ATOM     71  N   UNL     1      27.321  25.134  18.862  1.00  0.00    -0.193 NA
ATOM     72  C   UNL     1      28.604  23.830  20.341  1.00  0.00     0.026 A 
ATOM     73  C   UNL     1      26.637  24.063  18.456  1.00  0.00     0.222 A 
ATOM     74  C   UNL     1      27.922  22.722  19.938  1.00  0.00     0.081 A 
ATOM     75  N   UNL     1      26.938  22.878  18.990  1.00  0.00    -0.213 NA
BRANCH  72  76
ATOM     76  C   UNL     1      29.588  23.827  21.429  1.00  0.00     0.070 C 
BRANCH  76  77
ATOM     77  C   UNL     1      30.922  23.214  21.061  1.00  0.00     0.165 C 
BRANCH  77  78
ATOM     78  O   UNL     1      31.488  22.371  21.968  1.00  0.00    -0.381 OA
BRANCH  78  79
ATOM     79  C   UNL     1      32.202  21.309  21.501  1.00  0.00     0.156 C 
ATOM     80  C   UNL     1      31.983  20.061  22.374  1.00  0.00     0.035 C 
ENDBRANCH  78  79
ENDBRANCH  77  78
ENDBRANCH  76  77
ENDBRANCH  72  76
BRANCH  73  81
ATOM     81  N   UNL     1      25.601  24.167  17.474  1.00  0.00    -0.368 N 
ATOM     82  H   UNL     1      25.488  25.042  16.922  1.00  0.00     0.159 HD
ATOM     83  H   UNL     1      24.939  23.400  17.275  1.00  0.00     0.159 HD
ENDBRANCH  73  81
BRANCH  74  84
ATOM     84  C   UNL     1      28.182  21.390  20.436  1.00  0.00     0.001 A 
ATOM     85  C   UNL     1      28.670  20.442  19.539  1.00  0.00     0.010 A 
ATOM     86  C   UNL     1      27.992  21.040  21.760  1.00  0.00     0.010 A 
ATOM     87  C   UNL     1      28.970  19.149  19.948  1.00  0.00     0.001 A 
ATOM     88  C   UNL     1      28.294  19.755  22.144  1.00  0.00     0.001 A 
ATOM     89  C   UNL     1      28.776  18.814  21.268  1.00  0.00     0.000 A 
ENDBRANCH  74  84
ENDBRANCH  68  70
ENDBRANCH  64  65
ENDBRANCH  63  64
ENDBRANCH  60  63
ENDBRANCH  58  59
ENDBRANCH  55  58
ENDBRANCH   1  55
TORSDOF 36
