REMARK VINA RESULT:    -6.213      4.044     10.650
REMARK INTER + INTRA:         -21.927
REMARK INTER:                 -14.876
REMARK INTRA:                  -7.051
REMARK UNBOUND:                -6.272
REMARK SMILES CC(=O)N[C@@H]1[C@@H](O)C[C@](OC[C@H]2O[C@@H](O[C@H]3[C@H](O)[C@@H](O)[C@H](OCCN=[N+]=[N-])O[C@@H]3CO)[C@H](O)[C@@H](O)[C@H]2O)(C(=O)O)O[C@H]1C(O)[C@H](O)CNC(=O)OCc1cn(Cc2cccc(Br)c2)nn1
REMARK SMILES IDX 9 1 8 2 6 3 5 4 42 5 41 6 10 7 11 8 12 9 14 10 13 11 32 12
REMARK SMILES IDX 34 13 36 14 15 15 16 16 29 17 28 18 21 19 17 20 19 21 30 22
REMARK SMILES IDX 31 23 22 25 23 26 24 27 25 28 26 29 27 30 18 31 20 33 33 35
REMARK SMILES IDX 35 37 37 39 38 41 39 42 40 43 7 45 43 47 44 48 45 50 46 51
REMARK SMILES IDX 47 53 48 54 49 55 50 57 51 58 52 59 53 60 54 61 65 62 55 63
REMARK SMILES IDX 64 64 56 65 57 66 58 67 63 68 59 69 61 70 60 71 62 72 4 73
REMARK SMILES IDX 2 74 1 76 3 77
REMARK H PARENT 31 24 18 32 20 34 33 36 35 38 37 40 40 44 7 46 44 49 46 52
REMARK H PARENT 48 56 4 75
REMARK Flexibility Score: inf
ROOT
ATOM      1  C   UNL     1      23.812  24.704  21.150  1.00  0.00     0.272 C 
ATOM      2  C   UNL     1      22.630  23.895  21.528  1.00  0.00     0.113 C 
ATOM      3  C   UNL     1      21.692  24.553  22.489  1.00  0.00     0.145 C 
ATOM      4  C   UNL     1      22.396  25.471  23.464  1.00  0.00     0.142 C 
ATOM      5  C   UNL     1      23.624  26.082  22.954  1.00  0.00     0.178 C 
ATOM      6  O   UNL     1      23.856  25.988  21.617  1.00  0.00    -0.332 OA
ENDROOT
BRANCH   1   7
ATOM      7  O   UNL     1      23.924  24.715  19.724  1.00  0.00    -0.338 OA
BRANCH   7   8
ATOM      8  C   UNL     1      22.771  25.110  19.110  1.00  0.00     0.199 C 
BRANCH   8   9
ATOM      9  C   UNL     1      23.087  25.925  17.839  1.00  0.00     0.179 C 
ATOM     10  C   UNL     1      22.050  27.618  16.597  1.00  0.00     0.282 C 
ATOM     11  O   UNL     1      21.923  26.525  17.485  1.00  0.00    -0.341 OA
ATOM     12  C   UNL     1      23.390  27.687  15.979  1.00  0.00     0.202 C 
ATOM     13  C   UNL     1      24.516  27.703  16.998  1.00  0.00     0.179 C 
ATOM     14  C   UNL     1      24.093  26.974  18.261  1.00  0.00     0.177 C 
BRANCH  10  15
ATOM     15  O   UNL     1      21.629  28.697  17.336  1.00  0.00    -0.341 OA
BRANCH  15  16
ATOM     16  C   UNL     1      20.325  28.744  17.676  1.00  0.00     0.184 C 
ATOM     17  C   UNL     1      19.760  30.084  17.280  1.00  0.00     0.178 C 
ATOM     18  O   UNL     1      18.381  30.062  17.473  1.00  0.00    -0.341 OA
ATOM     19  C   UNL     1      18.012  29.938  18.814  1.00  0.00     0.281 C 
ATOM     20  C   UNL     1      20.072  28.664  19.178  1.00  0.00     0.180 C 
ATOM     21  C   UNL     1      18.542  28.612  19.302  1.00  0.00     0.202 C 
BRANCH  17  22
ATOM     22  C   UNL     1      20.015  30.320  15.830  1.00  0.00     0.191 C 
BRANCH  22  23
ATOM     23  O   UNL     1      21.216  30.978  15.638  1.00  0.00    -0.394 OA
ATOM     24  H   UNL     1      21.496  31.356  16.512  1.00  0.00     0.210 HD
ENDBRANCH  22  23
ENDBRANCH  17  22
BRANCH  19  25
ATOM     25  O   UNL     1      16.635  30.015  18.841  1.00  0.00    -0.350 OA
BRANCH  25  26
ATOM     26  C   UNL     1      15.986  29.278  17.890  1.00  0.00     0.169 C 
BRANCH  26  27
ATOM     27  C   UNL     1      14.718  29.911  17.365  1.00  0.00     0.119 C 
BRANCH  27  28
ATOM     28  N   UNL     1      14.918  30.161  15.955  1.00  0.00    -0.092 NA
ATOM     29  N   UNL     1      15.113  29.289  15.121  1.00  0.00     0.001 N 
ATOM     30  N   UNL     1      15.163  28.336  14.346  1.00  0.00    -0.003 NA
ENDBRANCH  27  28
ENDBRANCH  26  27
ENDBRANCH  25  26
ENDBRANCH  19  25
BRANCH  20  31
ATOM     31  O   UNL     1      20.572  27.539  19.767  1.00  0.00    -0.387 OA
ATOM     32  H   UNL     1      21.535  27.388  19.639  1.00  0.00     0.211 HD
ENDBRANCH  20  31
BRANCH  21  33
ATOM     33  O   UNL     1      18.255  28.335  20.613  1.00  0.00    -0.385 OA
ATOM     34  H   UNL     1      17.338  27.926  20.732  1.00  0.00     0.211 HD
ENDBRANCH  21  33
ENDBRANCH  15  16
ENDBRANCH  10  15
BRANCH  12  35
ATOM     35  O   UNL     1      23.546  26.525  15.180  1.00  0.00    -0.385 OA
ATOM     36  H   UNL     1      22.681  26.040  15.141  1.00  0.00     0.211 HD
ENDBRANCH  12  35
BRANCH  13  37
ATOM     37  O   UNL     1      24.987  28.988  17.250  1.00  0.00    -0.387 OA
ATOM     38  H   UNL     1      24.254  29.646  17.020  1.00  0.00     0.211 HD
ENDBRANCH  13  37
BRANCH  14  39
ATOM     39  O   UNL     1      23.504  27.788  19.201  1.00  0.00    -0.387 OA
ATOM     40  H   UNL     1      24.042  28.629  19.324  1.00  0.00     0.211 HD
ENDBRANCH  14  39
ENDBRANCH   8   9
ENDBRANCH   7   8
ENDBRANCH   1   7
BRANCH   1  41
ATOM     41  C   UNL     1      25.049  23.992  21.590  1.00  0.00     0.364 C 
ATOM     42  O   UNL     1      26.060  23.961  20.803  1.00  0.00    -0.246 OA
BRANCH  41  43
ATOM     43  O   UNL     1      25.222  23.344  22.781  1.00  0.00    -0.477 OA
ATOM     44  H   UNL     1      26.172  23.312  23.175  1.00  0.00     0.296 HD
ENDBRANCH  41  43
ENDBRANCH   1  41
BRANCH   3  45
ATOM     45  O   UNL     1      20.633  25.164  21.835  1.00  0.00    -0.391 OA
ATOM     46  H   UNL     1      19.841  24.592  21.736  1.00  0.00     0.211 HD
ENDBRANCH   3  45
BRANCH   5  47
ATOM     47  C   UNL     1      23.782  27.548  23.389  1.00  0.00     0.176 C 
BRANCH  47  48
ATOM     48  O   UNL     1      25.134  27.907  22.997  1.00  0.00    -0.388 OA
ATOM     49  H   UNL     1      25.659  27.943  23.837  1.00  0.00     0.211 HD
ENDBRANCH  47  48
BRANCH  47  50
ATOM     50  C   UNL     1      22.882  28.509  22.704  1.00  0.00     0.165 C 
BRANCH  50  51
ATOM     51  O   UNL     1      23.738  29.192  21.762  1.00  0.00    -0.388 OA
ATOM     52  H   UNL     1      24.104  30.004  22.229  1.00  0.00     0.211 HD
ENDBRANCH  50  51
BRANCH  50  53
ATOM     53  C   UNL     1      22.300  29.620  23.511  1.00  0.00     0.154 C 
BRANCH  53  54
ATOM     54  N   UNL     1      21.129  30.236  22.907  1.00  0.00    -0.319 N 
ATOM     55  C   UNL     1      19.841  29.833  23.339  1.00  0.00     0.407 C 
ATOM     56  H   UNL     1      21.211  30.961  22.173  1.00  0.00     0.167 HD
ATOM     57  O   UNL     1      19.718  28.947  24.231  1.00  0.00    -0.225 OA
BRANCH  55  58
ATOM     58  O   UNL     1      18.687  30.398  22.796  1.00  0.00    -0.443 OA
BRANCH  58  59
ATOM     59  C   UNL     1      17.637  30.788  23.693  1.00  0.00     0.294 C 
BRANCH  59  60
ATOM     60  C   UNL     1      16.365  30.217  23.193  1.00  0.00     0.120 A 
ATOM     61  C   UNL     1      15.084  30.658  23.417  1.00  0.00     0.138 A 
ATOM     62  N   UNL     1      16.276  29.134  22.410  1.00  0.00    -0.132 NA
ATOM     63  N   UNL     1      14.258  29.823  22.758  1.00  0.00    -0.248 N 
ATOM     64  N   UNL     1      15.003  28.907  22.157  1.00  0.00    -0.067 NA
BRANCH  63  65
ATOM     65  C   UNL     1      12.802  29.934  22.733  1.00  0.00     0.181 C 
BRANCH  65  66
ATOM     66  C   UNL     1      12.359  30.992  21.789  1.00  0.00    -0.025 A 
ATOM     67  C   UNL     1      12.909  31.084  20.527  1.00  0.00     0.006 A 
ATOM     68  C   UNL     1      11.400  31.922  22.110  1.00  0.00     0.021 A 
ATOM     69  C   UNL     1      12.544  32.042  19.608  1.00  0.00     0.002 A 
ATOM     70  C   UNL     1      11.012  32.893  21.216  1.00  0.00     0.018 A 
ATOM     71  C   UNL     1      11.563  32.978  19.964  1.00  0.00     0.016 A 
ATOM     72  Br  UNL     1       9.676  34.190  21.660  1.00  0.00    -0.051 Br
ENDBRANCH  65  66
ENDBRANCH  63  65
ENDBRANCH  59  60
ENDBRANCH  58  59
ENDBRANCH  55  58
ENDBRANCH  53  54
ENDBRANCH  50  53
ENDBRANCH  47  50
ENDBRANCH   5  47
BRANCH   4  73
ATOM     73  N   UNL     1      22.670  24.726  24.719  1.00  0.00    -0.348 N 
ATOM     74  C   UNL     1      22.305  25.272  25.974  1.00  0.00     0.217 C 
ATOM     75  H   UNL     1      23.138  23.784  24.699  1.00  0.00     0.163 HD
ATOM     76  C   UNL     1      22.573  24.536  27.259  1.00  0.00     0.114 C 
ATOM     77  O   UNL     1      21.744  26.400  26.001  1.00  0.00    -0.275 OA
ENDBRANCH   4  73
TORSDOF 31
