REMARK VINA RESULT:    -6.410      1.983      3.102
REMARK INTER + INTRA:         -22.365
REMARK INTER:                 -16.988
REMARK INTRA:                  -5.377
REMARK UNBOUND:                -5.463
REMARK SMILES CC(=O)N[C@@H]1[C@@H](O)C[C@](OC[C@H]2O[C@@H](O[C@H]3[C@H](O)[C@@H](O)[C@H](OCCN=[N+]=[N-])O[C@@H]3CO)[C@H](O)[C@@H](O)[C@H]2O)(C(=O)O)O[C@H]1C(O)[C@H](O)CNC(=O)OCc1cn(COCc2ccccc2)nn1
REMARK SMILES IDX 43 1 42 2 9 3 8 4 41 5 6 6 5 7 10 8 11 9 12 10 14 11 13 12
REMARK SMILES IDX 32 13 34 14 36 15 15 16 16 17 29 18 28 19 21 20 17 21 19 22
REMARK SMILES IDX 30 23 31 24 22 26 23 27 24 28 25 29 26 30 27 31 18 32 20 34
REMARK SMILES IDX 33 36 35 38 37 40 38 42 39 43 40 44 7 46 4 48 2 49 1 51 3 52
REMARK SMILES IDX 44 53 45 55 46 56 47 58 48 59 49 60 50 62 51 63 52 64 53 65
REMARK SMILES IDX 54 66 66 67 55 68 65 69 56 70 57 71 58 72 59 73 60 74 64 75
REMARK SMILES IDX 61 76 63 77 62 78
REMARK H PARENT 31 25 18 33 20 35 33 37 35 39 37 41 40 45 7 47 4 50 44 54
REMARK H PARENT 46 57 48 61
REMARK Flexibility Score: inf
ROOT
ATOM      1  C   UNL     1      17.926  30.260  23.579  1.00  0.00     0.176 C 
ENDROOT
BRANCH   1   2
ATOM      2  C   UNL     1      16.700  30.148  22.646  1.00  0.00     0.178 C 
ATOM      3  C   UNL     1      16.333  29.989  20.356  1.00  0.00     0.272 C 
ATOM      4  C   UNL     1      15.155  30.948  20.490  1.00  0.00     0.113 C 
ATOM      5  O   UNL     1      17.197  30.322  21.353  1.00  0.00    -0.332 OA
ATOM      6  C   UNL     1      15.447  31.963  21.569  1.00  0.00     0.145 C 
ATOM      7  C   UNL     1      15.685  31.213  22.915  1.00  0.00     0.142 C 
BRANCH   3   8
ATOM      8  O   UNL     1      16.934  30.147  19.092  1.00  0.00    -0.338 OA
BRANCH   8   9
ATOM      9  C   UNL     1      16.120  30.319  18.039  1.00  0.00     0.199 C 
BRANCH   9  10
ATOM     10  C   UNL     1      16.607  29.518  16.854  1.00  0.00     0.179 C 
ATOM     11  C   UNL     1      16.086  28.522  14.886  1.00  0.00     0.282 C 
ATOM     12  O   UNL     1      15.558  29.310  15.935  1.00  0.00    -0.341 OA
ATOM     13  C   UNL     1      16.977  29.372  13.985  1.00  0.00     0.202 C 
ATOM     14  C   UNL     1      17.303  30.632  14.799  1.00  0.00     0.179 C 
ATOM     15  C   UNL     1      17.765  30.126  16.150  1.00  0.00     0.177 C 
BRANCH  11  16
ATOM     16  O   UNL     1      15.037  28.071  14.134  1.00  0.00    -0.341 OA
BRANCH  16  17
ATOM     17  C   UNL     1      13.956  28.941  14.094  1.00  0.00     0.184 C 
ATOM     18  C   UNL     1      12.669  28.307  14.487  1.00  0.00     0.178 C 
ATOM     19  O   UNL     1      12.247  27.467  13.502  1.00  0.00    -0.341 OA
ATOM     20  C   UNL     1      11.866  28.081  12.332  1.00  0.00     0.281 C 
ATOM     21  C   UNL     1      13.881  29.562  12.743  1.00  0.00     0.180 C 
ATOM     22  C   UNL     1      12.706  29.219  11.904  1.00  0.00     0.202 C 
BRANCH  18  23
ATOM     23  C   UNL     1      11.667  29.374  14.862  1.00  0.00     0.191 C 
BRANCH  23  24
ATOM     24  O   UNL     1      12.183  30.236  15.837  1.00  0.00    -0.394 OA
ATOM     25  H   UNL     1      13.080  29.920  16.112  1.00  0.00     0.210 HD
ENDBRANCH  23  24
ENDBRANCH  18  23
BRANCH  20  26
ATOM     26  O   UNL     1      10.553  28.528  12.518  1.00  0.00    -0.350 OA
BRANCH  26  27
ATOM     27  C   UNL     1       9.830  28.654  11.358  1.00  0.00     0.169 C 
BRANCH  27  28
ATOM     28  C   UNL     1       8.512  27.934  11.584  1.00  0.00     0.119 C 
BRANCH  28  29
ATOM     29  N   UNL     1       7.926  28.257  12.865  1.00  0.00    -0.092 NA
ATOM     30  N   UNL     1       7.235  29.283  12.997  1.00  0.00     0.001 N 
ATOM     31  N   UNL     1       7.057  30.497  13.214  1.00  0.00    -0.003 NA
ENDBRANCH  28  29
ENDBRANCH  27  28
ENDBRANCH  26  27
ENDBRANCH  20  26
BRANCH  21  32
ATOM     32  O   UNL     1      13.888  30.979  12.867  1.00  0.00    -0.387 OA
ATOM     33  H   UNL     1      14.342  31.408  12.125  1.00  0.00     0.211 HD
ENDBRANCH  21  32
BRANCH  22  34
ATOM     34  O   UNL     1      13.184  28.899  10.606  1.00  0.00    -0.385 OA
ATOM     35  H   UNL     1      12.407  28.517  10.121  1.00  0.00     0.211 HD
ENDBRANCH  22  34
ENDBRANCH  16  17
ENDBRANCH  11  16
BRANCH  13  36
ATOM     36  O   UNL     1      18.204  28.757  13.737  1.00  0.00    -0.385 OA
ATOM     37  H   UNL     1      18.051  28.064  13.049  1.00  0.00     0.211 HD
ENDBRANCH  13  36
BRANCH  14  38
ATOM     38  O   UNL     1      16.088  31.283  14.964  1.00  0.00    -0.387 OA
ATOM     39  H   UNL     1      16.060  32.182  14.551  1.00  0.00     0.211 HD
ENDBRANCH  14  38
BRANCH  15  40
ATOM     40  O   UNL     1      18.423  31.103  16.880  1.00  0.00    -0.387 OA
ATOM     41  H   UNL     1      19.328  31.309  16.533  1.00  0.00     0.211 HD
ENDBRANCH  15  40
ENDBRANCH   9  10
ENDBRANCH   8   9
ENDBRANCH   3   8
BRANCH   3  42
ATOM     42  C   UNL     1      15.936  28.583  20.426  1.00  0.00     0.364 C 
ATOM     43  O   UNL     1      16.642  27.574  20.163  1.00  0.00    -0.246 OA
BRANCH  42  44
ATOM     44  O   UNL     1      14.617  28.268  20.833  1.00  0.00    -0.477 OA
ATOM     45  H   UNL     1      14.294  27.301  20.838  1.00  0.00     0.296 HD
ENDBRANCH  42  44
ENDBRANCH   3  42
BRANCH   6  46
ATOM     46  O   UNL     1      16.505  32.782  21.380  1.00  0.00    -0.391 OA
ATOM     47  H   UNL     1      17.283  32.323  20.935  1.00  0.00     0.211 HD
ENDBRANCH   6  46
BRANCH   7  48
ATOM     48  N   UNL     1      14.385  30.682  23.247  1.00  0.00    -0.348 N 
ATOM     49  C   UNL     1      14.089  30.405  24.598  1.00  0.00     0.217 C 
ATOM     50  H   UNL     1      13.690  30.505  22.519  1.00  0.00     0.163 HD
ATOM     51  C   UNL     1      12.750  29.871  24.967  1.00  0.00     0.114 C 
ATOM     52  O   UNL     1      14.949  30.611  25.511  1.00  0.00    -0.275 OA
ENDBRANCH   7  48
ENDBRANCH   1   2
BRANCH   1  53
ATOM     53  O   UNL     1      17.533  31.196  24.611  1.00  0.00    -0.388 OA
ATOM     54  H   UNL     1      18.389  31.605  24.935  1.00  0.00     0.211 HD
ENDBRANCH   1  53
BRANCH   1  55
ATOM     55  C   UNL     1      19.144  30.843  22.952  1.00  0.00     0.165 C 
BRANCH  55  56
ATOM     56  O   UNL     1      19.000  32.006  22.251  1.00  0.00    -0.388 OA
ATOM     57  H   UNL     1      19.569  32.747  22.557  1.00  0.00     0.211 HD
ENDBRANCH  55  56
BRANCH  55  58
ATOM     58  C   UNL     1      20.171  29.952  22.367  1.00  0.00     0.154 C 
BRANCH  58  59
ATOM     59  N   UNL     1      20.090  29.659  20.964  1.00  0.00    -0.319 N 
ATOM     60  C   UNL     1      20.068  28.350  20.414  1.00  0.00     0.407 C 
ATOM     61  H   UNL     1      20.029  30.438  20.272  1.00  0.00     0.167 HD
ATOM     62  O   UNL     1      20.110  27.364  21.157  1.00  0.00    -0.225 OA
BRANCH  60  63
ATOM     63  O   UNL     1      19.998  28.084  19.042  1.00  0.00    -0.443 OA
BRANCH  63  64
ATOM     64  C   UNL     1      21.183  28.152  18.245  1.00  0.00     0.294 C 
BRANCH  64  65
ATOM     65  C   UNL     1      22.358  27.562  18.927  1.00  0.00     0.120 A 
ATOM     66  C   UNL     1      22.618  26.208  18.968  1.00  0.00     0.141 A 
ATOM     67  N   UNL     1      23.344  28.156  19.608  1.00  0.00    -0.132 NA
ATOM     68  N   UNL     1      23.758  26.028  19.677  1.00  0.00    -0.226 N 
ATOM     69  N   UNL     1      24.173  27.230  20.050  1.00  0.00    -0.065 NA
BRANCH  68  70
ATOM     70  C   UNL     1      24.434  24.788  19.988  1.00  0.00     0.307 C 
BRANCH  70  71
ATOM     71  O   UNL     1      23.937  24.198  21.118  1.00  0.00    -0.355 OA
BRANCH  71  72
ATOM     72  C   UNL     1      24.747  24.494  22.202  1.00  0.00     0.198 C 
BRANCH  72  73
ATOM     73  C   UNL     1      23.893  24.564  23.441  1.00  0.00    -0.022 A 
ATOM     74  C   UNL     1      24.527  24.516  24.665  1.00  0.00     0.006 A 
ATOM     75  C   UNL     1      22.529  24.669  23.348  1.00  0.00     0.006 A 
ATOM     76  C   UNL     1      23.780  24.575  25.822  1.00  0.00     0.000 A 
ATOM     77  C   UNL     1      21.810  24.726  24.506  1.00  0.00     0.000 A 
ATOM     78  C   UNL     1      22.407  24.682  25.756  1.00  0.00     0.000 A 
ENDBRANCH  72  73
ENDBRANCH  71  72
ENDBRANCH  70  71
ENDBRANCH  68  70
ENDBRANCH  64  65
ENDBRANCH  63  64
ENDBRANCH  60  63
ENDBRANCH  58  59
ENDBRANCH  55  58
ENDBRANCH   1  55
TORSDOF 33
