REMARK VINA RESULT:    -6.912     24.958     29.651
REMARK INTER + INTRA:         -22.554
REMARK INTER:                 -15.331
REMARK INTRA:                  -7.222
REMARK UNBOUND:                -5.539
REMARK SMILES CC(=O)N[C@@H]1[C@@H](O)C[C@](OC[C@H]2O[C@@H](O[C@H]3[C@H](O)[C@@H](O)[C@H](OCCN=[N+]=[N-])O[C@@H]3CO)[C@H](O)[C@@H](O)[C@H]2O)(C(=O)O)O[C@H]1C(O)[C@H](O)CNC(=O)OCc1cn(-c2c3ccccc3nc3ccccc23)nn1
REMARK SMILES IDX 9 1 8 2 6 3 5 4 42 5 41 6 10 7 11 8 12 9 14 10 13 11 32 12
REMARK SMILES IDX 34 13 36 14 15 15 16 16 29 17 28 18 21 19 17 20 19 21 30 22
REMARK SMILES IDX 31 23 22 25 23 26 24 27 25 28 26 29 27 30 18 31 20 33 33 35
REMARK SMILES IDX 35 37 37 39 38 41 39 42 40 43 7 45 43 47 44 48 45 50 46 51
REMARK SMILES IDX 47 53 48 54 49 55 50 57 51 58 52 59 53 60 54 61 71 62 55 63
REMARK SMILES IDX 70 64 56 65 57 66 69 67 58 68 62 69 64 70 68 71 59 72 61 73
REMARK SMILES IDX 63 74 65 75 67 76 60 77 66 78 4 79 2 80 1 82 3 83
REMARK H PARENT 31 24 18 32 20 34 33 36 35 38 37 40 40 44 7 46 44 49 46 52
REMARK H PARENT 48 56 4 81
REMARK Flexibility Score: inf
ROOT
ATOM      1  C   UNL     1      23.888  16.342  10.905  1.00  0.00     0.272 C 
ATOM      2  C   UNL     1      25.442  16.184  11.283  1.00  0.00     0.113 C 
ATOM      3  C   UNL     1      26.000  15.418  10.140  1.00  0.00     0.145 C 
ATOM      4  C   UNL     1      25.750  16.034   8.780  1.00  0.00     0.142 C 
ATOM      5  C   UNL     1      24.540  16.868   8.701  1.00  0.00     0.178 C 
ATOM      6  O   UNL     1      23.909  17.167   9.860  1.00  0.00    -0.332 OA
ENDROOT
BRANCH   1   7
ATOM      7  O   UNL     1      23.464  17.038  12.039  1.00  0.00    -0.338 OA
BRANCH   7   8
ATOM      8  C   UNL     1      24.352  17.887  12.607  1.00  0.00     0.199 C 
BRANCH   8   9
ATOM      9  C   UNL     1      23.970  19.317  12.593  1.00  0.00     0.179 C 
ATOM     10  C   UNL     1      22.394  20.892  11.896  1.00  0.00     0.282 C 
ATOM     11  O   UNL     1      22.826  19.548  11.879  1.00  0.00    -0.341 OA
ATOM     12  C   UNL     1      23.359  21.833  12.485  1.00  0.00     0.202 C 
ATOM     13  C   UNL     1      23.825  21.390  13.853  1.00  0.00     0.179 C 
ATOM     14  C   UNL     1      23.857  19.905  14.002  1.00  0.00     0.177 C 
BRANCH  10  15
ATOM     15  O   UNL     1      21.129  20.968  12.462  1.00  0.00    -0.341 OA
BRANCH  15  16
ATOM     16  C   UNL     1      20.099  20.932  11.494  1.00  0.00     0.184 C 
ATOM     17  C   UNL     1      19.737  19.532  11.199  1.00  0.00     0.178 C 
ATOM     18  O   UNL     1      19.082  19.365   9.950  1.00  0.00    -0.341 OA
ATOM     19  C   UNL     1      20.001  19.723   8.972  1.00  0.00     0.281 C 
ATOM     20  C   UNL     1      20.724  21.626  10.273  1.00  0.00     0.180 C 
ATOM     21  C   UNL     1      20.019  21.260   8.996  1.00  0.00     0.202 C 
BRANCH  17  22
ATOM     22  C   UNL     1      18.795  18.963  12.248  1.00  0.00     0.191 C 
BRANCH  22  23
ATOM     23  O   UNL     1      17.787  18.198  11.721  1.00  0.00    -0.394 OA
ATOM     24  H   UNL     1      17.071  18.797  11.383  1.00  0.00     0.210 HD
ENDBRANCH  22  23
ENDBRANCH  17  22
BRANCH  19  25
ATOM     25  O   UNL     1      19.564  19.218   7.774  1.00  0.00    -0.350 OA
BRANCH  25  26
ATOM     26  C   UNL     1      19.659  17.834   7.663  1.00  0.00     0.169 C 
BRANCH  26  27
ATOM     27  C   UNL     1      19.987  17.396   6.252  1.00  0.00     0.119 C 
BRANCH  27  28
ATOM     28  N   UNL     1      21.394  17.007   6.242  1.00  0.00    -0.092 NA
ATOM     29  N   UNL     1      21.739  15.884   6.627  1.00  0.00     0.001 N 
ATOM     30  N   UNL     1      22.132  14.757   6.934  1.00  0.00    -0.003 NA
ENDBRANCH  27  28
ENDBRANCH  26  27
ENDBRANCH  25  26
ENDBRANCH  19  25
BRANCH  20  31
ATOM     31  O   UNL     1      20.777  22.994  10.486  1.00  0.00    -0.387 OA
ATOM     32  H   UNL     1      19.898  23.385  10.719  1.00  0.00     0.211 HD
ENDBRANCH  20  31
BRANCH  21  33
ATOM     33  O   UNL     1      20.718  21.767   7.924  1.00  0.00    -0.385 OA
ATOM     34  H   UNL     1      20.069  22.303   7.376  1.00  0.00     0.211 HD
ENDBRANCH  21  33
ENDBRANCH  15  16
ENDBRANCH  10  15
BRANCH  12  35
ATOM     35  O   UNL     1      24.431  22.067  11.610  1.00  0.00    -0.385 OA
ATOM     36  H   UNL     1      24.472  23.065  11.505  1.00  0.00     0.211 HD
ENDBRANCH  12  35
BRANCH  13  37
ATOM     37  O   UNL     1      22.973  21.986  14.803  1.00  0.00    -0.387 OA
ATOM     38  H   UNL     1      22.650  22.837  14.367  1.00  0.00     0.211 HD
ENDBRANCH  13  37
BRANCH  14  39
ATOM     39  O   UNL     1      22.780  19.397  14.699  1.00  0.00    -0.387 OA
ATOM     40  H   UNL     1      23.040  18.734  15.388  1.00  0.00     0.211 HD
ENDBRANCH  14  39
ENDBRANCH   8   9
ENDBRANCH   7   8
ENDBRANCH   1   7
BRANCH   1  41
ATOM     41  C   UNL     1      23.439  14.991  10.846  1.00  0.00     0.364 C 
ATOM     42  O   UNL     1      23.649  14.188  11.811  1.00  0.00    -0.246 OA
BRANCH  41  43
ATOM     43  O   UNL     1      22.743  14.399   9.785  1.00  0.00    -0.477 OA
ATOM     44  H   UNL     1      22.635  13.392   9.777  1.00  0.00     0.296 HD
ENDBRANCH  41  43
ENDBRANCH   1  41
BRANCH   3  45
ATOM     45  O   UNL     1      27.392  15.305  10.373  1.00  0.00    -0.391 OA
ATOM     46  H   UNL     1      27.864  16.002   9.847  1.00  0.00     0.211 HD
ENDBRANCH   3  45
BRANCH   5  47
ATOM     47  C   UNL     1      24.836  18.247   8.047  1.00  0.00     0.176 C 
BRANCH  47  48
ATOM     48  O   UNL     1      24.080  18.419   6.926  1.00  0.00    -0.388 OA
ATOM     49  H   UNL     1      23.734  17.563   6.524  1.00  0.00     0.211 HD
ENDBRANCH  47  48
BRANCH  47  50
ATOM     50  C   UNL     1      24.963  19.338   9.009  1.00  0.00     0.165 C 
BRANCH  50  51
ATOM     51  O   UNL     1      23.931  20.280   9.040  1.00  0.00    -0.388 OA
ATOM     52  H   UNL     1      24.227  21.159   8.696  1.00  0.00     0.211 HD
ENDBRANCH  50  51
BRANCH  50  53
ATOM     53  C   UNL     1      26.301  19.909   9.279  1.00  0.00     0.154 C 
BRANCH  53  54
ATOM     54  N   UNL     1      27.099  19.393  10.327  1.00  0.00    -0.319 N 
ATOM     55  C   UNL     1      28.270  18.623  10.164  1.00  0.00     0.407 C 
ATOM     56  H   UNL     1      26.792  19.607  11.349  1.00  0.00     0.167 HD
ATOM     57  O   UNL     1      28.740  18.272   9.071  1.00  0.00    -0.225 OA
BRANCH  55  58
ATOM     58  O   UNL     1      29.004  18.190  11.285  1.00  0.00    -0.443 OA
BRANCH  58  59
ATOM     59  C   UNL     1      29.645  19.086  12.178  1.00  0.00     0.294 C 
BRANCH  59  60
ATOM     60  C   UNL     1      28.783  19.287  13.379  1.00  0.00     0.121 A 
ATOM     61  C   UNL     1      29.012  20.101  14.468  1.00  0.00     0.144 A 
ATOM     62  N   UNL     1      27.610  18.691  13.630  1.00  0.00    -0.131 NA
ATOM     63  N   UNL     1      27.994  19.991  15.352  1.00  0.00    -0.219 N 
ATOM     64  N   UNL     1      27.155  19.123  14.812  1.00  0.00    -0.062 NA
BRANCH  63  65
ATOM     65  C   UNL     1      27.872  20.680  16.610  1.00  0.00     0.085 A 
ATOM     66  C   UNL     1      27.288  21.936  16.660  1.00  0.00     0.027 A 
ATOM     67  C   UNL     1      28.323  20.133  17.789  1.00  0.00     0.027 A 
ATOM     68  C   UNL     1      26.816  22.537  15.513  1.00  0.00     0.012 A 
ATOM     69  C   UNL     1      27.151  22.645  17.851  1.00  0.00     0.073 A 
ATOM     70  C   UNL     1      28.168  20.866  18.945  1.00  0.00     0.073 A 
ATOM     71  C   UNL     1      28.906  18.900  17.814  1.00  0.00     0.012 A 
ATOM     72  C   UNL     1      26.235  23.785  15.561  1.00  0.00     0.001 A 
ATOM     73  C   UNL     1      26.570  23.893  17.895  1.00  0.00     0.029 A 
ATOM     74  N   UNL     1      27.601  22.084  18.981  1.00  0.00    -0.248 NA
ATOM     75  C   UNL     1      28.607  20.351  20.147  1.00  0.00     0.029 A 
ATOM     76  C   UNL     1      29.338  18.406  19.038  1.00  0.00     0.001 A 
ATOM     77  C   UNL     1      26.098  24.493  16.753  1.00  0.00     0.002 A 
ATOM     78  C   UNL     1      29.203  19.105  20.218  1.00  0.00     0.002 A 
ENDBRANCH  63  65
ENDBRANCH  59  60
ENDBRANCH  58  59
ENDBRANCH  55  58
ENDBRANCH  53  54
ENDBRANCH  50  53
ENDBRANCH  47  50
ENDBRANCH   5  47
BRANCH   4  79
ATOM     79  N   UNL     1      25.817  14.997   7.775  1.00  0.00    -0.348 N 
ATOM     80  C   UNL     1      26.995  14.655   7.047  1.00  0.00     0.217 C 
ATOM     81  H   UNL     1      24.969  14.436   7.527  1.00  0.00     0.163 HD
ATOM     82  C   UNL     1      26.934  13.558   6.022  1.00  0.00     0.114 C 
ATOM     83  O   UNL     1      28.034  15.286   7.295  1.00  0.00    -0.275 OA
ENDBRANCH   4  79
TORSDOF 30
