REMARK VINA RESULT:    -5.719     14.633     19.476
REMARK INTER + INTRA:         -21.133
REMARK INTER:                 -11.828
REMARK INTRA:                  -9.305
REMARK UNBOUND:                -6.052
REMARK SMILES CC(=O)N[C@@H]1[C@@H](O)C[C@](OC[C@H]2O[C@@H](O[C@H]3[C@H](O)[C@@H](O)[C@H](OCCN=[N+]=[N-])O[C@@H]3CO)[C@H](O)[C@@H](O)[C@H]2O)(C(=O)O)O[C@H]1C(O)[C@H](O)CNC(=O)OCc1cn(CC(O)CO)nn1
REMARK SMILES IDX 43 1 42 2 9 3 8 4 41 5 6 6 5 7 10 8 11 9 12 10 14 11 13 12
REMARK SMILES IDX 32 13 34 14 36 15 15 16 16 17 29 18 28 19 21 20 17 21 19 22
REMARK SMILES IDX 30 23 31 24 22 26 23 27 24 28 25 29 26 30 27 31 18 32 20 34
REMARK SMILES IDX 33 36 35 38 37 40 38 42 39 43 40 44 7 46 4 48 2 49 1 51 3 52
REMARK SMILES IDX 44 53 45 55 46 56 47 58 48 59 49 60 50 62 51 63 52 64 53 65
REMARK SMILES IDX 54 66 62 67 55 68 61 69 56 70 57 71 58 72 59 74 60 75
REMARK H PARENT 31 25 18 33 20 35 33 37 35 39 37 41 40 45 7 47 4 50 44 54
REMARK H PARENT 46 57 48 61 58 73 60 76
REMARK Flexibility Score: inf
ROOT
ATOM      1  C   UNL     1      22.118  26.388  21.046  1.00  0.00     0.176 C 
ENDROOT
BRANCH   1   2
ATOM      2  C   UNL     1      21.437  27.713  20.651  1.00  0.00     0.178 C 
ATOM      3  C   UNL     1      19.325  28.685  20.234  1.00  0.00     0.272 C 
ATOM      4  C   UNL     1      19.822  29.250  18.932  1.00  0.00     0.113 C 
ATOM      5  O   UNL     1      20.116  27.580  20.582  1.00  0.00    -0.332 OA
ATOM      6  C   UNL     1      21.104  28.723  18.408  1.00  0.00     0.145 C 
ATOM      7  C   UNL     1      22.074  28.219  19.411  1.00  0.00     0.142 C 
BRANCH   3   8
ATOM      8  O   UNL     1      18.081  28.268  20.123  1.00  0.00    -0.338 OA
BRANCH   8   9
ATOM      9  C   UNL     1      16.954  28.490  19.593  1.00  0.00     0.199 C 
BRANCH   9  10
ATOM     10  C   UNL     1      15.739  28.968  20.318  1.00  0.00     0.179 C 
ATOM     11  C   UNL     1      15.113  29.942  22.291  1.00  0.00     0.282 C 
ATOM     12  O   UNL     1      16.155  29.868  21.373  1.00  0.00    -0.341 OA
ATOM     13  C   UNL     1      13.758  29.657  21.741  1.00  0.00     0.202 C 
ATOM     14  C   UNL     1      13.556  30.017  20.301  1.00  0.00     0.179 C 
ATOM     15  C   UNL     1      14.843  29.898  19.500  1.00  0.00     0.177 C 
BRANCH  11  16
ATOM     16  O   UNL     1      15.072  31.114  23.019  1.00  0.00    -0.341 OA
BRANCH  16  17
ATOM     17  C   UNL     1      15.834  31.084  24.185  1.00  0.00     0.184 C 
ATOM     18  C   UNL     1      15.211  31.980  25.211  1.00  0.00     0.178 C 
ATOM     19  O   UNL     1      16.013  33.055  25.564  1.00  0.00    -0.341 OA
ATOM     20  C   UNL     1      16.609  33.631  24.430  1.00  0.00     0.281 C 
ATOM     21  C   UNL     1      17.250  31.342  23.876  1.00  0.00     0.180 C 
ATOM     22  C   UNL     1      17.766  32.723  24.084  1.00  0.00     0.202 C 
BRANCH  18  23
ATOM     23  C   UNL     1      14.861  31.235  26.483  1.00  0.00     0.191 C 
BRANCH  23  24
ATOM     24  O   UNL     1      15.985  30.685  27.084  1.00  0.00    -0.394 OA
ATOM     25  H   UNL     1      16.320  31.368  27.749  1.00  0.00     0.210 HD
ENDBRANCH  23  24
ENDBRANCH  18  23
BRANCH  20  26
ATOM     26  O   UNL     1      17.054  34.883  24.821  1.00  0.00    -0.350 OA
BRANCH  26  27
ATOM     27  C   UNL     1      17.535  34.938  26.120  1.00  0.00     0.169 C 
BRANCH  27  28
ATOM     28  C   UNL     1      18.893  35.597  26.220  1.00  0.00     0.119 C 
BRANCH  28  29
ATOM     29  N   UNL     1      19.590  35.614  24.963  1.00  0.00    -0.092 NA
ATOM     30  N   UNL     1      20.690  35.117  24.751  1.00  0.00     0.001 N 
ATOM     31  N   UNL     1      21.832  34.661  24.704  1.00  0.00    -0.003 NA
ENDBRANCH  28  29
ENDBRANCH  27  28
ENDBRANCH  26  27
ENDBRANCH  20  26
BRANCH  21  32
ATOM     32  O   UNL     1      18.110  30.454  24.569  1.00  0.00    -0.387 OA
ATOM     33  H   UNL     1      18.885  31.040  24.848  1.00  0.00     0.211 HD
ENDBRANCH  21  32
BRANCH  22  34
ATOM     34  O   UNL     1      18.510  33.213  23.013  1.00  0.00    -0.385 OA
ATOM     35  H   UNL     1      19.414  33.468  23.257  1.00  0.00     0.211 HD
ENDBRANCH  22  34
ENDBRANCH  16  17
ENDBRANCH  11  16
BRANCH  13  36
ATOM     36  O   UNL     1      13.329  28.343  22.042  1.00  0.00    -0.385 OA
ATOM     37  H   UNL     1      12.553  28.066  21.520  1.00  0.00     0.211 HD
ENDBRANCH  13  36
BRANCH  14  38
ATOM     38  O   UNL     1      12.969  31.267  20.117  1.00  0.00    -0.387 OA
ATOM     39  H   UNL     1      13.601  31.966  20.410  1.00  0.00     0.211 HD
ENDBRANCH  14  38
BRANCH  15  40
ATOM     40  O   UNL     1      15.462  31.176  19.550  1.00  0.00    -0.387 OA
ATOM     41  H   UNL     1      15.471  31.592  18.654  1.00  0.00     0.211 HD
ENDBRANCH  15  40
ENDBRANCH   9  10
ENDBRANCH   8   9
ENDBRANCH   3   8
BRANCH   3  42
ATOM     42  C   UNL     1      19.461  29.687  21.342  1.00  0.00     0.364 C 
ATOM     43  O   UNL     1      19.378  30.910  21.007  1.00  0.00    -0.246 OA
BRANCH  42  44
ATOM     44  O   UNL     1      19.664  29.349  22.654  1.00  0.00    -0.477 OA
ATOM     45  H   UNL     1      20.282  29.895  23.266  1.00  0.00     0.296 HD
ENDBRANCH  42  44
ENDBRANCH   3  42
BRANCH   6  46
ATOM     46  O   UNL     1      20.787  27.660  17.529  1.00  0.00    -0.391 OA
ATOM     47  H   UNL     1      20.507  28.024  16.667  1.00  0.00     0.211 HD
ENDBRANCH   6  46
BRANCH   7  48
ATOM     48  N   UNL     1      23.089  29.241  19.652  1.00  0.00    -0.348 N 
ATOM     49  C   UNL     1      24.475  28.966  19.546  1.00  0.00     0.217 C 
ATOM     50  H   UNL     1      22.829  30.214  19.914  1.00  0.00     0.163 HD
ATOM     51  C   UNL     1      25.511  30.002  19.791  1.00  0.00     0.114 C 
ATOM     52  O   UNL     1      24.813  27.797  19.231  1.00  0.00    -0.275 OA
ENDBRANCH   7  48
ENDBRANCH   1   2
BRANCH   1  53
ATOM     53  O   UNL     1      23.310  26.664  21.685  1.00  0.00    -0.388 OA
ATOM     54  H   UNL     1      23.825  25.833  21.838  1.00  0.00     0.211 HD
ENDBRANCH   1  53
BRANCH   1  55
ATOM     55  C   UNL     1      21.209  25.596  21.972  1.00  0.00     0.165 C 
BRANCH  55  56
ATOM     56  O   UNL     1      20.831  26.518  22.978  1.00  0.00    -0.388 OA
ATOM     57  H   UNL     1      21.624  26.760  23.516  1.00  0.00     0.211 HD
ENDBRANCH  55  56
BRANCH  55  58
ATOM     58  C   UNL     1      21.875  24.434  22.625  1.00  0.00     0.154 C 
BRANCH  58  59
ATOM     59  N   UNL     1      21.911  24.562  24.067  1.00  0.00    -0.319 N 
ATOM     60  C   UNL     1      23.130  24.797  24.742  1.00  0.00     0.407 C 
ATOM     61  H   UNL     1      21.037  24.486  24.658  1.00  0.00     0.167 HD
ATOM     62  O   UNL     1      24.220  24.891  24.133  1.00  0.00    -0.225 OA
BRANCH  60  63
ATOM     63  O   UNL     1      23.169  24.940  26.115  1.00  0.00    -0.443 OA
BRANCH  63  64
ATOM     64  C   UNL     1      22.331  25.701  26.913  1.00  0.00     0.294 C 
BRANCH  64  65
ATOM     65  C   UNL     1      21.816  26.946  26.299  1.00  0.00     0.120 A 
ATOM     66  C   UNL     1      22.510  28.119  26.210  1.00  0.00     0.138 A 
ATOM     67  N   UNL     1      20.580  27.122  25.743  1.00  0.00    -0.132 NA
ATOM     68  N   UNL     1      21.684  28.990  25.601  1.00  0.00    -0.249 N 
ATOM     69  N   UNL     1      20.552  28.384  25.335  1.00  0.00    -0.067 NA
BRANCH  68  70
ATOM     70  C   UNL     1      21.965  30.375  25.289  1.00  0.00     0.180 C 
BRANCH  70  71
ATOM     71  C   UNL     1      22.718  30.385  23.952  1.00  0.00     0.161 C 
BRANCH  71  72
ATOM     72  O   UNL     1      22.462  29.187  23.332  1.00  0.00    -0.389 OA
ATOM     73  H   UNL     1      22.032  28.533  23.936  1.00  0.00     0.211 HD
ENDBRANCH  71  72
BRANCH  71  74
ATOM     74  C   UNL     1      22.256  31.558  23.120  1.00  0.00     0.189 C 
BRANCH  74  75
ATOM     75  O   UNL     1      20.966  31.901  23.458  1.00  0.00    -0.394 OA
ATOM     76  H   UNL     1      20.608  32.541  22.791  1.00  0.00     0.210 HD
ENDBRANCH  74  75
ENDBRANCH  71  74
ENDBRANCH  70  71
ENDBRANCH  68  70
ENDBRANCH  64  65
ENDBRANCH  63  64
ENDBRANCH  60  63
ENDBRANCH  58  59
ENDBRANCH  55  58
ENDBRANCH   1  55
TORSDOF 34
