REMARK VINA RESULT:    -5.949     14.004     18.780
REMARK INTER + INTRA:         -22.573
REMARK INTER:                 -12.563
REMARK INTRA:                 -10.010
REMARK UNBOUND:                -6.885
REMARK SMILES CCOC(=O)c1cccc(-n2cc(COC(=O)NC[C@@H](O)C(O)[C@@H]3O[C@@](OC[C@H]4O[C@@H](O[C@H]5[C@H](O)[C@@H](O)[C@H](OCCN=[N+]=[N-])O[C@@H]5CO)[C@H](O)[C@@H](O)[C@H]4O)(C(=O)O)C[C@H](O)[C@H]3NC(C)=O)nn2)c1
REMARK SMILES IDX 22 1 24 2 26 3 58 4 25 5 59 6 61 7 27 8 28 9 29 10 31 11
REMARK SMILES IDX 30 12 49 13 51 14 53 15 32 16 33 17 46 18 45 19 38 20 34 21
REMARK SMILES IDX 36 22 47 23 48 24 39 26 40 27 41 28 42 29 43 30 44 31 35 32
REMARK SMILES IDX 37 34 50 36 52 38 54 40 55 42 56 43 57 44 60 46 62 48 63 49
REMARK SMILES IDX 64 51 65 52 23 53 20 55 21 56 19 58 18 59 16 60 17 62 15 63
REMARK SMILES IDX 14 64 13 65 12 66 66 67 11 68 67 69 10 70 68 71 9 72 6 73
REMARK SMILES IDX 8 74 7 75 4 76 5 77 3 78 2 79 1 80
REMARK H PARENT 48 25 35 33 37 35 50 37 52 39 54 41 57 45 60 47 62 50 23 54
REMARK H PARENT 21 57 18 61
REMARK Flexibility Score: inf
ROOT
ATOM      1  C   UNL     1      21.894  28.391  25.347  1.00  0.00     0.176 C 
ENDROOT
BRANCH   1   2
ATOM      2  C   UNL     1      22.525  27.063  25.288  1.00  0.00     0.178 C 
ATOM      3  C   UNL     1      23.593  25.784  23.611  1.00  0.00     0.272 C 
ATOM      4  C   UNL     1      23.716  24.885  24.799  1.00  0.00     0.113 C 
ATOM      5  O   UNL     1      22.477  26.627  23.962  1.00  0.00    -0.332 OA
ATOM      6  C   UNL     1      22.394  24.634  25.507  1.00  0.00     0.145 C 
ATOM      7  C   UNL     1      21.954  25.993  26.148  1.00  0.00     0.142 C 
BRANCH   3   8
ATOM      8  O   UNL     1      23.179  25.083  22.522  1.00  0.00    -0.338 OA
BRANCH   8   9
ATOM      9  C   UNL     1      23.921  24.649  21.534  1.00  0.00     0.199 C 
BRANCH   9  10
ATOM     10  C   UNL     1      23.673  24.785  20.093  1.00  0.00     0.179 C 
ATOM     11  C   UNL     1      22.393  25.912  18.491  1.00  0.00     0.282 C 
ATOM     12  O   UNL     1      22.503  25.389  19.801  1.00  0.00    -0.341 OA
ATOM     13  C   UNL     1      23.438  25.337  17.586  1.00  0.00     0.202 C 
ATOM     14  C   UNL     1      24.833  25.522  18.091  1.00  0.00     0.179 C 
ATOM     15  C   UNL     1      24.810  25.717  19.567  1.00  0.00     0.177 C 
BRANCH  11  16
ATOM     16  O   UNL     1      22.400  27.267  18.645  1.00  0.00    -0.341 OA
BRANCH  16  17
ATOM     17  C   UNL     1      21.326  27.881  19.191  1.00  0.00     0.184 C 
ATOM     18  C   UNL     1      20.860  28.959  18.247  1.00  0.00     0.178 C 
ATOM     19  O   UNL     1      19.718  29.600  18.730  1.00  0.00    -0.341 OA
ATOM     20  C   UNL     1      20.102  30.352  19.875  1.00  0.00     0.281 C 
ATOM     21  C   UNL     1      21.656  28.578  20.522  1.00  0.00     0.180 C 
ATOM     22  C   UNL     1      20.393  29.329  20.938  1.00  0.00     0.202 C 
BRANCH  18  23
ATOM     23  C   UNL     1      20.546  28.394  16.892  1.00  0.00     0.191 C 
BRANCH  23  24
ATOM     24  O   UNL     1      19.220  27.888  16.867  1.00  0.00    -0.394 OA
ATOM     25  H   UNL     1      18.762  28.087  17.722  1.00  0.00     0.210 HD
ENDBRANCH  23  24
ENDBRANCH  18  23
BRANCH  20  26
ATOM     26  O   UNL     1      19.082  31.207  20.174  1.00  0.00    -0.350 OA
BRANCH  26  27
ATOM     27  C   UNL     1      19.251  32.458  19.599  1.00  0.00     0.169 C 
BRANCH  27  28
ATOM     28  C   UNL     1      20.649  32.990  19.717  1.00  0.00     0.119 C 
BRANCH  28  29
ATOM     29  N   UNL     1      20.900  33.369  21.113  1.00  0.00    -0.092 NA
ATOM     30  N   UNL     1      21.968  33.003  21.622  1.00  0.00     0.001 N 
ATOM     31  N   UNL     1      23.079  32.926  22.184  1.00  0.00    -0.003 NA
ENDBRANCH  28  29
ENDBRANCH  27  28
ENDBRANCH  26  27
ENDBRANCH  20  26
BRANCH  21  32
ATOM     32  O   UNL     1      21.879  27.652  21.530  1.00  0.00    -0.387 OA
ATOM     33  H   UNL     1      21.850  28.139  22.388  1.00  0.00     0.211 HD
ENDBRANCH  21  32
BRANCH  22  34
ATOM     34  O   UNL     1      20.550  29.906  22.194  1.00  0.00    -0.385 OA
ATOM     35  H   UNL     1      19.683  30.007  22.691  1.00  0.00     0.211 HD
ENDBRANCH  22  34
ENDBRANCH  16  17
ENDBRANCH  11  16
BRANCH  13  36
ATOM     36  O   UNL     1      23.133  23.985  17.334  1.00  0.00    -0.385 OA
ATOM     37  H   UNL     1      23.225  23.753  16.382  1.00  0.00     0.211 HD
ENDBRANCH  13  36
BRANCH  14  38
ATOM     38  O   UNL     1      25.563  26.446  17.378  1.00  0.00    -0.387 OA
ATOM     39  H   UNL     1      25.931  25.976  16.583  1.00  0.00     0.211 HD
ENDBRANCH  14  38
BRANCH  15  40
ATOM     40  O   UNL     1      24.618  27.012  19.935  1.00  0.00    -0.387 OA
ATOM     41  H   UNL     1      24.321  27.050  20.878  1.00  0.00     0.211 HD
ENDBRANCH  15  40
ENDBRANCH   9  10
ENDBRANCH   8   9
ENDBRANCH   3   8
BRANCH   3  42
ATOM     42  C   UNL     1      24.722  26.665  23.353  1.00  0.00     0.364 C 
ATOM     43  O   UNL     1      25.869  26.419  23.756  1.00  0.00    -0.246 OA
BRANCH  42  44
ATOM     44  O   UNL     1      24.548  27.845  22.628  1.00  0.00    -0.477 OA
ATOM     45  H   UNL     1      24.362  27.872  21.647  1.00  0.00     0.296 HD
ENDBRANCH  42  44
ENDBRANCH   3  42
BRANCH   6  46
ATOM     46  O   UNL     1      21.443  24.335  24.564  1.00  0.00    -0.391 OA
ATOM     47  H   UNL     1      20.720  23.807  24.981  1.00  0.00     0.211 HD
ENDBRANCH   6  46
BRANCH   7  48
ATOM     48  N   UNL     1      22.489  25.987  27.490  1.00  0.00    -0.348 N 
ATOM     49  C   UNL     1      21.855  26.626  28.605  1.00  0.00     0.217 C 
ATOM     50  H   UNL     1      23.402  25.495  27.729  1.00  0.00     0.163 HD
ATOM     51  C   UNL     1      22.435  26.601  29.973  1.00  0.00     0.114 C 
ATOM     52  O   UNL     1      20.776  27.231  28.438  1.00  0.00    -0.275 OA
ENDBRANCH   7  48
ENDBRANCH   1   2
BRANCH   1  53
ATOM     53  O   UNL     1      20.556  28.422  25.636  1.00  0.00    -0.388 OA
ATOM     54  H   UNL     1      20.368  28.771  26.538  1.00  0.00     0.211 HD
ENDBRANCH   1  53
BRANCH   1  55
ATOM     55  C   UNL     1      22.642  29.469  26.088  1.00  0.00     0.165 C 
BRANCH  55  56
ATOM     56  O   UNL     1      22.010  29.760  27.302  1.00  0.00    -0.388 OA
ATOM     57  H   UNL     1      21.497  30.606  27.227  1.00  0.00     0.211 HD
ENDBRANCH  55  56
BRANCH  55  58
ATOM     58  C   UNL     1      23.005  30.666  25.262  1.00  0.00     0.154 C 
BRANCH  58  59
ATOM     59  N   UNL     1      21.844  31.306  24.686  1.00  0.00    -0.319 N 
ATOM     60  C   UNL     1      21.320  32.502  25.224  1.00  0.00     0.407 C 
ATOM     61  H   UNL     1      21.360  30.882  23.835  1.00  0.00     0.167 HD
ATOM     62  O   UNL     1      21.785  33.117  26.209  1.00  0.00    -0.225 OA
BRANCH  60  63
ATOM     63  O   UNL     1      20.176  33.093  24.651  1.00  0.00    -0.443 OA
BRANCH  63  64
ATOM     64  C   UNL     1      18.861  32.766  24.979  1.00  0.00     0.294 C 
BRANCH  64  65
ATOM     65  C   UNL     1      18.325  31.549  24.354  1.00  0.00     0.121 A 
ATOM     66  C   UNL     1      17.287  31.490  23.430  1.00  0.00     0.144 A 
ATOM     67  N   UNL     1      18.719  30.296  24.548  1.00  0.00    -0.131 NA
ATOM     68  N   UNL     1      17.103  30.209  23.112  1.00  0.00    -0.220 N 
ATOM     69  N   UNL     1      17.972  29.494  23.790  1.00  0.00    -0.062 NA
BRANCH  68  70
ATOM     70  C   UNL     1      16.144  29.716  22.201  1.00  0.00     0.067 A 
ATOM     71  C   UNL     1      16.493  29.338  20.907  1.00  0.00     0.044 A 
ATOM     72  C   UNL     1      14.826  29.573  22.546  1.00  0.00     0.028 A 
ATOM     73  C   UNL     1      15.602  28.844  19.993  1.00  0.00     0.062 A 
ATOM     74  C   UNL     1      13.893  29.077  21.649  1.00  0.00     0.003 A 
ATOM     75  C   UNL     1      14.272  28.713  20.378  1.00  0.00     0.016 A 
BRANCH  73  76
ATOM     76  C   UNL     1      16.032  28.473  18.662  1.00  0.00     0.338 C 
ATOM     77  O   UNL     1      16.829  27.526  18.516  1.00  0.00    -0.246 OA
BRANCH  76  78
ATOM     78  O   UNL     1      15.563  29.157  17.570  1.00  0.00    -0.462 OA
BRANCH  78  79
ATOM     79  C   UNL     1      16.301  29.363  16.388  1.00  0.00     0.230 C 
ATOM     80  C   UNL     1      15.431  29.082  15.182  1.00  0.00     0.049 C 
ENDBRANCH  78  79
ENDBRANCH  76  78
ENDBRANCH  73  76
ENDBRANCH  68  70
ENDBRANCH  64  65
ENDBRANCH  63  64
ENDBRANCH  60  63
ENDBRANCH  58  59
ENDBRANCH  55  58
ENDBRANCH   1  55
TORSDOF 33
