REMARK VINA RESULT:    -6.119     13.244     17.117
REMARK INTER + INTRA:         -21.361
REMARK INTER:                 -14.260
REMARK INTRA:                  -7.101
REMARK UNBOUND:                -6.298
REMARK SMILES CC(=O)N[C@@H]1[C@@H](O)C[C@](OC[C@H]2O[C@@H](O[C@H]3[C@H](O)[C@@H](O)[C@H](OCCN=[N+]=[N-])O[C@@H]3CO)[C@H](O)[C@@H](O)[C@H]2O)(C(=O)O)O[C@H]1C(O)[C@H](O)CNC(=O)OCc1cn(-c2c(C)cc(C)cc2C)nn1
REMARK SMILES IDX 9 1 8 2 6 3 5 4 42 5 41 6 10 7 11 8 12 9 14 10 13 11 32 12
REMARK SMILES IDX 34 13 36 14 15 15 16 16 29 17 28 18 21 19 17 20 19 21 30 22
REMARK SMILES IDX 31 23 22 25 23 26 24 27 25 28 26 29 27 30 18 31 20 33 33 35
REMARK SMILES IDX 35 37 37 39 38 41 39 42 40 43 7 45 43 47 44 48 45 50 46 51
REMARK SMILES IDX 47 53 48 54 49 55 50 57 51 58 52 59 53 60 54 61 66 62 55 63
REMARK SMILES IDX 65 64 56 65 57 66 63 67 58 68 59 69 62 70 64 71 60 72 61 73
REMARK SMILES IDX 4 74 2 75 1 77 3 78
REMARK H PARENT 31 24 18 32 20 34 33 36 35 38 37 40 40 44 7 46 44 49 46 52
REMARK H PARENT 48 56 4 76
REMARK Flexibility Score: inf
ROOT
ATOM      1  C   UNL     1       1.422  25.936  30.470  1.00  0.00     0.272 C 
ATOM      2  C   UNL     1       1.210  27.150  31.286  1.00  0.00     0.113 C 
ATOM      3  C   UNL     1       2.409  28.043  31.489  1.00  0.00     0.145 C 
ATOM      4  C   UNL     1       3.653  27.218  31.565  1.00  0.00     0.142 C 
ATOM      5  C   UNL     1       3.192  25.824  32.010  1.00  0.00     0.178 C 
ATOM      6  O   UNL     1       2.571  25.240  30.873  1.00  0.00    -0.332 OA
ENDROOT
BRANCH   1   7
ATOM      7  O   UNL     1       1.417  26.072  29.114  1.00  0.00    -0.338 OA
BRANCH   7   8
ATOM      8  C   UNL     1       0.360  25.662  28.388  1.00  0.00     0.199 C 
BRANCH   8   9
ATOM      9  C   UNL     1       0.900  25.086  27.071  1.00  0.00     0.179 C 
ATOM     10  C   UNL     1       2.900  25.075  25.931  1.00  0.00     0.282 C 
ATOM     11  O   UNL     1       1.961  25.840  26.608  1.00  0.00    -0.341 OA
ATOM     12  C   UNL     1       3.570  24.220  26.975  1.00  0.00     0.202 C 
ATOM     13  C   UNL     1       2.509  23.248  27.467  1.00  0.00     0.179 C 
ATOM     14  C   UNL     1       1.114  23.618  27.103  1.00  0.00     0.177 C 
BRANCH  10  15
ATOM     15  O   UNL     1       3.713  25.782  25.131  1.00  0.00    -0.341 OA
BRANCH  15  16
ATOM     16  C   UNL     1       4.648  26.586  25.675  1.00  0.00     0.184 C 
ATOM     17  C   UNL     1       4.186  28.030  25.589  1.00  0.00     0.178 C 
ATOM     18  O   UNL     1       4.800  28.732  24.596  1.00  0.00    -0.341 OA
ATOM     19  C   UNL     1       6.172  28.866  24.743  1.00  0.00     0.281 C 
ATOM     20  C   UNL     1       5.952  26.429  24.887  1.00  0.00     0.180 C 
ATOM     21  C   UNL     1       6.863  27.615  25.146  1.00  0.00     0.202 C 
BRANCH  17  22
ATOM     22  C   UNL     1       4.270  28.709  26.946  1.00  0.00     0.191 C 
BRANCH  22  23
ATOM     23  O   UNL     1       3.577  27.976  27.906  1.00  0.00    -0.394 OA
ATOM     24  H   UNL     1       3.607  28.376  28.805  1.00  0.00     0.210 HD
ENDBRANCH  22  23
ENDBRANCH  17  22
BRANCH  19  25
ATOM     25  O   UNL     1       6.485  29.885  25.654  1.00  0.00    -0.350 OA
BRANCH  25  26
ATOM     26  C   UNL     1       7.447  30.753  25.203  1.00  0.00     0.169 C 
BRANCH  26  27
ATOM     27  C   UNL     1       7.271  31.225  23.793  1.00  0.00     0.119 C 
BRANCH  27  28
ATOM     28  N   UNL     1       6.333  32.329  23.696  1.00  0.00    -0.092 NA
ATOM     29  N   UNL     1       5.130  32.124  23.439  1.00  0.00     0.001 N 
ATOM     30  N   UNL     1       3.982  31.709  23.240  1.00  0.00    -0.003 NA
ENDBRANCH  27  28
ENDBRANCH  26  27
ENDBRANCH  25  26
ENDBRANCH  19  25
BRANCH  20  31
ATOM     31  O   UNL     1       6.642  25.286  25.205  1.00  0.00    -0.387 OA
ATOM     32  H   UNL     1       7.460  25.130  24.667  1.00  0.00     0.211 HD
ENDBRANCH  20  31
BRANCH  21  33
ATOM     33  O   UNL     1       7.992  27.441  24.349  1.00  0.00    -0.385 OA
ATOM     34  H   UNL     1       8.409  28.318  24.120  1.00  0.00     0.211 HD
ENDBRANCH  21  33
ENDBRANCH  15  16
ENDBRANCH  10  15
BRANCH  12  35
ATOM     35  O   UNL     1       4.614  23.460  26.455  1.00  0.00    -0.385 OA
ATOM     36  H   UNL     1       5.420  24.061  26.419  1.00  0.00     0.211 HD
ENDBRANCH  12  35
BRANCH  13  37
ATOM     37  O   UNL     1       2.583  23.074  28.848  1.00  0.00    -0.387 OA
ATOM     38  H   UNL     1       3.399  23.470  29.249  1.00  0.00     0.211 HD
ENDBRANCH  13  37
BRANCH  14  39
ATOM     39  O   UNL     1       0.258  23.032  28.067  1.00  0.00    -0.387 OA
ATOM     40  H   UNL     1      -0.348  23.707  28.450  1.00  0.00     0.211 HD
ENDBRANCH  14  39
ENDBRANCH   8   9
ENDBRANCH   7   8
ENDBRANCH   1   7
BRANCH   1  41
ATOM     41  C   UNL     1       0.316  24.977  30.852  1.00  0.00     0.364 C 
ATOM     42  O   UNL     1      -0.792  25.434  31.150  1.00  0.00    -0.246 OA
BRANCH  41  43
ATOM     43  O   UNL     1       0.520  23.611  30.873  1.00  0.00    -0.477 OA
ATOM     44  H   UNL     1      -0.189  22.927  31.067  1.00  0.00     0.296 HD
ENDBRANCH  41  43
ENDBRANCH   1  41
BRANCH   3  45
ATOM     45  O   UNL     1       2.408  28.971  30.448  1.00  0.00    -0.391 OA
ATOM     46  H   UNL     1       1.644  28.750  29.824  1.00  0.00     0.211 HD
ENDBRANCH   3  45
BRANCH   5  47
ATOM     47  C   UNL     1       4.281  24.887  32.354  1.00  0.00     0.176 C 
BRANCH  47  48
ATOM     48  O   UNL     1       5.275  25.026  31.317  1.00  0.00    -0.388 OA
ATOM     49  H   UNL     1       4.912  24.630  30.483  1.00  0.00     0.211 HD
ENDBRANCH  47  48
BRANCH  47  50
ATOM     50  C   UNL     1       3.977  23.403  32.289  1.00  0.00     0.165 C 
BRANCH  50  51
ATOM     51  O   UNL     1       2.733  23.328  33.026  1.00  0.00    -0.388 OA
ATOM     52  H   UNL     1       2.227  24.151  32.879  1.00  0.00     0.211 HD
ENDBRANCH  50  51
BRANCH  50  53
ATOM     53  C   UNL     1       4.919  22.601  33.153  1.00  0.00     0.154 C 
BRANCH  53  54
ATOM     54  N   UNL     1       6.118  23.263  33.564  1.00  0.00    -0.319 N 
ATOM     55  C   UNL     1       7.365  22.570  33.497  1.00  0.00     0.407 C 
ATOM     56  H   UNL     1       6.095  24.260  33.922  1.00  0.00     0.167 HD
ATOM     57  O   UNL     1       7.327  21.380  33.078  1.00  0.00    -0.225 OA
BRANCH  55  58
ATOM     58  O   UNL     1       8.569  23.157  33.869  1.00  0.00    -0.443 OA
BRANCH  58  59
ATOM     59  C   UNL     1       8.868  23.474  35.207  1.00  0.00     0.294 C 
BRANCH  59  60
ATOM     60  C   UNL     1       9.676  24.714  35.365  1.00  0.00     0.121 A 
ATOM     61  C   UNL     1      10.719  25.159  34.586  1.00  0.00     0.144 A 
ATOM     62  N   UNL     1       9.527  25.661  36.336  1.00  0.00    -0.131 NA
ATOM     63  N   UNL     1      11.169  26.324  35.081  1.00  0.00    -0.220 N 
ATOM     64  N   UNL     1      10.412  26.587  36.145  1.00  0.00    -0.062 NA
BRANCH  63  65
ATOM     65  C   UNL     1      12.248  27.150  34.601  1.00  0.00     0.072 A 
ATOM     66  C   UNL     1      13.493  26.910  35.126  1.00  0.00    -0.025 A 
ATOM     67  C   UNL     1      12.010  28.109  33.680  1.00  0.00    -0.025 A 
ATOM     68  C   UNL     1      13.715  25.832  36.151  1.00  0.00     0.047 C 
ATOM     69  C   UNL     1      14.540  27.693  34.682  1.00  0.00     0.009 A 
ATOM     70  C   UNL     1      13.102  28.878  33.260  1.00  0.00     0.009 A 
ATOM     71  C   UNL     1      10.678  28.396  33.088  1.00  0.00     0.047 C 
ATOM     72  C   UNL     1      14.370  28.684  33.749  1.00  0.00    -0.050 A 
ATOM     73  C   UNL     1      15.537  29.489  33.311  1.00  0.00     0.044 C 
ENDBRANCH  63  65
ENDBRANCH  59  60
ENDBRANCH  58  59
ENDBRANCH  55  58
ENDBRANCH  53  54
ENDBRANCH  50  53
ENDBRANCH  47  50
ENDBRANCH   5  47
BRANCH   4  74
ATOM     74  N   UNL     1       4.708  27.736  32.323  1.00  0.00    -0.348 N 
ATOM     75  C   UNL     1       5.641  28.689  31.824  1.00  0.00     0.217 C 
ATOM     76  H   UNL     1       4.829  27.445  33.310  1.00  0.00     0.163 HD
ATOM     77  C   UNL     1       6.756  29.225  32.664  1.00  0.00     0.114 C 
ATOM     78  O   UNL     1       5.498  29.072  30.651  1.00  0.00    -0.275 OA
ENDBRANCH   4  74
TORSDOF 30
