REMARK VINA RESULT:    -5.491      9.149     15.998
REMARK INTER + INTRA:         -24.046
REMARK INTER:                 -18.255
REMARK INTRA:                  -5.791
REMARK UNBOUND:                -9.245
REMARK SMILES CC(=O)N[C@@H]1[C@@H](O)C[C@](OC[C@H]2O[C@@H](O[C@H]3[C@H](O)[C@@H](O)[C@H](OCCN=[N+]=[N-])O[C@@H]3CO)[C@H](O)[C@@H](O)[C@H]2O)(C(=O)O)O[C@H]1C(O)[C@H](O)CNC(=O)OCc1cn([C@@H](C)C(=O)OCc2ccccc2)nn1
REMARK SMILES IDX 43 1 42 2 9 3 8 4 41 5 6 6 5 7 10 8 11 9 12 10 14 11 13 12
REMARK SMILES IDX 32 13 34 14 36 15 15 16 16 17 29 18 28 19 21 20 17 21 19 22
REMARK SMILES IDX 30 23 31 24 22 26 23 27 24 28 25 29 26 30 27 31 18 32 20 34
REMARK SMILES IDX 33 36 35 38 37 40 38 42 39 43 40 44 7 46 4 48 2 49 1 51 3 52
REMARK SMILES IDX 44 53 45 55 46 56 47 58 48 59 49 60 50 62 51 63 52 64 53 65
REMARK SMILES IDX 54 66 69 67 55 68 68 69 56 70 57 71 58 72 59 73 60 74 61 75
REMARK SMILES IDX 62 76 63 77 67 78 64 79 66 80 65 81
REMARK H PARENT 31 25 18 33 20 35 33 37 35 39 37 41 40 45 7 47 4 50 44 54
REMARK H PARENT 46 57 48 61
REMARK Flexibility Score: inf
ROOT
ATOM      1  C   UNL     1      14.704  29.365  14.351  1.00  0.00     0.176 C 
ENDROOT
BRANCH   1   2
ATOM      2  C   UNL     1      13.649  30.315  13.940  1.00  0.00     0.178 C 
ATOM      3  C   UNL     1      13.407  31.665  15.829  1.00  0.00     0.272 C 
ATOM      4  C   UNL     1      12.045  31.116  16.014  1.00  0.00     0.113 C 
ATOM      5  O   UNL     1      13.754  31.588  14.433  1.00  0.00    -0.332 OA
ATOM      6  C   UNL     1      11.880  29.705  15.501  1.00  0.00     0.145 C 
ATOM      7  C   UNL     1      12.285  29.687  14.059  1.00  0.00     0.142 C 
BRANCH   3   8
ATOM      8  O   UNL     1      14.438  31.171  16.465  1.00  0.00    -0.338 OA
BRANCH   8   9
ATOM      9  C   UNL     1      15.084  31.533  17.536  1.00  0.00     0.199 C 
BRANCH   9  10
ATOM     10  C   UNL     1      16.170  30.707  18.165  1.00  0.00     0.179 C 
ATOM     11  C   UNL     1      16.738  29.872  20.262  1.00  0.00     0.282 C 
ATOM     12  O   UNL     1      16.148  30.890  19.516  1.00  0.00    -0.341 OA
ATOM     13  C   UNL     1      17.716  29.075  19.476  1.00  0.00     0.202 C 
ATOM     14  C   UNL     1      17.042  28.370  18.331  1.00  0.00     0.179 C 
ATOM     15  C   UNL     1      15.948  29.223  17.800  1.00  0.00     0.177 C 
BRANCH  11  16
ATOM     16  O   UNL     1      15.725  29.186  20.876  1.00  0.00    -0.341 OA
BRANCH  16  17
ATOM     17  C   UNL     1      15.546  29.455  22.200  1.00  0.00     0.184 C 
ATOM     18  C   UNL     1      14.302  30.288  22.376  1.00  0.00     0.178 C 
ATOM     19  O   UNL     1      14.189  30.701  23.708  1.00  0.00    -0.341 OA
ATOM     20  C   UNL     1      15.008  31.855  23.797  1.00  0.00     0.281 C 
ATOM     21  C   UNL     1      16.696  30.244  22.805  1.00  0.00     0.180 C 
ATOM     22  C   UNL     1      16.363  31.633  23.202  1.00  0.00     0.202 C 
BRANCH  18  23
ATOM     23  C   UNL     1      13.044  29.636  21.885  1.00  0.00     0.191 C 
BRANCH  23  24
ATOM     24  O   UNL     1      13.293  28.261  21.849  1.00  0.00    -0.394 OA
ATOM     25  H   UNL     1      13.194  27.874  20.947  1.00  0.00     0.210 HD
ENDBRANCH  23  24
ENDBRANCH  18  23
BRANCH  20  26
ATOM     26  O   UNL     1      15.016  32.258  25.094  1.00  0.00    -0.350 OA
BRANCH  26  27
ATOM     27  C   UNL     1      14.317  33.364  25.448  1.00  0.00     0.169 C 
BRANCH  27  28
ATOM     28  C   UNL     1      13.064  33.180  26.226  1.00  0.00     0.119 C 
BRANCH  28  29
ATOM     29  N   UNL     1      11.916  32.735  25.524  1.00  0.00    -0.092 NA
ATOM     30  N   UNL     1      11.705  33.032  24.354  1.00  0.00     0.001 N 
ATOM     31  N   UNL     1      11.519  33.154  23.129  1.00  0.00    -0.003 NA
ENDBRANCH  28  29
ENDBRANCH  27  28
ENDBRANCH  26  27
ENDBRANCH  20  26
BRANCH  21  32
ATOM     32  O   UNL     1      17.245  29.580  23.905  1.00  0.00    -0.387 OA
ATOM     33  H   UNL     1      16.565  29.220  24.518  1.00  0.00     0.211 HD
ENDBRANCH  21  32
BRANCH  22  34
ATOM     34  O   UNL     1      16.640  32.499  22.138  1.00  0.00    -0.385 OA
ATOM     35  H   UNL     1      16.112  33.326  22.301  1.00  0.00     0.211 HD
ENDBRANCH  22  34
ENDBRANCH  16  17
ENDBRANCH  11  16
BRANCH  13  36
ATOM     36  O   UNL     1      18.723  29.951  19.006  1.00  0.00    -0.385 OA
ATOM     37  H   UNL     1      19.536  29.706  19.544  1.00  0.00     0.211 HD
ENDBRANCH  13  36
BRANCH  14  38
ATOM     38  O   UNL     1      16.621  27.128  18.760  1.00  0.00    -0.387 OA
ATOM     39  H   UNL     1      17.339  26.440  18.697  1.00  0.00     0.211 HD
ENDBRANCH  14  38
BRANCH  15  40
ATOM     40  O   UNL     1      14.689  28.788  18.189  1.00  0.00    -0.387 OA
ATOM     41  H   UNL     1      14.696  28.609  19.180  1.00  0.00     0.211 HD
ENDBRANCH  15  40
ENDBRANCH   9  10
ENDBRANCH   8   9
ENDBRANCH   3   8
BRANCH   3  42
ATOM     42  C   UNL     1      13.307  33.172  15.955  1.00  0.00     0.364 C 
ATOM     43  O   UNL     1      13.946  33.929  15.212  1.00  0.00    -0.246 OA
BRANCH  42  44
ATOM     44  O   UNL     1      12.486  33.752  16.920  1.00  0.00    -0.477 OA
ATOM     45  H   UNL     1      11.480  33.619  16.960  1.00  0.00     0.296 HD
ENDBRANCH  42  44
ENDBRANCH   3  42
BRANCH   6  46
ATOM     46  O   UNL     1      12.568  28.767  16.265  1.00  0.00    -0.391 OA
ATOM     47  H   UNL     1      11.892  28.155  16.639  1.00  0.00     0.211 HD
ENDBRANCH   6  46
BRANCH   7  48
ATOM     48  N   UNL     1      11.291  30.421  13.287  1.00  0.00    -0.348 N 
ATOM     49  C   UNL     1      10.333  29.677  12.528  1.00  0.00     0.217 C 
ATOM     50  H   UNL     1      11.236  31.458  13.253  1.00  0.00     0.163 HD
ATOM     51  C   UNL     1       9.314  30.430  11.737  1.00  0.00     0.114 C 
ATOM     52  O   UNL     1      10.357  28.417  12.535  1.00  0.00    -0.275 OA
ENDBRANCH   7  48
ENDBRANCH   1   2
BRANCH   1  53
ATOM     53  O   UNL     1      14.258  28.049  14.075  1.00  0.00    -0.388 OA
ATOM     54  H   UNL     1      14.528  27.432  14.809  1.00  0.00     0.211 HD
ENDBRANCH   1  53
BRANCH   1  55
ATOM     55  C   UNL     1      15.997  29.486  13.528  1.00  0.00     0.165 C 
BRANCH  55  56
ATOM     56  O   UNL     1      16.541  28.276  13.230  1.00  0.00    -0.388 OA
ATOM     57  H   UNL     1      16.470  27.655  13.994  1.00  0.00     0.211 HD
ENDBRANCH  55  56
BRANCH  55  58
ATOM     58  C   UNL     1      16.924  30.489  14.134  1.00  0.00     0.154 C 
BRANCH  58  59
ATOM     59  N   UNL     1      17.987  29.837  14.847  1.00  0.00    -0.319 N 
ATOM     60  C   UNL     1      19.171  29.312  14.278  1.00  0.00     0.407 C 
ATOM     61  H   UNL     1      17.925  29.713  15.907  1.00  0.00     0.167 HD
ATOM     62  O   UNL     1      19.374  29.366  13.063  1.00  0.00    -0.225 OA
BRANCH  60  63
ATOM     63  O   UNL     1      20.155  28.711  15.079  1.00  0.00    -0.443 OA
BRANCH  63  64
ATOM     64  C   UNL     1      20.674  29.342  16.223  1.00  0.00     0.294 C 
BRANCH  64  65
ATOM     65  C   UNL     1      21.273  28.293  17.081  1.00  0.00     0.120 A 
ATOM     66  C   UNL     1      21.650  28.388  18.401  1.00  0.00     0.139 A 
ATOM     67  N   UNL     1      21.559  27.046  16.691  1.00  0.00    -0.132 NA
ATOM     68  N   UNL     1      22.162  27.186  18.789  1.00  0.00    -0.238 N 
ATOM     69  N   UNL     1      22.093  26.395  17.735  1.00  0.00    -0.066 NA
BRANCH  68  70
ATOM     70  C   UNL     1      22.659  26.958  20.123  1.00  0.00     0.215 C 
ATOM     71  C   UNL     1      23.167  28.243  20.748  1.00  0.00     0.046 C 
BRANCH  70  72
ATOM     72  C   UNL     1      21.580  26.369  20.993  1.00  0.00     0.331 C 
ATOM     73  O   UNL     1      20.583  27.058  21.267  1.00  0.00    -0.250 OA
BRANCH  72  74
ATOM     74  O   UNL     1      21.677  25.089  21.487  1.00  0.00    -0.459 OA
BRANCH  74  75
ATOM     75  C   UNL     1      21.194  24.666  22.739  1.00  0.00     0.268 C 
BRANCH  75  76
ATOM     76  C   UNL     1      22.227  24.636  23.795  1.00  0.00    -0.011 A 
ATOM     77  C   UNL     1      21.916  24.667  25.129  1.00  0.00     0.007 A 
ATOM     78  C   UNL     1      23.556  24.577  23.452  1.00  0.00     0.007 A 
ATOM     79  C   UNL     1      22.876  24.642  26.115  1.00  0.00     0.000 A 
ATOM     80  C   UNL     1      24.550  24.550  24.403  1.00  0.00     0.000 A 
ATOM     81  C   UNL     1      24.195  24.583  25.747  1.00  0.00     0.000 A 
ENDBRANCH  75  76
ENDBRANCH  74  75
ENDBRANCH  72  74
ENDBRANCH  70  72
ENDBRANCH  68  70
ENDBRANCH  64  65
ENDBRANCH  63  64
ENDBRANCH  60  63
ENDBRANCH  58  59
ENDBRANCH  55  58
ENDBRANCH   1  55
TORSDOF 34
