REMARK VINA RESULT:    -6.063      0.000      0.000
REMARK INTER + INTRA:         -22.482
REMARK INTER:                 -17.080
REMARK INTRA:                  -5.402
REMARK UNBOUND:                -7.203
REMARK SMILES CC(=O)N[C@@H]1[C@@H](O)C[C@](OC[C@H]2O[C@@H](O[C@H]3[C@H](O)[C@@H](O)[C@H](OCCN=[N+]=[N-])O[C@@H]3CO)[C@H](O)[C@@H](O)[C@H]2O)(C(=O)O)O[C@H]1C(O)[C@H](O)CNC(=O)OCc1cn(CC2=CC[C@H]3C[C@@H]2C3(C)C)nn1
REMARK SMILES IDX 9 1 8 2 6 3 5 4 42 5 41 6 10 7 11 8 12 9 14 10 13 11 32 12
REMARK SMILES IDX 34 13 36 14 15 15 16 16 29 17 28 18 21 19 17 20 19 21 30 22
REMARK SMILES IDX 31 23 22 25 23 26 24 27 25 28 26 29 27 30 18 31 20 33 33 35
REMARK SMILES IDX 35 37 37 39 38 41 39 42 40 43 7 45 43 47 44 48 45 50 46 51
REMARK SMILES IDX 47 53 48 54 49 55 50 57 51 58 52 59 53 60 54 61 67 62 55 63
REMARK SMILES IDX 66 64 56 65 57 66 58 67 62 68 59 69 61 70 63 71 60 72 64 73
REMARK SMILES IDX 65 74 4 75 2 76 1 78 3 79
REMARK H PARENT 31 24 18 32 20 34 33 36 35 38 37 40 40 44 7 46 44 49 46 52
REMARK H PARENT 48 56 4 77
REMARK Flexibility Score: inf
ROOT
ATOM      1  C   UNL     1      13.433  31.042  16.217  1.00  0.00     0.272 C 
ATOM      2  C   UNL     1      12.292  30.899  15.265  1.00  0.00     0.113 C 
ATOM      3  C   UNL     1      12.137  29.428  14.841  1.00  0.00     0.145 C 
ATOM      4  C   UNL     1      13.350  28.961  14.120  1.00  0.00     0.142 C 
ATOM      5  C   UNL     1      14.439  29.980  14.383  1.00  0.00     0.178 C 
ATOM      6  O   UNL     1      14.541  30.295  15.690  1.00  0.00    -0.332 OA
ENDROOT
BRANCH   1   7
ATOM      7  O   UNL     1      13.268  30.556  17.438  1.00  0.00    -0.338 OA
BRANCH   7   8
ATOM      8  C   UNL     1      13.851  30.889  18.561  1.00  0.00     0.199 C 
BRANCH   8   9
ATOM      9  C   UNL     1      15.123  30.368  19.082  1.00  0.00     0.179 C 
ATOM     10  C   UNL     1      16.062  29.793  21.117  1.00  0.00     0.282 C 
ATOM     11  O   UNL     1      14.867  29.974  20.432  1.00  0.00    -0.341 OA
ATOM     12  C   UNL     1      17.121  29.102  20.382  1.00  0.00     0.202 C 
ATOM     13  C   UNL     1      16.925  28.776  18.954  1.00  0.00     0.179 C 
ATOM     14  C   UNL     1      15.515  29.008  18.472  1.00  0.00     0.177 C 
BRANCH  10  15
ATOM     15  O   UNL     1      15.701  29.038  22.249  1.00  0.00    -0.341 OA
BRANCH  15  16
ATOM     16  C   UNL     1      15.586  29.812  23.390  1.00  0.00     0.184 C 
ATOM     17  C   UNL     1      14.436  30.767  23.254  1.00  0.00     0.178 C 
ATOM     18  O   UNL     1      14.457  31.812  24.162  1.00  0.00    -0.341 OA
ATOM     19  C   UNL     1      15.365  31.718  25.175  1.00  0.00     0.281 C 
ATOM     20  C   UNL     1      16.855  30.667  23.471  1.00  0.00     0.180 C 
ATOM     21  C   UNL     1      16.784  31.519  24.702  1.00  0.00     0.202 C 
BRANCH  17  22
ATOM     22  C   UNL     1      13.139  29.973  23.448  1.00  0.00     0.191 C 
BRANCH  22  23
ATOM     23  O   UNL     1      12.945  29.193  22.318  1.00  0.00    -0.394 OA
ATOM     24  H   UNL     1      11.965  28.974  22.259  1.00  0.00     0.210 HD
ENDBRANCH  22  23
ENDBRANCH  17  22
BRANCH  19  25
ATOM     25  O   UNL     1      15.044  30.693  26.075  1.00  0.00    -0.350 OA
BRANCH  25  26
ATOM     26  C   UNL     1      15.475  30.984  27.370  1.00  0.00     0.169 C 
BRANCH  26  27
ATOM     27  C   UNL     1      14.801  32.308  27.738  1.00  0.00     0.119 C 
BRANCH  27  28
ATOM     28  N   UNL     1      13.541  32.037  28.396  1.00  0.00    -0.092 NA
ATOM     29  N   UNL     1      13.447  31.266  29.334  1.00  0.00     0.001 N 
ATOM     30  N   UNL     1      13.373  30.375  30.188  1.00  0.00    -0.003 NA
ENDBRANCH  27  28
ENDBRANCH  26  27
ENDBRANCH  25  26
ENDBRANCH  19  25
BRANCH  20  31
ATOM     31  O   UNL     1      17.982  29.833  23.577  1.00  0.00    -0.387 OA
ATOM     32  H   UNL     1      17.748  28.999  24.040  1.00  0.00     0.211 HD
ENDBRANCH  20  31
BRANCH  21  33
ATOM     33  O   UNL     1      17.421  32.748  24.541  1.00  0.00    -0.385 OA
ATOM     34  H   UNL     1      17.379  33.233  25.414  1.00  0.00     0.211 HD
ENDBRANCH  21  33
ENDBRANCH  15  16
ENDBRANCH  10  15
BRANCH  12  35
ATOM     35  O   UNL     1      18.292  29.900  20.479  1.00  0.00    -0.385 OA
ATOM     36  H   UNL     1      19.006  29.431  20.980  1.00  0.00     0.211 HD
ENDBRANCH  12  35
BRANCH  13  37
ATOM     37  O   UNL     1      17.394  27.497  18.635  1.00  0.00    -0.387 OA
ATOM     38  H   UNL     1      16.762  26.808  18.977  1.00  0.00     0.211 HD
ENDBRANCH  13  37
BRANCH  14  39
ATOM     39  O   UNL     1      14.696  28.035  19.082  1.00  0.00    -0.387 OA
ATOM     40  H   UNL     1      14.845  27.154  18.659  1.00  0.00     0.211 HD
ENDBRANCH  14  39
ENDBRANCH   8   9
ENDBRANCH   7   8
ENDBRANCH   1   7
BRANCH   1  41
ATOM     41  C   UNL     1      13.976  32.425  16.164  1.00  0.00     0.364 C 
ATOM     42  O   UNL     1      13.175  33.423  16.129  1.00  0.00    -0.246 OA
BRANCH  41  43
ATOM     43  O   UNL     1      15.299  32.714  16.145  1.00  0.00    -0.477 OA
ATOM     44  H   UNL     1      16.038  32.280  16.673  1.00  0.00     0.296 HD
ENDBRANCH  41  43
ENDBRANCH   1  41
BRANCH   3  45
ATOM     45  O   UNL     1      12.092  28.736  16.060  1.00  0.00    -0.391 OA
ATOM     46  H   UNL     1      12.944  28.243  16.158  1.00  0.00     0.211 HD
ENDBRANCH   3  45
BRANCH   5  47
ATOM     47  C   UNL     1      15.797  29.438  13.930  1.00  0.00     0.176 C 
BRANCH  47  48
ATOM     48  O   UNL     1      15.790  28.067  13.921  1.00  0.00    -0.388 OA
ATOM     49  H   UNL     1      14.907  27.655  13.707  1.00  0.00     0.211 HD
ENDBRANCH  47  48
BRANCH  47  50
ATOM     50  C   UNL     1      16.898  29.973  14.796  1.00  0.00     0.165 C 
BRANCH  50  51
ATOM     51  O   UNL     1      17.196  31.264  14.274  1.00  0.00    -0.388 OA
ATOM     52  H   UNL     1      18.178  31.197  14.057  1.00  0.00     0.211 HD
ENDBRANCH  50  51
BRANCH  50  53
ATOM     53  C   UNL     1      18.158  29.179  14.661  1.00  0.00     0.154 C 
BRANCH  53  54
ATOM     54  N   UNL     1      18.545  28.454  15.827  1.00  0.00    -0.319 N 
ATOM     55  C   UNL     1      19.752  28.768  16.497  1.00  0.00     0.407 C 
ATOM     56  H   UNL     1      17.920  27.690  16.186  1.00  0.00     0.167 HD
ATOM     57  O   UNL     1      20.482  29.675  16.075  1.00  0.00    -0.225 OA
BRANCH  55  58
ATOM     58  O   UNL     1      20.136  28.073  17.628  1.00  0.00    -0.443 OA
BRANCH  58  59
ATOM     59  C   UNL     1      21.126  28.435  18.532  1.00  0.00     0.294 C 
BRANCH  59  60
ATOM     60  C   UNL     1      21.161  27.613  19.776  1.00  0.00     0.120 A 
ATOM     61  C   UNL     1      22.091  26.670  20.142  1.00  0.00     0.138 A 
ATOM     62  N   UNL     1      20.261  27.660  20.797  1.00  0.00    -0.132 NA
ATOM     63  N   UNL     1      21.753  26.177  21.337  1.00  0.00    -0.248 N 
ATOM     64  N   UNL     1      20.647  26.790  21.709  1.00  0.00    -0.067 NA
BRANCH  63  65
ATOM     65  C   UNL     1      22.472  25.146  22.108  1.00  0.00     0.177 C 
BRANCH  65  66
ATOM     66  C   UNL     1      22.714  25.763  23.455  1.00  0.00    -0.049 C 
ATOM     67  C   UNL     1      23.521  26.835  23.584  1.00  0.00    -0.025 C 
ATOM     68  C   UNL     1      22.092  25.248  24.683  1.00  0.00     0.023 C 
ATOM     69  C   UNL     1      23.859  27.318  24.941  1.00  0.00     0.031 C 
ATOM     70  C   UNL     1      21.620  26.471  25.481  1.00  0.00     0.013 C 
ATOM     71  C   UNL     1      23.143  25.053  25.733  1.00  0.00    -0.026 C 
ATOM     72  C   UNL     1      23.070  26.567  25.975  1.00  0.00    -0.000 C 
ATOM     73  C   UNL     1      22.671  24.330  26.972  1.00  0.00     0.012 C 
ATOM     74  C   UNL     1      24.473  24.545  25.290  1.00  0.00     0.012 C 
ENDBRANCH  65  66
ENDBRANCH  63  65
ENDBRANCH  59  60
ENDBRANCH  58  59
ENDBRANCH  55  58
ENDBRANCH  53  54
ENDBRANCH  50  53
ENDBRANCH  47  50
ENDBRANCH   5  47
BRANCH   4  75
ATOM     75  N   UNL     1      13.241  28.793  12.713  1.00  0.00    -0.348 N 
ATOM     76  C   UNL     1      12.250  28.076  12.026  1.00  0.00     0.217 C 
ATOM     77  H   UNL     1      13.996  29.265  12.135  1.00  0.00     0.163 HD
ATOM     78  C   UNL     1      12.256  27.980  10.544  1.00  0.00     0.114 C 
ATOM     79  O   UNL     1      11.372  27.527  12.716  1.00  0.00    -0.275 OA
ENDBRANCH   4  75
TORSDOF 31
