REMARK VINA RESULT:    -4.349     23.963     28.668
REMARK INTER + INTRA:         -21.799
REMARK INTER:                 -13.449
REMARK INTRA:                  -8.350
REMARK UNBOUND:               -10.839
REMARK SMILES CC(=O)N[C@@H]1[C@@H](O)C[C@](OC[C@H]2O[C@@H](O[C@H]3[C@H](O)[C@@H](O)[C@H](OCCN=[N+]=[N-])O[C@@H]3CO)[C@H](O)[C@@H](O)[C@H]2O)(C(=O)O)O[C@H]1C(O)[C@H](O)CNC(=O)OCc1cn(-c2ccccc2C(C)C)nn1
REMARK SMILES IDX 9 1 8 2 6 3 5 4 42 5 41 6 10 7 11 8 12 9 14 10 13 11 32 12
REMARK SMILES IDX 34 13 36 14 15 15 16 16 29 17 28 18 21 19 17 20 19 21 30 22
REMARK SMILES IDX 31 23 22 25 23 26 24 27 25 28 26 29 27 30 18 31 20 33 33 35
REMARK SMILES IDX 35 37 37 39 38 41 39 42 40 43 7 45 43 47 44 48 45 50 46 51
REMARK SMILES IDX 47 53 48 54 49 55 50 57 51 58 52 59 53 60 54 61 66 62 55 63
REMARK SMILES IDX 65 64 56 65 61 66 57 67 60 68 58 69 59 70 62 71 63 72 64 73
REMARK SMILES IDX 4 74 2 75 1 77 3 78
REMARK H PARENT 31 24 18 32 20 34 33 36 35 38 37 40 40 44 7 46 44 49 46 52
REMARK H PARENT 48 56 4 76
REMARK Flexibility Score: inf
ROOT
ATOM      1  C   UNL     1      35.566  18.954  29.751  1.00  0.00     0.272 C 
ATOM      2  C   UNL     1      36.180  18.089  30.828  1.00  0.00     0.113 C 
ATOM      3  C   UNL     1      35.423  16.770  30.843  1.00  0.00     0.145 C 
ATOM      4  C   UNL     1      34.009  17.076  31.367  1.00  0.00     0.142 C 
ATOM      5  C   UNL     1      33.482  18.217  30.580  1.00  0.00     0.178 C 
ATOM      6  O   UNL     1      34.276  18.419  29.460  1.00  0.00    -0.332 OA
ENDROOT
BRANCH   1   7
ATOM      7  O   UNL     1      36.218  18.853  28.577  1.00  0.00    -0.338 OA
BRANCH   7   8
ATOM      8  C   UNL     1      35.802  18.650  27.376  1.00  0.00     0.199 C 
BRANCH   8   9
ATOM      9  C   UNL     1      35.561  19.723  26.364  1.00  0.00     0.179 C 
ATOM     10  C   UNL     1      34.430  21.647  25.932  1.00  0.00     0.282 C 
ATOM     11  O   UNL     1      34.477  20.516  26.648  1.00  0.00    -0.341 OA
ATOM     12  C   UNL     1      35.307  21.702  24.689  1.00  0.00     0.202 C 
ATOM     13  C   UNL     1      36.744  21.383  25.008  1.00  0.00     0.179 C 
ATOM     14  C   UNL     1      36.797  20.651  26.316  1.00  0.00     0.177 C 
BRANCH  10  15
ATOM     15  O   UNL     1      34.569  22.831  26.589  1.00  0.00    -0.341 OA
BRANCH  15  16
ATOM     16  C   UNL     1      33.466  23.619  26.801  1.00  0.00     0.184 C 
ATOM     17  C   UNL     1      33.700  25.067  26.522  1.00  0.00     0.178 C 
ATOM     18  O   UNL     1      33.466  25.874  27.580  1.00  0.00    -0.341 OA
ATOM     19  C   UNL     1      32.267  25.834  28.221  1.00  0.00     0.281 C 
ATOM     20  C   UNL     1      32.777  23.418  28.089  1.00  0.00     0.180 C 
ATOM     21  C   UNL     1      31.652  24.434  28.186  1.00  0.00     0.202 C 
BRANCH  17  22
ATOM     22  C   UNL     1      32.886  25.598  25.331  1.00  0.00     0.191 C 
BRANCH  22  23
ATOM     23  O   UNL     1      33.179  26.975  25.210  1.00  0.00    -0.394 OA
ATOM     24  H   UNL     1      34.180  27.031  25.096  1.00  0.00     0.210 HD
ENDBRANCH  22  23
ENDBRANCH  17  22
BRANCH  19  25
ATOM     25  O   UNL     1      31.375  26.694  27.637  1.00  0.00    -0.350 OA
BRANCH  25  26
ATOM     26  C   UNL     1      30.571  27.435  28.443  1.00  0.00     0.169 C 
BRANCH  26  27
ATOM     27  C   UNL     1      29.103  27.353  28.241  1.00  0.00     0.119 C 
BRANCH  27  28
ATOM     28  N   UNL     1      28.401  27.179  29.468  1.00  0.00    -0.092 NA
ATOM     29  N   UNL     1      28.394  26.195  30.179  1.00  0.00     0.001 N 
ATOM     30  N   UNL     1      28.613  25.195  30.853  1.00  0.00    -0.003 NA
ENDBRANCH  27  28
ENDBRANCH  26  27
ENDBRANCH  25  26
ENDBRANCH  19  25
BRANCH  20  31
ATOM     31  O   UNL     1      32.181  22.167  28.237  1.00  0.00    -0.387 OA
ATOM     32  H   UNL     1      32.249  21.692  27.379  1.00  0.00     0.211 HD
ENDBRANCH  20  31
BRANCH  21  33
ATOM     33  O   UNL     1      30.927  24.256  29.366  1.00  0.00    -0.385 OA
ATOM     34  H   UNL     1      30.766  25.159  29.742  1.00  0.00     0.211 HD
ENDBRANCH  21  33
ENDBRANCH  15  16
ENDBRANCH  10  15
BRANCH  12  35
ATOM     35  O   UNL     1      34.793  20.809  23.765  1.00  0.00    -0.385 OA
ATOM     36  H   UNL     1      34.032  20.291  24.178  1.00  0.00     0.211 HD
ENDBRANCH  12  35
BRANCH  13  37
ATOM     37  O   UNL     1      37.478  22.576  25.058  1.00  0.00    -0.387 OA
ATOM     38  H   UNL     1      38.244  22.407  25.661  1.00  0.00     0.211 HD
ENDBRANCH  13  37
BRANCH  14  39
ATOM     39  O   UNL     1      36.673  21.545  27.359  1.00  0.00    -0.387 OA
ATOM     40  H   UNL     1      36.625  22.456  26.975  1.00  0.00     0.211 HD
ENDBRANCH  14  39
ENDBRANCH   8   9
ENDBRANCH   7   8
ENDBRANCH   1   7
BRANCH   1  41
ATOM     41  C   UNL     1      35.386  20.339  30.200  1.00  0.00     0.364 C 
ATOM     42  O   UNL     1      35.739  20.596  31.407  1.00  0.00    -0.246 OA
BRANCH  41  43
ATOM     43  O   UNL     1      34.887  21.409  29.507  1.00  0.00    -0.477 OA
ATOM     44  H   UNL     1      33.996  21.467  29.049  1.00  0.00     0.296 HD
ENDBRANCH  41  43
ENDBRANCH   1  41
BRANCH   3  45
ATOM     45  O   UNL     1      35.229  16.323  29.531  1.00  0.00    -0.391 OA
ATOM     46  H   UNL     1      34.338  15.896  29.498  1.00  0.00     0.211 HD
ENDBRANCH   3  45
BRANCH   5  47
ATOM     47  C   UNL     1      32.083  18.105  30.056  1.00  0.00     0.176 C 
BRANCH  47  48
ATOM     48  O   UNL     1      31.678  16.790  30.477  1.00  0.00    -0.388 OA
ATOM     49  H   UNL     1      31.026  17.010  31.215  1.00  0.00     0.211 HD
ENDBRANCH  47  48
BRANCH  47  50
ATOM     50  C   UNL     1      31.916  18.111  28.570  1.00  0.00     0.165 C 
BRANCH  50  51
ATOM     51  O   UNL     1      31.387  19.270  28.069  1.00  0.00    -0.388 OA
ATOM     52  H   UNL     1      31.226  19.117  27.102  1.00  0.00     0.211 HD
ENDBRANCH  50  51
BRANCH  50  53
ATOM     53  C   UNL     1      31.430  16.826  28.013  1.00  0.00     0.154 C 
BRANCH  53  54
ATOM     54  N   UNL     1      31.811  16.559  26.640  1.00  0.00    -0.319 N 
ATOM     55  C   UNL     1      33.105  16.091  26.306  1.00  0.00     0.407 C 
ATOM     56  H   UNL     1      31.153  16.696  25.842  1.00  0.00     0.167 HD
ATOM     57  O   UNL     1      34.007  15.880  27.148  1.00  0.00    -0.225 OA
BRANCH  55  58
ATOM     58  O   UNL     1      33.498  15.816  24.974  1.00  0.00    -0.443 OA
BRANCH  58  59
ATOM     59  C   UNL     1      34.345  16.696  24.301  1.00  0.00     0.294 C 
BRANCH  59  60
ATOM     60  C   UNL     1      33.514  17.609  23.466  1.00  0.00     0.121 A 
ATOM     61  C   UNL     1      32.190  17.970  23.581  1.00  0.00     0.144 A 
ATOM     62  N   UNL     1      33.949  18.300  22.365  1.00  0.00    -0.131 NA
ATOM     63  N   UNL     1      31.836  18.828  22.610  1.00  0.00    -0.220 N 
ATOM     64  N   UNL     1      32.948  19.005  21.882  1.00  0.00    -0.062 NA
BRANCH  63  65
ATOM     65  C   UNL     1      30.581  19.451  22.362  1.00  0.00     0.070 A 
ATOM     66  C   UNL     1      30.328  20.696  22.894  1.00  0.00    -0.020 A 
ATOM     67  C   UNL     1      29.580  18.868  21.617  1.00  0.00     0.029 A 
ATOM     68  C   UNL     1      29.118  21.328  22.688  1.00  0.00     0.006 A 
ATOM     69  C   UNL     1      28.363  19.488  21.400  1.00  0.00     0.002 A 
ATOM     70  C   UNL     1      28.127  20.735  21.943  1.00  0.00     0.000 A 
BRANCH  66  71
ATOM     71  C   UNL     1      31.379  21.362  23.691  1.00  0.00     0.015 C 
ATOM     72  C   UNL     1      30.957  21.326  25.152  1.00  0.00     0.012 C 
ATOM     73  C   UNL     1      31.478  22.837  23.271  1.00  0.00     0.012 C 
ENDBRANCH  66  71
ENDBRANCH  63  65
ENDBRANCH  59  60
ENDBRANCH  58  59
ENDBRANCH  55  58
ENDBRANCH  53  54
ENDBRANCH  50  53
ENDBRANCH  47  50
ENDBRANCH   5  47
BRANCH   4  74
ATOM     74  N   UNL     1      34.138  17.371  32.776  1.00  0.00    -0.348 N 
ATOM     75  C   UNL     1      33.947  16.447  33.815  1.00  0.00     0.217 C 
ATOM     76  H   UNL     1      34.391  18.367  33.049  1.00  0.00     0.163 HD
ATOM     77  C   UNL     1      34.114  16.913  35.233  1.00  0.00     0.114 C 
ATOM     78  O   UNL     1      33.646  15.271  33.575  1.00  0.00    -0.275 OA
ENDBRANCH   4  74
TORSDOF 31
