REMARK VINA RESULT:    -6.906      2.997      5.749
REMARK INTER + INTRA:         -22.151
REMARK INTER:                 -13.867
REMARK INTRA:                  -8.284
REMARK UNBOUND:                -4.749
REMARK SMILES CC(=O)N[C@@H]1[C@@H](O)C[C@](OC[C@H]2O[C@@H](O[C@H]3[C@H](O)[C@@H](O)[C@H](OCCN=[N+]=[N-])O[C@@H]3CO)[C@H](O)[C@@H](O)[C@H]2O)(C(=O)O)O[C@H]1C(O)[C@H](O)CNC(=O)OCc1cn(-c2ccccc2C(C)=O)nn1
REMARK SMILES IDX 9 1 8 2 6 3 5 4 42 5 41 6 10 7 11 8 12 9 14 10 13 11 32 12
REMARK SMILES IDX 34 13 36 14 15 15 16 16 29 17 28 18 21 19 17 20 19 21 30 22
REMARK SMILES IDX 31 23 22 25 23 26 24 27 25 28 26 29 27 30 18 31 20 33 33 35
REMARK SMILES IDX 35 37 37 39 38 41 39 42 40 43 7 45 43 47 44 48 45 50 46 51
REMARK SMILES IDX 47 53 48 54 49 55 50 57 51 58 52 59 53 60 54 61 66 62 55 63
REMARK SMILES IDX 65 64 56 65 61 66 57 67 60 68 58 69 59 70 62 71 64 72 63 73
REMARK SMILES IDX 4 74 2 75 1 77 3 78
REMARK H PARENT 31 24 18 32 20 34 33 36 35 38 37 40 40 44 7 46 44 49 46 52
REMARK H PARENT 48 56 4 76
REMARK Flexibility Score: inf
ROOT
ATOM      1  C   UNL     1      22.222  28.014  17.519  1.00  0.00     0.272 C 
ATOM      2  C   UNL     1      21.931  27.295  18.804  1.00  0.00     0.113 C 
ATOM      3  C   UNL     1      23.230  27.123  19.548  1.00  0.00     0.145 C 
ATOM      4  C   UNL     1      23.639  28.535  19.933  1.00  0.00     0.142 C 
ATOM      5  C   UNL     1      23.938  29.229  18.631  1.00  0.00     0.178 C 
ATOM      6  O   UNL     1      23.481  28.656  17.504  1.00  0.00    -0.332 OA
ENDROOT
BRANCH   1   7
ATOM      7  O   UNL     1      21.351  28.893  17.092  1.00  0.00    -0.338 OA
BRANCH   7   8
ATOM      8  C   UNL     1      20.207  28.831  16.488  1.00  0.00     0.199 C 
BRANCH   8   9
ATOM      9  C   UNL     1      18.889  28.601  17.125  1.00  0.00     0.179 C 
ATOM     10  C   UNL     1      17.805  28.962  19.137  1.00  0.00     0.282 C 
ATOM     11  O   UNL     1      18.930  29.264  18.391  1.00  0.00    -0.341 OA
ATOM     12  C   UNL     1      16.678  28.337  18.406  1.00  0.00     0.202 C 
ATOM     13  C   UNL     1      16.482  28.776  16.988  1.00  0.00     0.179 C 
ATOM     14  C   UNL     1      17.747  29.358  16.406  1.00  0.00     0.177 C 
BRANCH  10  15
ATOM     15  O   UNL     1      17.360  30.116  19.782  1.00  0.00    -0.341 OA
BRANCH  15  16
ATOM     16  C   UNL     1      16.577  29.818  20.895  1.00  0.00     0.184 C 
ATOM     17  C   UNL     1      15.352  30.699  20.849  1.00  0.00     0.178 C 
ATOM     18  O   UNL     1      15.227  31.553  21.913  1.00  0.00    -0.341 OA
ATOM     19  C   UNL     1      15.300  30.982  23.159  1.00  0.00     0.281 C 
ATOM     20  C   UNL     1      17.401  30.265  22.111  1.00  0.00     0.180 C 
ATOM     21  C   UNL     1      16.533  30.106  23.318  1.00  0.00     0.202 C 
BRANCH  17  22
ATOM     22  C   UNL     1      14.137  29.807  20.670  1.00  0.00     0.191 C 
BRANCH  22  23
ATOM     23  O   UNL     1      13.714  29.919  19.347  1.00  0.00    -0.394 OA
ATOM     24  H   UNL     1      12.752  30.028  19.235  1.00  0.00     0.210 HD
ENDBRANCH  22  23
ENDBRANCH  17  22
BRANCH  19  25
ATOM     25  O   UNL     1      14.154  30.326  23.564  1.00  0.00    -0.350 OA
BRANCH  25  26
ATOM     26  C   UNL     1      13.277  31.244  24.122  1.00  0.00     0.169 C 
BRANCH  26  27
ATOM     27  C   UNL     1      12.195  30.500  24.889  1.00  0.00     0.119 C 
BRANCH  27  28
ATOM     28  N   UNL     1      11.492  29.573  23.994  1.00  0.00    -0.092 NA
ATOM     29  N   UNL     1      10.809  28.708  24.540  1.00  0.00     0.001 N 
ATOM     30  N   UNL     1      10.191  27.735  24.934  1.00  0.00    -0.003 NA
ENDBRANCH  27  28
ENDBRANCH  26  27
ENDBRANCH  25  26
ENDBRANCH  19  25
BRANCH  20  31
ATOM     31  O   UNL     1      18.566  29.536  22.167  1.00  0.00    -0.387 OA
ATOM     32  H   UNL     1      19.212  29.911  22.843  1.00  0.00     0.211 HD
ENDBRANCH  20  31
BRANCH  21  33
ATOM     33  O   UNL     1      17.220  30.377  24.503  1.00  0.00    -0.385 OA
ATOM     34  H   UNL     1      16.678  31.022  25.053  1.00  0.00     0.211 HD
ENDBRANCH  21  33
ENDBRANCH  15  16
ENDBRANCH  10  15
BRANCH  12  35
ATOM     35  O   UNL     1      16.684  26.939  18.531  1.00  0.00    -0.385 OA
ATOM     36  H   UNL     1      17.322  26.522  17.898  1.00  0.00     0.211 HD
ENDBRANCH  12  35
BRANCH  13  37
ATOM     37  O   UNL     1      15.485  29.760  16.877  1.00  0.00    -0.387 OA
ATOM     38  H   UNL     1      14.856  29.601  17.629  1.00  0.00     0.211 HD
ENDBRANCH  13  37
BRANCH  14  39
ATOM     39  O   UNL     1      17.855  30.725  16.683  1.00  0.00    -0.387 OA
ATOM     40  H   UNL     1      18.447  30.912  17.456  1.00  0.00     0.211 HD
ENDBRANCH  14  39
ENDBRANCH   8   9
ENDBRANCH   7   8
ENDBRANCH   1   7
BRANCH   1  41
ATOM     41  C   UNL     1      22.465  26.923  16.532  1.00  0.00     0.364 C 
ATOM     42  O   UNL     1      23.222  27.126  15.520  1.00  0.00    -0.246 OA
BRANCH  41  43
ATOM     43  O   UNL     1      21.937  25.658  16.585  1.00  0.00    -0.477 OA
ATOM     44  H   UNL     1      21.310  25.356  17.319  1.00  0.00     0.296 HD
ENDBRANCH  41  43
ENDBRANCH   1  41
BRANCH   3  45
ATOM     45  O   UNL     1      22.948  26.350  20.671  1.00  0.00    -0.391 OA
ATOM     46  H   UNL     1      23.771  25.933  21.040  1.00  0.00     0.211 HD
ENDBRANCH   3  45
BRANCH   5  47
ATOM     47  C   UNL     1      23.566  30.742  18.755  1.00  0.00     0.176 C 
BRANCH  47  48
ATOM     48  O   UNL     1      24.788  31.330  19.259  1.00  0.00    -0.388 OA
ATOM     49  H   UNL     1      24.441  32.152  19.724  1.00  0.00     0.211 HD
ENDBRANCH  47  48
BRANCH  47  50
ATOM     50  C   UNL     1      22.542  30.962  19.786  1.00  0.00     0.165 C 
BRANCH  50  51
ATOM     51  O   UNL     1      21.230  30.860  19.259  1.00  0.00    -0.388 OA
ATOM     52  H   UNL     1      20.909  31.729  18.936  1.00  0.00     0.211 HD
ENDBRANCH  50  51
BRANCH  50  53
ATOM     53  C   UNL     1      22.716  31.891  20.900  1.00  0.00     0.154 C 
BRANCH  53  54
ATOM     54  N   UNL     1      22.062  31.575  22.115  1.00  0.00    -0.319 N 
ATOM     55  C   UNL     1      20.720  31.825  22.482  1.00  0.00     0.407 C 
ATOM     56  H   UNL     1      22.626  31.078  22.881  1.00  0.00     0.167 HD
ATOM     57  O   UNL     1      19.979  32.418  21.665  1.00  0.00    -0.225 OA
BRANCH  55  58
ATOM     58  O   UNL     1      20.164  31.453  23.697  1.00  0.00    -0.443 OA
BRANCH  58  59
ATOM     59  C   UNL     1      20.983  31.103  24.783  1.00  0.00     0.294 C 
BRANCH  59  60
ATOM     60  C   UNL     1      20.824  29.624  25.003  1.00  0.00     0.121 A 
ATOM     61  C   UNL     1      21.660  28.795  25.713  1.00  0.00     0.144 A 
ATOM     62  N   UNL     1      19.850  28.822  24.552  1.00  0.00    -0.131 NA
ATOM     63  N   UNL     1      21.152  27.520  25.659  1.00  0.00    -0.220 N 
ATOM     64  N   UNL     1      20.050  27.584  24.943  1.00  0.00    -0.062 NA
BRANCH  63  65
ATOM     65  C   UNL     1      21.781  26.391  26.252  1.00  0.00     0.077 A 
ATOM     66  C   UNL     1      22.281  25.323  25.598  1.00  0.00     0.043 A 
ATOM     67  C   UNL     1      21.876  26.434  27.657  1.00  0.00     0.029 A 
ATOM     68  C   UNL     1      22.875  24.299  26.365  1.00  0.00     0.014 A 
ATOM     69  C   UNL     1      22.461  25.419  28.380  1.00  0.00     0.002 A 
ATOM     70  C   UNL     1      22.975  24.325  27.727  1.00  0.00     0.001 A 
BRANCH  66  71
ATOM     71  C   UNL     1      22.223  25.192  24.161  1.00  0.00     0.161 C 
ATOM     72  O   UNL     1      23.284  25.577  23.537  1.00  0.00    -0.294 OA
ATOM     73  C   UNL     1      21.133  24.684  23.325  1.00  0.00     0.093 C 
ENDBRANCH  66  71
ENDBRANCH  63  65
ENDBRANCH  59  60
ENDBRANCH  58  59
ENDBRANCH  55  58
ENDBRANCH  53  54
ENDBRANCH  50  53
ENDBRANCH  47  50
ENDBRANCH   5  47
BRANCH   4  74
ATOM     74  N   UNL     1      24.739  28.553  20.850  1.00  0.00    -0.348 N 
ATOM     75  C   UNL     1      24.591  28.707  22.251  1.00  0.00     0.217 C 
ATOM     76  H   UNL     1      25.702  28.444  20.437  1.00  0.00     0.163 HD
ATOM     77  C   UNL     1      25.817  28.710  23.123  1.00  0.00     0.114 C 
ATOM     78  O   UNL     1      23.435  28.833  22.704  1.00  0.00    -0.275 OA
ENDBRANCH   4  74
TORSDOF 31
