REMARK VINA RESULT:    -6.552      3.045      9.905
REMARK INTER + INTRA:         -21.258
REMARK INTER:                 -13.623
REMARK INTRA:                  -7.635
REMARK UNBOUND:                -4.749
REMARK SMILES CC(=O)N[C@@H]1[C@@H](O)C[C@](OC[C@H]2O[C@@H](O[C@H]3[C@H](O)[C@@H](O)[C@H](OCCN=[N+]=[N-])O[C@@H]3CO)[C@H](O)[C@@H](O)[C@H]2O)(C(=O)O)O[C@H]1C(O)[C@H](O)CNC(=O)OCc1cn(-c2ccccc2C(C)=O)nn1
REMARK SMILES IDX 9 1 8 2 6 3 5 4 42 5 41 6 10 7 11 8 12 9 14 10 13 11 32 12
REMARK SMILES IDX 34 13 36 14 15 15 16 16 29 17 28 18 21 19 17 20 19 21 30 22
REMARK SMILES IDX 31 23 22 25 23 26 24 27 25 28 26 29 27 30 18 31 20 33 33 35
REMARK SMILES IDX 35 37 37 39 38 41 39 42 40 43 7 45 43 47 44 48 45 50 46 51
REMARK SMILES IDX 47 53 48 54 49 55 50 57 51 58 52 59 53 60 54 61 66 62 55 63
REMARK SMILES IDX 65 64 56 65 61 66 57 67 60 68 58 69 59 70 62 71 64 72 63 73
REMARK SMILES IDX 4 74 2 75 1 77 3 78
REMARK H PARENT 31 24 18 32 20 34 33 36 35 38 37 40 40 44 7 46 44 49 46 52
REMARK H PARENT 48 56 4 76
REMARK Flexibility Score: inf
ROOT
ATOM      1  C   UNL     1      23.260  26.287  27.232  1.00  0.00     0.272 C 
ATOM      2  C   UNL     1      21.973  26.059  27.971  1.00  0.00     0.113 C 
ATOM      3  C   UNL     1      21.717  27.260  28.844  1.00  0.00     0.145 C 
ATOM      4  C   UNL     1      21.452  28.393  27.867  1.00  0.00     0.142 C 
ATOM      5  C   UNL     1      22.757  28.610  27.150  1.00  0.00     0.178 C 
ATOM      6  O   UNL     1      23.681  27.636  27.233  1.00  0.00    -0.332 OA
ENDROOT
BRANCH   1   7
ATOM      7  O   UNL     1      23.342  25.873  25.993  1.00  0.00    -0.338 OA
BRANCH   7   8
ATOM      8  C   UNL     1      22.895  24.849  25.337  1.00  0.00     0.199 C 
BRANCH   8   9
ATOM      9  C   UNL     1      22.859  24.697  23.863  1.00  0.00     0.179 C 
ATOM     10  C   UNL     1      22.005  25.758  21.992  1.00  0.00     0.282 C 
ATOM     11  O   UNL     1      22.241  25.880  23.350  1.00  0.00    -0.341 OA
ATOM     12  C   UNL     1      22.704  24.650  21.300  1.00  0.00     0.202 C 
ATOM     13  C   UNL     1      24.069  24.306  21.808  1.00  0.00     0.179 C 
ATOM     14  C   UNL     1      24.268  24.774  23.228  1.00  0.00     0.177 C 
BRANCH  10  15
ATOM     15  O   UNL     1      22.308  26.966  21.364  1.00  0.00    -0.341 OA
BRANCH  15  16
ATOM     16  C   UNL     1      21.792  27.021  20.071  1.00  0.00     0.184 C 
ATOM     17  C   UNL     1      22.895  27.484  19.151  1.00  0.00     0.178 C 
ATOM     18  O   UNL     1      22.640  28.668  18.509  1.00  0.00    -0.341 OA
ATOM     19  C   UNL     1      21.450  28.742  17.827  1.00  0.00     0.281 C 
ATOM     20  C   UNL     1      20.737  28.137  20.097  1.00  0.00     0.180 C 
ATOM     21  C   UNL     1      20.266  28.336  18.691  1.00  0.00     0.202 C 
BRANCH  17  22
ATOM     22  C   UNL     1      23.210  26.354  18.189  1.00  0.00     0.191 C 
BRANCH  22  23
ATOM     23  O   UNL     1      24.506  25.913  18.454  1.00  0.00    -0.394 OA
ATOM     24  H   UNL     1      24.740  25.064  18.036  1.00  0.00     0.210 HD
ENDBRANCH  22  23
ENDBRANCH  17  22
BRANCH  19  25
ATOM     25  O   UNL     1      21.439  28.090  16.610  1.00  0.00    -0.350 OA
BRANCH  25  26
ATOM     26  C   UNL     1      22.014  28.909  15.650  1.00  0.00     0.169 C 
BRANCH  26  27
ATOM     27  C   UNL     1      23.057  28.117  14.876  1.00  0.00     0.119 C 
BRANCH  27  28
ATOM     28  N   UNL     1      22.509  26.810  14.491  1.00  0.00    -0.092 NA
ATOM     29  N   UNL     1      23.228  25.837  14.712  1.00  0.00     0.001 N 
ATOM     30  N   UNL     1      23.869  24.801  14.763  1.00  0.00    -0.003 NA
ENDBRANCH  27  28
ENDBRANCH  26  27
ENDBRANCH  25  26
ENDBRANCH  19  25
BRANCH  20  31
ATOM     31  O   UNL     1      19.732  27.796  20.973  1.00  0.00    -0.387 OA
ATOM     32  H   UNL     1      20.004  27.041  21.581  1.00  0.00     0.211 HD
ENDBRANCH  20  31
BRANCH  21  33
ATOM     33  O   UNL     1      19.217  29.253  18.609  1.00  0.00    -0.385 OA
ATOM     34  H   UNL     1      19.483  30.095  19.090  1.00  0.00     0.211 HD
ENDBRANCH  21  33
ENDBRANCH  15  16
ENDBRANCH  10  15
BRANCH  12  35
ATOM     35  O   UNL     1      21.887  23.516  21.169  1.00  0.00    -0.385 OA
ATOM     36  H   UNL     1      22.330  22.811  20.633  1.00  0.00     0.211 HD
ENDBRANCH  12  35
BRANCH  13  37
ATOM     37  O   UNL     1      25.081  24.897  21.033  1.00  0.00    -0.387 OA
ATOM     38  H   UNL     1      25.682  25.363  21.673  1.00  0.00     0.211 HD
ENDBRANCH  13  37
BRANCH  14  39
ATOM     39  O   UNL     1      24.722  26.097  23.272  1.00  0.00    -0.387 OA
ATOM     40  H   UNL     1      25.075  26.407  22.399  1.00  0.00     0.211 HD
ENDBRANCH  14  39
ENDBRANCH   8   9
ENDBRANCH   7   8
ENDBRANCH   1   7
BRANCH   1  41
ATOM     41  C   UNL     1      24.302  25.680  28.109  1.00  0.00     0.364 C 
ATOM     42  O   UNL     1      25.541  25.793  27.810  1.00  0.00    -0.246 OA
BRANCH  41  43
ATOM     43  O   UNL     1      24.070  24.970  29.259  1.00  0.00    -0.477 OA
ATOM     44  H   UNL     1      23.494  24.140  29.285  1.00  0.00     0.296 HD
ENDBRANCH  41  43
ENDBRANCH   1  41
BRANCH   3  45
ATOM     45  O   UNL     1      20.587  26.967  29.604  1.00  0.00    -0.391 OA
ATOM     46  H   UNL     1      20.633  26.049  29.982  1.00  0.00     0.211 HD
ENDBRANCH   3  45
BRANCH   5  47
ATOM     47  C   UNL     1      22.472  29.073  25.684  1.00  0.00     0.176 C 
BRANCH  47  48
ATOM     48  O   UNL     1      21.581  28.044  25.194  1.00  0.00    -0.388 OA
ATOM     49  H   UNL     1      20.863  28.044  25.899  1.00  0.00     0.211 HD
ENDBRANCH  47  48
BRANCH  47  50
ATOM     50  C   UNL     1      23.684  29.006  24.854  1.00  0.00     0.165 C 
BRANCH  50  51
ATOM     51  O   UNL     1      24.836  29.419  25.567  1.00  0.00    -0.388 OA
ATOM     52  H   UNL     1      25.657  29.192  25.078  1.00  0.00     0.211 HD
ENDBRANCH  50  51
BRANCH  50  53
ATOM     53  C   UNL     1      23.684  29.277  23.418  1.00  0.00     0.154 C 
BRANCH  53  54
ATOM     54  N   UNL     1      22.484  29.775  22.854  1.00  0.00    -0.319 N 
ATOM     55  C   UNL     1      22.328  30.689  21.788  1.00  0.00     0.407 C 
ATOM     56  H   UNL     1      21.552  29.434  23.261  1.00  0.00     0.167 HD
ATOM     57  O   UNL     1      23.356  31.164  21.253  1.00  0.00    -0.225 OA
BRANCH  55  58
ATOM     58  O   UNL     1      21.099  31.101  21.290  1.00  0.00    -0.443 OA
BRANCH  58  59
ATOM     59  C   UNL     1      20.214  31.841  22.089  1.00  0.00     0.294 C 
BRANCH  59  60
ATOM     60  C   UNL     1      19.089  30.922  22.477  1.00  0.00     0.121 A 
ATOM     61  C   UNL     1      17.786  30.974  22.043  1.00  0.00     0.144 A 
ATOM     62  N   UNL     1      19.127  29.880  23.319  1.00  0.00    -0.131 NA
ATOM     63  N   UNL     1      17.088  29.957  22.646  1.00  0.00    -0.220 N 
ATOM     64  N   UNL     1      17.944  29.317  23.414  1.00  0.00    -0.062 NA
BRANCH  63  65
ATOM     65  C   UNL     1      15.697  29.731  22.460  1.00  0.00     0.077 A 
ATOM     66  C   UNL     1      15.121  29.144  21.391  1.00  0.00     0.043 A 
ATOM     67  C   UNL     1      14.877  30.169  23.519  1.00  0.00     0.029 A 
ATOM     68  C   UNL     1      13.717  29.003  21.393  1.00  0.00     0.014 A 
ATOM     69  C   UNL     1      13.508  30.018  23.493  1.00  0.00     0.002 A 
ATOM     70  C   UNL     1      12.909  29.422  22.411  1.00  0.00     0.001 A 
BRANCH  66  71
ATOM     71  C   UNL     1      15.882  28.669  20.260  1.00  0.00     0.161 C 
ATOM     72  O   UNL     1      16.636  27.649  20.501  1.00  0.00    -0.294 OA
ATOM     73  C   UNL     1      15.911  29.181  18.889  1.00  0.00     0.093 C 
ENDBRANCH  66  71
ENDBRANCH  63  65
ENDBRANCH  59  60
ENDBRANCH  58  59
ENDBRANCH  55  58
ENDBRANCH  53  54
ENDBRANCH  50  53
ENDBRANCH  47  50
ENDBRANCH   5  47
BRANCH   4  74
ATOM     74  N   UNL     1      20.960  29.570  28.517  1.00  0.00    -0.348 N 
ATOM     75  C   UNL     1      20.026  30.460  27.930  1.00  0.00     0.217 C 
ATOM     76  H   UNL     1      21.326  29.765  29.486  1.00  0.00     0.163 HD
ATOM     77  C   UNL     1      19.575  31.668  28.705  1.00  0.00     0.114 C 
ATOM     78  O   UNL     1      19.614  30.196  26.781  1.00  0.00    -0.275 OA
ENDBRANCH   4  74
TORSDOF 31
