REMARK VINA RESULT:    -5.870      9.655     16.243
REMARK INTER + INTRA:         -21.594
REMARK INTER:                 -14.499
REMARK INTRA:                  -7.095
REMARK UNBOUND:                -7.145
REMARK SMILES CC(=O)N[C@@H]1[C@@H](O)C[C@](OC[C@H]2O[C@@H](O[C@H]3[C@H](O)[C@@H](O)[C@H](OCCN=[N+]=[N-])O[C@@H]3CO)[C@H](O)[C@@H](O)[C@H]2O)(C(=O)O)O[C@H]1C(O)[C@H](O)CNC(=O)OCc1cn(-c2ccccc2Br)nn1
REMARK SMILES IDX 9 1 8 2 6 3 5 4 42 5 41 6 10 7 11 8 12 9 14 10 13 11 32 12
REMARK SMILES IDX 34 13 36 14 15 15 16 16 29 17 28 18 21 19 17 20 19 21 30 22
REMARK SMILES IDX 31 23 22 25 23 26 24 27 25 28 26 29 27 30 18 31 20 33 33 35
REMARK SMILES IDX 35 37 37 39 38 41 39 42 40 43 7 45 43 47 44 48 45 50 46 51
REMARK SMILES IDX 47 53 48 54 49 55 50 57 51 58 52 59 53 60 54 61 64 62 55 63
REMARK SMILES IDX 63 64 56 65 57 66 61 67 58 68 60 69 62 70 59 71 4 72 2 73
REMARK SMILES IDX 1 75 3 76
REMARK H PARENT 31 24 18 32 20 34 33 36 35 38 37 40 40 44 7 46 44 49 46 52
REMARK H PARENT 48 56 4 74
REMARK Flexibility Score: inf
ROOT
ATOM      1  C   UNL     1      14.073  31.885  19.005  1.00  0.00     0.272 C 
ATOM      2  C   UNL     1      12.937  31.392  18.190  1.00  0.00     0.113 C 
ATOM      3  C   UNL     1      13.374  30.953  16.830  1.00  0.00     0.145 C 
ATOM      4  C   UNL     1      14.609  30.127  16.783  1.00  0.00     0.142 C 
ATOM      5  C   UNL     1      15.356  30.152  18.070  1.00  0.00     0.178 C 
ATOM      6  O   UNL     1      15.298  31.286  18.807  1.00  0.00    -0.332 OA
ENDROOT
BRANCH   1   7
ATOM      7  O   UNL     1      13.889  31.834  20.375  1.00  0.00    -0.338 OA
BRANCH   7   8
ATOM      8  C   UNL     1      12.663  31.487  20.831  1.00  0.00     0.199 C 
BRANCH   8   9
ATOM      9  C   UNL     1      12.848  30.978  22.282  1.00  0.00     0.179 C 
ATOM     10  C   UNL     1      14.578  30.234  23.621  1.00  0.00     0.282 C 
ATOM     11  O   UNL     1      13.936  30.202  22.412  1.00  0.00    -0.341 OA
ATOM     12  C   UNL     1      13.625  30.310  24.793  1.00  0.00     0.202 C 
ATOM     13  C   UNL     1      12.701  31.503  24.660  1.00  0.00     0.179 C 
ATOM     14  C   UNL     1      12.756  32.081  23.259  1.00  0.00     0.177 C 
BRANCH  10  15
ATOM     15  O   UNL     1      15.572  31.199  23.683  1.00  0.00    -0.341 OA
BRANCH  15  16
ATOM     16  C   UNL     1      16.835  30.706  23.913  1.00  0.00     0.184 C 
ATOM     17  C   UNL     1      17.649  31.516  24.893  1.00  0.00     0.178 C 
ATOM     18  O   UNL     1      18.679  30.693  25.321  1.00  0.00    -0.341 OA
ATOM     19  C   UNL     1      19.491  30.219  24.341  1.00  0.00     0.281 C 
ATOM     20  C   UNL     1      17.667  30.709  22.636  1.00  0.00     0.180 C 
ATOM     21  C   UNL     1      19.069  30.377  22.940  1.00  0.00     0.202 C 
BRANCH  17  22
ATOM     22  C   UNL     1      16.887  32.015  26.075  1.00  0.00     0.191 C 
BRANCH  22  23
ATOM     23  O   UNL     1      15.980  32.986  25.655  1.00  0.00    -0.394 OA
ATOM     24  H   UNL     1      15.239  33.039  26.283  1.00  0.00     0.210 HD
ENDBRANCH  22  23
ENDBRANCH  17  22
BRANCH  19  25
ATOM     25  O   UNL     1      19.659  28.838  24.601  1.00  0.00    -0.350 OA
BRANCH  25  26
ATOM     26  C   UNL     1      20.948  28.408  24.458  1.00  0.00     0.169 C 
BRANCH  26  27
ATOM     27  C   UNL     1      21.743  28.320  25.723  1.00  0.00     0.119 C 
BRANCH  27  28
ATOM     28  N   UNL     1      20.848  27.828  26.759  1.00  0.00    -0.092 NA
ATOM     29  N   UNL     1      21.132  27.984  27.938  1.00  0.00     0.001 N 
ATOM     30  N   UNL     1      21.360  28.190  29.123  1.00  0.00    -0.003 NA
ENDBRANCH  27  28
ENDBRANCH  26  27
ENDBRANCH  25  26
ENDBRANCH  19  25
BRANCH  20  31
ATOM     31  O   UNL     1      17.161  29.825  21.697  1.00  0.00    -0.387 OA
ATOM     32  H   UNL     1      16.211  29.605  21.839  1.00  0.00     0.211 HD
ENDBRANCH  20  31
BRANCH  21  33
ATOM     33  O   UNL     1      19.855  31.371  22.283  1.00  0.00    -0.385 OA
ATOM     34  H   UNL     1      19.944  32.176  22.843  1.00  0.00     0.211 HD
ENDBRANCH  21  33
ENDBRANCH  15  16
ENDBRANCH  10  15
BRANCH  12  35
ATOM     35  O   UNL     1      12.924  29.115  24.963  1.00  0.00    -0.385 OA
ATOM     36  H   UNL     1      11.959  29.276  25.101  1.00  0.00     0.211 HD
ENDBRANCH  12  35
BRANCH  13  37
ATOM     37  O   UNL     1      12.949  32.436  25.647  1.00  0.00    -0.387 OA
ATOM     38  H   UNL     1      12.202  33.061  25.733  1.00  0.00     0.211 HD
ENDBRANCH  13  37
BRANCH  14  39
ATOM     39  O   UNL     1      13.812  32.976  23.212  1.00  0.00    -0.387 OA
ATOM     40  H   UNL     1      14.343  32.903  22.382  1.00  0.00     0.211 HD
ENDBRANCH  14  39
ENDBRANCH   8   9
ENDBRANCH   7   8
ENDBRANCH   1   7
BRANCH   1  41
ATOM     41  C   UNL     1      14.301  33.321  18.567  1.00  0.00     0.364 C 
ATOM     42  O   UNL     1      13.298  34.066  18.552  1.00  0.00    -0.246 OA
BRANCH  41  43
ATOM     43  O   UNL     1      15.517  33.815  18.200  1.00  0.00    -0.477 OA
ATOM     44  H   UNL     1      16.285  33.869  18.886  1.00  0.00     0.296 HD
ENDBRANCH  41  43
ENDBRANCH   1  41
BRANCH   3  45
ATOM     45  O   UNL     1      12.291  30.278  16.221  1.00  0.00    -0.391 OA
ATOM     46  H   UNL     1      11.454  30.647  16.615  1.00  0.00     0.211 HD
ENDBRANCH   3  45
BRANCH   5  47
ATOM     47  C   UNL     1      15.152  28.860  18.861  1.00  0.00     0.176 C 
BRANCH  47  48
ATOM     48  O   UNL     1      14.893  29.070  20.193  1.00  0.00    -0.388 OA
ATOM     49  H   UNL     1      15.281  28.343  20.763  1.00  0.00     0.211 HD
ENDBRANCH  47  48
BRANCH  47  50
ATOM     50  C   UNL     1      16.386  27.949  18.761  1.00  0.00     0.165 C 
BRANCH  50  51
ATOM     51  O   UNL     1      16.639  27.451  20.013  1.00  0.00    -0.388 OA
ATOM     52  H   UNL     1      16.618  28.082  20.753  1.00  0.00     0.211 HD
ENDBRANCH  50  51
BRANCH  50  53
ATOM     53  C   UNL     1      17.554  28.713  18.228  1.00  0.00     0.154 C 
BRANCH  53  54
ATOM     54  N   UNL     1      18.783  28.309  18.820  1.00  0.00    -0.319 N 
ATOM     55  C   UNL     1      19.743  29.121  19.459  1.00  0.00     0.407 C 
ATOM     56  H   UNL     1      19.028  27.268  18.789  1.00  0.00     0.167 HD
ATOM     57  O   UNL     1      19.568  30.338  19.571  1.00  0.00    -0.225 OA
BRANCH  55  58
ATOM     58  O   UNL     1      20.912  28.565  19.977  1.00  0.00    -0.443 OA
BRANCH  58  59
ATOM     59  C   UNL     1      21.665  27.556  19.348  1.00  0.00     0.294 C 
BRANCH  59  60
ATOM     60  C   UNL     1      21.950  26.429  20.295  1.00  0.00     0.121 A 
ATOM     61  C   UNL     1      22.301  26.593  21.635  1.00  0.00     0.144 A 
ATOM     62  N   UNL     1      21.944  25.124  20.076  1.00  0.00    -0.131 NA
ATOM     63  N   UNL     1      22.487  25.369  22.149  1.00  0.00    -0.219 N 
ATOM     64  N   UNL     1      22.270  24.486  21.206  1.00  0.00    -0.062 NA
BRANCH  63  65
ATOM     65  C   UNL     1      22.858  25.062  23.482  1.00  0.00     0.081 A 
ATOM     66  C   UNL     1      21.917  24.900  24.475  1.00  0.00     0.029 A 
ATOM     67  C   UNL     1      24.178  24.918  23.812  1.00  0.00     0.043 A 
ATOM     68  C   UNL     1      22.320  24.598  25.773  1.00  0.00     0.002 A 
ATOM     69  C   UNL     1      24.583  24.621  25.092  1.00  0.00     0.018 A 
ATOM     70  Br  UNL     1      25.511  25.140  22.469  1.00  0.00    -0.048 Br
ATOM     71  C   UNL     1      23.653  24.456  26.092  1.00  0.00     0.001 A 
ENDBRANCH  63  65
ENDBRANCH  59  60
ENDBRANCH  58  59
ENDBRANCH  55  58
ENDBRANCH  53  54
ENDBRANCH  50  53
ENDBRANCH  47  50
ENDBRANCH   5  47
BRANCH   4  72
ATOM     72  N   UNL     1      15.487  30.477  15.688  1.00  0.00    -0.348 N 
ATOM     73  C   UNL     1      15.925  29.505  14.756  1.00  0.00     0.217 C 
ATOM     74  H   UNL     1      15.809  31.457  15.570  1.00  0.00     0.163 HD
ATOM     75  C   UNL     1      16.830  29.953  13.656  1.00  0.00     0.114 C 
ATOM     76  O   UNL     1      15.581  28.310  14.832  1.00  0.00    -0.275 OA
ENDBRANCH   4  72
TORSDOF 30
