REMARK VINA RESULT:    -6.856      4.122      8.006
REMARK INTER + INTRA:         -23.712
REMARK INTER:                 -16.732
REMARK INTRA:                  -6.980
REMARK UNBOUND:                -5.634
REMARK SMILES CC(=O)N[C@@H]1[C@@H](O)C[C@](OC[C@H]2O[C@@H](O[C@H]3[C@H](O)[C@@H](O)[C@H](OCCN=[N+]=[N-])O[C@@H]3CO)[C@H](O)[C@@H](O)[C@H]2O)(C(=O)O)O[C@H]1C(O)[C@H](O)CNC(=O)OCc1cn(Cc2ccccc2OC(C)=O)nn1
REMARK SMILES IDX 43 1 42 2 9 3 8 4 41 5 6 6 5 7 10 8 11 9 12 10 14 11 13 12
REMARK SMILES IDX 32 13 34 14 36 15 15 16 16 17 29 18 28 19 21 20 17 21 19 22
REMARK SMILES IDX 30 23 31 24 22 26 23 27 24 28 25 29 26 30 27 31 18 32 20 34
REMARK SMILES IDX 33 36 35 38 37 40 38 42 39 43 40 44 7 46 4 48 2 49 1 51 3 52
REMARK SMILES IDX 44 53 45 55 46 56 47 58 48 59 49 60 50 62 51 63 52 64 53 65
REMARK SMILES IDX 54 66 68 67 55 68 67 69 56 70 57 71 62 72 58 73 61 74 59 75
REMARK SMILES IDX 60 76 63 77 64 78 66 79 65 80
REMARK H PARENT 31 25 18 33 20 35 33 37 35 39 37 41 40 45 7 47 4 50 44 54
REMARK H PARENT 46 57 48 61
REMARK Flexibility Score: inf
ROOT
ATOM      1  C   UNL     1      15.798  28.809  20.181  1.00  0.00     0.176 C 
ENDROOT
BRANCH   1   2
ATOM      2  C   UNL     1      16.532  29.880  20.972  1.00  0.00     0.178 C 
ATOM      3  C   UNL     1      18.641  30.365  21.839  1.00  0.00     0.272 C 
ATOM      4  C   UNL     1      17.766  31.345  22.613  1.00  0.00     0.113 C 
ATOM      5  O   UNL     1      17.800  29.407  21.225  1.00  0.00    -0.332 OA
ATOM      6  C   UNL     1      16.703  30.507  23.306  1.00  0.00     0.145 C 
ATOM      7  C   UNL     1      15.747  30.049  22.274  1.00  0.00     0.142 C 
BRANCH   3   8
ATOM      8  O   UNL     1      19.491  29.657  22.635  1.00  0.00    -0.338 OA
BRANCH   8   9
ATOM      9  C   UNL     1      20.829  29.842  22.493  1.00  0.00     0.199 C 
BRANCH   9  10
ATOM     10  C   UNL     1      21.511  28.474  22.664  1.00  0.00     0.179 C 
ATOM     11  C   UNL     1      21.507  26.618  24.021  1.00  0.00     0.282 C 
ATOM     12  O   UNL     1      20.840  27.856  23.724  1.00  0.00    -0.341 OA
ATOM     13  C   UNL     1      21.124  25.701  22.915  1.00  0.00     0.202 C 
ATOM     14  C   UNL     1      21.788  26.260  21.644  1.00  0.00     0.179 C 
ATOM     15  C   UNL     1      21.412  27.682  21.401  1.00  0.00     0.177 C 
BRANCH  11  16
ATOM     16  O   UNL     1      21.079  26.308  25.289  1.00  0.00    -0.341 OA
BRANCH  16  17
ATOM     17  C   UNL     1      22.146  26.320  26.206  1.00  0.00     0.184 C 
ATOM     18  C   UNL     1      22.655  24.973  26.560  1.00  0.00     0.178 C 
ATOM     19  O   UNL     1      22.853  24.806  27.934  1.00  0.00    -0.341 OA
ATOM     20  C   UNL     1      23.525  25.857  28.544  1.00  0.00     0.281 C 
ATOM     21  C   UNL     1      21.542  26.865  27.554  1.00  0.00     0.180 C 
ATOM     22  C   UNL     1      22.738  27.160  28.417  1.00  0.00     0.202 C 
BRANCH  18  23
ATOM     23  C   UNL     1      23.821  24.477  25.763  1.00  0.00     0.191 C 
BRANCH  23  24
ATOM     24  O   UNL     1      24.492  23.506  26.491  1.00  0.00    -0.394 OA
ATOM     25  H   UNL     1      25.090  22.993  25.908  1.00  0.00     0.210 HD
ENDBRANCH  23  24
ENDBRANCH  18  23
BRANCH  20  26
ATOM     26  O   UNL     1      24.741  26.056  27.993  1.00  0.00    -0.350 OA
BRANCH  26  27
ATOM     27  C   UNL     1      25.595  26.971  28.487  1.00  0.00     0.169 C 
BRANCH  27  28
ATOM     28  C   UNL     1      26.804  26.506  29.216  1.00  0.00     0.119 C 
BRANCH  28  29
ATOM     29  N   UNL     1      26.546  26.369  30.609  1.00  0.00    -0.092 NA
ATOM     30  N   UNL     1      27.082  25.533  31.302  1.00  0.00     0.001 N 
ATOM     31  N   UNL     1      27.873  24.833  31.942  1.00  0.00    -0.003 NA
ENDBRANCH  28  29
ENDBRANCH  27  28
ENDBRANCH  26  27
ENDBRANCH  20  26
BRANCH  21  32
ATOM     32  O   UNL     1      20.753  27.958  27.291  1.00  0.00    -0.387 OA
ATOM     33  H   UNL     1      19.795  27.667  27.159  1.00  0.00     0.211 HD
ENDBRANCH  21  32
BRANCH  22  34
ATOM     34  O   UNL     1      22.392  27.705  29.634  1.00  0.00    -0.385 OA
ATOM     35  H   UNL     1      21.400  27.822  29.633  1.00  0.00     0.211 HD
ENDBRANCH  22  34
ENDBRANCH  16  17
ENDBRANCH  11  16
BRANCH  13  36
ATOM     36  O   UNL     1      21.635  24.420  23.049  1.00  0.00    -0.385 OA
ATOM     37  H   UNL     1      20.962  23.708  23.018  1.00  0.00     0.211 HD
ENDBRANCH  13  36
BRANCH  14  38
ATOM     38  O   UNL     1      21.496  25.439  20.553  1.00  0.00    -0.387 OA
ATOM     39  H   UNL     1      21.783  24.517  20.814  1.00  0.00     0.211 HD
ENDBRANCH  14  38
BRANCH  15  40
ATOM     40  O   UNL     1      20.134  27.706  20.847  1.00  0.00    -0.387 OA
ATOM     41  H   UNL     1      19.953  26.955  20.251  1.00  0.00     0.211 HD
ENDBRANCH  15  40
ENDBRANCH   9  10
ENDBRANCH   8   9
ENDBRANCH   3   8
BRANCH   3  42
ATOM     42  C   UNL     1      19.305  31.161  20.784  1.00  0.00     0.364 C 
ATOM     43  O   UNL     1      19.494  32.371  20.888  1.00  0.00    -0.246 OA
BRANCH  42  44
ATOM     44  O   UNL     1      19.733  30.507  19.626  1.00  0.00    -0.477 OA
ATOM     45  H   UNL     1      19.806  29.480  19.584  1.00  0.00     0.296 HD
ENDBRANCH  42  44
ENDBRANCH   3  42
BRANCH   6  46
ATOM     46  O   UNL     1      17.373  29.388  23.809  1.00  0.00    -0.391 OA
ATOM     47  H   UNL     1      16.865  28.900  24.499  1.00  0.00     0.211 HD
ENDBRANCH   6  46
BRANCH   7  48
ATOM     48  N   UNL     1      14.591  30.815  22.060  1.00  0.00    -0.348 N 
ATOM     49  C   UNL     1      13.336  30.560  22.680  1.00  0.00     0.217 C 
ATOM     50  H   UNL     1      14.661  31.635  21.392  1.00  0.00     0.163 HD
ATOM     51  C   UNL     1      12.144  31.387  22.430  1.00  0.00     0.114 C 
ATOM     52  O   UNL     1      13.285  29.596  23.455  1.00  0.00    -0.275 OA
ENDBRANCH   7  48
ENDBRANCH   1   2
BRANCH   1  53
ATOM     53  O   UNL     1      14.743  28.389  20.970  1.00  0.00    -0.388 OA
ATOM     54  H   UNL     1      13.865  28.729  20.696  1.00  0.00     0.211 HD
ENDBRANCH   1  53
BRANCH   1  55
ATOM     55  C   UNL     1      15.428  29.229  18.798  1.00  0.00     0.165 C 
BRANCH  55  56
ATOM     56  O   UNL     1      14.152  28.725  18.527  1.00  0.00    -0.388 OA
ATOM     57  H   UNL     1      13.590  28.704  19.316  1.00  0.00     0.211 HD
ENDBRANCH  55  56
BRANCH  55  58
ATOM     58  C   UNL     1      16.422  28.778  17.755  1.00  0.00     0.154 C 
BRANCH  58  59
ATOM     59  N   UNL     1      17.685  28.370  18.276  1.00  0.00    -0.319 N 
ATOM     60  C   UNL     1      18.887  28.333  17.523  1.00  0.00     0.407 C 
ATOM     61  H   UNL     1      17.753  28.074  19.287  1.00  0.00     0.167 HD
ATOM     62  O   UNL     1      18.832  28.678  16.316  1.00  0.00    -0.225 OA
BRANCH  60  63
ATOM     63  O   UNL     1      20.099  27.940  18.038  1.00  0.00    -0.443 OA
BRANCH  63  64
ATOM     64  C   UNL     1      21.337  28.206  17.380  1.00  0.00     0.294 C 
BRANCH  64  65
ATOM     65  C   UNL     1      22.368  27.229  17.757  1.00  0.00     0.120 A 
ATOM     66  C   UNL     1      23.637  27.570  18.163  1.00  0.00     0.138 A 
ATOM     67  N   UNL     1      22.318  25.892  17.796  1.00  0.00    -0.132 NA
ATOM     68  N   UNL     1      24.318  26.455  18.434  1.00  0.00    -0.248 N 
ATOM     69  N   UNL     1      23.471  25.435  18.195  1.00  0.00    -0.067 NA
BRANCH  68  70
ATOM     70  C   UNL     1      25.686  26.278  18.882  1.00  0.00     0.185 C 
BRANCH  70  71
ATOM     71  C   UNL     1      25.757  25.496  20.121  1.00  0.00     0.016 A 
ATOM     72  C   UNL     1      26.263  24.243  20.155  1.00  0.00     0.135 A 
ATOM     73  C   UNL     1      25.286  26.113  21.284  1.00  0.00     0.009 A 
ATOM     74  C   UNL     1      26.311  23.568  21.375  1.00  0.00     0.047 A 
ATOM     75  C   UNL     1      25.338  25.440  22.477  1.00  0.00     0.001 A 
ATOM     76  C   UNL     1      25.850  24.164  22.533  1.00  0.00     0.004 A 
BRANCH  72  77
ATOM     77  O   UNL     1      26.737  23.593  19.034  1.00  0.00    -0.426 OA
BRANCH  77  78
ATOM     78  C   UNL     1      27.928  22.869  19.153  1.00  0.00     0.308 C 
ATOM     79  O   UNL     1      28.999  23.495  19.308  1.00  0.00    -0.252 OA
ATOM     80  C   UNL     1      27.903  21.405  19.095  1.00  0.00     0.139 C 
ENDBRANCH  77  78
ENDBRANCH  72  77
ENDBRANCH  70  71
ENDBRANCH  68  70
ENDBRANCH  64  65
ENDBRANCH  63  64
ENDBRANCH  60  63
ENDBRANCH  58  59
ENDBRANCH  55  58
ENDBRANCH   1  55
TORSDOF 33
