REMARK VINA RESULT:    -6.404      0.000      0.000
REMARK INTER + INTRA:         -25.335
REMARK INTER:                 -19.578
REMARK INTRA:                  -5.756
REMARK UNBOUND:                -8.074
REMARK SMILES CC(=O)N[C@@H]1[C@@H](O)C[C@](OC[C@H]2O[C@@H](O[C@H]3[C@H](O)[C@@H](O)[C@H](OCCN=[N+]=[N-])O[C@@H]3CO)[C@H](O)[C@@H](O)[C@H]2O)(C(=O)O)O[C@H]1C(O)[C@H](O)CNC(=O)OCc1cn(C[C@@H](C)CN2CCN(c3ccc(Cl)cc3)CC2)nn1
REMARK SMILES IDX 43 1 42 2 9 3 8 4 41 5 6 6 5 7 10 8 11 9 12 10 14 11 13 12
REMARK SMILES IDX 32 13 34 14 36 15 15 16 16 17 29 18 28 19 21 20 17 21 19 22
REMARK SMILES IDX 30 23 31 24 22 26 23 27 24 28 25 29 26 30 27 31 18 32 20 34
REMARK SMILES IDX 33 36 35 38 37 40 38 42 39 43 40 44 7 46 4 48 2 49 1 51 3 52
REMARK SMILES IDX 44 53 45 55 46 56 47 58 48 59 49 60 50 62 51 63 52 64 53 65
REMARK SMILES IDX 54 66 74 67 55 68 73 69 56 70 57 71 58 72 59 73 60 74 61 75
REMARK SMILES IDX 72 76 62 77 71 78 63 79 64 80 65 81 70 82 66 83 69 84 67 85
REMARK SMILES IDX 68 86
REMARK H PARENT 31 25 18 33 20 35 33 37 35 39 37 41 40 45 7 47 4 50 44 54
REMARK H PARENT 46 57 48 61
REMARK Flexibility Score: inf
ROOT
ATOM      1  C   UNL     1      32.613  19.858  28.510  1.00  0.00     0.176 C 
ENDROOT
BRANCH   1   2
ATOM      2  C   UNL     1      33.070  18.549  27.882  1.00  0.00     0.178 C 
ATOM      3  C   UNL     1      33.453  17.450  25.826  1.00  0.00     0.272 C 
ATOM      4  C   UNL     1      33.285  16.230  26.586  1.00  0.00     0.113 C 
ATOM      5  O   UNL     1      32.885  18.551  26.539  1.00  0.00    -0.332 OA
ATOM      6  C   UNL     1      32.159  16.304  27.600  1.00  0.00     0.145 C 
ATOM      7  C   UNL     1      32.567  17.363  28.633  1.00  0.00     0.142 C 
BRANCH   3   8
ATOM      8  O   UNL     1      32.962  17.583  24.597  1.00  0.00    -0.338 OA
BRANCH   8   9
ATOM      9  C   UNL     1      31.887  18.209  24.194  1.00  0.00     0.199 C 
BRANCH   9  10
ATOM     10  C   UNL     1      31.874  19.164  23.036  1.00  0.00     0.179 C 
ATOM     11  C   UNL     1      30.173  20.286  21.899  1.00  0.00     0.282 C 
ATOM     12  O   UNL     1      30.747  19.099  22.268  1.00  0.00    -0.341 OA
ATOM     13  C   UNL     1      29.678  21.004  23.140  1.00  0.00     0.202 C 
ATOM     14  C   UNL     1      30.844  21.231  24.047  1.00  0.00     0.179 C 
ATOM     15  C   UNL     1      32.102  20.581  23.581  1.00  0.00     0.177 C 
BRANCH  11  16
ATOM     16  O   UNL     1      29.035  19.946  21.128  1.00  0.00    -0.341 OA
BRANCH  16  17
ATOM     17  C   UNL     1      29.291  20.183  19.802  1.00  0.00     0.184 C 
ATOM     18  C   UNL     1      28.660  21.468  19.305  1.00  0.00     0.178 C 
ATOM     19  O   UNL     1      27.634  21.300  18.427  1.00  0.00    -0.341 OA
ATOM     20  C   UNL     1      27.905  20.545  17.300  1.00  0.00     0.281 C 
ATOM     21  C   UNL     1      28.880  19.006  18.924  1.00  0.00     0.180 C 
ATOM     22  C   UNL     1      28.954  19.485  17.493  1.00  0.00     0.202 C 
BRANCH  18  23
ATOM     23  C   UNL     1      29.703  22.469  18.832  1.00  0.00     0.191 C 
BRANCH  23  24
ATOM     24  O   UNL     1      30.209  23.221  19.863  1.00  0.00    -0.394 OA
ATOM     25  H   UNL     1      30.843  23.887  19.455  1.00  0.00     0.210 HD
ENDBRANCH  23  24
ENDBRANCH  18  23
BRANCH  20  26
ATOM     26  O   UNL     1      28.227  21.330  16.200  1.00  0.00    -0.350 OA
BRANCH  26  27
ATOM     27  C   UNL     1      27.170  21.858  15.516  1.00  0.00     0.169 C 
BRANCH  27  28
ATOM     28  C   UNL     1      26.406  20.807  14.762  1.00  0.00     0.119 C 
BRANCH  28  29
ATOM     29  N   UNL     1      24.997  21.164  14.740  1.00  0.00    -0.092 NA
ATOM     30  N   UNL     1      24.161  20.331  14.345  1.00  0.00     0.001 N 
ATOM     31  N   UNL     1      23.447  19.425  13.935  1.00  0.00    -0.003 NA
ENDBRANCH  28  29
ENDBRANCH  27  28
ENDBRANCH  26  27
ENDBRANCH  20  26
BRANCH  21  32
ATOM     32  O   UNL     1      29.780  17.951  19.061  1.00  0.00    -0.387 OA
ATOM     33  H   UNL     1      30.177  17.820  18.150  1.00  0.00     0.211 HD
ENDBRANCH  21  32
BRANCH  22  34
ATOM     34  O   UNL     1      28.626  18.395  16.650  1.00  0.00    -0.385 OA
ATOM     35  H   UNL     1      28.019  17.761  17.062  1.00  0.00     0.211 HD
ENDBRANCH  22  34
ENDBRANCH  16  17
ENDBRANCH  11  16
BRANCH  13  36
ATOM     36  O   UNL     1      29.053  22.173  22.740  1.00  0.00    -0.385 OA
ATOM     37  H   UNL     1      28.985  22.134  21.741  1.00  0.00     0.211 HD
ENDBRANCH  13  36
BRANCH  14  38
ATOM     38  O   UNL     1      30.574  20.895  25.380  1.00  0.00    -0.387 OA
ATOM     39  H   UNL     1      30.043  21.596  25.823  1.00  0.00     0.211 HD
ENDBRANCH  14  38
BRANCH  15  40
ATOM     40  O   UNL     1      33.033  20.521  24.589  1.00  0.00    -0.387 OA
ATOM     41  H   UNL     1      33.153  19.609  24.939  1.00  0.00     0.211 HD
ENDBRANCH  15  40
ENDBRANCH   9  10
ENDBRANCH   8   9
ENDBRANCH   3   8
BRANCH   3  42
ATOM     42  C   UNL     1      34.912  17.863  25.819  1.00  0.00     0.364 C 
ATOM     43  O   UNL     1      35.286  18.905  25.177  1.00  0.00    -0.246 OA
BRANCH  42  44
ATOM     44  O   UNL     1      35.910  17.180  26.467  1.00  0.00    -0.477 OA
ATOM     45  H   UNL     1      36.253  17.474  27.373  1.00  0.00     0.296 HD
ENDBRANCH  42  44
ENDBRANCH   3  42
BRANCH   6  46
ATOM     46  O   UNL     1      31.018  16.717  26.912  1.00  0.00    -0.391 OA
ATOM     47  H   UNL     1      30.361  15.985  26.825  1.00  0.00     0.211 HD
ENDBRANCH   6  46
BRANCH   7  48
ATOM     48  N   UNL     1      33.580  16.764  29.478  1.00  0.00    -0.348 N 
ATOM     49  C   UNL     1      33.556  16.981  30.880  1.00  0.00     0.217 C 
ATOM     50  H   UNL     1      34.358  16.161  29.094  1.00  0.00     0.163 HD
ATOM     51  C   UNL     1      34.627  16.341  31.723  1.00  0.00     0.114 C 
ATOM     52  O   UNL     1      32.679  17.684  31.456  1.00  0.00    -0.275 OA
ENDBRANCH   7  48
ENDBRANCH   1   2
BRANCH   1  53
ATOM     53  O   UNL     1      31.659  19.541  29.476  1.00  0.00    -0.388 OA
ATOM     54  H   UNL     1      32.075  19.132  30.270  1.00  0.00     0.211 HD
ENDBRANCH   1  53
BRANCH   1  55
ATOM     55  C   UNL     1      33.705  20.610  29.217  1.00  0.00     0.165 C 
BRANCH  55  56
ATOM     56  O   UNL     1      33.782  20.403  30.569  1.00  0.00    -0.388 OA
ATOM     57  H   UNL     1      33.647  19.474  30.821  1.00  0.00     0.211 HD
ENDBRANCH  55  56
BRANCH  55  58
ATOM     58  C   UNL     1      33.772  22.063  28.890  1.00  0.00     0.154 C 
BRANCH  58  59
ATOM     59  N   UNL     1      32.406  22.561  28.715  1.00  0.00    -0.319 N 
ATOM     60  C   UNL     1      32.091  23.928  28.892  1.00  0.00     0.407 C 
ATOM     61  H   UNL     1      31.656  21.889  28.455  1.00  0.00     0.167 HD
ATOM     62  O   UNL     1      33.020  24.711  29.211  1.00  0.00    -0.225 OA
BRANCH  60  63
ATOM     63  O   UNL     1      30.790  24.380  28.714  1.00  0.00    -0.443 OA
BRANCH  63  64
ATOM     64  C   UNL     1      30.497  25.728  29.079  1.00  0.00     0.294 C 
BRANCH  64  65
ATOM     65  C   UNL     1      29.284  25.832  29.921  1.00  0.00     0.120 A 
ATOM     66  C   UNL     1      28.426  26.904  30.017  1.00  0.00     0.138 A 
ATOM     67  N   UNL     1      28.783  24.898  30.763  1.00  0.00    -0.132 NA
ATOM     68  N   UNL     1      27.475  26.578  30.887  1.00  0.00    -0.252 N 
ATOM     69  N   UNL     1      27.695  25.363  31.337  1.00  0.00    -0.067 NA
BRANCH  68  70
ATOM     70  C   UNL     1      26.373  27.460  31.275  1.00  0.00     0.150 C 
BRANCH  70  71
ATOM     71  C   UNL     1      25.077  26.660  31.442  1.00  0.00     0.022 C 
ATOM     72  C   UNL     1      24.603  26.933  32.853  1.00  0.00     0.011 C 
BRANCH  71  73
ATOM     73  C   UNL     1      24.082  27.126  30.425  1.00  0.00     0.089 C 
BRANCH  73  74
ATOM     74  N   UNL     1      23.761  26.271  29.359  1.00  0.00    -0.299 NA
ATOM     75  C   UNL     1      24.745  25.511  28.712  1.00  0.00     0.106 C 
ATOM     76  C   UNL     1      22.635  26.671  28.578  1.00  0.00     0.106 C 
ATOM     77  C   UNL     1      24.723  25.691  27.194  1.00  0.00     0.132 C 
ATOM     78  C   UNL     1      22.268  25.557  27.614  1.00  0.00     0.132 C 
ATOM     79  N   UNL     1      23.373  25.418  26.702  1.00  0.00    -0.369 N 
BRANCH  79  80
ATOM     80  C   UNL     1      23.196  25.038  25.367  1.00  0.00     0.037 A 
ATOM     81  C   UNL     1      21.933  24.912  24.793  1.00  0.00     0.027 A 
ATOM     82  C   UNL     1      24.260  24.768  24.516  1.00  0.00     0.027 A 
ATOM     83  C   UNL     1      21.732  24.547  23.483  1.00  0.00     0.022 A 
ATOM     84  C   UNL     1      24.062  24.402  23.200  1.00  0.00     0.022 A 
ATOM     85  C   UNL     1      22.799  24.286  22.663  1.00  0.00     0.041 A 
ATOM     86  Cl  UNL     1      22.546  23.827  21.012  1.00  0.00    -0.084 Cl
ENDBRANCH  79  80
ENDBRANCH  73  74
ENDBRANCH  71  73
ENDBRANCH  70  71
ENDBRANCH  68  70
ENDBRANCH  64  65
ENDBRANCH  63  64
ENDBRANCH  60  63
ENDBRANCH  58  59
ENDBRANCH  55  58
ENDBRANCH   1  55
TORSDOF 34
