REMARK VINA RESULT:    -5.349      4.881     11.205
REMARK INTER + INTRA:         -22.093
REMARK INTER:                 -14.619
REMARK INTRA:                  -7.475
REMARK UNBOUND:                -8.458
REMARK SMILES CC(=O)N[C@@H]1[C@@H](O)C[C@](OC[C@H]2O[C@@H](O[C@H]3[C@H](O)[C@@H](O)[C@H](OCCN=[N+]=[N-])O[C@@H]3CO)[C@H](O)[C@@H](O)[C@H]2O)(C(=O)O)O[C@H]1C(O)[C@H](O)CNC(=O)OCc1cn(-c2ccc(O)c([N+](=O)[O-])c2)nn1
REMARK SMILES IDX 9 1 8 2 6 3 5 4 42 5 41 6 10 7 11 8 12 9 14 10 13 11 32 12
REMARK SMILES IDX 34 13 36 14 15 15 16 16 29 17 28 18 21 19 17 20 19 21 30 22
REMARK SMILES IDX 31 23 22 25 23 26 24 27 25 28 26 29 27 30 18 31 20 33 33 35
REMARK SMILES IDX 35 37 37 39 38 41 39 42 40 43 7 45 43 47 44 48 45 50 46 51
REMARK SMILES IDX 47 53 48 54 49 55 50 57 51 58 52 59 53 60 54 61 67 62 55 63
REMARK SMILES IDX 66 64 56 65 57 66 65 67 58 68 61 69 59 70 62 71 63 72 64 73
REMARK SMILES IDX 60 74 4 76 2 77 1 79 3 80
REMARK H PARENT 31 24 18 32 20 34 33 36 35 38 37 40 40 44 7 46 44 49 46 52
REMARK H PARENT 48 56 60 75 4 78
REMARK Flexibility Score: inf
ROOT
ATOM      1  C   UNL     1      18.504  30.607  21.462  1.00  0.00     0.272 C 
ATOM      2  C   UNL     1      17.452  31.426  22.234  1.00  0.00     0.113 C 
ATOM      3  C   UNL     1      16.476  30.466  22.906  1.00  0.00     0.145 C 
ATOM      4  C   UNL     1      15.703  29.827  21.723  1.00  0.00     0.142 C 
ATOM      5  C   UNL     1      16.660  29.516  20.607  1.00  0.00     0.178 C 
ATOM      6  O   UNL     1      17.974  29.389  21.096  1.00  0.00    -0.332 OA
ENDROOT
BRANCH   1   7
ATOM      7  O   UNL     1      19.525  30.406  22.372  1.00  0.00    -0.338 OA
BRANCH   7   8
ATOM      8  C   UNL     1      20.785  30.726  21.965  1.00  0.00     0.199 C 
BRANCH   8   9
ATOM      9  C   UNL     1      21.661  29.502  22.326  1.00  0.00     0.179 C 
ATOM     10  C   UNL     1      21.326  27.449  23.230  1.00  0.00     0.282 C 
ATOM     11  O   UNL     1      20.914  28.783  23.210  1.00  0.00    -0.341 OA
ATOM     12  C   UNL     1      20.856  26.830  21.960  1.00  0.00     0.202 C 
ATOM     13  C   UNL     1      21.557  27.489  20.801  1.00  0.00     0.179 C 
ATOM     14  C   UNL     1      22.093  28.844  21.076  1.00  0.00     0.177 C 
BRANCH  10  15
ATOM     15  O   UNL     1      20.837  26.823  24.385  1.00  0.00    -0.341 OA
BRANCH  15  16
ATOM     16  C   UNL     1      21.800  26.911  25.372  1.00  0.00     0.184 C 
ATOM     17  C   UNL     1      22.324  25.611  25.875  1.00  0.00     0.178 C 
ATOM     18  O   UNL     1      23.466  25.883  26.618  1.00  0.00    -0.341 OA
ATOM     19  C   UNL     1      23.113  26.517  27.847  1.00  0.00     0.281 C 
ATOM     20  C   UNL     1      21.190  27.604  26.619  1.00  0.00     0.180 C 
ATOM     21  C   UNL     1      22.347  27.763  27.602  1.00  0.00     0.202 C 
BRANCH  17  22
ATOM     22  C   UNL     1      22.633  24.585  24.836  1.00  0.00     0.191 C 
BRANCH  22  23
ATOM     23  O   UNL     1      23.447  25.105  23.845  1.00  0.00    -0.394 OA
ATOM     24  H   UNL     1      24.324  24.607  23.884  1.00  0.00     0.210 HD
ENDBRANCH  22  23
ENDBRANCH  17  22
BRANCH  19  25
ATOM     25  O   UNL     1      24.345  26.807  28.420  1.00  0.00    -0.350 OA
BRANCH  25  26
ATOM     26  C   UNL     1      25.046  25.689  28.830  1.00  0.00     0.169 C 
BRANCH  26  27
ATOM     27  C   UNL     1      25.402  25.754  30.282  1.00  0.00     0.119 C 
BRANCH  27  28
ATOM     28  N   UNL     1      26.851  25.609  30.405  1.00  0.00    -0.092 NA
ATOM     29  N   UNL     1      27.352  25.421  31.535  1.00  0.00     0.001 N 
ATOM     30  N   UNL     1      27.957  24.822  32.443  1.00  0.00    -0.003 NA
ENDBRANCH  27  28
ENDBRANCH  26  27
ENDBRANCH  25  26
ENDBRANCH  19  25
BRANCH  20  31
ATOM     31  O   UNL     1      20.737  28.875  26.304  1.00  0.00    -0.387 OA
ATOM     32  H   UNL     1      21.260  29.290  25.564  1.00  0.00     0.211 HD
ENDBRANCH  20  31
BRANCH  21  33
ATOM     33  O   UNL     1      21.755  28.205  28.783  1.00  0.00    -0.385 OA
ATOM     34  H   UNL     1      22.420  28.386  29.475  1.00  0.00     0.211 HD
ENDBRANCH  21  33
ENDBRANCH  15  16
ENDBRANCH  10  15
BRANCH  12  35
ATOM     35  O   UNL     1      21.049  25.453  21.911  1.00  0.00    -0.385 OA
ATOM     36  H   UNL     1      20.735  25.015  22.753  1.00  0.00     0.211 HD
ENDBRANCH  12  35
BRANCH  13  37
ATOM     37  O   UNL     1      20.684  27.423  19.708  1.00  0.00    -0.387 OA
ATOM     38  H   UNL     1      20.696  28.320  19.278  1.00  0.00     0.211 HD
ENDBRANCH  13  37
BRANCH  14  39
ATOM     39  O   UNL     1      21.857  29.647  19.939  1.00  0.00    -0.387 OA
ATOM     40  H   UNL     1      22.460  30.418  19.892  1.00  0.00     0.211 HD
ENDBRANCH  14  39
ENDBRANCH   8   9
ENDBRANCH   7   8
ENDBRANCH   1   7
BRANCH   1  41
ATOM     41  C   UNL     1      18.965  31.472  20.382  1.00  0.00     0.364 C 
ATOM     42  O   UNL     1      19.006  32.731  20.406  1.00  0.00    -0.246 OA
BRANCH  41  43
ATOM     43  O   UNL     1      19.414  30.895  19.192  1.00  0.00    -0.477 OA
ATOM     44  H   UNL     1      20.251  31.206  18.713  1.00  0.00     0.296 HD
ENDBRANCH  41  43
ENDBRANCH   1  41
BRANCH   3  45
ATOM     45  O   UNL     1      17.129  29.503  23.628  1.00  0.00    -0.391 OA
ATOM     46  H   UNL     1      16.486  28.805  23.899  1.00  0.00     0.211 HD
ENDBRANCH   3  45
BRANCH   5  47
ATOM     47  C   UNL     1      16.306  28.179  20.002  1.00  0.00     0.176 C 
BRANCH  47  48
ATOM     48  O   UNL     1      14.925  28.059  20.001  1.00  0.00    -0.388 OA
ATOM     49  H   UNL     1      14.531  28.196  19.104  1.00  0.00     0.211 HD
ENDBRANCH  47  48
BRANCH  47  50
ATOM     50  C   UNL     1      16.819  27.980  18.598  1.00  0.00     0.165 C 
BRANCH  50  51
ATOM     51  O   UNL     1      18.233  28.011  18.732  1.00  0.00    -0.388 OA
ATOM     52  H   UNL     1      18.511  27.727  19.647  1.00  0.00     0.211 HD
ENDBRANCH  50  51
BRANCH  50  53
ATOM     53  C   UNL     1      16.464  29.133  17.704  1.00  0.00     0.154 C 
BRANCH  53  54
ATOM     54  N   UNL     1      17.627  29.587  16.989  1.00  0.00    -0.319 N 
ATOM     55  C   UNL     1      17.879  29.391  15.615  1.00  0.00     0.407 C 
ATOM     56  H   UNL     1      18.381  30.121  17.520  1.00  0.00     0.167 HD
ATOM     57  O   UNL     1      17.033  28.769  14.959  1.00  0.00    -0.225 OA
BRANCH  55  58
ATOM     58  O   UNL     1      18.996  29.842  14.952  1.00  0.00    -0.443 OA
BRANCH  58  59
ATOM     59  C   UNL     1      20.168  30.177  15.651  1.00  0.00     0.294 C 
BRANCH  59  60
ATOM     60  C   UNL     1      21.131  29.045  15.506  1.00  0.00     0.121 A 
ATOM     61  C   UNL     1      21.799  28.399  16.551  1.00  0.00     0.144 A 
ATOM     62  N   UNL     1      21.576  28.412  14.413  1.00  0.00    -0.131 NA
ATOM     63  N   UNL     1      22.577  27.451  16.043  1.00  0.00    -0.220 N 
ATOM     64  N   UNL     1      22.413  27.489  14.729  1.00  0.00    -0.062 NA
BRANCH  63  65
ATOM     65  C   UNL     1      23.437  26.560  16.774  1.00  0.00     0.073 A 
ATOM     66  C   UNL     1      24.679  26.248  16.313  1.00  0.00     0.033 A 
ATOM     67  C   UNL     1      23.044  25.995  17.957  1.00  0.00     0.118 A 
ATOM     68  C   UNL     1      25.538  25.404  16.977  1.00  0.00     0.056 A 
ATOM     69  C   UNL     1      23.902  25.126  18.660  1.00  0.00     0.312 A 
ATOM     70  C   UNL     1      25.153  24.811  18.200  1.00  0.00     0.194 A 
BRANCH  69  71
ATOM     71  N   UNL     1      23.421  24.594  19.869  1.00  0.00     0.066 N 
ATOM     72  O   UNL     1      24.067  24.875  20.926  1.00  0.00    -0.258 OA
ATOM     73  O   UNL     1      22.315  23.809  19.921  1.00  0.00    -0.258 OA
ENDBRANCH  69  71
BRANCH  70  74
ATOM     74  O   UNL     1      26.058  23.973  18.829  1.00  0.00    -0.502 OA
ATOM     75  H   UNL     1      25.911  23.588  19.706  1.00  0.00     0.293 HD
ENDBRANCH  70  74
ENDBRANCH  63  65
ENDBRANCH  59  60
ENDBRANCH  58  59
ENDBRANCH  55  58
ENDBRANCH  53  54
ENDBRANCH  50  53
ENDBRANCH  47  50
ENDBRANCH   5  47
BRANCH   4  76
ATOM     76  N   UNL     1      14.727  30.834  21.356  1.00  0.00    -0.348 N 
ATOM     77  C   UNL     1      13.320  30.565  21.419  1.00  0.00     0.217 C 
ATOM     78  H   UNL     1      15.021  31.775  21.038  1.00  0.00     0.163 HD
ATOM     79  C   UNL     1      12.341  31.610  21.038  1.00  0.00     0.114 C 
ATOM     80  O   UNL     1      12.942  29.419  21.807  1.00  0.00    -0.275 OA
ENDBRANCH   4  76
TORSDOF 32
