REMARK VINA RESULT:    -6.174      2.198      3.484
REMARK INTER + INTRA:         -21.241
REMARK INTER:                 -13.856
REMARK INTRA:                  -7.385
REMARK UNBOUND:                -6.043
REMARK SMILES CC(=O)N[C@@H]1[C@@H](O)C[C@](OC[C@H]2O[C@@H](O[C@H]3[C@H](O)[C@@H](O)[C@H](OCCN=[N+]=[N-])O[C@@H]3CO)[C@H](O)[C@@H](O)[C@H]2O)(C(=O)O)O[C@H]1C(O)[C@H](O)CNC(=O)OCc1cn(-c2ccccc2I)nn1
REMARK SMILES IDX 9 1 8 2 6 3 5 4 42 5 41 6 10 7 11 8 12 9 14 10 13 11 32 12
REMARK SMILES IDX 34 13 36 14 15 15 16 16 29 17 28 18 21 19 17 20 19 21 30 22
REMARK SMILES IDX 31 23 22 25 23 26 24 27 25 28 26 29 27 30 18 31 20 33 33 35
REMARK SMILES IDX 35 37 37 39 38 41 39 42 40 43 7 45 43 47 44 48 45 50 46 51
REMARK SMILES IDX 47 53 48 54 49 55 50 57 51 58 52 59 53 60 54 61 64 62 55 63
REMARK SMILES IDX 63 64 56 65 57 66 61 67 58 68 60 69 62 70 59 71 4 72 2 73
REMARK SMILES IDX 1 75 3 76
REMARK H PARENT 31 24 18 32 20 34 33 36 35 38 37 40 40 44 7 46 44 49 46 52
REMARK H PARENT 48 56 4 74
REMARK Flexibility Score: inf
ROOT
ATOM      1  C   UNL     1      15.571  30.907  20.537  1.00  0.00     0.272 C 
ATOM      2  C   UNL     1      14.454  30.095  19.944  1.00  0.00     0.113 C 
ATOM      3  C   UNL     1      14.923  28.672  19.595  1.00  0.00     0.145 C 
ATOM      4  C   UNL     1      15.992  28.871  18.481  1.00  0.00     0.142 C 
ATOM      5  C   UNL     1      16.993  29.885  18.959  1.00  0.00     0.178 C 
ATOM      6  O   UNL     1      16.752  30.120  20.318  1.00  0.00    -0.332 OA
ENDROOT
BRANCH   1   7
ATOM      7  O   UNL     1      15.579  31.098  21.882  1.00  0.00    -0.338 OA
BRANCH   7   8
ATOM      8  C   UNL     1      14.682  31.671  22.628  1.00  0.00     0.199 C 
BRANCH   8   9
ATOM      9  C   UNL     1      14.397  31.207  24.001  1.00  0.00     0.179 C 
ATOM     10  C   UNL     1      16.327  30.944  25.194  1.00  0.00     0.282 C 
ATOM     11  O   UNL     1      15.261  30.341  24.583  1.00  0.00    -0.341 OA
ATOM     12  C   UNL     1      15.908  31.565  26.520  1.00  0.00     0.202 C 
ATOM     13  C   UNL     1      14.432  32.008  26.387  1.00  0.00     0.179 C 
ATOM     14  C   UNL     1      14.211  32.432  24.948  1.00  0.00     0.177 C 
BRANCH  10  15
ATOM     15  O   UNL     1      17.179  31.680  24.434  1.00  0.00    -0.341 OA
BRANCH  15  16
ATOM     16  C   UNL     1      18.504  31.314  24.482  1.00  0.00     0.184 C 
ATOM     17  C   UNL     1      19.498  32.445  24.453  1.00  0.00     0.178 C 
ATOM     18  O   UNL     1      20.726  31.998  23.973  1.00  0.00    -0.341 OA
ATOM     19  C   UNL     1      20.973  30.644  24.231  1.00  0.00     0.281 C 
ATOM     20  C   UNL     1      18.789  30.563  23.162  1.00  0.00     0.180 C 
ATOM     21  C   UNL     1      20.044  29.750  23.452  1.00  0.00     0.202 C 
BRANCH  17  22
ATOM     22  C   UNL     1      19.623  33.212  25.729  1.00  0.00     0.191 C 
BRANCH  22  23
ATOM     23  O   UNL     1      19.223  32.354  26.761  1.00  0.00    -0.394 OA
ATOM     24  H   UNL     1      18.886  32.917  27.510  1.00  0.00     0.210 HD
ENDBRANCH  22  23
ENDBRANCH  17  22
BRANCH  19  25
ATOM     25  O   UNL     1      21.040  30.361  25.561  1.00  0.00    -0.350 OA
BRANCH  25  26
ATOM     26  C   UNL     1      21.004  29.027  25.823  1.00  0.00     0.169 C 
BRANCH  26  27
ATOM     27  C   UNL     1      22.221  28.420  26.446  1.00  0.00     0.119 C 
BRANCH  27  28
ATOM     28  N   UNL     1      23.411  28.407  25.642  1.00  0.00    -0.092 NA
ATOM     29  N   UNL     1      23.254  28.239  24.419  1.00  0.00     0.001 N 
ATOM     30  N   UNL     1      23.338  28.015  23.211  1.00  0.00    -0.003 NA
ENDBRANCH  27  28
ENDBRANCH  26  27
ENDBRANCH  25  26
ENDBRANCH  19  25
BRANCH  20  31
ATOM     31  O   UNL     1      17.725  29.749  22.823  1.00  0.00    -0.387 OA
ATOM     32  H   UNL     1      17.422  29.308  23.660  1.00  0.00     0.211 HD
ENDBRANCH  20  31
BRANCH  21  33
ATOM     33  O   UNL     1      20.607  29.262  22.275  1.00  0.00    -0.385 OA
ATOM     34  H   UNL     1      20.376  28.279  22.206  1.00  0.00     0.211 HD
ENDBRANCH  21  33
ENDBRANCH  15  16
ENDBRANCH  10  15
BRANCH  12  35
ATOM     35  O   UNL     1      15.927  30.659  27.571  1.00  0.00    -0.385 OA
ATOM     36  H   UNL     1      16.229  31.160  28.374  1.00  0.00     0.211 HD
ENDBRANCH  12  35
BRANCH  13  37
ATOM     37  O   UNL     1      14.069  32.975  27.269  1.00  0.00    -0.387 OA
ATOM     38  H   UNL     1      13.582  32.657  28.089  1.00  0.00     0.211 HD
ENDBRANCH  13  37
BRANCH  14  39
ATOM     39  O   UNL     1      15.195  33.338  24.590  1.00  0.00    -0.387 OA
ATOM     40  H   UNL     1      16.101  32.907  24.688  1.00  0.00     0.211 HD
ENDBRANCH  14  39
ENDBRANCH   8   9
ENDBRANCH   7   8
ENDBRANCH   1   7
BRANCH   1  41
ATOM     41  C   UNL     1      15.732  32.167  19.789  1.00  0.00     0.364 C 
ATOM     42  O   UNL     1      14.979  32.560  18.881  1.00  0.00    -0.246 OA
BRANCH  41  43
ATOM     43  O   UNL     1      16.805  33.039  20.077  1.00  0.00    -0.477 OA
ATOM     44  H   UNL     1      17.220  33.023  21.020  1.00  0.00     0.296 HD
ENDBRANCH  41  43
ENDBRANCH   1  41
BRANCH   3  45
ATOM     45  O   UNL     1      15.465  28.017  20.679  1.00  0.00    -0.391 OA
ATOM     46  H   UNL     1      16.444  28.142  20.703  1.00  0.00     0.211 HD
ENDBRANCH   3  45
BRANCH   5  47
ATOM     47  C   UNL     1      18.406  29.242  18.971  1.00  0.00     0.176 C 
BRANCH  47  48
ATOM     48  O   UNL     1      18.466  28.499  20.213  1.00  0.00    -0.388 OA
ATOM     49  H   UNL     1      18.397  29.200  20.930  1.00  0.00     0.211 HD
ENDBRANCH  47  48
BRANCH  47  50
ATOM     50  C   UNL     1      19.484  30.265  19.168  1.00  0.00     0.165 C 
BRANCH  50  51
ATOM     51  O   UNL     1      18.977  31.542  18.810  1.00  0.00    -0.388 OA
ATOM     52  H   UNL     1      18.316  31.859  19.476  1.00  0.00     0.211 HD
ENDBRANCH  50  51
BRANCH  50  53
ATOM     53  C   UNL     1      20.774  30.074  18.495  1.00  0.00     0.154 C 
BRANCH  53  54
ATOM     54  N   UNL     1      21.267  28.710  18.450  1.00  0.00    -0.319 N 
ATOM     55  C   UNL     1      21.387  28.061  17.185  1.00  0.00     0.407 C 
ATOM     56  H   UNL     1      21.543  28.162  19.289  1.00  0.00     0.167 HD
ATOM     57  O   UNL     1      21.050  28.692  16.130  1.00  0.00    -0.225 OA
BRANCH  55  58
ATOM     58  O   UNL     1      21.850  26.774  16.998  1.00  0.00    -0.443 OA
BRANCH  58  59
ATOM     59  C   UNL     1      23.101  26.360  17.526  1.00  0.00     0.294 C 
BRANCH  59  60
ATOM     60  C   UNL     1      22.832  25.532  18.756  1.00  0.00     0.121 A 
ATOM     61  C   UNL     1      22.787  25.945  20.067  1.00  0.00     0.144 A 
ATOM     62  N   UNL     1      22.588  24.210  18.769  1.00  0.00    -0.131 NA
ATOM     63  N   UNL     1      22.519  24.842  20.791  1.00  0.00    -0.219 N 
ATOM     64  N   UNL     1      22.399  23.794  19.999  1.00  0.00    -0.062 NA
BRANCH  63  65
ATOM     65  C   UNL     1      22.385  24.767  22.206  1.00  0.00     0.080 A 
ATOM     66  C   UNL     1      21.138  24.875  22.809  1.00  0.00     0.029 A 
ATOM     67  C   UNL     1      23.485  24.595  23.014  1.00  0.00     0.039 A 
ATOM     68  C   UNL     1      21.056  24.803  24.205  1.00  0.00     0.002 A 
ATOM     69  C   UNL     1      23.383  24.526  24.409  1.00  0.00     0.017 A 
ATOM     70  I   UNL     1      25.397  24.431  22.125  1.00  0.00    -0.042 I 
ATOM     71  C   UNL     1      22.155  24.630  25.011  1.00  0.00     0.001 A 
ENDBRANCH  63  65
ENDBRANCH  59  60
ENDBRANCH  58  59
ENDBRANCH  55  58
ENDBRANCH  53  54
ENDBRANCH  50  53
ENDBRANCH  47  50
ENDBRANCH   5  47
BRANCH   4  72
ATOM     72  N   UNL     1      15.264  29.208  17.312  1.00  0.00    -0.348 N 
ATOM     73  C   UNL     1      15.830  29.126  15.990  1.00  0.00     0.217 C 
ATOM     74  H   UNL     1      14.281  29.531  17.332  1.00  0.00     0.163 HD
ATOM     75  C   UNL     1      15.082  29.474  14.767  1.00  0.00     0.114 C 
ATOM     76  O   UNL     1      17.026  28.736  15.922  1.00  0.00    -0.275 OA
ENDBRANCH   4  72
TORSDOF 30
