REMARK VINA RESULT:    -5.138      2.601      5.643
REMARK INTER + INTRA:         -22.266
REMARK INTER:                 -12.938
REMARK INTRA:                  -9.327
REMARK UNBOUND:                -8.417
REMARK SMILES CC(=O)N[C@@H]1[C@@H](O)C[C@](OC[C@H]2O[C@@H](O[C@H]3[C@H](O)[C@@H](O)[C@H](OCCN=[N+]=[N-])O[C@@H]3CO)[C@H](O)[C@@H](O)[C@H]2O)(C(=O)O)O[C@H]1C(O)[C@H](O)CNC(=O)OCc1cn(CCNC(=O)NCc2ccco2)nn1
REMARK SMILES IDX 43 1 42 2 9 3 8 4 41 5 6 6 5 7 10 8 11 9 12 10 14 11 13 12
REMARK SMILES IDX 32 13 34 14 36 15 15 16 16 17 29 18 28 19 21 20 17 21 19 22
REMARK SMILES IDX 30 23 31 24 22 26 23 27 24 28 25 29 26 30 27 31 18 32 20 34
REMARK SMILES IDX 33 36 35 38 37 40 38 42 39 43 40 44 7 46 4 48 2 49 1 51 3 52
REMARK SMILES IDX 44 53 45 55 46 56 47 58 48 59 49 60 50 62 51 63 52 64 53 65
REMARK SMILES IDX 54 66 69 67 55 68 68 69 56 70 57 71 58 72 59 73 60 75 61 76
REMARK SMILES IDX 62 78 63 79 64 80 67 81 65 82 66 83
REMARK H PARENT 31 25 18 33 20 35 33 37 35 39 37 41 40 45 7 47 4 50 44 54
REMARK H PARENT 46 57 48 61 58 74 61 77
REMARK Flexibility Score: inf
ROOT
ATOM      1  C   UNL     1      18.575  30.231  23.457  1.00  0.00     0.176 C 
ENDROOT
BRANCH   1   2
ATOM      2  C   UNL     1      17.175  30.148  23.974  1.00  0.00     0.178 C 
ATOM      3  C   UNL     1      15.802  29.378  22.192  1.00  0.00     0.272 C 
ATOM      4  C   UNL     1      15.906  30.877  21.762  1.00  0.00     0.113 C 
ATOM      5  O   UNL     1      16.417  29.188  23.377  1.00  0.00    -0.332 OA
ATOM      6  C   UNL     1      15.737  31.810  22.893  1.00  0.00     0.145 C 
ATOM      7  C   UNL     1      16.471  31.443  24.160  1.00  0.00     0.142 C 
BRANCH   3   8
ATOM      8  O   UNL     1      16.518  28.717  21.218  1.00  0.00    -0.338 OA
BRANCH   8   9
ATOM      9  C   UNL     1      17.281  29.381  20.354  1.00  0.00     0.199 C 
BRANCH   9  10
ATOM     10  C   UNL     1      18.664  29.113  20.012  1.00  0.00     0.179 C 
ATOM     11  C   UNL     1      20.622  27.980  20.392  1.00  0.00     0.282 C 
ATOM     12  O   UNL     1      19.241  27.992  20.585  1.00  0.00    -0.341 OA
ATOM     13  C   UNL     1      21.108  28.801  19.256  1.00  0.00     0.202 C 
ATOM     14  C   UNL     1      20.171  28.934  18.092  1.00  0.00     0.179 C 
ATOM     15  C   UNL     1      18.729  28.844  18.495  1.00  0.00     0.177 C 
BRANCH  11  16
ATOM     16  O   UNL     1      21.124  26.693  20.280  1.00  0.00    -0.341 OA
BRANCH  16  17
ATOM     17  C   UNL     1      22.235  26.469  21.117  1.00  0.00     0.184 C 
ATOM     18  C   UNL     1      22.427  24.984  21.216  1.00  0.00     0.178 C 
ATOM     19  O   UNL     1      22.905  24.594  22.464  1.00  0.00    -0.341 OA
ATOM     20  C   UNL     1      21.889  24.856  23.375  1.00  0.00     0.281 C 
ATOM     21  C   UNL     1      21.978  27.171  22.408  1.00  0.00     0.180 C 
ATOM     22  C   UNL     1      21.805  26.327  23.614  1.00  0.00     0.202 C 
BRANCH  18  23
ATOM     23  C   UNL     1      23.500  24.577  20.206  1.00  0.00     0.191 C 
BRANCH  23  24
ATOM     24  O   UNL     1      23.972  25.766  19.608  1.00  0.00    -0.394 OA
ATOM     25  H   UNL     1      24.954  25.768  19.802  1.00  0.00     0.210 HD
ENDBRANCH  23  24
ENDBRANCH  18  23
BRANCH  20  26
ATOM     26  O   UNL     1      22.278  24.256  24.576  1.00  0.00    -0.350 OA
BRANCH  26  27
ATOM     27  C   UNL     1      23.578  24.617  24.931  1.00  0.00     0.169 C 
BRANCH  27  28
ATOM     28  C   UNL     1      23.566  24.843  26.445  1.00  0.00     0.119 C 
BRANCH  28  29
ATOM     29  N   UNL     1      24.326  26.057  26.687  1.00  0.00    -0.092 NA
ATOM     30  N   UNL     1      24.042  27.113  26.102  1.00  0.00     0.001 N 
ATOM     31  N   UNL     1      23.554  28.201  25.753  1.00  0.00    -0.003 NA
ENDBRANCH  28  29
ENDBRANCH  27  28
ENDBRANCH  26  27
ENDBRANCH  20  26
BRANCH  21  32
ATOM     32  O   UNL     1      23.037  28.080  22.605  1.00  0.00    -0.387 OA
ATOM     33  H   UNL     1      23.570  28.206  21.799  1.00  0.00     0.211 HD
ENDBRANCH  21  32
BRANCH  22  34
ATOM     34  O   UNL     1      20.507  26.564  24.135  1.00  0.00    -0.385 OA
ATOM     35  H   UNL     1      20.595  26.415  25.126  1.00  0.00     0.211 HD
ENDBRANCH  22  34
ENDBRANCH  16  17
ENDBRANCH  11  16
BRANCH  13  36
ATOM     36  O   UNL     1      21.625  30.040  19.660  1.00  0.00    -0.385 OA
ATOM     37  H   UNL     1      22.598  30.094  19.528  1.00  0.00     0.211 HD
ENDBRANCH  13  36
BRANCH  14  38
ATOM     38  O   UNL     1      20.459  28.009  17.080  1.00  0.00    -0.387 OA
ATOM     39  H   UNL     1      20.971  28.523  16.396  1.00  0.00     0.211 HD
ENDBRANCH  14  38
BRANCH  15  40
ATOM     40  O   UNL     1      18.130  27.649  18.175  1.00  0.00    -0.387 OA
ATOM     41  H   UNL     1      18.830  27.004  17.963  1.00  0.00     0.211 HD
ENDBRANCH  15  40
ENDBRANCH   9  10
ENDBRANCH   8   9
ENDBRANCH   3   8
BRANCH   3  42
ATOM     42  C   UNL     1      14.371  29.100  22.099  1.00  0.00     0.364 C 
ATOM     43  O   UNL     1      13.844  28.768  21.027  1.00  0.00    -0.246 OA
BRANCH  42  44
ATOM     44  O   UNL     1      13.498  29.185  23.188  1.00  0.00    -0.477 OA
ATOM     45  H   UNL     1      12.572  29.593  23.049  1.00  0.00     0.296 HD
ENDBRANCH  42  44
ENDBRANCH   3  42
BRANCH   6  46
ATOM     46  O   UNL     1      16.182  33.076  22.468  1.00  0.00    -0.391 OA
ATOM     47  H   UNL     1      17.146  33.166  22.678  1.00  0.00     0.211 HD
ENDBRANCH   6  46
BRANCH   7  48
ATOM     48  N   UNL     1      15.503  31.378  25.255  1.00  0.00    -0.348 N 
ATOM     49  C   UNL     1      15.064  32.537  25.910  1.00  0.00     0.217 C 
ATOM     50  H   UNL     1      15.146  30.440  25.536  1.00  0.00     0.163 HD
ATOM     51  C   UNL     1      14.079  32.522  27.034  1.00  0.00     0.114 C 
ATOM     52  O   UNL     1      15.541  33.648  25.514  1.00  0.00    -0.275 OA
ENDBRANCH   7  48
ENDBRANCH   1   2
BRANCH   1  53
ATOM     53  O   UNL     1      19.374  29.299  24.212  1.00  0.00    -0.388 OA
ATOM     54  H   UNL     1      18.748  28.831  24.785  1.00  0.00     0.211 HD
ENDBRANCH   1  53
BRANCH   1  55
ATOM     55  C   UNL     1      19.293  31.530  23.680  1.00  0.00     0.165 C 
BRANCH  55  56
ATOM     56  O   UNL     1      19.409  32.369  22.598  1.00  0.00    -0.388 OA
ATOM     57  H   UNL     1      18.963  33.244  22.724  1.00  0.00     0.211 HD
ENDBRANCH  55  56
BRANCH  55  58
ATOM     58  C   UNL     1      20.660  31.302  24.333  1.00  0.00     0.154 C 
BRANCH  58  59
ATOM     59  N   UNL     1      21.606  30.771  23.381  1.00  0.00    -0.319 N 
ATOM     60  C   UNL     1      22.540  31.573  22.685  1.00  0.00     0.407 C 
ATOM     61  H   UNL     1      21.601  29.749  23.200  1.00  0.00     0.167 HD
ATOM     62  O   UNL     1      22.564  32.814  22.895  1.00  0.00    -0.225 OA
BRANCH  60  63
ATOM     63  O   UNL     1      23.438  31.033  21.770  1.00  0.00    -0.443 OA
BRANCH  63  64
ATOM     64  C   UNL     1      24.753  31.575  21.701  1.00  0.00     0.294 C 
BRANCH  64  65
ATOM     65  C   UNL     1      25.563  30.762  22.659  1.00  0.00     0.120 A 
ATOM     66  C   UNL     1      26.498  31.260  23.525  1.00  0.00     0.138 A 
ATOM     67  N   UNL     1      25.510  29.418  22.833  1.00  0.00    -0.132 NA
ATOM     68  N   UNL     1      26.981  30.221  24.191  1.00  0.00    -0.250 N 
ATOM     69  N   UNL     1      26.379  29.110  23.768  1.00  0.00    -0.067 NA
BRANCH  68  70
ATOM     70  C   UNL     1      28.020  30.298  25.217  1.00  0.00     0.167 C 
BRANCH  70  71
ATOM     71  C   UNL     1      27.712  29.208  26.245  1.00  0.00     0.141 C 
BRANCH  71  72
ATOM     72  N   UNL     1      26.462  29.550  26.858  1.00  0.00    -0.336 N 
ATOM     73  C   UNL     1      26.005  29.000  28.073  1.00  0.00     0.315 C 
ATOM     74  H   UNL     1      25.867  30.257  26.348  1.00  0.00     0.165 HD
ATOM     75  O   UNL     1      26.676  28.145  28.690  1.00  0.00    -0.249 OA
ATOM     76  N   UNL     1      24.744  29.444  28.599  1.00  0.00    -0.331 N 
ATOM     77  H   UNL     1      24.215  30.164  28.046  1.00  0.00     0.165 HD
BRANCH  76  78
ATOM     78  C   UNL     1      24.246  28.909  29.835  1.00  0.00     0.193 C 
BRANCH  78  79
ATOM     79  C   UNL     1      23.161  27.926  29.574  1.00  0.00     0.122 A 
ATOM     80  C   UNL     1      23.137  26.633  30.082  1.00  0.00     0.047 A 
ATOM     81  O   UNL     1      22.102  28.106  28.859  1.00  0.00    -0.467 OA
ATOM     82  C   UNL     1      21.987  26.067  29.614  1.00  0.00     0.042 A 
ATOM     83  C   UNL     1      21.364  27.018  28.852  1.00  0.00     0.195 A 
ENDBRANCH  78  79
ENDBRANCH  76  78
ENDBRANCH  71  72
ENDBRANCH  70  71
ENDBRANCH  68  70
ENDBRANCH  64  65
ENDBRANCH  63  64
ENDBRANCH  60  63
ENDBRANCH  58  59
ENDBRANCH  55  58
ENDBRANCH   1  55
TORSDOF 34
