REMARK VINA RESULT:    -6.069      2.132      3.121
REMARK INTER + INTRA:         -23.173
REMARK INTER:                 -16.294
REMARK INTRA:                  -6.878
REMARK UNBOUND:                -6.283
REMARK SMILES CC(=O)N[C@@H]1[C@@H](O)C[C@](OC[C@H]2O[C@@H](O[C@H]3[C@H](O)[C@@H](O)[C@H](OCCN=[N+]=[N-])O[C@@H]3CO)[C@H](O)[C@@H](O)[C@H]2O)(C(=O)O)O[C@H]1C(O)[C@H](O)CNC(=O)OCc1cn(C[C@H](CC(=O)O)CC(C)C)nn1
REMARK SMILES IDX 43 1 42 2 9 3 8 4 41 5 6 6 5 7 10 8 11 9 12 10 14 11 13 12
REMARK SMILES IDX 32 13 34 14 36 15 15 16 16 17 29 18 28 19 21 20 17 21 19 22
REMARK SMILES IDX 30 23 31 24 22 26 23 27 24 28 25 29 26 30 27 31 18 32 20 34
REMARK SMILES IDX 33 36 35 38 37 40 38 42 39 43 40 44 7 46 4 48 2 49 1 51 3 52
REMARK SMILES IDX 44 53 45 55 46 56 47 58 48 59 49 60 50 62 51 63 52 64 53 65
REMARK SMILES IDX 54 66 67 67 55 68 66 69 56 70 57 71 58 72 59 73 60 74 61 75
REMARK SMILES IDX 62 77 63 78 64 79 65 80
REMARK H PARENT 31 25 18 33 20 35 33 37 35 39 37 41 40 45 7 47 4 50 44 54
REMARK H PARENT 46 57 48 61 61 76
REMARK Flexibility Score: inf
ROOT
ATOM      1  C   UNL     1       2.235  22.216  30.092  1.00  0.00     0.176 C 
ENDROOT
BRANCH   1   2
ATOM      2  C   UNL     1       2.469  21.830  31.525  1.00  0.00     0.178 C 
ATOM      3  C   UNL     1       4.326  22.795  32.722  1.00  0.00     0.272 C 
ATOM      4  C   UNL     1       5.142  21.577  32.483  1.00  0.00     0.113 C 
ATOM      5  O   UNL     1       3.181  22.849  32.072  1.00  0.00    -0.332 OA
ATOM      6  C   UNL     1       4.630  20.587  31.517  1.00  0.00     0.145 C 
ATOM      7  C   UNL     1       3.103  20.482  31.536  1.00  0.00     0.142 C 
BRANCH   3   8
ATOM      8  O   UNL     1       5.092  23.945  32.389  1.00  0.00    -0.338 OA
BRANCH   8   9
ATOM      9  C   UNL     1       4.373  24.981  31.880  1.00  0.00     0.199 C 
BRANCH   9  10
ATOM     10  C   UNL     1       4.540  26.233  32.770  1.00  0.00     0.179 C 
ATOM     11  C   UNL     1       5.827  27.074  34.508  1.00  0.00     0.282 C 
ATOM     12  O   UNL     1       5.754  26.210  33.426  1.00  0.00    -0.341 OA
ATOM     13  C   UNL     1       4.997  28.313  34.136  1.00  0.00     0.202 C 
ATOM     14  C   UNL     1       5.124  28.599  32.654  1.00  0.00     0.179 C 
ATOM     15  C   UNL     1       4.544  27.474  31.866  1.00  0.00     0.177 C 
BRANCH  11  16
ATOM     16  O   UNL     1       7.117  27.530  34.622  1.00  0.00    -0.341 OA
BRANCH  16  17
ATOM     17  C   UNL     1       8.112  26.608  34.429  1.00  0.00     0.184 C 
ATOM     18  C   UNL     1       8.458  25.796  35.642  1.00  0.00     0.178 C 
ATOM     19  O   UNL     1       9.719  25.979  36.129  1.00  0.00    -0.341 OA
ATOM     20  C   UNL     1      10.742  25.769  35.225  1.00  0.00     0.281 C 
ATOM     21  C   UNL     1       9.356  27.368  34.017  1.00  0.00     0.180 C 
ATOM     22  C   UNL     1      10.497  26.352  33.877  1.00  0.00     0.202 C 
BRANCH  18  23
ATOM     23  C   UNL     1       8.142  24.344  35.332  1.00  0.00     0.191 C 
BRANCH  23  24
ATOM     24  O   UNL     1       7.696  24.191  34.022  1.00  0.00    -0.394 OA
ATOM     25  H   UNL     1       8.240  24.718  33.375  1.00  0.00     0.210 HD
ENDBRANCH  23  24
ENDBRANCH  18  23
BRANCH  20  26
ATOM     26  O   UNL     1      11.030  24.412  35.222  1.00  0.00    -0.350 OA
BRANCH  26  27
ATOM     27  C   UNL     1      12.058  24.069  36.084  1.00  0.00     0.169 C 
BRANCH  27  28
ATOM     28  C   UNL     1      11.987  22.561  36.279  1.00  0.00     0.119 C 
BRANCH  28  29
ATOM     29  N   UNL     1      10.593  22.265  36.576  1.00  0.00    -0.092 NA
ATOM     30  N   UNL     1      10.241  22.228  37.731  1.00  0.00     0.001 N 
ATOM     31  N   UNL     1       9.655  21.981  38.794  1.00  0.00    -0.003 NA
ENDBRANCH  28  29
ENDBRANCH  27  28
ENDBRANCH  26  27
ENDBRANCH  20  26
BRANCH  21  32
ATOM     32  O   UNL     1       9.131  28.051  32.836  1.00  0.00    -0.387 OA
ATOM     33  H   UNL     1       8.538  28.834  33.061  1.00  0.00     0.211 HD
ENDBRANCH  21  32
BRANCH  22  34
ATOM     34  O   UNL     1      11.591  27.105  33.402  1.00  0.00    -0.385 OA
ATOM     35  H   UNL     1      11.238  27.747  32.750  1.00  0.00     0.211 HD
ENDBRANCH  22  34
ENDBRANCH  16  17
ENDBRANCH  11  16
BRANCH  13  36
ATOM     36  O   UNL     1       3.702  28.243  34.584  1.00  0.00    -0.385 OA
ATOM     37  H   UNL     1       3.097  27.740  34.011  1.00  0.00     0.211 HD
ENDBRANCH  13  36
BRANCH  14  38
ATOM     38  O   UNL     1       6.509  28.666  32.401  1.00  0.00    -0.387 OA
ATOM     39  H   UNL     1       6.719  28.557  31.461  1.00  0.00     0.211 HD
ENDBRANCH  14  38
BRANCH  15  40
ATOM     40  O   UNL     1       5.393  27.249  30.763  1.00  0.00    -0.387 OA
ATOM     41  H   UNL     1       5.082  27.729  29.979  1.00  0.00     0.211 HD
ENDBRANCH  15  40
ENDBRANCH   9  10
ENDBRANCH   8   9
ENDBRANCH   3   8
BRANCH   3  42
ATOM     42  C   UNL     1       4.111  22.974  34.214  1.00  0.00     0.364 C 
ATOM     43  O   UNL     1       5.066  23.234  34.957  1.00  0.00    -0.246 OA
BRANCH  42  44
ATOM     44  O   UNL     1       2.864  22.849  34.753  1.00  0.00    -0.477 OA
ATOM     45  H   UNL     1       2.077  23.438  34.483  1.00  0.00     0.296 HD
ENDBRANCH  42  44
ENDBRANCH   3  42
BRANCH   6  46
ATOM     46  O   UNL     1       5.064  20.702  30.214  1.00  0.00    -0.391 OA
ATOM     47  H   UNL     1       5.185  21.668  30.038  1.00  0.00     0.211 HD
ENDBRANCH   6  46
BRANCH   7  48
ATOM     48  N   UNL     1       2.791  19.644  32.662  1.00  0.00    -0.348 N 
ATOM     49  C   UNL     1       1.633  18.784  32.569  1.00  0.00     0.217 C 
ATOM     50  H   UNL     1       3.323  19.595  33.558  1.00  0.00     0.163 HD
ATOM     51  C   UNL     1       1.312  17.903  33.746  1.00  0.00     0.114 C 
ATOM     52  O   UNL     1       0.899  18.753  31.551  1.00  0.00    -0.275 OA
ENDBRANCH   7  48
ENDBRANCH   1   2
BRANCH   1  53
ATOM     53  O   UNL     1       1.204  23.203  30.058  1.00  0.00    -0.388 OA
ATOM     54  H   UNL     1       1.346  23.791  29.271  1.00  0.00     0.211 HD
ENDBRANCH   1  53
BRANCH   1  55
ATOM     55  C   UNL     1       1.721  21.139  29.164  1.00  0.00     0.165 C 
BRANCH  55  56
ATOM     56  O   UNL     1       2.689  21.237  28.072  1.00  0.00    -0.388 OA
ATOM     57  H   UNL     1       2.086  21.475  27.297  1.00  0.00     0.211 HD
ENDBRANCH  55  56
BRANCH  55  58
ATOM     58  C   UNL     1       0.444  21.511  28.493  1.00  0.00     0.154 C 
BRANCH  58  59
ATOM     59  N   UNL     1       0.646  22.078  27.207  1.00  0.00    -0.319 N 
ATOM     60  C   UNL     1      -0.064  23.305  26.931  1.00  0.00     0.407 C 
ATOM     61  H   UNL     1       1.235  21.724  26.432  1.00  0.00     0.167 HD
ATOM     62  O   UNL     1      -0.809  23.809  27.819  1.00  0.00    -0.225 OA
BRANCH  60  63
ATOM     63  O   UNL     1       0.015  23.975  25.731  1.00  0.00    -0.443 OA
BRANCH  63  64
ATOM     64  C   UNL     1       0.567  25.260  25.539  1.00  0.00     0.294 C 
BRANCH  64  65
ATOM     65  C   UNL     1       1.961  25.380  26.055  1.00  0.00     0.120 A 
ATOM     66  C   UNL     1       2.624  26.505  26.486  1.00  0.00     0.138 A 
ATOM     67  N   UNL     1       2.811  24.358  26.182  1.00  0.00    -0.132 NA
ATOM     68  N   UNL     1       3.884  26.136  26.872  1.00  0.00    -0.252 N 
ATOM     69  N   UNL     1       3.941  24.841  26.668  1.00  0.00    -0.067 NA
BRANCH  68  70
ATOM     70  C   UNL     1       4.914  26.977  27.359  1.00  0.00     0.150 C 
BRANCH  70  71
ATOM     71  C   UNL     1       5.577  27.825  26.358  1.00  0.00     0.022 C 
BRANCH  71  72
ATOM     72  C   UNL     1       7.009  27.557  26.081  1.00  0.00     0.128 C 
BRANCH  72  73
ATOM     73  C   UNL     1       7.315  26.539  25.067  1.00  0.00     0.303 C 
ATOM     74  O   UNL     1       8.212  26.770  24.214  1.00  0.00    -0.252 OA
BRANCH  73  75
ATOM     75  O   UNL     1       6.667  25.313  24.988  1.00  0.00    -0.481 OA
ATOM     76  H   UNL     1       7.000  24.601  24.355  1.00  0.00     0.296 HD
ENDBRANCH  73  75
ENDBRANCH  72  73
ENDBRANCH  71  72
BRANCH  71  77
ATOM     77  C   UNL     1       5.264  29.291  26.467  1.00  0.00     0.009 C 
BRANCH  77  78
ATOM     78  C   UNL     1       6.061  30.135  27.354  1.00  0.00    -0.017 C 
ATOM     79  C   UNL     1       6.561  31.442  26.852  1.00  0.00     0.007 C 
ATOM     80  C   UNL     1       5.447  30.363  28.723  1.00  0.00     0.007 C 
ENDBRANCH  77  78
ENDBRANCH  71  77
ENDBRANCH  70  71
ENDBRANCH  68  70
ENDBRANCH  64  65
ENDBRANCH  63  64
ENDBRANCH  60  63
ENDBRANCH  58  59
ENDBRANCH  55  58
ENDBRANCH   1  55
TORSDOF 36
