REMARK VINA RESULT:    -5.646      4.901     13.736
REMARK INTER + INTRA:         -21.019
REMARK INTER:                 -14.888
REMARK INTRA:                  -6.131
REMARK UNBOUND:                -6.131
REMARK SMILES COCC(C(N)=O)n1cc(COC(=O)NC[C@@H](O)C(O)[C@@H]2O[C@@](OC[C@H]3O[C@@H](O[C@H]4[C@H](O)[C@@H](O)[C@H](OCCN=[N+]=[N-])O[C@@H]4CO)[C@H](O)[C@@H](O)[C@H]3O)(C(=O)O)C[C@H](O)[C@H]2NC(C)=O)nn1
REMARK SMILES IDX 23 1 55 2 56 3 58 4 21 5 22 6 24 7 25 8 26 9 28 10 27 11
REMARK SMILES IDX 46 12 48 13 50 14 29 15 30 16 43 17 42 18 35 19 31 20 33 21
REMARK SMILES IDX 44 22 45 23 36 25 37 26 38 27 39 28 40 29 41 30 32 31 34 33
REMARK SMILES IDX 47 35 49 37 51 39 52 41 53 42 54 43 57 45 19 47 20 48 17 50
REMARK SMILES IDX 18 51 16 53 15 54 13 55 14 57 12 58 11 59 10 60 9 61 63 62
REMARK SMILES IDX 8 63 64 64 4 65 3 66 2 67 1 68 5 69 7 70 6 71 59 74 60 75
REMARK SMILES IDX 61 77 62 78
REMARK H PARENT 45 24 32 32 34 34 47 36 49 38 51 40 54 44 57 46 20 49 18 52
REMARK H PARENT 15 56 6 72 6 73 59 76
REMARK Flexibility Score: inf
ROOT
ATOM      1  C   UNL     1      19.657  28.629  19.214  1.00  0.00     0.272 C 
ATOM      2  C   UNL     1      20.401  29.343  18.151  1.00  0.00     0.113 C 
ATOM      3  C   UNL     1      21.092  28.513  17.133  1.00  0.00     0.145 C 
ATOM      4  C   UNL     1      21.685  27.289  17.777  1.00  0.00     0.142 C 
ATOM      5  C   UNL     1      21.727  27.549  19.275  1.00  0.00     0.178 C 
ATOM      6  O   UNL     1      20.447  27.618  19.760  1.00  0.00    -0.332 OA
ENDROOT
BRANCH   1   7
ATOM      7  O   UNL     1      18.457  28.069  18.875  1.00  0.00    -0.338 OA
BRANCH   7   8
ATOM      8  C   UNL     1      17.359  28.863  18.868  1.00  0.00     0.199 C 
BRANCH   8   9
ATOM      9  C   UNL     1      16.135  28.179  19.492  1.00  0.00     0.179 C 
ATOM     10  C   UNL     1      15.739  29.193  21.543  1.00  0.00     0.282 C 
ATOM     11  O   UNL     1      16.237  28.097  20.851  1.00  0.00    -0.341 OA
ATOM     12  C   UNL     1      14.339  29.538  21.170  1.00  0.00     0.202 C 
ATOM     13  C   UNL     1      14.184  29.776  19.704  1.00  0.00     0.179 C 
ATOM     14  C   UNL     1      14.845  28.680  18.948  1.00  0.00     0.177 C 
BRANCH  10  15
ATOM     15  O   UNL     1      16.573  30.293  21.468  1.00  0.00    -0.341 OA
BRANCH  15  16
ATOM     16  C   UNL     1      16.391  31.130  22.568  1.00  0.00     0.184 C 
ATOM     17  C   UNL     1      16.927  32.503  22.416  1.00  0.00     0.178 C 
ATOM     18  O   UNL     1      16.554  33.317  23.457  1.00  0.00    -0.341 OA
ATOM     19  C   UNL     1      16.407  32.663  24.681  1.00  0.00     0.281 C 
ATOM     20  C   UNL     1      17.172  30.473  23.719  1.00  0.00     0.180 C 
ATOM     21  C   UNL     1      17.370  31.491  24.789  1.00  0.00     0.202 C 
BRANCH  17  22
ATOM     22  C   UNL     1      16.511  33.210  21.140  1.00  0.00     0.191 C 
BRANCH  22  23
ATOM     23  O   UNL     1      17.035  32.541  20.036  1.00  0.00    -0.394 OA
ATOM     24  H   UNL     1      17.494  33.152  19.414  1.00  0.00     0.210 HD
ENDBRANCH  22  23
ENDBRANCH  17  22
BRANCH  19  25
ATOM     25  O   UNL     1      15.115  32.316  24.862  1.00  0.00    -0.350 OA
BRANCH  25  26
ATOM     26  C   UNL     1      14.685  31.834  26.049  1.00  0.00     0.169 C 
BRANCH  26  27
ATOM     27  C   UNL     1      13.477  30.964  26.060  1.00  0.00     0.119 C 
BRANCH  27  28
ATOM     28  N   UNL     1      13.478  29.982  25.022  1.00  0.00    -0.092 NA
ATOM     29  N   UNL     1      12.433  29.693  24.445  1.00  0.00     0.001 N 
ATOM     30  N   UNL     1      11.584  29.699  23.539  1.00  0.00    -0.003 NA
ENDBRANCH  27  28
ENDBRANCH  26  27
ENDBRANCH  25  26
ENDBRANCH  19  25
BRANCH  20  31
ATOM     31  O   UNL     1      16.468  29.365  24.187  1.00  0.00    -0.387 OA
ATOM     32  H   UNL     1      15.951  29.676  24.965  1.00  0.00     0.211 HD
ENDBRANCH  20  31
BRANCH  21  33
ATOM     33  O   UNL     1      18.668  32.042  24.726  1.00  0.00    -0.385 OA
ATOM     34  H   UNL     1      18.922  32.165  23.766  1.00  0.00     0.211 HD
ENDBRANCH  21  33
ENDBRANCH  15  16
ENDBRANCH  10  15
BRANCH  12  35
ATOM     35  O   UNL     1      13.545  28.418  21.484  1.00  0.00    -0.385 OA
ATOM     36  H   UNL     1      13.370  28.374  22.447  1.00  0.00     0.211 HD
ENDBRANCH  12  35
BRANCH  13  37
ATOM     37  O   UNL     1      14.579  31.057  19.321  1.00  0.00    -0.387 OA
ATOM     38  H   UNL     1      13.759  31.518  18.996  1.00  0.00     0.211 HD
ENDBRANCH  13  37
BRANCH  14  39
ATOM     39  O   UNL     1      15.033  29.038  17.611  1.00  0.00    -0.387 OA
ATOM     40  H   UNL     1      15.483  29.922  17.545  1.00  0.00     0.211 HD
ENDBRANCH  14  39
ENDBRANCH   8   9
ENDBRANCH   7   8
ENDBRANCH   1   7
BRANCH   1  41
ATOM     41  C   UNL     1      19.470  29.603  20.348  1.00  0.00     0.364 C 
ATOM     42  O   UNL     1      19.534  30.834  20.168  1.00  0.00    -0.246 OA
BRANCH  41  43
ATOM     43  O   UNL     1      19.226  29.106  21.602  1.00  0.00    -0.477 OA
ATOM     44  H   UNL     1      18.458  29.415  22.176  1.00  0.00     0.296 HD
ENDBRANCH  41  43
ENDBRANCH   1  41
BRANCH   3  45
ATOM     45  O   UNL     1      20.308  28.200  16.026  1.00  0.00    -0.391 OA
ATOM     46  H   UNL     1      20.515  28.817  15.280  1.00  0.00     0.211 HD
ENDBRANCH   3  45
BRANCH   5  47
ATOM     47  C   UNL     1      22.469  26.422  19.966  1.00  0.00     0.176 C 
BRANCH  47  48
ATOM     48  O   UNL     1      23.774  26.714  20.225  1.00  0.00    -0.388 OA
ATOM     49  H   UNL     1      24.413  26.651  19.504  1.00  0.00     0.211 HD
ENDBRANCH  47  48
BRANCH  47  50
ATOM     50  C   UNL     1      21.756  26.030  21.231  1.00  0.00     0.165 C 
BRANCH  50  51
ATOM     51  O   UNL     1      22.317  26.822  22.263  1.00  0.00    -0.388 OA
ATOM     52  H   UNL     1      21.783  27.657  22.357  1.00  0.00     0.211 HD
ENDBRANCH  50  51
BRANCH  50  53
ATOM     53  C   UNL     1      21.953  24.610  21.642  1.00  0.00     0.154 C 
BRANCH  53  54
ATOM     54  N   UNL     1      23.232  24.047  21.360  1.00  0.00    -0.319 N 
ATOM     55  C   UNL     1      24.287  24.010  22.311  1.00  0.00     0.407 C 
ATOM     56  H   UNL     1      23.442  23.633  20.412  1.00  0.00     0.167 HD
ATOM     57  O   UNL     1      24.102  24.486  23.441  1.00  0.00    -0.225 OA
BRANCH  55  58
ATOM     58  O   UNL     1      25.534  23.450  22.010  1.00  0.00    -0.443 OA
BRANCH  58  59
ATOM     59  C   UNL     1      26.369  23.963  21.016  1.00  0.00     0.294 C 
BRANCH  59  60
ATOM     60  C   UNL     1      27.478  23.085  20.624  1.00  0.00     0.120 A 
ATOM     61  C   UNL     1      27.874  21.975  21.329  1.00  0.00     0.139 A 
ATOM     62  N   UNL     1      28.256  23.223  19.544  1.00  0.00    -0.132 NA
ATOM     63  N   UNL     1      28.901  21.458  20.650  1.00  0.00    -0.237 N 
ATOM     64  N   UNL     1      29.118  22.221  19.577  1.00  0.00    -0.066 NA
BRANCH  63  65
ATOM     65  C   UNL     1      29.641  20.269  21.029  1.00  0.00     0.223 C 
BRANCH  65  66
ATOM     66  C   UNL     1      29.533  20.092  22.508  1.00  0.00     0.197 C 
BRANCH  66  67
ATOM     67  O   UNL     1      30.720  19.687  23.066  1.00  0.00    -0.382 OA
ATOM     68  C   UNL     1      31.730  20.573  22.803  1.00  0.00     0.195 C 
ENDBRANCH  66  67
ENDBRANCH  65  66
BRANCH  65  69
ATOM     69  C   UNL     1      28.995  19.120  20.309  1.00  0.00     0.244 C 
ATOM     70  O   UNL     1      28.649  18.120  20.968  1.00  0.00    -0.273 OA
ATOM     71  N   UNL     1      28.799  19.210  18.908  1.00  0.00    -0.368 N 
ATOM     72  H   UNL     1      29.352  18.689  18.209  1.00  0.00     0.159 HD
ATOM     73  H   UNL     1      28.047  19.848  18.567  1.00  0.00     0.159 HD
ENDBRANCH  65  69
ENDBRANCH  63  65
ENDBRANCH  59  60
ENDBRANCH  58  59
ENDBRANCH  55  58
ENDBRANCH  53  54
ENDBRANCH  50  53
ENDBRANCH  47  50
ENDBRANCH   5  47
BRANCH   4  74
ATOM     74  N   UNL     1      23.013  27.000  17.240  1.00  0.00    -0.348 N 
ATOM     75  C   UNL     1      23.316  25.835  16.485  1.00  0.00     0.217 C 
ATOM     76  H   UNL     1      23.807  27.669  17.400  1.00  0.00     0.163 HD
ATOM     77  C   UNL     1      24.645  25.524  15.933  1.00  0.00     0.114 C 
ATOM     78  O   UNL     1      22.360  25.014  16.278  1.00  0.00    -0.275 OA
ENDBRANCH   4  74
TORSDOF 33
