REMARK VINA RESULT:    -5.376      5.406      9.845
REMARK INTER + INTRA:         -21.311
REMARK INTER:                 -13.684
REMARK INTRA:                  -7.627
REMARK UNBOUND:                -7.606
REMARK SMILES CC(=O)N[C@@H]1[C@@H](O)C[C@](OC[C@H]2O[C@@H](O[C@H]3[C@H](O)[C@@H](O)[C@H](OCCN=[N+]=[N-])O[C@@H]3CO)[C@H](O)[C@@H](O)[C@H]2O)(C(=O)O)O[C@H]1C(O)[C@H](O)CNC(=O)OCc1cn(-c2ccc(CO)cn2)nn1
REMARK SMILES IDX 9 1 8 2 6 3 5 4 42 5 41 6 10 7 11 8 12 9 14 10 13 11 32 12
REMARK SMILES IDX 34 13 36 14 15 15 16 16 29 17 28 18 21 19 17 20 19 21 30 22
REMARK SMILES IDX 31 23 22 25 23 26 24 27 25 28 26 29 27 30 18 31 20 33 33 35
REMARK SMILES IDX 35 37 37 39 38 41 39 42 40 43 7 45 43 47 44 48 45 50 46 51
REMARK SMILES IDX 47 53 48 54 49 55 50 57 51 58 52 59 53 60 54 61 65 62 55 63
REMARK SMILES IDX 64 64 56 65 57 66 63 67 58 68 62 69 59 70 60 71 61 72 4 74
REMARK SMILES IDX 2 75 1 77 3 78
REMARK H PARENT 31 24 18 32 20 34 33 36 35 38 37 40 40 44 7 46 44 49 46 52
REMARK H PARENT 48 56 61 73 4 76
REMARK Flexibility Score: inf
ROOT
ATOM      1  C   UNL     1      20.738  28.766  24.952  1.00  0.00     0.272 C 
ATOM      2  C   UNL     1      21.029  29.775  25.999  1.00  0.00     0.113 C 
ATOM      3  C   UNL     1      20.919  31.184  25.486  1.00  0.00     0.145 C 
ATOM      4  C   UNL     1      19.625  31.355  24.714  1.00  0.00     0.142 C 
ATOM      5  C   UNL     1      19.478  30.290  23.707  1.00  0.00     0.178 C 
ATOM      6  O   UNL     1      19.623  29.040  24.202  1.00  0.00    -0.332 OA
ENDROOT
BRANCH   1   7
ATOM      7  O   UNL     1      20.590  27.479  25.441  1.00  0.00    -0.338 OA
BRANCH   7   8
ATOM      8  C   UNL     1      21.019  27.339  26.744  1.00  0.00     0.199 C 
BRANCH   8   9
ATOM      9  C   UNL     1      22.136  26.341  26.804  1.00  0.00     0.179 C 
ATOM     10  C   UNL     1      23.163  24.727  25.601  1.00  0.00     0.282 C 
ATOM     11  O   UNL     1      22.639  26.043  25.523  1.00  0.00    -0.341 OA
ATOM     12  C   UNL     1      24.077  24.612  26.751  1.00  0.00     0.202 C 
ATOM     13  C   UNL     1      24.504  25.923  27.390  1.00  0.00     0.179 C 
ATOM     14  C   UNL     1      23.296  26.828  27.610  1.00  0.00     0.177 C 
BRANCH  10  15
ATOM     15  O   UNL     1      23.718  24.378  24.365  1.00  0.00    -0.341 OA
BRANCH  15  16
ATOM     16  C   UNL     1      23.269  25.177  23.336  1.00  0.00     0.184 C 
ATOM     17  C   UNL     1      22.724  24.456  22.144  1.00  0.00     0.178 C 
ATOM     18  O   UNL     1      23.514  24.584  21.005  1.00  0.00    -0.341 OA
ATOM     19  C   UNL     1      24.807  24.162  21.189  1.00  0.00     0.281 C 
ATOM     20  C   UNL     1      24.495  25.974  22.852  1.00  0.00     0.180 C 
ATOM     21  C   UNL     1      25.472  24.895  22.364  1.00  0.00     0.202 C 
BRANCH  17  22
ATOM     22  C   UNL     1      21.396  25.144  21.776  1.00  0.00     0.191 C 
BRANCH  22  23
ATOM     23  O   UNL     1      20.758  25.592  22.943  1.00  0.00    -0.394 OA
ATOM     24  H   UNL     1      21.297  25.346  23.754  1.00  0.00     0.210 HD
ENDBRANCH  22  23
ENDBRANCH  17  22
BRANCH  19  25
ATOM     25  O   UNL     1      25.526  24.432  20.029  1.00  0.00    -0.350 OA
BRANCH  25  26
ATOM     26  C   UNL     1      26.885  24.380  20.205  1.00  0.00     0.169 C 
BRANCH  26  27
ATOM     27  C   UNL     1      27.337  22.945  19.965  1.00  0.00     0.119 C 
BRANCH  27  28
ATOM     28  N   UNL     1      27.531  22.257  21.234  1.00  0.00    -0.092 NA
ATOM     29  N   UNL     1      28.594  22.224  21.831  1.00  0.00     0.001 N 
ATOM     30  N   UNL     1      29.469  22.461  22.663  1.00  0.00    -0.003 NA
ENDBRANCH  27  28
ENDBRANCH  26  27
ENDBRANCH  25  26
ENDBRANCH  19  25
BRANCH  20  31
ATOM     31  O   UNL     1      24.186  26.898  21.891  1.00  0.00    -0.387 OA
ATOM     32  H   UNL     1      23.852  27.705  22.309  1.00  0.00     0.211 HD
ENDBRANCH  20  31
BRANCH  21  33
ATOM     33  O   UNL     1      25.645  24.020  23.433  1.00  0.00    -0.385 OA
ATOM     34  H   UNL     1      26.509  23.554  23.298  1.00  0.00     0.211 HD
ENDBRANCH  21  33
ENDBRANCH  15  16
ENDBRANCH  10  15
BRANCH  12  35
ATOM     35  O   UNL     1      23.456  23.829  27.753  1.00  0.00    -0.385 OA
ATOM     36  H   UNL     1      24.103  23.560  28.455  1.00  0.00     0.211 HD
ENDBRANCH  12  35
BRANCH  13  37
ATOM     37  O   UNL     1      25.519  26.543  26.682  1.00  0.00    -0.387 OA
ATOM     38  H   UNL     1      25.247  26.897  25.822  1.00  0.00     0.211 HD
ENDBRANCH  13  37
BRANCH  14  39
ATOM     39  O   UNL     1      23.669  28.107  27.257  1.00  0.00    -0.387 OA
ATOM     40  H   UNL     1      23.077  28.437  26.553  1.00  0.00     0.211 HD
ENDBRANCH  14  39
ENDBRANCH   8   9
ENDBRANCH   7   8
ENDBRANCH   1   7
BRANCH   1  41
ATOM     41  C   UNL     1      21.867  28.671  23.947  1.00  0.00     0.364 C 
ATOM     42  O   UNL     1      21.677  28.471  22.724  1.00  0.00    -0.246 OA
BRANCH  41  43
ATOM     43  O   UNL     1      23.179  28.804  24.356  1.00  0.00    -0.477 OA
ATOM     44  H   UNL     1      23.415  29.479  25.095  1.00  0.00     0.296 HD
ENDBRANCH  41  43
ENDBRANCH   1  41
BRANCH   3  45
ATOM     45  O   UNL     1      20.799  32.009  26.622  1.00  0.00    -0.391 OA
ATOM     46  H   UNL     1      20.734  32.957  26.407  1.00  0.00     0.211 HD
ENDBRANCH   3  45
BRANCH   5  47
ATOM     47  C   UNL     1      18.199  30.393  22.897  1.00  0.00     0.176 C 
BRANCH  47  48
ATOM     48  O   UNL     1      18.304  31.446  21.990  1.00  0.00    -0.388 OA
ATOM     49  H   UNL     1      17.857  31.220  21.141  1.00  0.00     0.211 HD
ENDBRANCH  47  48
BRANCH  47  50
ATOM     50  C   UNL     1      16.957  30.576  23.684  1.00  0.00     0.165 C 
BRANCH  50  51
ATOM     51  O   UNL     1      16.350  29.364  24.042  1.00  0.00    -0.388 OA
ATOM     52  H   UNL     1      15.804  28.980  23.339  1.00  0.00     0.211 HD
ENDBRANCH  50  51
BRANCH  50  53
ATOM     53  C   UNL     1      15.948  31.532  23.116  1.00  0.00     0.154 C 
BRANCH  53  54
ATOM     54  N   UNL     1      15.526  31.117  21.804  1.00  0.00    -0.319 N 
ATOM     55  C   UNL     1      14.347  30.349  21.647  1.00  0.00     0.407 C 
ATOM     56  H   UNL     1      16.107  31.390  20.945  1.00  0.00     0.167 HD
ATOM     57  O   UNL     1      13.628  30.003  22.610  1.00  0.00    -0.225 OA
BRANCH  55  58
ATOM     58  O   UNL     1      13.921  29.934  20.381  1.00  0.00    -0.443 OA
BRANCH  58  59
ATOM     59  C   UNL     1      14.404  28.731  19.856  1.00  0.00     0.294 C 
BRANCH  59  60
ATOM     60  C   UNL     1      15.587  28.831  19.012  1.00  0.00     0.121 A 
ATOM     61  C   UNL     1      16.870  28.469  19.341  1.00  0.00     0.146 A 
ATOM     62  N   UNL     1      15.647  29.299  17.754  1.00  0.00    -0.131 NA
ATOM     63  N   UNL     1      17.670  28.725  18.287  1.00  0.00    -0.202 N 
ATOM     64  N   UNL     1      16.890  29.226  17.347  1.00  0.00    -0.061 NA
BRANCH  63  65
ATOM     65  C   UNL     1      19.068  28.485  18.255  1.00  0.00     0.155 A 
ATOM     66  C   UNL     1      19.805  28.606  17.081  1.00  0.00     0.049 A 
ATOM     67  N   UNL     1      19.736  28.120  19.363  1.00  0.00    -0.237 NA
ATOM     68  C   UNL     1      21.171  28.358  17.068  1.00  0.00     0.011 A 
ATOM     69  C   UNL     1      21.068  27.874  19.372  1.00  0.00     0.119 A 
ATOM     70  C   UNL     1      21.828  27.986  18.220  1.00  0.00    -0.004 A 
BRANCH  70  71
ATOM     71  C   UNL     1      23.291  27.720  18.198  1.00  0.00     0.193 C 
BRANCH  71  72
ATOM     72  O   UNL     1      23.606  26.609  18.980  1.00  0.00    -0.392 OA
ATOM     73  H   UNL     1      23.756  26.842  19.919  1.00  0.00     0.211 HD
ENDBRANCH  71  72
ENDBRANCH  70  71
ENDBRANCH  63  65
ENDBRANCH  59  60
ENDBRANCH  58  59
ENDBRANCH  55  58
ENDBRANCH  53  54
ENDBRANCH  50  53
ENDBRANCH  47  50
ENDBRANCH   5  47
BRANCH   4  74
ATOM     74  N   UNL     1      19.592  32.693  24.120  1.00  0.00    -0.348 N 
ATOM     75  C   UNL     1      18.844  33.736  24.661  1.00  0.00     0.217 C 
ATOM     76  H   UNL     1      20.160  32.856  23.265  1.00  0.00     0.163 HD
ATOM     77  C   UNL     1      18.894  35.065  23.943  1.00  0.00     0.114 C 
ATOM     78  O   UNL     1      18.150  33.638  25.683  1.00  0.00    -0.275 OA
ENDBRANCH   4  74
TORSDOF 32
