REMARK VINA RESULT:    -5.535      9.436     14.511
REMARK INTER + INTRA:         -21.534
REMARK INTER:                 -15.279
REMARK INTRA:                  -6.255
REMARK UNBOUND:                -7.585
REMARK SMILES COc1ccc(-n2cc(COC(=O)NC[C@@H](O)C(O)[C@@H]3O[C@@](OC[C@H]4O[C@@H](O[C@H]5[C@H](O)[C@@H](O)[C@H](OCCN=[N+]=[N-])O[C@@H]5CO)[C@H](O)[C@@H](O)[C@H]4O)(C(=O)O)C[C@H](O)[C@H]3NC(C)=O)nn2)cc1
REMARK SMILES IDX 22 1 54 2 55 3 57 4 20 5 21 6 23 7 24 8 25 9 27 10 26 11
REMARK SMILES IDX 45 12 47 13 49 14 28 15 29 16 42 17 41 18 34 19 30 20 32 21
REMARK SMILES IDX 43 22 44 23 35 25 36 26 37 27 38 28 39 29 40 30 31 31 33 33
REMARK SMILES IDX 46 35 48 37 50 39 51 41 52 42 53 43 56 45 18 47 19 48 16 50
REMARK SMILES IDX 17 51 15 53 14 54 12 55 13 57 11 58 10 59 9 60 8 61 62 62
REMARK SMILES IDX 7 63 63 64 6 65 5 66 64 67 4 68 65 69 3 70 2 71 1 72 58 73
REMARK SMILES IDX 59 74 60 76 61 77
REMARK H PARENT 44 24 31 32 33 34 46 36 48 38 50 40 53 44 56 46 19 49 17 52
REMARK H PARENT 14 56 58 75
REMARK Flexibility Score: inf
ROOT
ATOM      1  C   UNL     1      22.598  25.123  23.989  1.00  0.00     0.272 C 
ATOM      2  C   UNL     1      22.913  24.244  22.837  1.00  0.00     0.113 C 
ATOM      3  C   UNL     1      24.281  24.322  22.283  1.00  0.00     0.145 C 
ATOM      4  C   UNL     1      24.873  25.693  22.670  1.00  0.00     0.142 C 
ATOM      5  C   UNL     1      23.760  26.678  22.613  1.00  0.00     0.178 C 
ATOM      6  O   UNL     1      22.958  26.459  23.732  1.00  0.00    -0.332 OA
ENDROOT
BRANCH   1   7
ATOM      7  O   UNL     1      22.864  24.852  25.227  1.00  0.00    -0.338 OA
BRANCH   7   8
ATOM      8  C   UNL     1      23.833  24.787  26.061  1.00  0.00     0.199 C 
BRANCH   8   9
ATOM      9  C   UNL     1      23.988  25.682  27.257  1.00  0.00     0.179 C 
ATOM     10  C   UNL     1      23.687  27.759  28.161  1.00  0.00     0.282 C 
ATOM     11  O   UNL     1      23.395  26.887  27.098  1.00  0.00    -0.341 OA
ATOM     12  C   UNL     1      23.240  27.256  29.496  1.00  0.00     0.202 C 
ATOM     13  C   UNL     1      22.979  25.799  29.583  1.00  0.00     0.179 C 
ATOM     14  C   UNL     1      23.627  24.978  28.543  1.00  0.00     0.177 C 
BRANCH  10  15
ATOM     15  O   UNL     1      23.044  28.963  27.887  1.00  0.00    -0.341 OA
BRANCH  15  16
ATOM     16  C   UNL     1      22.763  29.132  26.559  1.00  0.00     0.184 C 
ATOM     17  C   UNL     1      23.283  30.413  26.017  1.00  0.00     0.178 C 
ATOM     18  O   UNL     1      22.881  30.589  24.667  1.00  0.00    -0.341 OA
ATOM     19  C   UNL     1      21.486  30.844  24.726  1.00  0.00     0.281 C 
ATOM     20  C   UNL     1      21.234  29.089  26.388  1.00  0.00     0.180 C 
ATOM     21  C   UNL     1      20.877  29.462  24.974  1.00  0.00     0.202 C 
BRANCH  17  22
ATOM     22  C   UNL     1      24.786  30.491  26.092  1.00  0.00     0.191 C 
BRANCH  22  23
ATOM     23  O   UNL     1      25.311  29.215  25.980  1.00  0.00    -0.394 OA
ATOM     24  H   UNL     1      25.528  28.811  26.849  1.00  0.00     0.210 HD
ENDBRANCH  22  23
ENDBRANCH  17  22
BRANCH  19  25
ATOM     25  O   UNL     1      21.034  31.406  23.583  1.00  0.00    -0.350 OA
BRANCH  25  26
ATOM     26  C   UNL     1      20.605  32.696  23.583  1.00  0.00     0.169 C 
BRANCH  26  27
ATOM     27  C   UNL     1      21.640  33.767  23.657  1.00  0.00     0.119 C 
BRANCH  27  28
ATOM     28  N   UNL     1      21.229  34.991  24.277  1.00  0.00    -0.092 NA
ATOM     29  N   UNL     1      20.301  35.654  23.827  1.00  0.00     0.001 N 
ATOM     30  N   UNL     1      19.435  36.276  23.203  1.00  0.00    -0.003 NA
ENDBRANCH  27  28
ENDBRANCH  26  27
ENDBRANCH  25  26
ENDBRANCH  19  25
BRANCH  20  31
ATOM     31  O   UNL     1      20.786  27.825  26.723  1.00  0.00    -0.387 OA
ATOM     32  H   UNL     1      21.513  27.178  26.461  1.00  0.00     0.211 HD
ENDBRANCH  20  31
BRANCH  21  33
ATOM     33  O   UNL     1      19.512  29.568  24.833  1.00  0.00    -0.385 OA
ATOM     34  H   UNL     1      19.146  28.828  24.287  1.00  0.00     0.211 HD
ENDBRANCH  21  33
ENDBRANCH  15  16
ENDBRANCH  10  15
BRANCH  12  35
ATOM     35  O   UNL     1      24.175  27.559  30.500  1.00  0.00    -0.385 OA
ATOM     36  H   UNL     1      24.808  26.819  30.636  1.00  0.00     0.211 HD
ENDBRANCH  12  35
BRANCH  13  37
ATOM     37  O   UNL     1      21.605  25.562  29.707  1.00  0.00    -0.387 OA
ATOM     38  H   UNL     1      21.234  25.035  28.969  1.00  0.00     0.211 HD
ENDBRANCH  13  37
BRANCH  14  39
ATOM     39  O   UNL     1      22.840  23.847  28.307  1.00  0.00    -0.387 OA
ATOM     40  H   UNL     1      22.128  24.120  27.676  1.00  0.00     0.211 HD
ENDBRANCH  14  39
ENDBRANCH   8   9
ENDBRANCH   7   8
ENDBRANCH   1   7
BRANCH   1  41
ATOM     41  C   UNL     1      21.043  25.240  23.903  1.00  0.00     0.364 C 
ATOM     42  O   UNL     1      20.442  26.071  24.588  1.00  0.00    -0.246 OA
BRANCH  41  43
ATOM     43  O   UNL     1      20.417  24.378  23.038  1.00  0.00    -0.477 OA
ATOM     44  H   UNL     1      20.738  24.259  22.066  1.00  0.00     0.296 HD
ENDBRANCH  41  43
ENDBRANCH   1  41
BRANCH   3  45
ATOM     45  O   UNL     1      25.127  23.291  22.569  1.00  0.00    -0.391 OA
ATOM     46  H   UNL     1      25.859  23.492  23.193  1.00  0.00     0.211 HD
ENDBRANCH   3  45
BRANCH   5  47
ATOM     47  C   UNL     1      24.233  28.144  22.753  1.00  0.00     0.176 C 
BRANCH  47  48
ATOM     48  O   UNL     1      25.428  28.211  23.401  1.00  0.00    -0.388 OA
ATOM     49  H   UNL     1      26.082  28.690  22.840  1.00  0.00     0.211 HD
ENDBRANCH  47  48
BRANCH  47  50
ATOM     50  C   UNL     1      23.939  28.937  21.585  1.00  0.00     0.165 C 
BRANCH  50  51
ATOM     51  O   UNL     1      23.012  30.000  21.767  1.00  0.00    -0.388 OA
ATOM     52  H   UNL     1      23.427  30.781  21.351  1.00  0.00     0.211 HD
ENDBRANCH  50  51
BRANCH  50  53
ATOM     53  C   UNL     1      23.607  28.386  20.261  1.00  0.00     0.154 C 
BRANCH  53  54
ATOM     54  N   UNL     1      22.329  28.574  19.741  1.00  0.00    -0.319 N 
ATOM     55  C   UNL     1      21.302  27.622  19.666  1.00  0.00     0.407 C 
ATOM     56  H   UNL     1      22.086  29.549  19.350  1.00  0.00     0.167 HD
ATOM     57  O   UNL     1      21.441  26.467  20.099  1.00  0.00    -0.225 OA
BRANCH  55  58
ATOM     58  O   UNL     1      20.067  27.986  19.081  1.00  0.00    -0.443 OA
BRANCH  58  59
ATOM     59  C   UNL     1      19.479  29.188  19.511  1.00  0.00     0.294 C 
BRANCH  59  60
ATOM     60  C   UNL     1      18.139  28.916  20.081  1.00  0.00     0.121 A 
ATOM     61  C   UNL     1      17.412  29.629  21.016  1.00  0.00     0.144 A 
ATOM     62  N   UNL     1      17.370  27.865  19.733  1.00  0.00    -0.131 NA
ATOM     63  N   UNL     1      16.249  28.991  21.194  1.00  0.00    -0.220 N 
ATOM     64  N   UNL     1      16.248  27.916  20.399  1.00  0.00    -0.062 NA
BRANCH  63  65
ATOM     65  C   UNL     1      15.131  29.277  22.020  1.00  0.00     0.067 A 
ATOM     66  C   UNL     1      15.211  29.516  23.366  1.00  0.00     0.032 A 
ATOM     67  C   UNL     1      13.863  29.309  21.443  1.00  0.00     0.032 A 
ATOM     68  C   UNL     1      14.075  29.779  24.118  1.00  0.00     0.048 A 
ATOM     69  C   UNL     1      12.732  29.570  22.192  1.00  0.00     0.048 A 
ATOM     70  C   UNL     1      12.816  29.811  23.547  1.00  0.00     0.119 A 
BRANCH  70  71
ATOM     71  O   UNL     1      11.671  30.078  24.322  1.00  0.00    -0.497 OA
ATOM     72  C   UNL     1      10.766  28.986  24.540  1.00  0.00     0.278 C 
ENDBRANCH  70  71
ENDBRANCH  63  65
ENDBRANCH  59  60
ENDBRANCH  58  59
ENDBRANCH  55  58
ENDBRANCH  53  54
ENDBRANCH  50  53
ENDBRANCH  47  50
ENDBRANCH   5  47
BRANCH   4  73
ATOM     73  N   UNL     1      26.031  25.936  21.857  1.00  0.00    -0.348 N 
ATOM     74  C   UNL     1      26.028  25.654  20.467  1.00  0.00     0.217 C 
ATOM     75  H   UNL     1      26.875  26.353  22.286  1.00  0.00     0.163 HD
ATOM     76  C   UNL     1      27.241  25.913  19.648  1.00  0.00     0.114 C 
ATOM     77  O   UNL     1      25.024  25.180  19.871  1.00  0.00    -0.275 OA
ENDBRANCH   4  73
TORSDOF 31
