REMARK VINA RESULT:    -6.023      7.493     14.669
REMARK INTER + INTRA:         -24.308
REMARK INTER:                 -16.712
REMARK INTRA:                  -7.596
REMARK UNBOUND:                -8.074
REMARK SMILES CC(=O)N[C@@H]1[C@@H](O)C[C@](OC[C@H]2O[C@@H](O[C@H]3[C@H](O)[C@@H](O)[C@H](OCCN=[N+]=[N-])O[C@@H]3CO)[C@H](O)[C@@H](O)[C@H]2O)(C(=O)O)O[C@H]1C(O)[C@H](O)CNC(=O)OCc1cn(C[C@@H](C)CN2CCN(c3ccc(Cl)cc3)CC2)nn1
REMARK SMILES IDX 43 1 42 2 9 3 8 4 41 5 6 6 5 7 10 8 11 9 12 10 14 11 13 12
REMARK SMILES IDX 32 13 34 14 36 15 15 16 16 17 29 18 28 19 21 20 17 21 19 22
REMARK SMILES IDX 30 23 31 24 22 26 23 27 24 28 25 29 26 30 27 31 18 32 20 34
REMARK SMILES IDX 33 36 35 38 37 40 38 42 39 43 40 44 7 46 4 48 2 49 1 51 3 52
REMARK SMILES IDX 44 53 45 55 46 56 47 58 48 59 49 60 50 62 51 63 52 64 53 65
REMARK SMILES IDX 54 66 74 67 55 68 73 69 56 70 57 71 58 72 59 73 60 74 61 75
REMARK SMILES IDX 72 76 62 77 71 78 63 79 64 80 65 81 70 82 66 83 69 84 67 85
REMARK SMILES IDX 68 86
REMARK H PARENT 31 25 18 33 20 35 33 37 35 39 37 41 40 45 7 47 4 50 44 54
REMARK H PARENT 46 57 48 61
REMARK Flexibility Score: inf
ROOT
ATOM      1  C   UNL     1      24.649  27.555  21.368  1.00  0.00     0.176 C 
ENDROOT
BRANCH   1   2
ATOM      2  C   UNL     1      23.822  26.309  21.648  1.00  0.00     0.178 C 
ATOM      3  C   UNL     1      22.733  25.084  23.350  1.00  0.00     0.272 C 
ATOM      4  C   UNL     1      22.875  23.953  22.458  1.00  0.00     0.113 C 
ATOM      5  O   UNL     1      23.651  26.116  22.979  1.00  0.00    -0.332 OA
ATOM      6  C   UNL     1      24.221  23.905  21.759  1.00  0.00     0.145 C 
ATOM      7  C   UNL     1      24.287  25.139  20.849  1.00  0.00     0.142 C 
BRANCH   3   8
ATOM      8  O   UNL     1      22.904  24.967  24.664  1.00  0.00    -0.338 OA
BRANCH   8   9
ATOM      9  C   UNL     1      23.998  25.065  25.372  1.00  0.00     0.199 C 
BRANCH   9  10
ATOM     10  C   UNL     1      24.052  25.726  26.719  1.00  0.00     0.179 C 
ATOM     11  C   UNL     1      25.801  26.360  28.128  1.00  0.00     0.282 C 
ATOM     12  O   UNL     1      25.125  25.361  27.481  1.00  0.00    -0.341 OA
ATOM     13  C   UNL     1      26.432  27.279  27.099  1.00  0.00     0.202 C 
ATOM     14  C   UNL     1      25.345  27.836  26.239  1.00  0.00     0.179 C 
ATOM     15  C   UNL     1      24.003  27.247  26.509  1.00  0.00     0.177 C 
BRANCH  11  16
ATOM     16  O   UNL     1      26.855  25.727  28.829  1.00  0.00    -0.341 OA
BRANCH  16  17
ATOM     17  C   UNL     1      26.535  25.639  30.160  1.00  0.00     0.184 C 
ATOM     18  C   UNL     1      25.300  26.440  30.518  1.00  0.00     0.178 C 
ATOM     19  O   UNL     1      25.532  27.533  31.294  1.00  0.00    -0.341 OA
ATOM     20  C   UNL     1      26.205  27.314  32.483  1.00  0.00     0.281 C 
ATOM     21  C   UNL     1      27.708  26.027  31.053  1.00  0.00     0.180 C 
ATOM     22  C   UNL     1      27.161  26.153  32.456  1.00  0.00     0.202 C 
BRANCH  18  23
ATOM     23  C   UNL     1      24.178  25.555  31.040  1.00  0.00     0.191 C 
BRANCH  23  24
ATOM     24  O   UNL     1      23.942  24.477  30.224  1.00  0.00    -0.394 OA
ATOM     25  H   UNL     1      24.818  23.994  30.118  1.00  0.00     0.210 HD
ENDBRANCH  23  24
ENDBRANCH  18  23
BRANCH  20  26
ATOM     26  O   UNL     1      25.344  27.189  33.566  1.00  0.00    -0.350 OA
BRANCH  26  27
ATOM     27  C   UNL     1      24.967  28.357  34.164  1.00  0.00     0.169 C 
BRANCH  27  28
ATOM     28  C   UNL     1      23.540  28.316  34.630  1.00  0.00     0.119 C 
BRANCH  28  29
ATOM     29  N   UNL     1      22.703  27.798  33.561  1.00  0.00    -0.092 NA
ATOM     30  N   UNL     1      22.501  28.495  32.549  1.00  0.00     0.001 N 
ATOM     31  N   UNL     1      22.382  29.278  31.616  1.00  0.00    -0.003 NA
ENDBRANCH  28  29
ENDBRANCH  27  28
ENDBRANCH  26  27
ENDBRANCH  20  26
BRANCH  21  32
ATOM     32  O   UNL     1      28.671  25.020  31.068  1.00  0.00    -0.387 OA
ATOM     33  H   UNL     1      28.203  24.199  30.734  1.00  0.00     0.211 HD
ENDBRANCH  21  32
BRANCH  22  34
ATOM     34  O   UNL     1      28.240  26.464  33.320  1.00  0.00    -0.385 OA
ATOM     35  H   UNL     1      28.193  26.003  34.172  1.00  0.00     0.211 HD
ENDBRANCH  22  34
ENDBRANCH  16  17
ENDBRANCH  11  16
BRANCH  13  36
ATOM     36  O   UNL     1      27.155  28.247  27.774  1.00  0.00    -0.385 OA
ATOM     37  H   UNL     1      26.700  29.122  27.595  1.00  0.00     0.211 HD
ENDBRANCH  13  36
BRANCH  14  38
ATOM     38  O   UNL     1      25.647  27.782  24.871  1.00  0.00    -0.387 OA
ATOM     39  H   UNL     1      24.962  27.278  24.376  1.00  0.00     0.211 HD
ENDBRANCH  14  38
BRANCH  15  40
ATOM     40  O   UNL     1      23.125  27.523  25.490  1.00  0.00    -0.387 OA
ATOM     41  H   UNL     1      23.470  28.201  24.866  1.00  0.00     0.211 HD
ENDBRANCH  15  40
ENDBRANCH   9  10
ENDBRANCH   8   9
ENDBRANCH   3   8
BRANCH   3  42
ATOM     42  C   UNL     1      21.418  25.792  23.087  1.00  0.00     0.364 C 
ATOM     43  O   UNL     1      21.087  26.817  23.778  1.00  0.00    -0.246 OA
BRANCH  42  44
ATOM     44  O   UNL     1      20.510  25.405  22.134  1.00  0.00    -0.477 OA
ATOM     45  H   UNL     1      20.587  25.712  21.172  1.00  0.00     0.296 HD
ENDBRANCH  42  44
ENDBRANCH   3  42
BRANCH   6  46
ATOM     46  O   UNL     1      25.198  23.985  22.751  1.00  0.00    -0.391 OA
ATOM     47  H   UNL     1      25.980  24.508  22.450  1.00  0.00     0.211 HD
ENDBRANCH   6  46
BRANCH   7  48
ATOM     48  N   UNL     1      23.439  24.870  19.706  1.00  0.00    -0.348 N 
ATOM     49  C   UNL     1      23.986  24.876  18.397  1.00  0.00     0.217 C 
ATOM     50  H   UNL     1      22.406  24.667  19.798  1.00  0.00     0.163 HD
ATOM     51  C   UNL     1      23.070  24.592  17.236  1.00  0.00     0.114 C 
ATOM     52  O   UNL     1      25.205  25.108  18.158  1.00  0.00    -0.275 OA
ENDBRANCH   7  48
ENDBRANCH   1   2
BRANCH   1  53
ATOM     53  O   UNL     1      24.847  27.619  19.990  1.00  0.00    -0.388 OA
ATOM     54  H   UNL     1      24.652  26.754  19.559  1.00  0.00     0.211 HD
ENDBRANCH   1  53
BRANCH   1  55
ATOM     55  C   UNL     1      23.972  28.838  21.762  1.00  0.00     0.165 C 
BRANCH  55  56
ATOM     56  O   UNL     1      23.238  28.786  22.918  1.00  0.00    -0.388 OA
ATOM     57  H   UNL     1      22.279  28.816  22.762  1.00  0.00     0.211 HD
ENDBRANCH  55  56
BRANCH  55  58
ATOM     58  C   UNL     1      23.208  29.499  20.667  1.00  0.00     0.154 C 
BRANCH  58  59
ATOM     59  N   UNL     1      21.783  29.222  20.864  1.00  0.00    -0.319 N 
ATOM     60  C   UNL     1      21.118  28.217  20.124  1.00  0.00     0.407 C 
ATOM     61  H   UNL     1      21.255  29.779  21.566  1.00  0.00     0.167 HD
ATOM     62  O   UNL     1      21.784  27.566  19.282  1.00  0.00    -0.225 OA
BRANCH  60  63
ATOM     63  O   UNL     1      19.769  27.966  20.332  1.00  0.00    -0.443 OA
BRANCH  63  64
ATOM     64  C   UNL     1      18.825  28.709  19.560  1.00  0.00     0.294 C 
BRANCH  64  65
ATOM     65  C   UNL     1      17.492  28.762  20.201  1.00  0.00     0.120 A 
ATOM     66  C   UNL     1      16.907  29.846  20.815  1.00  0.00     0.138 A 
ATOM     67  N   UNL     1      16.589  27.759  20.312  1.00  0.00    -0.132 NA
ATOM     68  N   UNL     1      15.714  29.459  21.257  1.00  0.00    -0.252 N 
ATOM     69  N   UNL     1      15.526  28.195  20.950  1.00  0.00    -0.067 NA
BRANCH  68  70
ATOM     70  C   UNL     1      14.780  30.323  21.980  1.00  0.00     0.150 C 
BRANCH  70  71
ATOM     71  C   UNL     1      13.471  30.474  21.199  1.00  0.00     0.022 C 
ATOM     72  C   UNL     1      12.398  30.724  22.238  1.00  0.00     0.011 C 
BRANCH  71  73
ATOM     73  C   UNL     1      13.598  31.623  20.249  1.00  0.00     0.089 C 
BRANCH  73  74
ATOM     74  N   UNL     1      13.778  31.349  18.884  1.00  0.00    -0.299 NA
ATOM     75  C   UNL     1      13.727  30.038  18.391  1.00  0.00     0.106 C 
ATOM     76  C   UNL     1      14.613  32.272  18.185  1.00  0.00     0.106 C 
ATOM     77  C   UNL     1      14.950  29.681  17.545  1.00  0.00     0.132 C 
ATOM     78  C   UNL     1      14.539  31.990  16.695  1.00  0.00     0.132 C 
ATOM     79  N   UNL     1      15.109  30.684  16.492  1.00  0.00    -0.369 N 
BRANCH  79  80
ATOM     80  C   UNL     1      15.812  30.349  15.329  1.00  0.00     0.037 A 
ATOM     81  C   UNL     1      16.302  31.315  14.454  1.00  0.00     0.027 A 
ATOM     82  C   UNL     1      16.080  29.034  14.967  1.00  0.00     0.027 A 
ATOM     83  C   UNL     1      17.001  31.012  13.310  1.00  0.00     0.022 A 
ATOM     84  C   UNL     1      16.782  28.727  13.819  1.00  0.00     0.022 A 
ATOM     85  C   UNL     1      17.252  29.708  12.974  1.00  0.00     0.041 A 
ATOM     86  Cl  UNL     1      18.134  29.326  11.532  1.00  0.00    -0.084 Cl
ENDBRANCH  79  80
ENDBRANCH  73  74
ENDBRANCH  71  73
ENDBRANCH  70  71
ENDBRANCH  68  70
ENDBRANCH  64  65
ENDBRANCH  63  64
ENDBRANCH  60  63
ENDBRANCH  58  59
ENDBRANCH  55  58
ENDBRANCH   1  55
TORSDOF 34
