REMARK VINA RESULT:    -5.293      8.502     13.681
REMARK INTER + INTRA:         -22.684
REMARK INTER:                 -15.262
REMARK INTRA:                  -7.422
REMARK UNBOUND:                -8.417
REMARK SMILES CC(=O)N[C@@H]1[C@@H](O)C[C@](OC[C@H]2O[C@@H](O[C@H]3[C@H](O)[C@@H](O)[C@H](OCCN=[N+]=[N-])O[C@@H]3CO)[C@H](O)[C@@H](O)[C@H]2O)(C(=O)O)O[C@H]1C(O)[C@H](O)CNC(=O)OCc1cn(CCNC(=O)NCc2ccco2)nn1
REMARK SMILES IDX 43 1 42 2 9 3 8 4 41 5 6 6 5 7 10 8 11 9 12 10 14 11 13 12
REMARK SMILES IDX 32 13 34 14 36 15 15 16 16 17 29 18 28 19 21 20 17 21 19 22
REMARK SMILES IDX 30 23 31 24 22 26 23 27 24 28 25 29 26 30 27 31 18 32 20 34
REMARK SMILES IDX 33 36 35 38 37 40 38 42 39 43 40 44 7 46 4 48 2 49 1 51 3 52
REMARK SMILES IDX 44 53 45 55 46 56 47 58 48 59 49 60 50 62 51 63 52 64 53 65
REMARK SMILES IDX 54 66 69 67 55 68 68 69 56 70 57 71 58 72 59 73 60 75 61 76
REMARK SMILES IDX 62 78 63 79 64 80 67 81 65 82 66 83
REMARK H PARENT 31 25 18 33 20 35 33 37 35 39 37 41 40 45 7 47 4 50 44 54
REMARK H PARENT 46 57 48 61 58 74 61 77
REMARK Flexibility Score: inf
ROOT
ATOM      1  C   UNL     1      27.316  19.690  13.941  1.00  0.00     0.176 C 
ENDROOT
BRANCH   1   2
ATOM      2  C   UNL     1      28.209  18.795  14.740  1.00  0.00     0.178 C 
ATOM      3  C   UNL     1      28.489  19.793  16.880  1.00  0.00     0.272 C 
ATOM      4  C   UNL     1      29.518  20.666  16.090  1.00  0.00     0.113 C 
ATOM      5  O   UNL     1      27.980  18.833  16.081  1.00  0.00    -0.332 OA
ATOM      6  C   UNL     1      30.366  19.868  15.182  1.00  0.00     0.145 C 
ATOM      7  C   UNL     1      29.649  18.815  14.373  1.00  0.00     0.142 C 
BRANCH   3   8
ATOM      8  O   UNL     1      27.484  20.685  17.184  1.00  0.00    -0.338 OA
BRANCH   8   9
ATOM      9  C   UNL     1      27.743  21.974  17.384  1.00  0.00     0.199 C 
BRANCH   9  10
ATOM     10  C   UNL     1      27.619  22.716  18.623  1.00  0.00     0.179 C 
ATOM     11  C   UNL     1      27.449  22.753  20.910  1.00  0.00     0.282 C 
ATOM     12  O   UNL     1      27.843  22.014  19.795  1.00  0.00    -0.341 OA
ATOM     13  C   UNL     1      27.376  24.220  20.702  1.00  0.00     0.202 C 
ATOM     14  C   UNL     1      28.339  24.792  19.702  1.00  0.00     0.179 C 
ATOM     15  C   UNL     1      28.700  23.815  18.622  1.00  0.00     0.177 C 
BRANCH  11  16
ATOM     16  O   UNL     1      28.232  22.483  22.021  1.00  0.00    -0.341 OA
BRANCH  16  17
ATOM     17  C   UNL     1      29.242  21.536  21.755  1.00  0.00     0.184 C 
ATOM     18  C   UNL     1      28.951  20.326  22.594  1.00  0.00     0.178 C 
ATOM     19  O   UNL     1      30.112  19.687  23.021  1.00  0.00    -0.341 OA
ATOM     20  C   UNL     1      30.739  20.557  23.905  1.00  0.00     0.281 C 
ATOM     21  C   UNL     1      30.557  22.194  22.011  1.00  0.00     0.180 C 
ATOM     22  C   UNL     1      31.364  21.675  23.141  1.00  0.00     0.202 C 
BRANCH  18  23
ATOM     23  C   UNL     1      28.208  19.314  21.721  1.00  0.00     0.191 C 
BRANCH  23  24
ATOM     24  O   UNL     1      29.101  18.247  21.480  1.00  0.00    -0.394 OA
ATOM     25  H   UNL     1      28.807  17.530  22.115  1.00  0.00     0.210 HD
ENDBRANCH  23  24
ENDBRANCH  18  23
BRANCH  20  26
ATOM     26  O   UNL     1      31.769  19.828  24.505  1.00  0.00    -0.350 OA
BRANCH  26  27
ATOM     27  C   UNL     1      31.994  18.620  23.843  1.00  0.00     0.169 C 
BRANCH  27  28
ATOM     28  C   UNL     1      33.467  18.271  24.067  1.00  0.00     0.119 C 
BRANCH  28  29
ATOM     29  N   UNL     1      33.491  17.180  25.025  1.00  0.00    -0.092 NA
ATOM     30  N   UNL     1      33.324  17.390  26.235  1.00  0.00     0.001 N 
ATOM     31  N   UNL     1      32.854  17.582  27.369  1.00  0.00    -0.003 NA
ENDBRANCH  28  29
ENDBRANCH  27  28
ENDBRANCH  26  27
ENDBRANCH  20  26
BRANCH  21  32
ATOM     32  O   UNL     1      31.299  22.120  20.815  1.00  0.00    -0.387 OA
ATOM     33  H   UNL     1      32.192  22.497  20.910  1.00  0.00     0.211 HD
ENDBRANCH  21  32
BRANCH  22  34
ATOM     34  O   UNL     1      31.547  22.729  24.072  1.00  0.00    -0.385 OA
ATOM     35  H   UNL     1      32.222  23.339  23.643  1.00  0.00     0.211 HD
ENDBRANCH  22  34
ENDBRANCH  16  17
ENDBRANCH  11  16
BRANCH  13  36
ATOM     36  O   UNL     1      26.068  24.677  20.493  1.00  0.00    -0.385 OA
ATOM     37  H   UNL     1      25.901  24.899  19.550  1.00  0.00     0.211 HD
ENDBRANCH  13  36
BRANCH  14  38
ATOM     38  O   UNL     1      29.492  25.296  20.317  1.00  0.00    -0.387 OA
ATOM     39  H   UNL     1      29.990  24.493  20.634  1.00  0.00     0.211 HD
ENDBRANCH  14  38
BRANCH  15  40
ATOM     40  O   UNL     1      29.958  23.277  18.750  1.00  0.00    -0.387 OA
ATOM     41  H   UNL     1      30.606  23.938  18.444  1.00  0.00     0.211 HD
ENDBRANCH  15  40
ENDBRANCH   9  10
ENDBRANCH   8   9
ENDBRANCH   3   8
BRANCH   3  42
ATOM     42  C   UNL     1      29.234  19.386  18.068  1.00  0.00     0.364 C 
ATOM     43  O   UNL     1      29.108  18.254  18.557  1.00  0.00    -0.246 OA
BRANCH  42  44
ATOM     44  O   UNL     1      30.132  20.224  18.738  1.00  0.00    -0.477 OA
ATOM     45  H   UNL     1      30.061  20.315  19.753  1.00  0.00     0.296 HD
ENDBRANCH  42  44
ENDBRANCH   3  42
BRANCH   6  46
ATOM     46  O   UNL     1      30.994  20.763  14.296  1.00  0.00    -0.391 OA
ATOM     47  H   UNL     1      30.402  21.545  14.154  1.00  0.00     0.211 HD
ENDBRANCH   6  46
BRANCH   7  48
ATOM     48  N   UNL     1      30.287  17.522  14.625  1.00  0.00    -0.348 N 
ATOM     49  C   UNL     1      30.548  16.623  13.582  1.00  0.00     0.217 C 
ATOM     50  H   UNL     1      30.544  17.288  15.607  1.00  0.00     0.163 HD
ATOM     51  C   UNL     1      31.194  15.292  13.788  1.00  0.00     0.114 C 
ATOM     52  O   UNL     1      30.207  16.975  12.408  1.00  0.00    -0.275 OA
ENDBRANCH   7  48
ENDBRANCH   1   2
BRANCH   1  53
ATOM     53  O   UNL     1      26.120  19.913  14.712  1.00  0.00    -0.388 OA
ATOM     54  H   UNL     1      25.911  19.056  15.114  1.00  0.00     0.211 HD
ENDBRANCH   1  53
BRANCH   1  55
ATOM     55  C   UNL     1      26.776  19.123  12.661  1.00  0.00     0.165 C 
BRANCH  55  56
ATOM     56  O   UNL     1      26.611  20.000  11.615  1.00  0.00    -0.388 OA
ATOM     57  H   UNL     1      27.440  20.165  11.100  1.00  0.00     0.211 HD
ENDBRANCH  55  56
BRANCH  55  58
ATOM     58  C   UNL     1      25.490  18.328  12.906  1.00  0.00     0.154 C 
BRANCH  58  59
ATOM     59  N   UNL     1      24.340  19.036  12.396  1.00  0.00    -0.319 N 
ATOM     60  C   UNL     1      23.251  19.431  13.205  1.00  0.00     0.407 C 
ATOM     61  H   UNL     1      24.314  19.269  11.384  1.00  0.00     0.167 HD
ATOM     62  O   UNL     1      23.267  19.162  14.435  1.00  0.00    -0.225 OA
BRANCH  60  63
ATOM     63  O   UNL     1      22.154  20.111  12.685  1.00  0.00    -0.443 OA
BRANCH  63  64
ATOM     64  C   UNL     1      22.346  21.422  12.161  1.00  0.00     0.294 C 
BRANCH  64  65
ATOM     65  C   UNL     1      23.362  22.056  13.055  1.00  0.00     0.120 A 
ATOM     66  C   UNL     1      23.087  22.715  14.223  1.00  0.00     0.138 A 
ATOM     67  N   UNL     1      24.705  22.085  12.869  1.00  0.00    -0.132 NA
ATOM     68  N   UNL     1      24.252  23.121  14.705  1.00  0.00    -0.250 N 
ATOM     69  N   UNL     1      25.227  22.737  13.882  1.00  0.00    -0.067 NA
BRANCH  68  70
ATOM     70  C   UNL     1      24.422  23.881  15.943  1.00  0.00     0.167 C 
BRANCH  70  71
ATOM     71  C   UNL     1      23.039  24.395  16.345  1.00  0.00     0.141 C 
BRANCH  71  72
ATOM     72  N   UNL     1      22.877  24.116  17.742  1.00  0.00    -0.336 N 
ATOM     73  C   UNL     1      23.056  25.072  18.761  1.00  0.00     0.315 C 
ATOM     74  H   UNL     1      22.609  23.127  17.994  1.00  0.00     0.165 HD
ATOM     75  O   UNL     1      23.394  26.246  18.497  1.00  0.00    -0.249 OA
ATOM     76  N   UNL     1      22.838  24.676  20.124  1.00  0.00    -0.331 N 
ATOM     77  H   UNL     1      22.554  23.678  20.299  1.00  0.00     0.165 HD
BRANCH  76  78
ATOM     78  C   UNL     1      23.008  25.622  21.191  1.00  0.00     0.193 C 
BRANCH  78  79
ATOM     79  C   UNL     1      22.278  25.170  22.406  1.00  0.00     0.122 A 
ATOM     80  C   UNL     1      22.878  24.933  23.637  1.00  0.00     0.047 A 
ATOM     81  O   UNL     1      21.015  24.932  22.512  1.00  0.00    -0.467 OA
ATOM     82  C   UNL     1      21.875  24.540  24.473  1.00  0.00     0.042 A 
ATOM     83  C   UNL     1      20.722  24.550  23.735  1.00  0.00     0.195 A 
ENDBRANCH  78  79
ENDBRANCH  76  78
ENDBRANCH  71  72
ENDBRANCH  70  71
ENDBRANCH  68  70
ENDBRANCH  64  65
ENDBRANCH  63  64
ENDBRANCH  60  63
ENDBRANCH  58  59
ENDBRANCH  55  58
ENDBRANCH   1  55
TORSDOF 34
