REMARK VINA RESULT:    -6.085      3.715     11.933
REMARK INTER + INTRA:         -23.271
REMARK INTER:                 -16.310
REMARK INTRA:                  -6.961
REMARK UNBOUND:                -7.402
REMARK SMILES CC(=O)N[C@@H]1[C@@H](O)C[C@](OC[C@H]2O[C@@H](O[C@H]3[C@H](O)[C@@H](O)[C@H](OCCN=[N+]=[N-])O[C@@H]3CO)[C@H](O)[C@@H](O)[C@H]2O)(C(=O)O)O[C@H]1C(O)[C@H](O)CNC(=O)OCc1cn(-c2ccc(S(=O)(=O)c3ccc(N)cc3)cc2)nn1
REMARK SMILES IDX 43 1 42 2 9 3 8 4 41 5 6 6 5 7 10 8 11 9 12 10 14 11 13 12
REMARK SMILES IDX 32 13 34 14 36 15 15 16 16 17 29 18 28 19 21 20 17 21 19 22
REMARK SMILES IDX 30 23 31 24 22 26 23 27 24 28 25 29 26 30 27 31 18 32 20 34
REMARK SMILES IDX 33 36 35 38 37 40 38 42 39 43 40 44 7 46 4 48 2 49 1 51 3 52
REMARK SMILES IDX 44 53 45 55 46 56 47 58 48 59 49 60 50 62 51 63 52 64 53 65
REMARK SMILES IDX 54 66 73 67 55 68 72 69 56 70 57 71 71 72 58 73 70 74 59 75
REMARK SMILES IDX 60 76 61 77 62 78 63 79 64 80 69 81 65 82 68 83 66 84 67 85
REMARK H PARENT 31 25 18 33 20 35 33 37 35 39 37 41 40 45 7 47 4 50 44 54
REMARK H PARENT 46 57 48 61 67 86 67 87
REMARK Flexibility Score: inf
ROOT
ATOM      1  C   UNL     1      22.832  28.393  21.400  1.00  0.00     0.176 C 
ENDROOT
BRANCH   1   2
ATOM      2  C   UNL     1      22.782  26.881  21.618  1.00  0.00     0.178 C 
ATOM      3  C   UNL     1      22.687  25.230  23.235  1.00  0.00     0.272 C 
ATOM      4  C   UNL     1      23.731  24.441  22.515  1.00  0.00     0.113 C 
ATOM      5  O   UNL     1      22.814  26.601  22.951  1.00  0.00    -0.332 OA
ATOM      6  C   UNL     1      24.703  25.410  21.861  1.00  0.00     0.145 C 
ATOM      7  C   UNL     1      23.955  26.232  20.866  1.00  0.00     0.142 C 
BRANCH   3   8
ATOM      8  O   UNL     1      22.756  25.166  24.630  1.00  0.00    -0.338 OA
BRANCH   8   9
ATOM      9  C   UNL     1      23.954  24.792  25.160  1.00  0.00     0.199 C 
BRANCH   9  10
ATOM     10  C   UNL     1      24.243  25.626  26.388  1.00  0.00     0.179 C 
ATOM     11  C   UNL     1      23.672  27.542  27.491  1.00  0.00     0.282 C 
ATOM     12  O   UNL     1      23.310  26.669  26.431  1.00  0.00    -0.341 OA
ATOM     13  C   UNL     1      23.332  26.797  28.751  1.00  0.00     0.202 C 
ATOM     14  C   UNL     1      24.257  25.608  28.881  1.00  0.00     0.179 C 
ATOM     15  C   UNL     1      24.184  24.777  27.611  1.00  0.00     0.177 C 
BRANCH  11  16
ATOM     16  O   UNL     1      23.004  28.724  27.304  1.00  0.00    -0.341 OA
BRANCH  16  17
ATOM     17  C   UNL     1      22.632  28.881  25.948  1.00  0.00     0.184 C 
ATOM     18  C   UNL     1      23.168  30.196  25.477  1.00  0.00     0.178 C 
ATOM     19  O   UNL     1      22.250  31.033  24.901  1.00  0.00    -0.341 OA
ATOM     20  C   UNL     1      21.090  31.264  25.581  1.00  0.00     0.281 C 
ATOM     21  C   UNL     1      21.109  28.867  25.969  1.00  0.00     0.180 C 
ATOM     22  C   UNL     1      20.707  30.195  26.579  1.00  0.00     0.202 C 
BRANCH  18  23
ATOM     23  C   UNL     1      24.178  29.859  24.364  1.00  0.00     0.191 C 
BRANCH  23  24
ATOM     24  O   UNL     1      24.575  28.545  24.386  1.00  0.00    -0.394 OA
ATOM     25  H   UNL     1      25.441  28.381  24.835  1.00  0.00     0.210 HD
ENDBRANCH  23  24
ENDBRANCH  18  23
BRANCH  20  26
ATOM     26  O   UNL     1      20.060  31.325  24.649  1.00  0.00    -0.350 OA
BRANCH  26  27
ATOM     27  C   UNL     1      19.271  32.440  24.719  1.00  0.00     0.169 C 
BRANCH  27  28
ATOM     28  C   UNL     1      17.891  32.098  25.172  1.00  0.00     0.119 C 
BRANCH  28  29
ATOM     29  N   UNL     1      17.079  31.695  24.011  1.00  0.00    -0.092 NA
ATOM     30  N   UNL     1      16.938  30.509  23.716  1.00  0.00     0.001 N 
ATOM     31  N   UNL     1      16.433  29.374  23.668  1.00  0.00    -0.003 NA
ENDBRANCH  28  29
ENDBRANCH  27  28
ENDBRANCH  26  27
ENDBRANCH  20  26
BRANCH  21  32
ATOM     32  O   UNL     1      20.615  28.793  24.688  1.00  0.00    -0.387 OA
ATOM     33  H   UNL     1      19.663  28.503  24.696  1.00  0.00     0.211 HD
ENDBRANCH  21  32
BRANCH  22  34
ATOM     34  O   UNL     1      21.246  30.391  27.829  1.00  0.00    -0.385 OA
ATOM     35  H   UNL     1      22.008  29.784  28.023  1.00  0.00     0.211 HD
ENDBRANCH  22  34
ENDBRANCH  16  17
ENDBRANCH  11  16
BRANCH  13  36
ATOM     36  O   UNL     1      23.378  27.610  29.882  1.00  0.00    -0.385 OA
ATOM     37  H   UNL     1      22.547  27.398  30.415  1.00  0.00     0.211 HD
ENDBRANCH  13  36
BRANCH  14  38
ATOM     38  O   UNL     1      23.768  24.779  29.901  1.00  0.00    -0.387 OA
ATOM     39  H   UNL     1      24.380  24.037  30.056  1.00  0.00     0.211 HD
ENDBRANCH  14  38
BRANCH  15  40
ATOM     40  O   UNL     1      23.066  23.955  27.621  1.00  0.00    -0.387 OA
ATOM     41  H   UNL     1      22.837  23.678  26.704  1.00  0.00     0.211 HD
ENDBRANCH  15  40
ENDBRANCH   9  10
ENDBRANCH   8   9
ENDBRANCH   3   8
BRANCH   3  42
ATOM     42  C   UNL     1      21.297  24.843  22.874  1.00  0.00     0.364 C 
ATOM     43  O   UNL     1      20.813  24.866  21.718  1.00  0.00    -0.246 OA
BRANCH  42  44
ATOM     44  O   UNL     1      20.439  24.418  23.875  1.00  0.00    -0.477 OA
ATOM     45  H   UNL     1      20.780  23.876  24.685  1.00  0.00     0.296 HD
ENDBRANCH  42  44
ENDBRANCH   3  42
BRANCH   6  46
ATOM     46  O   UNL     1      25.133  26.266  22.880  1.00  0.00    -0.391 OA
ATOM     47  H   UNL     1      24.508  26.264  23.654  1.00  0.00     0.211 HD
ENDBRANCH   6  46
BRANCH   7  48
ATOM     48  N   UNL     1      23.472  25.527  19.722  1.00  0.00    -0.348 N 
ATOM     49  C   UNL     1      23.699  25.930  18.375  1.00  0.00     0.217 C 
ATOM     50  H   UNL     1      22.915  24.649  19.864  1.00  0.00     0.163 HD
ATOM     51  C   UNL     1      23.144  25.112  17.268  1.00  0.00     0.114 C 
ATOM     52  O   UNL     1      24.357  26.960  18.180  1.00  0.00    -0.275 OA
ENDBRANCH   7  48
ENDBRANCH   1   2
BRANCH   1  53
ATOM     53  O   UNL     1      23.679  28.717  20.353  1.00  0.00    -0.388 OA
ATOM     54  H   UNL     1      24.633  28.712  20.666  1.00  0.00     0.211 HD
ENDBRANCH   1  53
BRANCH   1  55
ATOM     55  C   UNL     1      21.486  29.002  21.308  1.00  0.00     0.165 C 
BRANCH  55  56
ATOM     56  O   UNL     1      20.491  28.077  21.635  1.00  0.00    -0.388 OA
ATOM     57  H   UNL     1      20.122  27.604  20.872  1.00  0.00     0.211 HD
ENDBRANCH  55  56
BRANCH  55  58
ATOM     58  C   UNL     1      21.181  29.452  19.895  1.00  0.00     0.154 C 
BRANCH  58  59
ATOM     59  N   UNL     1      19.866  29.090  19.447  1.00  0.00    -0.319 N 
ATOM     60  C   UNL     1      19.738  28.298  18.279  1.00  0.00     0.407 C 
ATOM     61  H   UNL     1      19.018  29.391  19.952  1.00  0.00     0.167 HD
ATOM     62  O   UNL     1      20.790  27.929  17.680  1.00  0.00    -0.225 OA
BRANCH  60  63
ATOM     63  O   UNL     1      18.540  27.893  17.736  1.00  0.00    -0.443 OA
BRANCH  63  64
ATOM     64  C   UNL     1      17.803  28.634  16.787  1.00  0.00     0.294 C 
BRANCH  64  65
ATOM     65  C   UNL     1      16.516  29.042  17.403  1.00  0.00     0.121 A 
ATOM     66  C   UNL     1      16.136  29.094  18.729  1.00  0.00     0.144 A 
ATOM     67  N   UNL     1      15.417  29.487  16.714  1.00  0.00    -0.131 NA
ATOM     68  N   UNL     1      14.851  29.558  18.806  1.00  0.00    -0.220 N 
ATOM     69  N   UNL     1      14.466  29.778  17.573  1.00  0.00    -0.062 NA
BRANCH  68  70
ATOM     70  C   UNL     1      14.075  29.782  19.963  1.00  0.00     0.066 A 
ATOM     71  C   UNL     1      13.416  31.000  20.151  1.00  0.00     0.030 A 
ATOM     72  C   UNL     1      13.920  28.848  20.956  1.00  0.00     0.030 A 
ATOM     73  C   UNL     1      12.650  31.267  21.259  1.00  0.00     0.023 A 
ATOM     74  C   UNL     1      13.143  29.113  22.085  1.00  0.00     0.023 A 
ATOM     75  C   UNL     1      12.502  30.322  22.249  1.00  0.00     0.072 A 
BRANCH  75  76
ATOM     76  S   UNL     1      11.525  30.650  23.664  1.00  0.00     0.206 S 
ATOM     77  O   UNL     1      11.059  29.322  24.240  1.00  0.00    -0.219 OA
ATOM     78  O   UNL     1      10.377  31.560  23.384  1.00  0.00    -0.219 OA
BRANCH  76  79
ATOM     79  C   UNL     1      12.553  31.363  24.907  1.00  0.00     0.072 A 
ATOM     80  C   UNL     1      12.346  32.650  25.322  1.00  0.00     0.023 A 
ATOM     81  C   UNL     1      13.576  30.637  25.474  1.00  0.00     0.023 A 
ATOM     82  C   UNL     1      13.149  33.192  26.283  1.00  0.00     0.027 A 
ATOM     83  C   UNL     1      14.375  31.195  26.438  1.00  0.00     0.027 A 
ATOM     84  C   UNL     1      14.192  32.478  26.871  1.00  0.00     0.031 A 
BRANCH  84  85
ATOM     85  N   UNL     1      15.000  33.078  27.861  1.00  0.00    -0.399 N 
ATOM     86  H   UNL     1      15.307  32.554  28.691  1.00  0.00     0.156 HD
ATOM     87  H   UNL     1      15.292  34.065  27.752  1.00  0.00     0.156 HD
ENDBRANCH  84  85
ENDBRANCH  76  79
ENDBRANCH  75  76
ENDBRANCH  68  70
ENDBRANCH  64  65
ENDBRANCH  63  64
ENDBRANCH  60  63
ENDBRANCH  58  59
ENDBRANCH  55  58
ENDBRANCH   1  55
TORSDOF 33
