REMARK VINA RESULT:    -6.305     10.392     16.572
REMARK INTER + INTRA:         -20.535
REMARK INTER:                 -15.519
REMARK INTRA:                  -5.017
REMARK UNBOUND:                -5.017
REMARK SMILES CC(=O)N[C@@H]1[C@@H](O)C[C@](OC[C@H]2O[C@@H](O[C@H]3[C@H](O)[C@@H](O)[C@H](OCCN=[N+]=[N-])O[C@@H]3CO)[C@H](O)[C@@H](O)[C@H]2O)(C(=O)O)O[C@H]1C(O)[C@H](O)CNC(=O)OCc1cn(C2CCCCC2)nn1
REMARK SMILES IDX 9 1 8 2 6 3 5 4 42 5 41 6 10 7 11 8 12 9 14 10 13 11 32 12
REMARK SMILES IDX 34 13 36 14 15 15 16 16 29 17 28 18 21 19 17 20 19 21 30 22
REMARK SMILES IDX 31 23 22 25 23 26 24 27 25 28 26 29 27 30 18 31 20 33 33 35
REMARK SMILES IDX 35 37 37 39 38 41 39 42 40 43 7 45 43 47 44 48 45 50 46 51
REMARK SMILES IDX 47 53 48 54 49 55 50 57 51 58 52 59 53 60 54 61 63 62 55 63
REMARK SMILES IDX 62 64 56 65 57 66 61 67 58 68 60 69 59 70 4 71 2 72 1 74
REMARK SMILES IDX 3 75
REMARK H PARENT 31 24 18 32 20 34 33 36 35 38 37 40 40 44 7 46 44 49 46 52
REMARK H PARENT 48 56 4 73
REMARK Flexibility Score: inf
ROOT
ATOM      1  C   UNL     1      29.549  20.183  20.823  1.00  0.00     0.272 C 
ATOM      2  C   UNL     1      30.731  20.313  19.791  1.00  0.00     0.113 C 
ATOM      3  C   UNL     1      30.798  21.724  19.292  1.00  0.00     0.145 C 
ATOM      4  C   UNL     1      29.480  22.153  18.704  1.00  0.00     0.142 C 
ATOM      5  C   UNL     1      28.298  21.634  19.446  1.00  0.00     0.178 C 
ATOM      6  O   UNL     1      28.398  20.630  20.293  1.00  0.00    -0.332 OA
ENDROOT
BRANCH   1   7
ATOM      7  O   UNL     1      29.976  20.893  21.857  1.00  0.00    -0.338 OA
BRANCH   7   8
ATOM      8  C   UNL     1      29.932  20.760  23.140  1.00  0.00     0.199 C 
BRANCH   8   9
ATOM      9  C   UNL     1      30.658  21.700  24.088  1.00  0.00     0.179 C 
ATOM     10  C   UNL     1      31.711  20.972  26.053  1.00  0.00     0.282 C 
ATOM     11  O   UNL     1      30.542  21.329  25.389  1.00  0.00    -0.341 OA
ATOM     12  C   UNL     1      32.710  22.058  25.921  1.00  0.00     0.202 C 
ATOM     13  C   UNL     1      32.920  22.527  24.502  1.00  0.00     0.179 C 
ATOM     14  C   UNL     1      32.095  21.717  23.577  1.00  0.00     0.177 C 
BRANCH  10  15
ATOM     15  O   UNL     1      32.032  19.722  25.671  1.00  0.00    -0.341 OA
BRANCH  15  16
ATOM     16  C   UNL     1      32.567  18.848  26.558  1.00  0.00     0.184 C 
ATOM     17  C   UNL     1      33.205  17.720  25.775  1.00  0.00     0.178 C 
ATOM     18  O   UNL     1      34.022  16.927  26.559  1.00  0.00    -0.341 OA
ATOM     19  C   UNL     1      33.692  16.910  27.888  1.00  0.00     0.281 C 
ATOM     20  C   UNL     1      31.547  18.174  27.452  1.00  0.00     0.180 C 
ATOM     21  C   UNL     1      32.227  16.996  28.110  1.00  0.00     0.202 C 
BRANCH  17  22
ATOM     22  C   UNL     1      33.867  18.168  24.504  1.00  0.00     0.191 C 
BRANCH  22  23
ATOM     23  O   UNL     1      34.636  19.293  24.804  1.00  0.00    -0.394 OA
ATOM     24  H   UNL     1      34.304  19.770  25.601  1.00  0.00     0.210 HD
ENDBRANCH  22  23
ENDBRANCH  17  22
BRANCH  19  25
ATOM     25  O   UNL     1      34.468  17.813  28.565  1.00  0.00    -0.350 OA
BRANCH  25  26
ATOM     26  C   UNL     1      34.335  17.766  29.944  1.00  0.00     0.169 C 
BRANCH  26  27
ATOM     27  C   UNL     1      33.925  19.075  30.562  1.00  0.00     0.119 C 
BRANCH  27  28
ATOM     28  N   UNL     1      34.730  19.288  31.748  1.00  0.00    -0.092 NA
ATOM     29  N   UNL     1      34.315  18.763  32.790  1.00  0.00     0.001 N 
ATOM     30  N   UNL     1      33.784  18.773  33.915  1.00  0.00    -0.003 NA
ENDBRANCH  27  28
ENDBRANCH  26  27
ENDBRANCH  25  26
ENDBRANCH  19  25
BRANCH  20  31
ATOM     31  O   UNL     1      31.046  18.992  28.435  1.00  0.00    -0.387 OA
ATOM     32  H   UNL     1      30.832  19.903  28.115  1.00  0.00     0.211 HD
ENDBRANCH  20  31
BRANCH  21  33
ATOM     33  O   UNL     1      31.656  15.841  27.522  1.00  0.00    -0.385 OA
ATOM     34  H   UNL     1      32.291  15.084  27.559  1.00  0.00     0.211 HD
ENDBRANCH  21  33
ENDBRANCH  15  16
ENDBRANCH  10  15
BRANCH  12  35
ATOM     35  O   UNL     1      32.173  23.171  26.620  1.00  0.00    -0.385 OA
ATOM     36  H   UNL     1      31.704  23.786  26.014  1.00  0.00     0.211 HD
ENDBRANCH  12  35
BRANCH  13  37
ATOM     37  O   UNL     1      34.278  22.440  24.137  1.00  0.00    -0.387 OA
ATOM     38  H   UNL     1      34.335  22.058  23.246  1.00  0.00     0.211 HD
ENDBRANCH  13  37
BRANCH  14  39
ATOM     39  O   UNL     1      32.573  20.482  23.237  1.00  0.00    -0.387 OA
ATOM     40  H   UNL     1      32.682  19.954  24.064  1.00  0.00     0.211 HD
ENDBRANCH  14  39
ENDBRANCH   8   9
ENDBRANCH   7   8
ENDBRANCH   1   7
BRANCH   1  41
ATOM     41  C   UNL     1      29.420  18.692  20.980  1.00  0.00     0.364 C 
ATOM     42  O   UNL     1      30.273  17.879  20.646  1.00  0.00    -0.246 OA
BRANCH  41  43
ATOM     43  O   UNL     1      28.248  18.155  21.550  1.00  0.00    -0.477 OA
ATOM     44  H   UNL     1      27.871  18.545  22.399  1.00  0.00     0.296 HD
ENDBRANCH  41  43
ENDBRANCH   1  41
BRANCH   3  45
ATOM     45  O   UNL     1      31.242  22.595  20.278  1.00  0.00    -0.391 OA
ATOM     46  H   UNL     1      30.640  23.394  20.267  1.00  0.00     0.211 HD
ENDBRANCH   3  45
BRANCH   5  47
ATOM     47  C   UNL     1      27.599  22.801  20.208  1.00  0.00     0.176 C 
BRANCH  47  48
ATOM     48  O   UNL     1      27.186  22.326  21.468  1.00  0.00    -0.388 OA
ATOM     49  H   UNL     1      26.233  22.107  21.478  1.00  0.00     0.211 HD
ENDBRANCH  47  48
BRANCH  47  50
ATOM     50  C   UNL     1      28.483  23.995  20.321  1.00  0.00     0.165 C 
BRANCH  50  51
ATOM     51  O   UNL     1      29.110  23.911  21.586  1.00  0.00    -0.388 OA
ATOM     52  H   UNL     1      28.601  24.381  22.274  1.00  0.00     0.211 HD
ENDBRANCH  50  51
BRANCH  50  53
ATOM     53  C   UNL     1      27.830  25.325  20.261  1.00  0.00     0.154 C 
BRANCH  53  54
ATOM     54  N   UNL     1      26.398  25.316  20.115  1.00  0.00    -0.319 N 
ATOM     55  C   UNL     1      25.503  25.539  21.195  1.00  0.00     0.407 C 
ATOM     56  H   UNL     1      25.991  25.143  19.179  1.00  0.00     0.167 HD
ATOM     57  O   UNL     1      25.952  25.759  22.348  1.00  0.00    -0.225 OA
BRANCH  55  58
ATOM     58  O   UNL     1      24.147  25.524  21.028  1.00  0.00    -0.443 OA
BRANCH  58  59
ATOM     59  C   UNL     1      23.294  24.412  21.157  1.00  0.00     0.294 C 
BRANCH  59  60
ATOM     60  C   UNL     1      22.453  24.589  22.361  1.00  0.00     0.120 A 
ATOM     61  C   UNL     1      22.964  24.597  23.627  1.00  0.00     0.138 A 
ATOM     62  N   UNL     1      21.131  24.759  22.466  1.00  0.00    -0.132 NA
ATOM     63  N   UNL     1      21.941  24.774  24.495  1.00  0.00    -0.249 N 
ATOM     64  N   UNL     1      20.836  24.870  23.758  1.00  0.00    -0.067 NA
BRANCH  63  65
ATOM     65  C   UNL     1      22.048  24.839  25.939  1.00  0.00     0.109 C 
ATOM     66  C   UNL     1      21.895  26.314  26.299  1.00  0.00     0.027 C 
ATOM     67  C   UNL     1      23.416  24.379  26.389  1.00  0.00     0.027 C 
ATOM     68  C   UNL     1      21.905  26.457  27.821  1.00  0.00     0.002 C 
ATOM     69  C   UNL     1      24.098  25.381  27.297  1.00  0.00     0.002 C 
ATOM     70  C   UNL     1      23.156  25.846  28.366  1.00  0.00     0.000 C 
ENDBRANCH  63  65
ENDBRANCH  59  60
ENDBRANCH  58  59
ENDBRANCH  55  58
ENDBRANCH  53  54
ENDBRANCH  50  53
ENDBRANCH  47  50
ENDBRANCH   5  47
BRANCH   4  71
ATOM     71  N   UNL     1      29.427  21.929  17.283  1.00  0.00    -0.348 N 
ATOM     72  C   UNL     1      28.858  22.816  16.355  1.00  0.00     0.217 C 
ATOM     73  H   UNL     1      29.835  21.039  16.850  1.00  0.00     0.163 HD
ATOM     74  C   UNL     1      28.850  22.524  14.880  1.00  0.00     0.114 C 
ATOM     75  O   UNL     1      28.340  23.875  16.708  1.00  0.00    -0.275 OA
ENDBRANCH   4  71
TORSDOF 30
