REMARK VINA RESULT:    -6.479      4.480      9.159
REMARK INTER + INTRA:         -22.038
REMARK INTER:                 -14.909
REMARK INTRA:                  -7.129
REMARK UNBOUND:                -5.144
REMARK SMILES CC(=O)N[C@@H]1[C@@H](O)C[C@](OC[C@H]2O[C@@H](O[C@H]3[C@H](O)[C@@H](O)[C@H](OCCN=[N+]=[N-])O[C@@H]3CO)[C@H](O)[C@@H](O)[C@H]2O)(C(=O)O)O[C@H]1C(O)[C@H](O)CNC(=O)OCc1cn(-c2cccc(C=CC(=O)O)c2)nn1
REMARK SMILES IDX 43 1 42 2 9 3 8 4 41 5 6 6 5 7 10 8 11 9 12 10 14 11 13 12
REMARK SMILES IDX 32 13 34 14 36 15 15 16 16 17 29 18 28 19 21 20 17 21 19 22
REMARK SMILES IDX 30 23 31 24 22 26 23 27 24 28 25 29 26 30 27 31 18 32 20 34
REMARK SMILES IDX 33 36 35 38 37 40 38 42 39 43 40 44 7 46 4 48 2 49 1 51 3 52
REMARK SMILES IDX 44 53 45 55 46 56 47 58 48 59 49 60 50 62 51 63 52 64 53 65
REMARK SMILES IDX 54 66 68 67 55 68 67 69 56 70 66 71 57 72 60 73 58 74 59 75
REMARK SMILES IDX 61 76 62 77 63 78 64 79 65 80
REMARK H PARENT 31 25 18 33 20 35 33 37 35 39 37 41 40 45 7 47 4 50 44 54
REMARK H PARENT 46 57 48 61 65 81
REMARK Flexibility Score: inf
ROOT
ATOM      1  C   UNL     1      16.389  30.525  18.850  1.00  0.00     0.176 C 
ENDROOT
BRANCH   1   2
ATOM      2  C   UNL     1      17.094  31.057  17.618  1.00  0.00     0.178 C 
ATOM      3  C   UNL     1      16.568  31.485  15.360  1.00  0.00     0.272 C 
ATOM      4  C   UNL     1      18.118  31.874  15.497  1.00  0.00     0.113 C 
ATOM      5  O   UNL     1      16.205  30.961  16.584  1.00  0.00    -0.332 OA
ATOM      6  C   UNL     1      18.795  30.623  15.930  1.00  0.00     0.145 C 
ATOM      7  C   UNL     1      18.322  30.244  17.320  1.00  0.00     0.142 C 
BRANCH   3   8
ATOM      8  O   UNL     1      16.601  30.508  14.447  1.00  0.00    -0.338 OA
BRANCH   8   9
ATOM      9  C   UNL     1      15.749  30.323  13.454  1.00  0.00     0.199 C 
BRANCH   9  10
ATOM     10  C   UNL     1      14.588  29.368  13.639  1.00  0.00     0.179 C 
ATOM     11  C   UNL     1      12.660  29.612  14.986  1.00  0.00     0.282 C 
ATOM     12  O   UNL     1      14.032  29.616  14.838  1.00  0.00    -0.341 OA
ATOM     13  C   UNL     1      12.054  28.643  14.051  1.00  0.00     0.202 C 
ATOM     14  C   UNL     1      12.393  28.842  12.605  1.00  0.00     0.179 C 
ATOM     15  C   UNL     1      13.625  29.703  12.510  1.00  0.00     0.177 C 
BRANCH  11  16
ATOM     16  O   UNL     1      12.258  30.927  14.907  1.00  0.00    -0.341 OA
BRANCH  16  17
ATOM     17  C   UNL     1      11.298  31.313  15.777  1.00  0.00     0.184 C 
ATOM     18  C   UNL     1      10.254  32.153  15.107  1.00  0.00     0.178 C 
ATOM     19  O   UNL     1       9.156  32.154  16.001  1.00  0.00    -0.341 OA
ATOM     20  C   UNL     1       9.454  32.956  17.106  1.00  0.00     0.281 C 
ATOM     21  C   UNL     1      11.842  32.192  16.908  1.00  0.00     0.180 C 
ATOM     22  C   UNL     1      10.688  32.526  17.828  1.00  0.00     0.202 C 
BRANCH  18  23
ATOM     23  C   UNL     1       9.802  31.662  13.779  1.00  0.00     0.191 C 
BRANCH  23  24
ATOM     24  O   UNL     1      10.689  32.108  12.801  1.00  0.00    -0.394 OA
ATOM     25  H   UNL     1      11.630  32.103  13.159  1.00  0.00     0.210 HD
ENDBRANCH  23  24
ENDBRANCH  18  23
BRANCH  20  26
ATOM     26  O   UNL     1       8.373  32.877  17.979  1.00  0.00    -0.350 OA
BRANCH  26  27
ATOM     27  C   UNL     1       7.637  31.709  17.793  1.00  0.00     0.169 C 
BRANCH  27  28
ATOM     28  C   UNL     1       6.368  31.823  18.606  1.00  0.00     0.119 C 
BRANCH  28  29
ATOM     29  N   UNL     1       5.498  30.714  18.293  1.00  0.00    -0.092 NA
ATOM     30  N   UNL     1       5.200  29.880  19.167  1.00  0.00     0.001 N 
ATOM     31  N   UNL     1       5.222  28.858  19.869  1.00  0.00    -0.003 NA
ENDBRANCH  28  29
ENDBRANCH  27  28
ENDBRANCH  26  27
ENDBRANCH  20  26
BRANCH  21  32
ATOM     32  O   UNL     1      12.795  31.533  17.675  1.00  0.00    -0.387 OA
ATOM     33  H   UNL     1      12.715  30.577  17.431  1.00  0.00     0.211 HD
ENDBRANCH  21  32
BRANCH  22  34
ATOM     34  O   UNL     1      11.121  33.630  18.599  1.00  0.00    -0.385 OA
ATOM     35  H   UNL     1      11.758  33.365  19.300  1.00  0.00     0.211 HD
ENDBRANCH  22  34
ENDBRANCH  16  17
ENDBRANCH  11  16
BRANCH  13  36
ATOM     36  O   UNL     1      12.489  27.330  14.397  1.00  0.00    -0.385 OA
ATOM     37  H   UNL     1      13.483  27.328  14.484  1.00  0.00     0.211 HD
ENDBRANCH  13  36
BRANCH  14  38
ATOM     38  O   UNL     1      11.341  29.360  11.845  1.00  0.00    -0.387 OA
ATOM     39  H   UNL     1      10.465  28.993  12.127  1.00  0.00     0.211 HD
ENDBRANCH  14  38
BRANCH  15  40
ATOM     40  O   UNL     1      13.254  31.032  12.556  1.00  0.00    -0.387 OA
ATOM     41  H   UNL     1      12.798  31.269  13.422  1.00  0.00     0.211 HD
ENDBRANCH  15  40
ENDBRANCH   9  10
ENDBRANCH   8   9
ENDBRANCH   3   8
BRANCH   3  42
ATOM     42  C   UNL     1      15.886  32.743  15.105  1.00  0.00     0.364 C 
ATOM     43  O   UNL     1      16.366  33.833  14.744  1.00  0.00    -0.246 OA
BRANCH  42  44
ATOM     44  O   UNL     1      14.481  32.765  15.282  1.00  0.00    -0.477 OA
ATOM     45  H   UNL     1      13.913  32.199  14.633  1.00  0.00     0.296 HD
ENDBRANCH  42  44
ENDBRANCH   3  42
BRANCH   6  46
ATOM     46  O   UNL     1      18.361  29.605  15.016  1.00  0.00    -0.391 OA
ATOM     47  H   UNL     1      18.630  28.712  15.367  1.00  0.00     0.211 HD
ENDBRANCH   6  46
BRANCH   7  48
ATOM     48  N   UNL     1      19.324  30.236  18.324  1.00  0.00    -0.348 N 
ATOM     49  C   UNL     1      19.827  29.147  19.041  1.00  0.00     0.217 C 
ATOM     50  H   UNL     1      19.755  31.189  18.612  1.00  0.00     0.163 HD
ATOM     51  C   UNL     1      20.896  29.390  20.090  1.00  0.00     0.114 C 
ATOM     52  O   UNL     1      19.454  27.954  18.878  1.00  0.00    -0.275 OA
ENDBRANCH   7  48
ENDBRANCH   1   2
BRANCH   1  53
ATOM     53  O   UNL     1      15.312  31.339  19.152  1.00  0.00    -0.388 OA
ATOM     54  H   UNL     1      14.782  31.624  18.386  1.00  0.00     0.211 HD
ENDBRANCH   1  53
BRANCH   1  55
ATOM     55  C   UNL     1      15.811  29.129  18.614  1.00  0.00     0.165 C 
BRANCH  55  56
ATOM     56  O   UNL     1      14.494  29.132  18.247  1.00  0.00    -0.388 OA
ATOM     57  H   UNL     1      13.903  29.663  18.830  1.00  0.00     0.211 HD
ENDBRANCH  55  56
BRANCH  55  58
ATOM     58  C   UNL     1      16.064  28.235  19.786  1.00  0.00     0.154 C 
BRANCH  58  59
ATOM     59  N   UNL     1      15.871  28.903  21.022  1.00  0.00    -0.319 N 
ATOM     60  C   UNL     1      14.625  28.935  21.689  1.00  0.00     0.407 C 
ATOM     61  H   UNL     1      16.668  29.411  21.492  1.00  0.00     0.167 HD
ATOM     62  O   UNL     1      13.613  28.360  21.203  1.00  0.00    -0.225 OA
BRANCH  60  63
ATOM     63  O   UNL     1      14.445  29.589  22.906  1.00  0.00    -0.443 OA
BRANCH  63  64
ATOM     64  C   UNL     1      14.517  31.019  22.877  1.00  0.00     0.294 C 
BRANCH  64  65
ATOM     65  C   UNL     1      13.190  31.526  23.273  1.00  0.00     0.121 A 
ATOM     66  C   UNL     1      11.982  30.832  23.293  1.00  0.00     0.144 A 
ATOM     67  N   UNL     1      12.910  32.768  23.699  1.00  0.00    -0.131 NA
ATOM     68  N   UNL     1      11.024  31.679  23.733  1.00  0.00    -0.220 N 
ATOM     69  N   UNL     1      11.613  32.834  23.967  1.00  0.00    -0.062 NA
BRANCH  68  70
ATOM     70  C   UNL     1       9.664  31.311  23.894  1.00  0.00     0.067 A 
ATOM     71  C   UNL     1       9.340  30.010  24.278  1.00  0.00     0.036 A 
ATOM     72  C   UNL     1       8.662  32.198  23.684  1.00  0.00     0.028 A 
ATOM     73  C   UNL     1       8.051  29.609  24.446  1.00  0.00    -0.023 A 
ATOM     74  C   UNL     1       7.327  31.834  23.844  1.00  0.00     0.003 A 
ATOM     75  C   UNL     1       7.054  30.540  24.224  1.00  0.00     0.008 A 
BRANCH  73  76
ATOM     76  C   UNL     1       7.712  28.259  24.841  1.00  0.00     0.015 C 
ATOM     77  C   UNL     1       6.466  27.863  24.905  1.00  0.00     0.094 C 
BRANCH  77  78
ATOM     78  C   UNL     1       6.169  26.487  25.309  1.00  0.00     0.328 C 
ATOM     79  O   UNL     1       5.178  26.216  25.995  1.00  0.00    -0.247 OA
BRANCH  78  80
ATOM     80  O   UNL     1       7.010  25.446  24.923  1.00  0.00    -0.478 OA
ATOM     81  H   UNL     1       6.853  25.037  23.999  1.00  0.00     0.297 HD
ENDBRANCH  78  80
ENDBRANCH  77  78
ENDBRANCH  73  76
ENDBRANCH  68  70
ENDBRANCH  64  65
ENDBRANCH  63  64
ENDBRANCH  60  63
ENDBRANCH  58  59
ENDBRANCH  55  58
ENDBRANCH   1  55
TORSDOF 33
