REMARK VINA RESULT:    -5.319      0.000      0.000
REMARK INTER + INTRA:         -22.144
REMARK INTER:                 -14.699
REMARK INTRA:                  -7.445
REMARK UNBOUND:                -8.118
REMARK SMILES CC(=O)N[C@@H]1[C@@H](O)C[C@](OC[C@H]2O[C@@H](O[C@H]3[C@H](O)[C@@H](O)[C@H](OCCN=[N+]=[N-])O[C@@H]3CO)[C@H](O)[C@@H](O)[C@H]2O)(C(=O)O)O[C@H]1C(O)[C@H](O)CNC(=O)OCc1cn(CCOC(C)=O)nn1
REMARK SMILES IDX 43 1 42 2 9 3 8 4 41 5 6 6 5 7 10 8 11 9 12 10 14 11 13 12
REMARK SMILES IDX 32 13 34 14 36 15 15 16 16 17 29 18 28 19 21 20 17 21 19 22
REMARK SMILES IDX 30 23 31 24 22 26 23 27 24 28 25 29 26 30 27 31 18 32 20 34
REMARK SMILES IDX 33 36 35 38 37 40 38 42 39 43 40 44 7 46 4 48 2 49 1 51 3 52
REMARK SMILES IDX 44 53 45 55 46 56 47 58 48 59 49 60 50 62 51 63 52 64 53 65
REMARK SMILES IDX 54 66 63 67 55 68 62 69 56 70 57 71 58 72 59 73 61 74 60 75
REMARK H PARENT 31 25 18 33 20 35 33 37 35 39 37 41 40 45 7 47 4 50 44 54
REMARK H PARENT 46 57 48 61
REMARK Flexibility Score: inf
ROOT
ATOM      1  C   UNL     1       5.636  23.291  33.591  1.00  0.00     0.176 C 
ENDROOT
BRANCH   1   2
ATOM      2  C   UNL     1       4.339  22.562  33.353  1.00  0.00     0.178 C 
ATOM      3  C   UNL     1       3.087  21.755  31.526  1.00  0.00     0.272 C 
ATOM      4  C   UNL     1       2.261  21.233  32.677  1.00  0.00     0.113 C 
ATOM      5  O   UNL     1       4.328  22.289  31.969  1.00  0.00    -0.332 OA
ATOM      6  C   UNL     1       1.981  22.263  33.712  1.00  0.00     0.145 C 
ATOM      7  C   UNL     1       3.091  23.348  33.608  1.00  0.00     0.142 C 
BRANCH   3   8
ATOM      8  O   UNL     1       2.549  22.670  30.757  1.00  0.00    -0.338 OA
BRANCH   8   9
ATOM      9  C   UNL     1       1.384  22.766  30.181  1.00  0.00     0.199 C 
BRANCH   9  10
ATOM     10  C   UNL     1       1.110  22.750  28.737  1.00  0.00     0.179 C 
ATOM     11  C   UNL     1       0.769  24.224  26.999  1.00  0.00     0.282 C 
ATOM     12  O   UNL     1       1.445  24.060  28.217  1.00  0.00    -0.341 OA
ATOM     13  C   UNL     1       0.781  23.037  26.130  1.00  0.00     0.202 C 
ATOM     14  C   UNL     1       1.631  21.886  26.541  1.00  0.00     0.179 C 
ATOM     15  C   UNL     1       2.116  21.889  27.948  1.00  0.00     0.177 C 
BRANCH  11  16
ATOM     16  O   UNL     1       1.237  25.403  26.442  1.00  0.00    -0.341 OA
BRANCH  16  17
ATOM     17  C   UNL     1       2.507  25.729  26.842  1.00  0.00     0.184 C 
ATOM     18  C   UNL     1       2.597  27.216  27.102  1.00  0.00     0.178 C 
ATOM     19  O   UNL     1       3.910  27.441  27.535  1.00  0.00    -0.341 OA
ATOM     20  C   UNL     1       4.756  27.417  26.467  1.00  0.00     0.281 C 
ATOM     21  C   UNL     1       3.550  25.324  25.813  1.00  0.00     0.180 C 
ATOM     22  C   UNL     1       4.363  26.486  25.345  1.00  0.00     0.202 C 
BRANCH  18  23
ATOM     23  C   UNL     1       1.648  27.605  28.220  1.00  0.00     0.191 C 
BRANCH  23  24
ATOM     24  O   UNL     1       1.774  26.717  29.272  1.00  0.00    -0.394 OA
ATOM     25  H   UNL     1       1.283  25.888  28.992  1.00  0.00     0.210 HD
ENDBRANCH  23  24
ENDBRANCH  18  23
BRANCH  20  26
ATOM     26  O   UNL     1       6.035  27.109  26.949  1.00  0.00    -0.350 OA
BRANCH  26  27
ATOM     27  C   UNL     1       6.983  27.145  25.933  1.00  0.00     0.169 C 
BRANCH  27  28
ATOM     28  C   UNL     1       7.093  28.620  25.529  1.00  0.00     0.119 C 
BRANCH  28  29
ATOM     29  N   UNL     1       7.155  28.685  24.079  1.00  0.00    -0.092 NA
ATOM     30  N   UNL     1       6.244  29.172  23.398  1.00  0.00     0.001 N 
ATOM     31  N   UNL     1       5.210  29.287  22.713  1.00  0.00    -0.003 NA
ENDBRANCH  28  29
ENDBRANCH  27  28
ENDBRANCH  26  27
ENDBRANCH  20  26
BRANCH  21  32
ATOM     32  O   UNL     1       4.362  24.282  26.242  1.00  0.00    -0.387 OA
ATOM     33  H   UNL     1       3.919  23.398  26.226  1.00  0.00     0.211 HD
ENDBRANCH  21  32
BRANCH  22  34
ATOM     34  O   UNL     1       3.745  27.129  24.290  1.00  0.00    -0.385 OA
ATOM     35  H   UNL     1       4.434  27.315  23.589  1.00  0.00     0.211 HD
ENDBRANCH  22  34
ENDBRANCH  16  17
ENDBRANCH  11  16
BRANCH  13  36
ATOM     36  O   UNL     1      -0.534  22.610  25.803  1.00  0.00    -0.385 OA
ATOM     37  H   UNL     1      -0.857  23.028  24.979  1.00  0.00     0.211 HD
ENDBRANCH  13  36
BRANCH  14  38
ATOM     38  O   UNL     1       2.749  21.745  25.704  1.00  0.00    -0.387 OA
ATOM     39  H   UNL     1       2.433  21.372  24.829  1.00  0.00     0.211 HD
ENDBRANCH  14  38
BRANCH  15  40
ATOM     40  O   UNL     1       3.355  22.586  27.953  1.00  0.00    -0.387 OA
ATOM     41  H   UNL     1       3.889  22.332  28.733  1.00  0.00     0.211 HD
ENDBRANCH  15  40
ENDBRANCH   9  10
ENDBRANCH   8   9
ENDBRANCH   3   8
BRANCH   3  42
ATOM     42  C   UNL     1       3.553  20.538  30.803  1.00  0.00     0.364 C 
ATOM     43  O   UNL     1       2.874  19.524  30.557  1.00  0.00    -0.246 OA
BRANCH  42  44
ATOM     44  O   UNL     1       4.881  20.474  30.331  1.00  0.00    -0.477 OA
ATOM     45  H   UNL     1       5.411  21.331  30.261  1.00  0.00     0.296 HD
ENDBRANCH  42  44
ENDBRANCH   3  42
BRANCH   6  46
ATOM     46  O   UNL     1       0.733  22.837  33.659  1.00  0.00    -0.391 OA
ATOM     47  H   UNL     1       0.415  23.009  32.736  1.00  0.00     0.211 HD
ENDBRANCH   6  46
BRANCH   7  48
ATOM     48  N   UNL     1       3.050  24.169  34.772  1.00  0.00    -0.348 N 
ATOM     49  C   UNL     1       3.021  25.586  34.696  1.00  0.00     0.217 C 
ATOM     50  H   UNL     1       3.016  23.726  35.703  1.00  0.00     0.163 HD
ATOM     51  C   UNL     1       2.979  26.441  35.922  1.00  0.00     0.114 C 
ATOM     52  O   UNL     1       3.029  26.194  33.582  1.00  0.00    -0.275 OA
ENDBRANCH   7  48
ENDBRANCH   1   2
BRANCH   1  53
ATOM     53  O   UNL     1       5.574  24.420  32.714  1.00  0.00    -0.388 OA
ATOM     54  H   UNL     1       4.750  24.389  32.184  1.00  0.00     0.211 HD
ENDBRANCH   1  53
BRANCH   1  55
ATOM     55  C   UNL     1       6.795  22.485  33.055  1.00  0.00     0.165 C 
BRANCH  55  56
ATOM     56  O   UNL     1       6.461  21.122  33.091  1.00  0.00    -0.388 OA
ATOM     57  H   UNL     1       6.077  20.925  33.969  1.00  0.00     0.211 HD
ENDBRANCH  55  56
BRANCH  55  58
ATOM     58  C   UNL     1       8.084  22.758  33.764  1.00  0.00     0.154 C 
BRANCH  58  59
ATOM     59  N   UNL     1       8.152  23.999  34.469  1.00  0.00    -0.319 N 
ATOM     60  C   UNL     1       9.354  24.563  34.939  1.00  0.00     0.407 C 
ATOM     61  H   UNL     1       7.277  24.573  34.676  1.00  0.00     0.167 HD
ATOM     62  O   UNL     1      10.467  24.024  34.767  1.00  0.00    -0.225 OA
BRANCH  60  63
ATOM     63  O   UNL     1       9.375  25.779  35.641  1.00  0.00    -0.443 OA
BRANCH  63  64
ATOM     64  C   UNL     1       9.420  27.020  34.998  1.00  0.00     0.294 C 
BRANCH  64  65
ATOM     65  C   UNL     1       8.157  27.314  34.267  1.00  0.00     0.120 A 
ATOM     66  C   UNL     1       8.038  28.300  33.303  1.00  0.00     0.138 A 
ATOM     67  N   UNL     1       6.958  26.745  34.352  1.00  0.00    -0.132 NA
ATOM     68  N   UNL     1       6.778  28.278  32.857  1.00  0.00    -0.249 N 
ATOM     69  N   UNL     1       6.139  27.324  33.509  1.00  0.00    -0.067 NA
BRANCH  68  70
ATOM     70  C   UNL     1       6.180  29.154  31.839  1.00  0.00     0.187 C 
BRANCH  70  71
ATOM     71  C   UNL     1       4.706  29.336  32.122  1.00  0.00     0.256 C 
BRANCH  71  72
ATOM     72  O   UNL     1       4.121  30.028  31.025  1.00  0.00    -0.464 OA
BRANCH  72  73
ATOM     73  C   UNL     1       4.899  30.843  30.209  1.00  0.00     0.302 C 
ATOM     74  O   UNL     1       5.213  31.979  30.639  1.00  0.00    -0.253 OA
ATOM     75  C   UNL     1       5.365  30.408  28.851  1.00  0.00     0.139 C 
ENDBRANCH  72  73
ENDBRANCH  71  72
ENDBRANCH  70  71
ENDBRANCH  68  70
ENDBRANCH  64  65
ENDBRANCH  63  64
ENDBRANCH  60  63
ENDBRANCH  58  59
ENDBRANCH  55  58
ENDBRANCH   1  55
TORSDOF 33
