REMARK VINA RESULT:    -6.412      4.490      9.368
REMARK INTER + INTRA:         -24.716
REMARK INTER:                 -16.586
REMARK INTRA:                  -8.130
REMARK UNBOUND:                -7.995
REMARK SMILES CC(=O)N[C@@H]1[C@@H](O)C[C@](OC[C@H]2O[C@@H](O[C@H]3[C@H](O)[C@@H](O)[C@H](OCCN=[N+]=[N-])O[C@@H]3CO)[C@H](O)[C@@H](O)[C@H]2O)(C(=O)O)O[C@H]1C(O)[C@H](O)CNC(=O)OCc1cn(-c2ccc(-c3c4ccc(=O)cc-4oc4cc(O)ccc34)c(C(=O)[O-])c2)nn1
REMARK SMILES IDX 9 1 8 2 6 3 5 4 42 5 41 6 10 7 11 8 12 9 14 10 13 11 32 12
REMARK SMILES IDX 34 13 36 14 15 15 16 16 29 17 28 18 21 19 17 20 19 21 30 22
REMARK SMILES IDX 31 23 22 25 23 26 24 27 25 28 26 29 27 30 18 31 20 33 33 35
REMARK SMILES IDX 35 37 37 39 38 41 39 42 40 43 7 45 43 47 44 48 45 50 46 51
REMARK SMILES IDX 47 53 48 54 49 55 50 57 51 58 52 59 53 60 54 61 82 62 55 63
REMARK SMILES IDX 81 64 56 65 80 66 57 67 76 68 58 69 59 70 77 71 78 72 79 73
REMARK SMILES IDX 60 74 75 75 61 76 74 77 69 78 67 79 62 80 73 81 70 82 68 83
REMARK SMILES IDX 66 84 63 85 71 86 64 87 65 88 72 89 4 91 2 92 1 94 3 95
REMARK H PARENT 31 24 18 32 20 34 33 36 35 38 37 40 40 44 7 46 44 49 46 52
REMARK H PARENT 48 56 72 90 4 93
REMARK Flexibility Score: inf
ROOT
ATOM      1  C   UNL     1      20.978  30.239  21.571  1.00  0.00     0.272 C 
ATOM      2  C   UNL     1      22.132  31.202  21.436  1.00  0.00     0.113 C 
ATOM      3  C   UNL     1      22.145  31.931  20.122  1.00  0.00     0.145 C 
ATOM      4  C   UNL     1      21.229  31.198  19.176  1.00  0.00     0.142 C 
ATOM      5  C   UNL     1      21.521  29.731  19.343  1.00  0.00     0.178 C 
ATOM      6  O   UNL     1      20.984  29.285  20.525  1.00  0.00    -0.332 OA
ENDROOT
BRANCH   1   7
ATOM      7  O   UNL     1      19.736  30.801  21.665  1.00  0.00    -0.338 OA
BRANCH   7   8
ATOM      8  C   UNL     1      19.592  31.697  22.664  1.00  0.00     0.199 C 
BRANCH   8   9
ATOM      9  C   UNL     1      18.130  31.813  23.120  1.00  0.00     0.179 C 
ATOM     10  C   UNL     1      15.976  31.369  22.428  1.00  0.00     0.282 C 
ATOM     11  O   UNL     1      17.254  31.725  22.101  1.00  0.00    -0.341 OA
ATOM     12  C   UNL     1      15.541  31.742  23.792  1.00  0.00     0.202 C 
ATOM     13  C   UNL     1      16.519  31.311  24.860  1.00  0.00     0.179 C 
ATOM     14  C   UNL     1      17.828  30.870  24.224  1.00  0.00     0.177 C 
BRANCH  10  15
ATOM     15  O   UNL     1      15.825  30.032  22.063  1.00  0.00    -0.341 OA
BRANCH  15  16
ATOM     16  C   UNL     1      15.725  29.837  20.724  1.00  0.00     0.184 C 
ATOM     17  C   UNL     1      14.575  28.954  20.351  1.00  0.00     0.178 C 
ATOM     18  O   UNL     1      14.251  29.128  18.998  1.00  0.00    -0.341 OA
ATOM     19  C   UNL     1      15.394  29.184  18.209  1.00  0.00     0.281 C 
ATOM     20  C   UNL     1      16.957  29.134  20.127  1.00  0.00     0.180 C 
ATOM     21  C   UNL     1      16.550  28.480  18.824  1.00  0.00     0.202 C 
BRANCH  17  22
ATOM     22  C   UNL     1      13.368  29.292  21.172  1.00  0.00     0.191 C 
BRANCH  22  23
ATOM     23  O   UNL     1      12.961  30.591  20.860  1.00  0.00    -0.394 OA
ATOM     24  H   UNL     1      12.253  30.512  20.183  1.00  0.00     0.210 HD
ENDBRANCH  22  23
ENDBRANCH  17  22
BRANCH  19  25
ATOM     25  O   UNL     1      15.704  30.483  17.866  1.00  0.00    -0.350 OA
BRANCH  25  26
ATOM     26  C   UNL     1      14.900  31.016  16.867  1.00  0.00     0.169 C 
BRANCH  26  27
ATOM     27  C   UNL     1      15.143  30.174  15.627  1.00  0.00     0.119 C 
BRANCH  27  28
ATOM     28  N   UNL     1      13.953  30.034  14.831  1.00  0.00    -0.092 NA
ATOM     29  N   UNL     1      13.664  28.915  14.387  1.00  0.00     0.001 N 
ATOM     30  N   UNL     1      13.066  27.886  14.069  1.00  0.00    -0.003 NA
ENDBRANCH  27  28
ENDBRANCH  26  27
ENDBRANCH  25  26
ENDBRANCH  19  25
BRANCH  20  31
ATOM     31  O   UNL     1      17.871  30.139  19.824  1.00  0.00    -0.387 OA
ATOM     32  H   UNL     1      18.225  30.605  20.612  1.00  0.00     0.211 HD
ENDBRANCH  20  31
BRANCH  21  33
ATOM     33  O   UNL     1      16.341  27.105  18.946  1.00  0.00    -0.385 OA
ATOM     34  H   UNL     1      16.534  26.895  19.912  1.00  0.00     0.211 HD
ENDBRANCH  21  33
ENDBRANCH  15  16
ENDBRANCH  10  15
BRANCH  12  35
ATOM     35  O   UNL     1      15.337  33.142  23.882  1.00  0.00    -0.385 OA
ATOM     36  H   UNL     1      15.568  33.433  24.814  1.00  0.00     0.211 HD
ENDBRANCH  12  35
BRANCH  13  37
ATOM     37  O   UNL     1      15.986  30.358  25.712  1.00  0.00    -0.387 OA
ATOM     38  H   UNL     1      16.336  29.478  25.438  1.00  0.00     0.211 HD
ENDBRANCH  13  37
BRANCH  14  39
ATOM     39  O   UNL     1      17.682  29.545  23.835  1.00  0.00    -0.387 OA
ATOM     40  H   UNL     1      17.711  29.555  22.833  1.00  0.00     0.211 HD
ENDBRANCH  14  39
ENDBRANCH   8   9
ENDBRANCH   7   8
ENDBRANCH   1   7
BRANCH   1  41
ATOM     41  C   UNL     1      21.326  29.395  22.784  1.00  0.00     0.364 C 
ATOM     42  O   UNL     1      22.346  29.571  23.474  1.00  0.00    -0.246 OA
BRANCH  41  43
ATOM     43  O   UNL     1      20.481  28.361  23.172  1.00  0.00    -0.477 OA
ATOM     44  H   UNL     1      20.665  27.406  22.898  1.00  0.00     0.296 HD
ENDBRANCH  41  43
ENDBRANCH   1  41
BRANCH   3  45
ATOM     45  O   UNL     1      21.809  33.255  20.328  1.00  0.00    -0.391 OA
ATOM     46  H   UNL     1      22.528  33.810  19.936  1.00  0.00     0.211 HD
ENDBRANCH   3  45
BRANCH   5  47
ATOM     47  C   UNL     1      20.843  28.918  18.235  1.00  0.00     0.176 C 
BRANCH  47  48
ATOM     48  O   UNL     1      19.990  27.975  18.859  1.00  0.00    -0.388 OA
ATOM     49  H   UNL     1      19.581  28.319  19.669  1.00  0.00     0.211 HD
ENDBRANCH  47  48
BRANCH  47  50
ATOM     50  C   UNL     1      21.845  28.118  17.469  1.00  0.00     0.165 C 
BRANCH  50  51
ATOM     51  O   UNL     1      21.195  27.144  16.709  1.00  0.00    -0.388 OA
ATOM     52  H   UNL     1      21.875  26.655  16.177  1.00  0.00     0.211 HD
ENDBRANCH  50  51
BRANCH  50  53
ATOM     53  C   UNL     1      22.948  27.525  18.273  1.00  0.00     0.154 C 
BRANCH  53  54
ATOM     54  N   UNL     1      22.461  26.605  19.276  1.00  0.00    -0.319 N 
ATOM     55  C   UNL     1      22.669  25.206  19.246  1.00  0.00     0.407 C 
ATOM     56  H   UNL     1      21.903  26.950  20.116  1.00  0.00     0.167 HD
ATOM     57  O   UNL     1      23.311  24.692  18.310  1.00  0.00    -0.225 OA
BRANCH  55  58
ATOM     58  O   UNL     1      22.182  24.352  20.228  1.00  0.00    -0.443 OA
BRANCH  58  59
ATOM     59  C   UNL     1      22.995  23.900  21.317  1.00  0.00     0.294 C 
BRANCH  59  60
ATOM     60  C   UNL     1      22.464  24.576  22.528  1.00  0.00     0.121 A 
ATOM     61  C   UNL     1      23.093  24.724  23.733  1.00  0.00     0.144 A 
ATOM     62  N   UNL     1      21.248  25.179  22.668  1.00  0.00    -0.131 NA
ATOM     63  N   UNL     1      22.281  25.395  24.577  1.00  0.00    -0.220 N 
ATOM     64  N   UNL     1      21.168  25.656  23.896  1.00  0.00    -0.062 NA
BRANCH  63  65
ATOM     65  C   UNL     1      22.584  25.743  25.919  1.00  0.00     0.067 A 
ATOM     66  C   UNL     1      23.120  26.964  26.254  1.00  0.00     0.039 A 
ATOM     67  C   UNL     1      22.327  24.831  26.912  1.00  0.00     0.029 A 
ATOM     68  C   UNL     1      23.391  27.254  27.571  1.00  0.00     0.007 A 
ATOM     69  C   UNL     1      22.600  25.125  28.231  1.00  0.00     0.012 A 
ATOM     70  C   UNL     1      23.137  26.339  28.590  1.00  0.00    -0.008 A 
BRANCH  68  71
ATOM     71  C   UNL     1      23.962  28.545  27.964  1.00  0.00     0.072 C 
ATOM     72  O   UNL     1      25.199  28.716  28.084  1.00  0.00    -0.545 OA
ATOM     73  O   UNL     1      23.122  29.604  28.208  1.00  0.00    -0.545 OA
ENDBRANCH  68  71
BRANCH  70  74
ATOM     74  C   UNL     1      23.425  26.660  29.976  1.00  0.00     0.004 A 
ATOM     75  C   UNL     1      24.645  26.311  30.498  1.00  0.00     0.026 A 
ATOM     76  C   UNL     1      22.517  27.297  30.782  1.00  0.00     0.026 A 
ATOM     77  C   UNL     1      25.616  25.670  29.765  1.00  0.00     0.016 A 
ATOM     78  C   UNL     1      24.904  26.622  31.828  1.00  0.00     0.139 A 
ATOM     79  C   UNL     1      22.839  27.607  32.192  1.00  0.00     0.139 A 
ATOM     80  C   UNL     1      21.279  27.677  30.330  1.00  0.00     0.016 A 
ATOM     81  C   UNL     1      26.842  25.323  30.302  1.00  0.00     0.047 A 
ATOM     82  C   UNL     1      26.124  26.274  32.354  1.00  0.00     0.093 A 
ATOM     83  O   UNL     1      24.025  27.235  32.597  1.00  0.00    -0.456 OA
ATOM     84  C   UNL     1      21.928  28.245  32.994  1.00  0.00     0.099 A 
ATOM     85  C   UNL     1      20.369  28.320  31.152  1.00  0.00     0.053 A 
ATOM     86  C   UNL     1      27.107  25.627  31.619  1.00  0.00     0.119 A 
ATOM     87  C   UNL     1      20.708  28.592  32.465  1.00  0.00     0.182 A 
ATOM     88  O   UNL     1      19.837  29.180  33.162  1.00  0.00    -0.290 OA
BRANCH  86  89
ATOM     89  O   UNL     1      28.339  25.276  32.149  1.00  0.00    -0.508 OA
ATOM     90  H   UNL     1      28.541  24.281  32.211  1.00  0.00     0.293 HD
ENDBRANCH  86  89
ENDBRANCH  70  74
ENDBRANCH  63  65
ENDBRANCH  59  60
ENDBRANCH  58  59
ENDBRANCH  55  58
ENDBRANCH  53  54
ENDBRANCH  50  53
ENDBRANCH  47  50
ENDBRANCH   5  47
BRANCH   4  91
ATOM     91  N   UNL     1      21.385  31.633  17.804  1.00  0.00    -0.348 N 
ATOM     92  C   UNL     1      20.244  32.067  17.100  1.00  0.00     0.217 C 
ATOM     93  H   UNL     1      22.302  31.641  17.307  1.00  0.00     0.163 HD
ATOM     94  C   UNL     1      20.286  32.532  15.691  1.00  0.00     0.114 C 
ATOM     95  O   UNL     1      19.090  32.081  17.652  1.00  0.00    -0.275 OA
ENDBRANCH   4  91
TORSDOF 33
