REMARK VINA RESULT:    -5.500     10.736     16.505
REMARK INTER + INTRA:         -21.139
REMARK INTER:                 -14.617
REMARK INTRA:                  -6.522
REMARK UNBOUND:                -7.600
REMARK SMILES CC(=O)N[C@@H]1[C@@H](O)C[C@](OC[C@H]2O[C@@H](O[C@H]3[C@H](O)[C@@H](O)[C@H](OCCN=[N+]=[N-])O[C@@H]3CO)[C@H](O)[C@@H](O)[C@H]2O)(C(=O)O)O[C@H]1C(O)[C@H](O)CNC(=O)OCc1cn(-c2ccc(Cl)cc2)nn1
REMARK SMILES IDX 9 1 8 2 6 3 5 4 42 5 41 6 10 7 11 8 12 9 14 10 13 11 32 12
REMARK SMILES IDX 34 13 36 14 15 15 16 16 29 17 28 18 21 19 17 20 19 21 30 22
REMARK SMILES IDX 31 23 22 25 23 26 24 27 25 28 26 29 27 30 18 31 20 33 33 35
REMARK SMILES IDX 35 37 37 39 38 41 39 42 40 43 7 45 43 47 44 48 45 50 46 51
REMARK SMILES IDX 47 53 48 54 49 55 50 57 51 58 52 59 53 60 54 61 64 62 55 63
REMARK SMILES IDX 63 64 56 65 57 66 62 67 58 68 61 69 59 70 60 71 4 72 2 73
REMARK SMILES IDX 1 75 3 76
REMARK H PARENT 31 24 18 32 20 34 33 36 35 38 37 40 40 44 7 46 44 49 46 52
REMARK H PARENT 48 56 4 74
REMARK Flexibility Score: inf
ROOT
ATOM      1  C   UNL     1      19.711  18.884  10.448  1.00  0.00     0.272 C 
ATOM      2  C   UNL     1      19.070  18.822   9.123  1.00  0.00     0.113 C 
ATOM      3  C   UNL     1      19.438  19.801   8.085  1.00  0.00     0.145 C 
ATOM      4  C   UNL     1      20.619  20.632   8.539  1.00  0.00     0.142 C 
ATOM      5  C   UNL     1      20.271  21.041   9.987  1.00  0.00     0.178 C 
ATOM      6  O   UNL     1      20.649  19.854  10.684  1.00  0.00    -0.332 OA
ENDROOT
BRANCH   1   7
ATOM      7  O   UNL     1      20.310  17.614  10.680  1.00  0.00    -0.338 OA
BRANCH   7   8
ATOM      8  C   UNL     1      20.880  17.069   9.562  1.00  0.00     0.199 C 
BRANCH   8   9
ATOM      9  C   UNL     1      22.401  17.198   9.579  1.00  0.00     0.179 C 
ATOM     10  C   UNL     1      23.962  16.649  11.251  1.00  0.00     0.282 C 
ATOM     11  O   UNL     1      22.884  17.427  10.828  1.00  0.00    -0.341 OA
ATOM     12  C   UNL     1      23.552  15.236  11.215  1.00  0.00     0.202 C 
ATOM     13  C   UNL     1      23.198  14.849   9.785  1.00  0.00     0.179 C 
ATOM     14  C   UNL     1      23.064  16.032   8.881  1.00  0.00     0.177 C 
BRANCH  10  15
ATOM     15  O   UNL     1      24.276  17.189  12.497  1.00  0.00    -0.341 OA
BRANCH  15  16
ATOM     16  C   UNL     1      24.890  18.367  12.523  1.00  0.00     0.184 C 
ATOM     17  C   UNL     1      23.985  19.526  12.748  1.00  0.00     0.178 C 
ATOM     18  O   UNL     1      24.705  20.671  13.075  1.00  0.00    -0.341 OA
ATOM     19  C   UNL     1      25.605  21.085  12.147  1.00  0.00     0.281 C 
ATOM     20  C   UNL     1      25.682  18.707  11.244  1.00  0.00     0.180 C 
ATOM     21  C   UNL     1      25.682  20.170  10.980  1.00  0.00     0.202 C 
BRANCH  17  22
ATOM     22  C   UNL     1      22.890  19.347  13.752  1.00  0.00     0.191 C 
BRANCH  22  23
ATOM     23  O   UNL     1      21.802  18.646  13.230  1.00  0.00    -0.394 OA
ATOM     24  H   UNL     1      21.997  17.680  13.259  1.00  0.00     0.210 HD
ENDBRANCH  22  23
ENDBRANCH  17  22
BRANCH  19  25
ATOM     25  O   UNL     1      26.882  21.167  12.713  1.00  0.00    -0.350 OA
BRANCH  25  26
ATOM     26  C   UNL     1      27.794  21.735  11.836  1.00  0.00     0.169 C 
BRANCH  26  27
ATOM     27  C   UNL     1      28.750  22.686  12.488  1.00  0.00     0.119 C 
BRANCH  27  28
ATOM     28  N   UNL     1      28.561  22.558  13.932  1.00  0.00    -0.092 NA
ATOM     29  N   UNL     1      29.358  21.796  14.507  1.00  0.00     0.001 N 
ATOM     30  N   UNL     1      30.326  21.342  15.155  1.00  0.00    -0.003 NA
ENDBRANCH  27  28
ENDBRANCH  26  27
ENDBRANCH  25  26
ENDBRANCH  19  25
BRANCH  20  31
ATOM     31  O   UNL     1      26.979  18.271  11.459  1.00  0.00    -0.387 OA
ATOM     32  H   UNL     1      27.580  18.941  11.001  1.00  0.00     0.211 HD
ENDBRANCH  20  31
BRANCH  21  33
ATOM     33  O   UNL     1      24.717  20.545  10.023  1.00  0.00    -0.385 OA
ATOM     34  H   UNL     1      23.878  20.134  10.330  1.00  0.00     0.211 HD
ENDBRANCH  21  33
ENDBRANCH  15  16
ENDBRANCH  10  15
BRANCH  12  35
ATOM     35  O   UNL     1      24.499  14.323  11.682  1.00  0.00    -0.385 OA
ATOM     36  H   UNL     1      24.619  14.401  12.683  1.00  0.00     0.211 HD
ENDBRANCH  12  35
BRANCH  13  37
ATOM     37  O   UNL     1      22.061  14.045   9.825  1.00  0.00    -0.387 OA
ATOM     38  H   UNL     1      21.634  13.900   8.966  1.00  0.00     0.211 HD
ENDBRANCH  13  37
BRANCH  14  39
ATOM     39  O   UNL     1      22.201  15.709   7.805  1.00  0.00    -0.387 OA
ATOM     40  H   UNL     1      22.765  15.355   7.094  1.00  0.00     0.211 HD
ENDBRANCH  14  39
ENDBRANCH   8   9
ENDBRANCH   7   8
ENDBRANCH   1   7
BRANCH   1  41
ATOM     41  C   UNL     1      18.635  19.002  11.496  1.00  0.00     0.364 C 
ATOM     42  O   UNL     1      18.378  20.088  12.060  1.00  0.00    -0.246 OA
BRANCH  41  43
ATOM     43  O   UNL     1      17.914  17.887  11.845  1.00  0.00    -0.477 OA
ATOM     44  H   UNL     1      17.428  17.294  11.175  1.00  0.00     0.296 HD
ENDBRANCH  41  43
ENDBRANCH   1  41
BRANCH   3  45
ATOM     45  O   UNL     1      19.826  19.167   6.904  1.00  0.00    -0.391 OA
ATOM     46  H   UNL     1      19.205  18.432   6.737  1.00  0.00     0.211 HD
ENDBRANCH   3  45
BRANCH   5  47
ATOM     47  C   UNL     1      21.100  22.166  10.491  1.00  0.00     0.176 C 
BRANCH  47  48
ATOM     48  O   UNL     1      20.390  23.342  10.295  1.00  0.00    -0.388 OA
ATOM     49  H   UNL     1      20.880  24.163  10.545  1.00  0.00     0.211 HD
ENDBRANCH  47  48
BRANCH  47  50
ATOM     50  C   UNL     1      21.677  22.101  11.841  1.00  0.00     0.165 C 
BRANCH  50  51
ATOM     51  O   UNL     1      20.539  21.983  12.721  1.00  0.00    -0.388 OA
ATOM     52  H   UNL     1      20.735  21.329  13.431  1.00  0.00     0.211 HD
ENDBRANCH  50  51
BRANCH  50  53
ATOM     53  C   UNL     1      22.293  23.415  12.301  1.00  0.00     0.154 C 
BRANCH  53  54
ATOM     54  N   UNL     1      23.062  23.315  13.510  1.00  0.00    -0.319 N 
ATOM     55  C   UNL     1      23.241  24.475  14.305  1.00  0.00     0.407 C 
ATOM     56  H   UNL     1      23.506  22.424  13.838  1.00  0.00     0.167 HD
ATOM     57  O   UNL     1      22.755  25.598  13.971  1.00  0.00    -0.225 OA
BRANCH  55  58
ATOM     58  O   UNL     1      23.959  24.423  15.484  1.00  0.00    -0.443 OA
BRANCH  58  59
ATOM     59  C   UNL     1      24.923  25.420  15.833  1.00  0.00     0.294 C 
BRANCH  59  60
ATOM     60  C   UNL     1      25.804  24.923  16.929  1.00  0.00     0.121 A 
ATOM     61  C   UNL     1      26.186  23.602  17.112  1.00  0.00     0.144 A 
ATOM     62  N   UNL     1      26.374  25.630  17.915  1.00  0.00    -0.131 NA
ATOM     63  N   UNL     1      26.972  23.548  18.195  1.00  0.00    -0.220 N 
ATOM     64  N   UNL     1      27.066  24.764  18.651  1.00  0.00    -0.062 NA
BRANCH  63  65
ATOM     65  C   UNL     1      27.545  22.329  18.672  1.00  0.00     0.066 A 
ATOM     66  C   UNL     1      27.841  22.151  20.000  1.00  0.00     0.030 A 
ATOM     67  C   UNL     1      27.813  21.305  17.806  1.00  0.00     0.030 A 
ATOM     68  C   UNL     1      28.401  20.972  20.496  1.00  0.00     0.023 A 
ATOM     69  C   UNL     1      28.370  20.123  18.270  1.00  0.00     0.023 A 
ATOM     70  C   UNL     1      28.667  19.951  19.623  1.00  0.00     0.041 A 
ATOM     71  Cl  UNL     1      29.377  18.441  20.201  1.00  0.00    -0.084 Cl
ENDBRANCH  63  65
ENDBRANCH  59  60
ENDBRANCH  58  59
ENDBRANCH  55  58
ENDBRANCH  53  54
ENDBRANCH  50  53
ENDBRANCH  47  50
ENDBRANCH   5  47
BRANCH   4  72
ATOM     72  N   UNL     1      20.867  21.711   7.661  1.00  0.00    -0.348 N 
ATOM     73  C   UNL     1      22.187  21.896   7.116  1.00  0.00     0.217 C 
ATOM     74  H   UNL     1      20.163  22.398   7.349  1.00  0.00     0.163 HD
ATOM     75  C   UNL     1      22.483  23.023   6.186  1.00  0.00     0.114 C 
ATOM     76  O   UNL     1      23.087  21.081   7.444  1.00  0.00    -0.275 OA
ENDBRANCH   4  72
TORSDOF 30
