REMARK VINA RESULT:    -5.541      3.052      4.314
REMARK INTER + INTRA:         -21.721
REMARK INTER:                 -13.962
REMARK INTRA:                  -7.759
REMARK UNBOUND:                -7.759
REMARK SMILES CC(=O)N[C@@H]1[C@@H](O)C[C@](OC[C@H]2O[C@@H](O[C@H]3[C@H](O)[C@@H](O)[C@H](OCCN=[N+]=[N-])O[C@@H]3CO)[C@H](O)[C@@H](O)[C@H]2O)(C(=O)O)O[C@H]1C(O)[C@H](O)CNC(=O)OCc1cn(-c2cc(Cl)ccc2C(=O)N(C)C)nn1
REMARK SMILES IDX 9 1 8 2 6 3 5 4 42 5 41 6 10 7 11 8 12 9 14 10 13 11 32 12
REMARK SMILES IDX 34 13 36 14 15 15 16 16 29 17 28 18 21 19 17 20 19 21 30 22
REMARK SMILES IDX 31 23 22 25 23 26 24 27 25 28 26 29 27 30 18 31 20 33 33 35
REMARK SMILES IDX 35 37 37 39 38 41 39 42 40 43 7 45 43 47 44 48 45 50 46 51
REMARK SMILES IDX 47 53 48 54 49 55 50 57 51 58 52 59 53 60 54 61 69 62 55 63
REMARK SMILES IDX 68 64 56 65 57 66 62 67 58 68 61 69 59 70 60 71 63 72 64 73
REMARK SMILES IDX 65 74 66 75 67 76 4 77 2 78 1 80 3 81
REMARK H PARENT 31 24 18 32 20 34 33 36 35 38 37 40 40 44 7 46 44 49 46 52
REMARK H PARENT 48 56 4 79
REMARK Flexibility Score: inf
ROOT
ATOM      1  C   UNL     1      15.824  30.149  19.445  1.00  0.00     0.272 C 
ATOM      2  C   UNL     1      15.489  29.166  18.388  1.00  0.00     0.113 C 
ATOM      3  C   UNL     1      16.455  28.009  18.428  1.00  0.00     0.145 C 
ATOM      4  C   UNL     1      17.833  28.586  18.208  1.00  0.00     0.142 C 
ATOM      5  C   UNL     1      18.141  29.640  19.186  1.00  0.00     0.178 C 
ATOM      6  O   UNL     1      17.129  30.325  19.781  1.00  0.00    -0.332 OA
ENDROOT
BRANCH   1   7
ATOM      7  O   UNL     1      15.138  29.891  20.621  1.00  0.00    -0.338 OA
BRANCH   7   8
ATOM      8  C   UNL     1      13.883  29.399  20.548  1.00  0.00     0.199 C 
BRANCH   8   9
ATOM      9  C   UNL     1      13.164  29.623  21.887  1.00  0.00     0.179 C 
ATOM     10  C   UNL     1      13.754  29.628  24.117  1.00  0.00     0.282 C 
ATOM     11  O   UNL     1      13.830  28.930  22.855  1.00  0.00    -0.341 OA
ATOM     12  C   UNL     1      12.321  30.086  24.273  1.00  0.00     0.202 C 
ATOM     13  C   UNL     1      11.987  31.192  23.294  1.00  0.00     0.179 C 
ATOM     14  C   UNL     1      12.896  31.055  22.085  1.00  0.00     0.177 C 
BRANCH  10  15
ATOM     15  O   UNL     1      14.673  30.585  24.056  1.00  0.00    -0.341 OA
BRANCH  15  16
ATOM     16  C   UNL     1      15.971  30.396  24.497  1.00  0.00     0.184 C 
ATOM     17  C   UNL     1      16.199  31.405  25.575  1.00  0.00     0.178 C 
ATOM     18  O   UNL     1      17.510  31.295  26.070  1.00  0.00    -0.341 OA
ATOM     19  C   UNL     1      18.262  31.923  25.018  1.00  0.00     0.281 C 
ATOM     20  C   UNL     1      16.948  30.599  23.368  1.00  0.00     0.180 C 
ATOM     21  C   UNL     1      18.306  30.988  23.867  1.00  0.00     0.202 C 
BRANCH  17  22
ATOM     22  C   UNL     1      15.210  31.233  26.709  1.00  0.00     0.191 C 
BRANCH  22  23
ATOM     23  O   UNL     1      15.864  30.661  27.779  1.00  0.00    -0.394 OA
ATOM     24  H   UNL     1      15.215  30.432  28.491  1.00  0.00     0.210 HD
ENDBRANCH  22  23
ENDBRANCH  17  22
BRANCH  19  25
ATOM     25  O   UNL     1      19.462  32.258  25.512  1.00  0.00    -0.350 OA
BRANCH  25  26
ATOM     26  C   UNL     1      20.047  31.326  26.351  1.00  0.00     0.169 C 
BRANCH  26  27
ATOM     27  C   UNL     1      21.557  31.433  26.420  1.00  0.00     0.119 C 
BRANCH  27  28
ATOM     28  N   UNL     1      22.184  30.360  25.680  1.00  0.00    -0.092 NA
ATOM     29  N   UNL     1      22.039  30.271  24.466  1.00  0.00     0.001 N 
ATOM     30  N   UNL     1      21.853  30.396  23.237  1.00  0.00    -0.003 NA
ENDBRANCH  27  28
ENDBRANCH  26  27
ENDBRANCH  25  26
ENDBRANCH  19  25
BRANCH  20  31
ATOM     31  O   UNL     1      17.111  29.433  22.612  1.00  0.00    -0.387 OA
ATOM     32  H   UNL     1      16.517  28.705  22.960  1.00  0.00     0.211 HD
ENDBRANCH  20  31
BRANCH  21  33
ATOM     33  O   UNL     1      19.022  31.562  22.819  1.00  0.00    -0.385 OA
ATOM     34  H   UNL     1      19.684  30.960  22.419  1.00  0.00     0.211 HD
ENDBRANCH  21  33
ENDBRANCH  15  16
ENDBRANCH  10  15
BRANCH  12  35
ATOM     35  O   UNL     1      11.514  28.983  23.929  1.00  0.00    -0.385 OA
ATOM     36  H   UNL     1      11.258  28.450  24.747  1.00  0.00     0.211 HD
ENDBRANCH  12  35
BRANCH  13  37
ATOM     37  O   UNL     1      12.116  32.459  23.798  1.00  0.00    -0.387 OA
ATOM     38  H   UNL     1      11.267  32.845  24.124  1.00  0.00     0.211 HD
ENDBRANCH  13  37
BRANCH  14  39
ATOM     39  O   UNL     1      13.949  31.924  22.062  1.00  0.00    -0.387 OA
ATOM     40  H   UNL     1      13.929  32.588  21.339  1.00  0.00     0.211 HD
ENDBRANCH  14  39
ENDBRANCH   8   9
ENDBRANCH   7   8
ENDBRANCH   1   7
BRANCH   1  41
ATOM     41  C   UNL     1      15.274  31.518  19.004  1.00  0.00     0.364 C 
ATOM     42  O   UNL     1      15.588  32.490  19.728  1.00  0.00    -0.246 OA
BRANCH  41  43
ATOM     43  O   UNL     1      14.492  31.697  17.907  1.00  0.00    -0.477 OA
ATOM     44  H   UNL     1      14.453  31.095  17.115  1.00  0.00     0.296 HD
ENDBRANCH  41  43
ENDBRANCH   1  41
BRANCH   3  45
ATOM     45  O   UNL     1      16.298  27.310  19.590  1.00  0.00    -0.391 OA
ATOM     46  H   UNL     1      15.560  27.542  20.164  1.00  0.00     0.211 HD
ENDBRANCH   3  45
BRANCH   5  47
ATOM     47  C   UNL     1      19.092  29.235  20.305  1.00  0.00     0.176 C 
BRANCH  47  48
ATOM     48  O   UNL     1      18.909  27.968  20.782  1.00  0.00    -0.388 OA
ATOM     49  H   UNL     1      19.256  27.810  21.700  1.00  0.00     0.211 HD
ENDBRANCH  47  48
BRANCH  47  50
ATOM     50  C   UNL     1      20.531  29.502  20.060  1.00  0.00     0.165 C 
BRANCH  50  51
ATOM     51  O   UNL     1      20.786  29.906  18.728  1.00  0.00    -0.388 OA
ATOM     52  H   UNL     1      20.205  30.661  18.468  1.00  0.00     0.211 HD
ENDBRANCH  50  51
BRANCH  50  53
ATOM     53  C   UNL     1      21.237  28.128  20.133  1.00  0.00     0.154 C 
BRANCH  53  54
ATOM     54  N   UNL     1      21.873  27.964  21.410  1.00  0.00    -0.319 N 
ATOM     55  C   UNL     1      21.580  26.865  22.242  1.00  0.00     0.407 C 
ATOM     56  H   UNL     1      22.586  28.665  21.770  1.00  0.00     0.167 HD
ATOM     57  O   UNL     1      20.768  25.982  21.882  1.00  0.00    -0.225 OA
BRANCH  55  58
ATOM     58  O   UNL     1      22.184  26.727  23.497  1.00  0.00    -0.443 OA
BRANCH  58  59
ATOM     59  C   UNL     1      22.970  25.614  23.821  1.00  0.00     0.294 C 
BRANCH  59  60
ATOM     60  C   UNL     1      24.149  25.505  22.909  1.00  0.00     0.121 A 
ATOM     61  C   UNL     1      24.322  24.476  21.961  1.00  0.00     0.144 A 
ATOM     62  N   UNL     1      25.214  26.281  22.783  1.00  0.00    -0.131 NA
ATOM     63  N   UNL     1      25.464  24.677  21.318  1.00  0.00    -0.219 N 
ATOM     64  N   UNL     1      25.986  25.792  21.847  1.00  0.00    -0.062 NA
BRANCH  63  65
ATOM     65  C   UNL     1      26.115  23.966  20.282  1.00  0.00     0.081 A 
ATOM     66  C   UNL     1      27.112  23.040  20.610  1.00  0.00     0.049 A 
ATOM     67  C   UNL     1      25.871  24.130  18.949  1.00  0.00     0.065 A 
ATOM     68  C   UNL     1      27.790  22.356  19.654  1.00  0.00     0.043 A 
ATOM     69  C   UNL     1      26.575  23.423  17.956  1.00  0.00     0.017 A 
ATOM     70  Cl  UNL     1      29.031  21.208  20.136  1.00  0.00    -0.084 Cl
ATOM     71  C   UNL     1      27.547  22.524  18.318  1.00  0.00     0.021 A 
BRANCH  67  72
ATOM     72  C   UNL     1      24.820  25.029  18.464  1.00  0.00     0.255 C 
ATOM     73  O   UNL     1      23.672  24.569  18.293  1.00  0.00    -0.269 OA
ATOM     74  N   UNL     1      25.103  26.372  18.201  1.00  0.00    -0.345 N 
ATOM     75  C   UNL     1      26.451  26.897  18.404  1.00  0.00     0.146 C 
ATOM     76  C   UNL     1      24.071  27.291  17.727  1.00  0.00     0.146 C 
ENDBRANCH  67  72
ENDBRANCH  63  65
ENDBRANCH  59  60
ENDBRANCH  58  59
ENDBRANCH  55  58
ENDBRANCH  53  54
ENDBRANCH  50  53
ENDBRANCH  47  50
ENDBRANCH   5  47
BRANCH   4  77
ATOM     77  N   UNL     1      17.863  29.059  16.821  1.00  0.00    -0.348 N 
ATOM     78  C   UNL     1      18.955  28.816  15.961  1.00  0.00     0.217 C 
ATOM     79  H   UNL     1      17.059  29.597  16.444  1.00  0.00     0.163 HD
ATOM     80  C   UNL     1      18.994  29.292  14.557  1.00  0.00     0.114 C 
ATOM     81  O   UNL     1      19.940  28.166  16.402  1.00  0.00    -0.275 OA
ENDBRANCH   4  77
TORSDOF 31
