REMARK VINA RESULT:    -6.692      3.723      9.525
REMARK INTER + INTRA:         -21.611
REMARK INTER:                 -14.166
REMARK INTRA:                  -7.445
REMARK UNBOUND:                -4.749
REMARK SMILES CC(=O)N[C@@H]1[C@@H](O)C[C@](OC[C@H]2O[C@@H](O[C@H]3[C@H](O)[C@@H](O)[C@H](OCCN=[N+]=[N-])O[C@@H]3CO)[C@H](O)[C@@H](O)[C@H]2O)(C(=O)O)O[C@H]1C(O)[C@H](O)CNC(=O)OCc1cn(-c2ccccc2C(C)=O)nn1
REMARK SMILES IDX 9 1 8 2 6 3 5 4 42 5 41 6 10 7 11 8 12 9 14 10 13 11 32 12
REMARK SMILES IDX 34 13 36 14 15 15 16 16 29 17 28 18 21 19 17 20 19 21 30 22
REMARK SMILES IDX 31 23 22 25 23 26 24 27 25 28 26 29 27 30 18 31 20 33 33 35
REMARK SMILES IDX 35 37 37 39 38 41 39 42 40 43 7 45 43 47 44 48 45 50 46 51
REMARK SMILES IDX 47 53 48 54 49 55 50 57 51 58 52 59 53 60 54 61 66 62 55 63
REMARK SMILES IDX 65 64 56 65 61 66 57 67 60 68 58 69 59 70 62 71 64 72 63 73
REMARK SMILES IDX 4 74 2 75 1 77 3 78
REMARK H PARENT 31 24 18 32 20 34 33 36 35 38 37 40 40 44 7 46 44 49 46 52
REMARK H PARENT 48 56 4 76
REMARK Flexibility Score: inf
ROOT
ATOM      1  C   UNL     1      24.050  30.045  21.982  1.00  0.00     0.272 C 
ATOM      2  C   UNL     1      24.055  29.312  23.292  1.00  0.00     0.113 C 
ATOM      3  C   UNL     1      23.491  30.231  24.344  1.00  0.00     0.145 C 
ATOM      4  C   UNL     1      22.031  30.403  23.958  1.00  0.00     0.142 C 
ATOM      5  C   UNL     1      22.052  31.150  22.652  1.00  0.00     0.178 C 
ATOM      6  O   UNL     1      23.215  31.185  21.976  1.00  0.00    -0.332 OA
ENDROOT
BRANCH   1   7
ATOM      7  O   UNL     1      23.763  29.369  20.898  1.00  0.00    -0.338 OA
BRANCH   7   8
ATOM      8  C   UNL     1      24.420  28.575  20.112  1.00  0.00     0.199 C 
BRANCH   8   9
ATOM      9  C   UNL     1      24.397  27.094  20.142  1.00  0.00     0.179 C 
ATOM     10  C   UNL     1      24.254  25.353  21.659  1.00  0.00     0.282 C 
ATOM     11  O   UNL     1      24.125  26.720  21.495  1.00  0.00    -0.341 OA
ATOM     12  C   UNL     1      24.301  24.542  20.420  1.00  0.00     0.202 C 
ATOM     13  C   UNL     1      23.476  25.035  19.272  1.00  0.00     0.179 C 
ATOM     14  C   UNL     1      23.173  26.508  19.398  1.00  0.00     0.177 C 
BRANCH  10  15
ATOM     15  O   UNL     1      23.226  24.890  22.480  1.00  0.00    -0.341 OA
BRANCH  15  16
ATOM     16  C   UNL     1      23.124  25.636  23.652  1.00  0.00     0.184 C 
ATOM     17  C   UNL     1      23.489  24.737  24.808  1.00  0.00     0.178 C 
ATOM     18  O   UNL     1      22.483  24.546  25.719  1.00  0.00    -0.341 OA
ATOM     19  C   UNL     1      21.900  25.682  26.224  1.00  0.00     0.281 C 
ATOM     20  C   UNL     1      21.632  25.968  23.801  1.00  0.00     0.180 C 
ATOM     21  C   UNL     1      21.455  26.636  25.127  1.00  0.00     0.202 C 
BRANCH  17  22
ATOM     22  C   UNL     1      24.757  25.278  25.443  1.00  0.00     0.191 C 
BRANCH  22  23
ATOM     23  O   UNL     1      24.871  26.623  25.096  1.00  0.00    -0.394 OA
ATOM     24  H   UNL     1      24.639  27.247  25.807  1.00  0.00     0.210 HD
ENDBRANCH  22  23
ENDBRANCH  17  22
BRANCH  19  25
ATOM     25  O   UNL     1      22.641  26.331  27.193  1.00  0.00    -0.350 OA
BRANCH  25  26
ATOM     26  C   UNL     1      21.798  26.723  28.222  1.00  0.00     0.169 C 
BRANCH  26  27
ATOM     27  C   UNL     1      21.992  25.793  29.410  1.00  0.00     0.119 C 
BRANCH  27  28
ATOM     28  N   UNL     1      23.380  25.317  29.453  1.00  0.00    -0.092 NA
ATOM     29  N   UNL     1      23.988  25.518  30.503  1.00  0.00     0.001 N 
ATOM     30  N   UNL     1      24.746  25.747  31.429  1.00  0.00    -0.003 NA
ENDBRANCH  27  28
ENDBRANCH  26  27
ENDBRANCH  25  26
ENDBRANCH  19  25
BRANCH  20  31
ATOM     31  O   UNL     1      21.226  26.737  22.735  1.00  0.00    -0.387 OA
ATOM     32  H   UNL     1      21.139  27.709  22.985  1.00  0.00     0.211 HD
ENDBRANCH  20  31
BRANCH  21  33
ATOM     33  O   UNL     1      20.148  27.087  25.322  1.00  0.00    -0.385 OA
ATOM     34  H   UNL     1      20.130  27.692  26.126  1.00  0.00     0.211 HD
ENDBRANCH  21  33
ENDBRANCH  15  16
ENDBRANCH  10  15
BRANCH  12  35
ATOM     35  O   UNL     1      25.619  24.249  20.035  1.00  0.00    -0.385 OA
ATOM     36  H   UNL     1      25.646  23.526  19.359  1.00  0.00     0.211 HD
ENDBRANCH  12  35
BRANCH  13  37
ATOM     37  O   UNL     1      22.243  24.367  19.188  1.00  0.00    -0.387 OA
ATOM     38  H   UNL     1      22.431  23.415  19.401  1.00  0.00     0.211 HD
ENDBRANCH  13  37
BRANCH  14  39
ATOM     39  O   UNL     1      22.021  26.730  20.160  1.00  0.00    -0.387 OA
ATOM     40  H   UNL     1      22.203  26.731  21.135  1.00  0.00     0.211 HD
ENDBRANCH  14  39
ENDBRANCH   8   9
ENDBRANCH   7   8
ENDBRANCH   1   7
BRANCH   1  41
ATOM     41  C   UNL     1      25.390  30.693  21.915  1.00  0.00     0.364 C 
ATOM     42  O   UNL     1      26.399  30.145  22.480  1.00  0.00    -0.246 OA
BRANCH  41  43
ATOM     43  O   UNL     1      25.680  31.877  21.288  1.00  0.00    -0.477 OA
ATOM     44  H   UNL     1      25.332  32.770  21.612  1.00  0.00     0.296 HD
ENDBRANCH  41  43
ENDBRANCH   1  41
BRANCH   3  45
ATOM     45  O   UNL     1      23.622  29.572  25.563  1.00  0.00    -0.391 OA
ATOM     46  H   UNL     1      24.576  29.398  25.780  1.00  0.00     0.211 HD
ENDBRANCH   3  45
BRANCH   5  47
ATOM     47  C   UNL     1      20.838  30.697  21.777  1.00  0.00     0.176 C 
BRANCH  47  48
ATOM     48  O   UNL     1      21.048  29.271  21.656  1.00  0.00    -0.388 OA
ATOM     49  H   UNL     1      20.611  28.929  22.495  1.00  0.00     0.211 HD
ENDBRANCH  47  48
BRANCH  47  50
ATOM     50  C   UNL     1      20.921  31.248  20.417  1.00  0.00     0.165 C 
BRANCH  50  51
ATOM     51  O   UNL     1      21.282  32.618  20.422  1.00  0.00    -0.388 OA
ATOM     52  H   UNL     1      21.970  32.807  19.748  1.00  0.00     0.211 HD
ENDBRANCH  50  51
BRANCH  50  53
ATOM     53  C   UNL     1      20.049  30.818  19.326  1.00  0.00     0.154 C 
BRANCH  53  54
ATOM     54  N   UNL     1      18.872  30.113  19.679  1.00  0.00    -0.319 N 
ATOM     55  C   UNL     1      18.647  28.718  19.667  1.00  0.00     0.407 C 
ATOM     56  H   UNL     1      18.021  30.677  20.007  1.00  0.00     0.167 HD
ATOM     57  O   UNL     1      19.572  27.967  19.283  1.00  0.00    -0.225 OA
BRANCH  55  58
ATOM     58  O   UNL     1      17.457  28.119  20.055  1.00  0.00    -0.443 OA
BRANCH  58  59
ATOM     59  C   UNL     1      16.231  28.548  19.521  1.00  0.00     0.294 C 
BRANCH  59  60
ATOM     60  C   UNL     1      15.297  28.777  20.677  1.00  0.00     0.121 A 
ATOM     61  C   UNL     1      15.544  29.514  21.812  1.00  0.00     0.144 A 
ATOM     62  N   UNL     1      14.050  28.312  20.837  1.00  0.00    -0.131 NA
ATOM     63  N   UNL     1      14.431  29.460  22.613  1.00  0.00    -0.220 N 
ATOM     64  N   UNL     1      13.547  28.719  21.980  1.00  0.00    -0.062 NA
BRANCH  63  65
ATOM     65  C   UNL     1      14.342  30.077  23.891  1.00  0.00     0.077 A 
ATOM     66  C   UNL     1      13.213  30.502  24.494  1.00  0.00     0.043 A 
ATOM     67  C   UNL     1      15.572  30.237  24.560  1.00  0.00     0.029 A 
ATOM     68  C   UNL     1      13.329  31.088  25.773  1.00  0.00     0.014 A 
ATOM     69  C   UNL     1      15.655  30.813  25.808  1.00  0.00     0.002 A 
ATOM     70  C   UNL     1      14.513  31.249  26.434  1.00  0.00     0.001 A 
BRANCH  66  71
ATOM     71  C   UNL     1      11.911  30.384  23.882  1.00  0.00     0.161 C 
ATOM     72  O   UNL     1      11.220  29.364  24.266  1.00  0.00    -0.294 OA
ATOM     73  C   UNL     1      11.274  31.258  22.895  1.00  0.00     0.093 C 
ENDBRANCH  66  71
ENDBRANCH  63  65
ENDBRANCH  59  60
ENDBRANCH  58  59
ENDBRANCH  55  58
ENDBRANCH  53  54
ENDBRANCH  50  53
ENDBRANCH  47  50
ENDBRANCH   5  47
BRANCH   4  74
ATOM     74  N   UNL     1      21.272  31.064  24.977  1.00  0.00    -0.348 N 
ATOM     75  C   UNL     1      19.949  30.699  25.332  1.00  0.00     0.217 C 
ATOM     76  H   UNL     1      21.743  31.863  25.476  1.00  0.00     0.163 HD
ATOM     77  C   UNL     1      19.244  31.463  26.420  1.00  0.00     0.114 C 
ATOM     78  O   UNL     1      19.423  29.748  24.720  1.00  0.00    -0.275 OA
ENDBRANCH   4  74
TORSDOF 31
