REMARK VINA RESULT:    -5.578     10.430     17.012
REMARK INTER + INTRA:         -23.109
REMARK INTER:                 -15.035
REMARK INTRA:                  -8.074
REMARK UNBOUND:                -8.074
REMARK SMILES CC(=O)N[C@@H]1[C@@H](O)C[C@](OC[C@H]2O[C@@H](O[C@H]3[C@H](O)[C@@H](O)[C@H](OCCN=[N+]=[N-])O[C@@H]3CO)[C@H](O)[C@@H](O)[C@H]2O)(C(=O)O)O[C@H]1C(O)[C@H](O)CNC(=O)OCc1cn(C[C@@H](C)CN2CCN(c3ccc(Cl)cc3)CC2)nn1
REMARK SMILES IDX 43 1 42 2 9 3 8 4 41 5 6 6 5 7 10 8 11 9 12 10 14 11 13 12
REMARK SMILES IDX 32 13 34 14 36 15 15 16 16 17 29 18 28 19 21 20 17 21 19 22
REMARK SMILES IDX 30 23 31 24 22 26 23 27 24 28 25 29 26 30 27 31 18 32 20 34
REMARK SMILES IDX 33 36 35 38 37 40 38 42 39 43 40 44 7 46 4 48 2 49 1 51 3 52
REMARK SMILES IDX 44 53 45 55 46 56 47 58 48 59 49 60 50 62 51 63 52 64 53 65
REMARK SMILES IDX 54 66 74 67 55 68 73 69 56 70 57 71 58 72 59 73 60 74 61 75
REMARK SMILES IDX 72 76 62 77 71 78 63 79 64 80 65 81 70 82 66 83 69 84 67 85
REMARK SMILES IDX 68 86
REMARK H PARENT 31 25 18 33 20 35 33 37 35 39 37 41 40 45 7 47 4 50 44 54
REMARK H PARENT 46 57 48 61
REMARK Flexibility Score: inf
ROOT
ATOM      1  C   UNL     1      14.760  29.448  20.942  1.00  0.00     0.176 C 
ENDROOT
BRANCH   1   2
ATOM      2  C   UNL     1      14.253  30.586  20.068  1.00  0.00     0.178 C 
ATOM      3  C   UNL     1      14.442  31.583  17.934  1.00  0.00     0.272 C 
ATOM      4  C   UNL     1      13.949  32.779  18.584  1.00  0.00     0.113 C 
ATOM      5  O   UNL     1      14.954  30.673  18.911  1.00  0.00    -0.332 OA
ATOM      6  C   UNL     1      14.548  33.005  19.959  1.00  0.00     0.145 C 
ATOM      7  C   UNL     1      14.068  31.846  20.844  1.00  0.00     0.142 C 
BRANCH   3   8
ATOM      8  O   UNL     1      15.400  31.630  17.013  1.00  0.00    -0.338 OA
BRANCH   8   9
ATOM      9  C   UNL     1      15.384  31.209  15.775  1.00  0.00     0.199 C 
BRANCH   9  10
ATOM     10  C   UNL     1      16.566  30.568  15.107  1.00  0.00     0.179 C 
ATOM     11  C   UNL     1      18.705  29.988  15.839  1.00  0.00     0.282 C 
ATOM     12  O   UNL     1      17.774  30.965  15.604  1.00  0.00    -0.341 OA
ATOM     13  C   UNL     1      18.192  29.067  16.930  1.00  0.00     0.202 C 
ATOM     14  C   UNL     1      16.897  28.477  16.475  1.00  0.00     0.179 C 
ATOM     15  C   UNL     1      16.396  29.044  15.191  1.00  0.00     0.177 C 
BRANCH  11  16
ATOM     16  O   UNL     1      19.846  30.651  16.350  1.00  0.00    -0.341 OA
BRANCH  16  17
ATOM     17  C   UNL     1      20.812  30.718  15.379  1.00  0.00     0.184 C 
ATOM     18  C   UNL     1      20.527  29.803  14.207  1.00  0.00     0.178 C 
ATOM     19  O   UNL     1      21.374  28.744  14.088  1.00  0.00    -0.341 OA
ATOM     20  C   UNL     1      22.724  29.038  14.026  1.00  0.00     0.281 C 
ATOM     21  C   UNL     1      22.204  30.455  15.944  1.00  0.00     0.180 C 
ATOM     22  C   UNL     1      23.128  30.287  14.760  1.00  0.00     0.202 C 
BRANCH  18  23
ATOM     23  C   UNL     1      20.343  30.577  12.911  1.00  0.00     0.191 C 
BRANCH  23  24
ATOM     24  O   UNL     1      19.413  31.580  13.031  1.00  0.00    -0.394 OA
ATOM     25  H   UNL     1      19.500  32.158  12.212  1.00  0.00     0.210 HD
ENDBRANCH  23  24
ENDBRANCH  18  23
BRANCH  20  26
ATOM     26  O   UNL     1      23.198  29.087  12.720  1.00  0.00    -0.350 OA
BRANCH  26  27
ATOM     27  C   UNL     1      23.718  27.923  12.233  1.00  0.00     0.169 C 
BRANCH  27  28
ATOM     28  C   UNL     1      24.649  27.268  13.214  1.00  0.00     0.119 C 
BRANCH  28  29
ATOM     29  N   UNL     1      24.803  25.866  12.863  1.00  0.00    -0.092 NA
ATOM     30  N   UNL     1      23.794  25.141  12.784  1.00  0.00     0.001 N 
ATOM     31  N   UNL     1      22.728  24.541  12.743  1.00  0.00    -0.003 NA
ENDBRANCH  28  29
ENDBRANCH  27  28
ENDBRANCH  26  27
ENDBRANCH  20  26
BRANCH  21  32
ATOM     32  O   UNL     1      22.655  31.552  16.676  1.00  0.00    -0.387 OA
ATOM     33  H   UNL     1      23.305  31.180  17.341  1.00  0.00     0.211 HD
ENDBRANCH  21  32
BRANCH  22  34
ATOM     34  O   UNL     1      24.441  30.092  15.254  1.00  0.00    -0.385 OA
ATOM     35  H   UNL     1      24.903  30.922  15.451  1.00  0.00     0.211 HD
ENDBRANCH  22  34
ENDBRANCH  16  17
ENDBRANCH  11  16
BRANCH  13  36
ATOM     36  O   UNL     1      19.170  28.122  17.189  1.00  0.00    -0.385 OA
ATOM     37  H   UNL     1      20.051  28.568  17.022  1.00  0.00     0.211 HD
ENDBRANCH  13  36
BRANCH  14  38
ATOM     38  O   UNL     1      15.901  28.517  17.460  1.00  0.00    -0.387 OA
ATOM     39  H   UNL     1      15.117  29.026  17.152  1.00  0.00     0.211 HD
ENDBRANCH  14  38
BRANCH  15  40
ATOM     40  O   UNL     1      15.072  28.737  14.995  1.00  0.00    -0.387 OA
ATOM     41  H   UNL     1      14.862  28.555  14.050  1.00  0.00     0.211 HD
ENDBRANCH  15  40
ENDBRANCH   9  10
ENDBRANCH   8   9
ENDBRANCH   3   8
BRANCH   3  42
ATOM     42  C   UNL     1      13.282  30.769  17.396  1.00  0.00     0.364 C 
ATOM     43  O   UNL     1      12.159  31.330  17.146  1.00  0.00    -0.246 OA
BRANCH  42  44
ATOM     44  O   UNL     1      13.333  29.420  17.149  1.00  0.00    -0.477 OA
ATOM     45  H   UNL     1      14.214  28.937  17.020  1.00  0.00     0.296 HD
ENDBRANCH  42  44
ENDBRANCH   3  42
BRANCH   6  46
ATOM     46  O   UNL     1      15.935  32.957  19.813  1.00  0.00    -0.391 OA
ATOM     47  H   UNL     1      16.212  32.217  19.220  1.00  0.00     0.211 HD
ENDBRANCH   6  46
BRANCH   7  48
ATOM     48  N   UNL     1      12.679  32.106  21.167  1.00  0.00    -0.348 N 
ATOM     49  C   UNL     1      12.163  31.734  22.434  1.00  0.00     0.217 C 
ATOM     50  H   UNL     1      12.013  32.567  20.487  1.00  0.00     0.163 HD
ATOM     51  C   UNL     1      10.714  32.021  22.730  1.00  0.00     0.114 C 
ATOM     52  O   UNL     1      12.859  31.175  23.328  1.00  0.00    -0.275 OA
ENDBRANCH   7  48
ENDBRANCH   1   2
BRANCH   1  53
ATOM     53  O   UNL     1      13.942  28.346  20.699  1.00  0.00    -0.388 OA
ATOM     54  H   UNL     1      13.726  27.869  21.533  1.00  0.00     0.211 HD
ENDBRANCH   1  53
BRANCH   1  55
ATOM     55  C   UNL     1      16.165  29.016  20.628  1.00  0.00     0.165 C 
BRANCH  55  56
ATOM     56  O   UNL     1      16.338  27.671  20.437  1.00  0.00    -0.388 OA
ATOM     57  H   UNL     1      15.566  27.241  20.031  1.00  0.00     0.211 HD
ENDBRANCH  55  56
BRANCH  55  58
ATOM     58  C   UNL     1      17.204  29.568  21.544  1.00  0.00     0.154 C 
BRANCH  58  59
ATOM     59  N   UNL     1      18.322  30.056  20.733  1.00  0.00    -0.319 N 
ATOM     60  C   UNL     1      19.398  29.210  20.376  1.00  0.00     0.407 C 
ATOM     61  H   UNL     1      18.319  31.046  20.418  1.00  0.00     0.167 HD
ATOM     62  O   UNL     1      19.372  28.021  20.778  1.00  0.00    -0.225 OA
BRANCH  60  63
ATOM     63  O   UNL     1      20.445  29.691  19.601  1.00  0.00    -0.443 OA
BRANCH  63  64
ATOM     64  C   UNL     1      21.768  29.579  20.125  1.00  0.00     0.294 C 
BRANCH  64  65
ATOM     65  C   UNL     1      22.706  28.967  19.157  1.00  0.00     0.120 A 
ATOM     66  C   UNL     1      22.492  27.846  18.387  1.00  0.00     0.138 A 
ATOM     67  N   UNL     1      23.955  29.384  18.843  1.00  0.00    -0.132 NA
ATOM     68  N   UNL     1      23.590  27.644  17.664  1.00  0.00    -0.252 N 
ATOM     69  N   UNL     1      24.473  28.576  17.943  1.00  0.00    -0.067 NA
BRANCH  68  70
ATOM     70  C   UNL     1      23.766  26.539  16.721  1.00  0.00     0.150 C 
BRANCH  70  71
ATOM     71  C   UNL     1      23.512  25.195  17.411  1.00  0.00     0.022 C 
ATOM     72  C   UNL     1      23.504  24.160  16.307  1.00  0.00     0.011 C 
BRANCH  71  73
ATOM     73  C   UNL     1      24.605  24.939  18.401  1.00  0.00     0.089 C 
BRANCH  73  74
ATOM     74  N   UNL     1      24.260  24.466  19.676  1.00  0.00    -0.299 NA
ATOM     75  C   UNL     1      22.945  24.553  20.155  1.00  0.00     0.106 C 
ATOM     76  C   UNL     1      25.306  24.516  20.647  1.00  0.00     0.106 C 
ATOM     77  C   UNL     1      22.863  25.213  21.531  1.00  0.00     0.132 C 
ATOM     78  C   UNL     1      24.868  23.776  21.898  1.00  0.00     0.132 C 
ATOM     79  N   UNL     1      23.761  24.513  22.448  1.00  0.00    -0.369 N 
BRANCH  79  80
ATOM     80  C   UNL     1      23.523  24.584  23.826  1.00  0.00     0.037 A 
ATOM     81  C   UNL     1      22.237  24.686  24.352  1.00  0.00     0.027 A 
ATOM     82  C   UNL     1      24.544  24.548  24.767  1.00  0.00     0.027 A 
ATOM     83  C   UNL     1      21.976  24.750  25.700  1.00  0.00     0.022 A 
ATOM     84  C   UNL     1      24.285  24.612  26.121  1.00  0.00     0.022 A 
ATOM     85  C   UNL     1      23.001  24.714  26.609  1.00  0.00     0.041 A 
ATOM     86  Cl  UNL     1      22.673  24.794  28.308  1.00  0.00    -0.084 Cl
ENDBRANCH  79  80
ENDBRANCH  73  74
ENDBRANCH  71  73
ENDBRANCH  70  71
ENDBRANCH  68  70
ENDBRANCH  64  65
ENDBRANCH  63  64
ENDBRANCH  60  63
ENDBRANCH  58  59
ENDBRANCH  55  58
ENDBRANCH   1  55
TORSDOF 34
