REMARK VINA RESULT:    -5.199      1.770      2.329
REMARK INTER + INTRA:         -23.179
REMARK INTER:                 -15.655
REMARK INTRA:                  -7.524
REMARK UNBOUND:                -9.623
REMARK SMILES CC(=O)N[C@@H]1[C@@H](O)C[C@](OC[C@H]2O[C@@H](O[C@H]3[C@H](O)[C@@H](O)[C@H](OCCN=[N+]=[N-])O[C@@H]3CO)[C@H](O)[C@@H](O)[C@H]2O)(C(=O)O)O[C@H]1C(O)[C@H](O)CNC(=O)OCc1cn(Cc2ccc(C(=O)O)cc2)nn1
REMARK SMILES IDX 43 1 42 2 9 3 8 4 41 5 6 6 5 7 10 8 11 9 12 10 14 11 13 12
REMARK SMILES IDX 32 13 34 14 36 15 15 16 16 17 29 18 28 19 21 20 17 21 19 22
REMARK SMILES IDX 30 23 31 24 22 26 23 27 24 28 25 29 26 30 27 31 18 32 20 34
REMARK SMILES IDX 33 36 35 38 37 40 38 42 39 43 40 44 7 46 4 48 2 49 1 51 3 52
REMARK SMILES IDX 44 53 45 55 46 56 47 58 48 59 49 60 50 62 51 63 52 64 53 65
REMARK SMILES IDX 54 66 67 67 55 68 66 69 56 70 57 71 58 72 65 73 59 74 64 75
REMARK SMILES IDX 60 76 61 77 62 78 63 79
REMARK H PARENT 31 25 18 33 20 35 33 37 35 39 37 41 40 45 7 47 4 50 44 54
REMARK H PARENT 46 57 48 61 63 80
REMARK Flexibility Score: inf
ROOT
ATOM      1  C   UNL     1      18.289  31.530  19.517  1.00  0.00     0.176 C 
ENDROOT
BRANCH   1   2
ATOM      2  C   UNL     1      17.233  30.586  18.902  1.00  0.00     0.178 C 
ATOM      3  C   UNL     1      15.711  29.083  19.914  1.00  0.00     0.272 C 
ATOM      4  C   UNL     1      16.315  27.997  19.117  1.00  0.00     0.113 C 
ATOM      5  O   UNL     1      16.413  30.262  19.912  1.00  0.00    -0.332 OA
ATOM      6  C   UNL     1      17.798  28.184  18.873  1.00  0.00     0.145 C 
ATOM      7  C   UNL     1      17.958  29.514  18.197  1.00  0.00     0.142 C 
BRANCH   3   8
ATOM      8  O   UNL     1      15.588  28.734  21.233  1.00  0.00    -0.338 OA
BRANCH   8   9
ATOM      9  C   UNL     1      16.023  29.569  22.199  1.00  0.00     0.199 C 
BRANCH   9  10
ATOM     10  C   UNL     1      14.891  29.836  23.220  1.00  0.00     0.179 C 
ATOM     11  C   UNL     1      14.572  30.307  25.480  1.00  0.00     0.282 C 
ATOM     12  O   UNL     1      15.433  29.879  24.471  1.00  0.00    -0.341 OA
ATOM     13  C   UNL     1      13.151  30.427  25.059  1.00  0.00     0.202 C 
ATOM     14  C   UNL     1      13.086  31.355  23.865  1.00  0.00     0.179 C 
ATOM     15  C   UNL     1      14.160  31.101  22.853  1.00  0.00     0.177 C 
BRANCH  11  16
ATOM     16  O   UNL     1      15.054  31.522  25.966  1.00  0.00    -0.341 OA
BRANCH  16  17
ATOM     17  C   UNL     1      16.345  31.426  26.396  1.00  0.00     0.184 C 
ATOM     18  C   UNL     1      16.494  31.712  27.845  1.00  0.00     0.178 C 
ATOM     19  O   UNL     1      17.768  31.344  28.303  1.00  0.00    -0.341 OA
ATOM     20  C   UNL     1      18.755  31.719  27.388  1.00  0.00     0.281 C 
ATOM     21  C   UNL     1      17.150  32.461  25.588  1.00  0.00     0.180 C 
ATOM     22  C   UNL     1      18.338  32.818  26.457  1.00  0.00     0.202 C 
BRANCH  18  23
ATOM     23  C   UNL     1      15.480  30.947  28.648  1.00  0.00     0.191 C 
BRANCH  23  24
ATOM     24  O   UNL     1      14.343  31.785  28.727  1.00  0.00    -0.394 OA
ATOM     25  H   UNL     1      13.567  31.340  28.337  1.00  0.00     0.210 HD
ENDBRANCH  23  24
ENDBRANCH  18  23
BRANCH  20  26
ATOM     26  O   UNL     1      19.191  30.601  26.716  1.00  0.00    -0.350 OA
BRANCH  26  27
ATOM     27  C   UNL     1      20.537  30.578  26.429  1.00  0.00     0.169 C 
BRANCH  27  28
ATOM     28  C   UNL     1      21.335  29.553  27.164  1.00  0.00     0.119 C 
BRANCH  28  29
ATOM     29  N   UNL     1      21.810  28.591  26.156  1.00  0.00    -0.092 NA
ATOM     30  N   UNL     1      21.047  27.993  25.405  1.00  0.00     0.001 N 
ATOM     31  N   UNL     1      20.097  27.434  24.868  1.00  0.00    -0.003 NA
ENDBRANCH  28  29
ENDBRANCH  27  28
ENDBRANCH  26  27
ENDBRANCH  20  26
BRANCH  21  32
ATOM     32  O   UNL     1      17.541  31.927  24.380  1.00  0.00    -0.387 OA
ATOM     33  H   UNL     1      18.026  32.610  23.813  1.00  0.00     0.211 HD
ENDBRANCH  21  32
BRANCH  22  34
ATOM     34  O   UNL     1      18.088  33.996  27.122  1.00  0.00    -0.385 OA
ATOM     35  H   UNL     1      18.372  33.972  28.054  1.00  0.00     0.211 HD
ENDBRANCH  22  34
ENDBRANCH  16  17
ENDBRANCH  11  16
BRANCH  13  36
ATOM     36  O   UNL     1      12.595  29.180  24.731  1.00  0.00    -0.385 OA
ATOM     37  H   UNL     1      12.945  28.955  23.826  1.00  0.00     0.211 HD
ENDBRANCH  13  36
BRANCH  14  38
ATOM     38  O   UNL     1      13.129  32.693  24.258  1.00  0.00    -0.387 OA
ATOM     39  H   UNL     1      12.364  32.854  24.879  1.00  0.00     0.211 HD
ENDBRANCH  14  38
BRANCH  15  40
ATOM     40  O   UNL     1      15.038  32.187  22.728  1.00  0.00    -0.387 OA
ATOM     41  H   UNL     1      15.851  31.961  23.251  1.00  0.00     0.211 HD
ENDBRANCH  15  40
ENDBRANCH   9  10
ENDBRANCH   8   9
ENDBRANCH   3   8
BRANCH   3  42
ATOM     42  C   UNL     1      14.364  29.414  19.320  1.00  0.00     0.364 C 
ATOM     43  O   UNL     1      13.474  29.965  20.014  1.00  0.00    -0.246 OA
BRANCH  42  44
ATOM     44  O   UNL     1      14.061  29.125  17.999  1.00  0.00    -0.477 OA
ATOM     45  H   UNL     1      13.442  28.317  17.826  1.00  0.00     0.296 HD
ENDBRANCH  42  44
ENDBRANCH   3  42
BRANCH   6  46
ATOM     46  O   UNL     1      18.436  28.086  20.090  1.00  0.00    -0.391 OA
ATOM     47  H   UNL     1      19.394  28.325  19.988  1.00  0.00     0.211 HD
ENDBRANCH   6  46
BRANCH   7  48
ATOM     48  N   UNL     1      17.452  29.398  16.836  1.00  0.00    -0.348 N 
ATOM     49  C   UNL     1      18.340  29.188  15.724  1.00  0.00     0.217 C 
ATOM     50  H   UNL     1      16.444  29.458  16.578  1.00  0.00     0.163 HD
ATOM     51  C   UNL     1      17.780  29.074  14.340  1.00  0.00     0.114 C 
ATOM     52  O   UNL     1      19.559  29.107  15.944  1.00  0.00    -0.275 OA
ENDBRANCH   7  48
ENDBRANCH   1   2
BRANCH   1  53
ATOM     53  O   UNL     1      18.812  32.421  18.638  1.00  0.00    -0.388 OA
ATOM     54  H   UNL     1      18.859  33.357  18.933  1.00  0.00     0.211 HD
ENDBRANCH   1  53
BRANCH   1  55
ATOM     55  C   UNL     1      17.782  32.161  20.792  1.00  0.00     0.165 C 
BRANCH  55  56
ATOM     56  O   UNL     1      16.726  32.968  20.508  1.00  0.00    -0.388 OA
ATOM     57  H   UNL     1      16.056  33.071  21.211  1.00  0.00     0.211 HD
ENDBRANCH  55  56
BRANCH  55  58
ATOM     58  C   UNL     1      18.910  32.717  21.571  1.00  0.00     0.154 C 
BRANCH  58  59
ATOM     59  N   UNL     1      20.076  31.879  21.522  1.00  0.00    -0.319 N 
ATOM     60  C   UNL     1      20.274  30.742  22.336  1.00  0.00     0.407 C 
ATOM     61  H   UNL     1      20.853  32.106  20.842  1.00  0.00     0.167 HD
ATOM     62  O   UNL     1      19.434  30.374  23.171  1.00  0.00    -0.225 OA
BRANCH  60  63
ATOM     63  O   UNL     1      21.432  29.942  22.259  1.00  0.00    -0.443 OA
BRANCH  63  64
ATOM     64  C   UNL     1      21.600  29.052  21.170  1.00  0.00     0.294 C 
BRANCH  64  65
ATOM     65  C   UNL     1      21.649  27.641  21.590  1.00  0.00     0.120 A 
ATOM     66  C   UNL     1      22.686  26.917  22.109  1.00  0.00     0.138 A 
ATOM     67  N   UNL     1      20.605  26.795  21.498  1.00  0.00    -0.132 NA
ATOM     68  N   UNL     1      22.246  25.656  22.315  1.00  0.00    -0.248 N 
ATOM     69  N   UNL     1      20.982  25.609  21.936  1.00  0.00    -0.067 NA
BRANCH  68  70
ATOM     70  C   UNL     1      23.043  24.582  22.848  1.00  0.00     0.181 C 
BRANCH  70  71
ATOM     71  C   UNL     1      23.280  24.776  24.293  1.00  0.00    -0.026 A 
ATOM     72  C   UNL     1      24.546  25.076  24.748  1.00  0.00     0.006 A 
ATOM     73  C   UNL     1      22.234  24.637  25.201  1.00  0.00     0.006 A 
ATOM     74  C   UNL     1      24.702  25.226  26.115  1.00  0.00     0.016 A 
ATOM     75  C   UNL     1      22.397  24.786  26.560  1.00  0.00     0.016 A 
ATOM     76  C   UNL     1      23.661  25.087  27.011  1.00  0.00     0.059 A 
BRANCH  76  77
ATOM     77  C   UNL     1      23.893  25.251  28.438  1.00  0.00     0.335 C 
ATOM     78  O   UNL     1      24.408  26.292  28.870  1.00  0.00    -0.246 OA
BRANCH  77  79
ATOM     79  O   UNL     1      23.540  24.245  29.308  1.00  0.00    -0.478 OA
ATOM     80  H   UNL     1      22.658  23.742  29.229  1.00  0.00     0.297 HD
ENDBRANCH  77  79
ENDBRANCH  76  77
ENDBRANCH  70  71
ENDBRANCH  68  70
ENDBRANCH  64  65
ENDBRANCH  63  64
ENDBRANCH  60  63
ENDBRANCH  58  59
ENDBRANCH  55  58
ENDBRANCH   1  55
TORSDOF 33
