REMARK VINA RESULT:    -5.780      5.423     12.644
REMARK INTER + INTRA:         -21.373
REMARK INTER:                 -13.485
REMARK INTRA:                  -7.888
REMARK UNBOUND:                -6.131
REMARK SMILES COCC(C(N)=O)n1cc(COC(=O)NC[C@@H](O)C(O)[C@@H]2O[C@@](OC[C@H]3O[C@@H](O[C@H]4[C@H](O)[C@@H](O)[C@H](OCCN=[N+]=[N-])O[C@@H]4CO)[C@H](O)[C@@H](O)[C@H]3O)(C(=O)O)C[C@H](O)[C@H]2NC(C)=O)nn1
REMARK SMILES IDX 23 1 55 2 56 3 58 4 21 5 22 6 24 7 25 8 26 9 28 10 27 11
REMARK SMILES IDX 46 12 48 13 50 14 29 15 30 16 43 17 42 18 35 19 31 20 33 21
REMARK SMILES IDX 44 22 45 23 36 25 37 26 38 27 39 28 40 29 41 30 32 31 34 33
REMARK SMILES IDX 47 35 49 37 51 39 52 41 53 42 54 43 57 45 19 47 20 48 17 50
REMARK SMILES IDX 18 51 16 53 15 54 13 55 14 57 12 58 11 59 10 60 9 61 63 62
REMARK SMILES IDX 8 63 64 64 4 65 3 66 2 67 1 68 5 69 7 70 6 71 59 74 60 75
REMARK SMILES IDX 61 77 62 78
REMARK H PARENT 45 24 32 32 34 34 47 36 49 38 51 40 54 44 57 46 20 49 18 52
REMARK H PARENT 15 56 6 72 6 73 59 76
REMARK Flexibility Score: inf
ROOT
ATOM      1  C   UNL     1      19.422  28.838  20.306  1.00  0.00     0.272 C 
ATOM      2  C   UNL     1      20.128  29.450  19.158  1.00  0.00     0.113 C 
ATOM      3  C   UNL     1      20.887  28.539  18.265  1.00  0.00     0.145 C 
ATOM      4  C   UNL     1      21.555  27.459  19.073  1.00  0.00     0.142 C 
ATOM      5  C   UNL     1      21.560  27.924  20.522  1.00  0.00     0.178 C 
ATOM      6  O   UNL     1      20.273  27.969  20.989  1.00  0.00    -0.332 OA
ENDROOT
BRANCH   1   7
ATOM      7  O   UNL     1      18.268  28.154  20.045  1.00  0.00    -0.338 OA
BRANCH   7   8
ATOM      8  C   UNL     1      17.418  28.662  19.118  1.00  0.00     0.199 C 
BRANCH   8   9
ATOM      9  C   UNL     1      16.693  29.920  19.615  1.00  0.00     0.179 C 
ATOM     10  C   UNL     1      15.302  30.645  17.903  1.00  0.00     0.282 C 
ATOM     11  O   UNL     1      16.485  30.818  18.607  1.00  0.00    -0.341 OA
ATOM     12  C   UNL     1      14.098  30.594  18.777  1.00  0.00     0.202 C 
ATOM     13  C   UNL     1      14.201  29.534  19.824  1.00  0.00     0.179 C 
ATOM     14  C   UNL     1      15.529  29.616  20.488  1.00  0.00     0.177 C 
BRANCH  10  15
ATOM     15  O   UNL     1      15.351  29.567  17.037  1.00  0.00    -0.341 OA
BRANCH  15  16
ATOM     16  C   UNL     1      15.636  29.985  15.739  1.00  0.00     0.184 C 
ATOM     17  C   UNL     1      14.629  29.615  14.717  1.00  0.00     0.178 C 
ATOM     18  O   UNL     1      14.885  30.211  13.506  1.00  0.00    -0.341 OA
ATOM     19  C   UNL     1      16.238  30.418  13.235  1.00  0.00     0.281 C 
ATOM     20  C   UNL     1      16.943  29.269  15.355  1.00  0.00     0.180 C 
ATOM     21  C   UNL     1      17.091  29.333  13.873  1.00  0.00     0.202 C 
BRANCH  17  22
ATOM     22  C   UNL     1      13.198  29.963  15.081  1.00  0.00     0.191 C 
BRANCH  22  23
ATOM     23  O   UNL     1      12.699  29.028  15.985  1.00  0.00    -0.394 OA
ATOM     24  H   UNL     1      12.456  28.179  15.546  1.00  0.00     0.210 HD
ENDBRANCH  22  23
ENDBRANCH  17  22
BRANCH  19  25
ATOM     25  O   UNL     1      16.592  31.668  13.605  1.00  0.00    -0.350 OA
BRANCH  25  26
ATOM     26  C   UNL     1      17.746  32.219  13.168  1.00  0.00     0.169 C 
BRANCH  26  27
ATOM     27  C   UNL     1      18.048  32.158  11.711  1.00  0.00     0.119 C 
BRANCH  27  28
ATOM     28  N   UNL     1      19.333  31.605  11.422  1.00  0.00    -0.092 NA
ATOM     29  N   UNL     1      19.530  30.400  11.554  1.00  0.00     0.001 N 
ATOM     30  N   UNL     1      19.669  29.216  11.206  1.00  0.00    -0.003 NA
ENDBRANCH  27  28
ENDBRANCH  26  27
ENDBRANCH  25  26
ENDBRANCH  19  25
BRANCH  20  31
ATOM     31  O   UNL     1      18.016  29.877  16.005  1.00  0.00    -0.387 OA
ATOM     32  H   UNL     1      18.234  30.682  15.482  1.00  0.00     0.211 HD
ENDBRANCH  20  31
BRANCH  21  33
ATOM     33  O   UNL     1      16.693  28.117  13.275  1.00  0.00    -0.385 OA
ATOM     34  H   UNL     1      17.461  27.476  13.301  1.00  0.00     0.211 HD
ENDBRANCH  21  33
ENDBRANCH  15  16
ENDBRANCH  10  15
BRANCH  12  35
ATOM     35  O   UNL     1      14.033  31.826  19.455  1.00  0.00    -0.385 OA
ATOM     36  H   UNL     1      14.874  32.322  19.360  1.00  0.00     0.211 HD
ENDBRANCH  12  35
BRANCH  13  37
ATOM     37  O   UNL     1      13.878  28.267  19.342  1.00  0.00    -0.387 OA
ATOM     38  H   UNL     1      13.376  27.809  20.069  1.00  0.00     0.211 HD
ENDBRANCH  13  37
BRANCH  14  39
ATOM     39  O   UNL     1      15.801  28.449  21.205  1.00  0.00    -0.387 OA
ATOM     40  H   UNL     1      16.033  28.661  22.147  1.00  0.00     0.211 HD
ENDBRANCH  14  39
ENDBRANCH   8   9
ENDBRANCH   7   8
ENDBRANCH   1   7
BRANCH   1  41
ATOM     41  C   UNL     1      19.154  29.943  21.296  1.00  0.00     0.364 C 
ATOM     42  O   UNL     1      19.632  31.084  21.144  1.00  0.00    -0.246 OA
BRANCH  41  43
ATOM     43  O   UNL     1      18.366  29.669  22.383  1.00  0.00    -0.477 OA
ATOM     44  H   UNL     1      18.738  29.516  23.307  1.00  0.00     0.296 HD
ENDBRANCH  41  43
ENDBRANCH   1  41
BRANCH   3  45
ATOM     45  O   UNL     1      20.141  28.023  17.211  1.00  0.00    -0.391 OA
ATOM     46  H   UNL     1      19.263  28.477  17.164  1.00  0.00     0.211 HD
ENDBRANCH   3  45
BRANCH   5  47
ATOM     47  C   UNL     1      22.370  26.957  21.363  1.00  0.00     0.176 C 
BRANCH  47  48
ATOM     48  O   UNL     1      22.488  27.341  22.665  1.00  0.00    -0.388 OA
ATOM     49  H   UNL     1      23.368  27.351  23.065  1.00  0.00     0.211 HD
ENDBRANCH  47  48
BRANCH  47  50
ATOM     50  C   UNL     1      21.785  25.575  21.273  1.00  0.00     0.165 C 
BRANCH  50  51
ATOM     51  O   UNL     1      20.677  25.556  22.156  1.00  0.00    -0.388 OA
ATOM     52  H   UNL     1      19.854  25.338  21.639  1.00  0.00     0.211 HD
ENDBRANCH  50  51
BRANCH  50  53
ATOM     53  C   UNL     1      22.694  24.482  21.724  1.00  0.00     0.154 C 
BRANCH  53  54
ATOM     54  N   UNL     1      22.737  24.243  23.129  1.00  0.00    -0.319 N 
ATOM     55  C   UNL     1      23.788  24.713  23.962  1.00  0.00     0.407 C 
ATOM     56  H   UNL     1      21.971  23.693  23.606  1.00  0.00     0.167 HD
ATOM     57  O   UNL     1      24.717  25.360  23.458  1.00  0.00    -0.225 OA
BRANCH  55  58
ATOM     58  O   UNL     1      23.805  24.466  25.339  1.00  0.00    -0.443 OA
BRANCH  58  59
ATOM     59  C   UNL     1      22.700  24.699  26.160  1.00  0.00     0.294 C 
BRANCH  59  60
ATOM     60  C   UNL     1      21.929  25.905  25.836  1.00  0.00     0.120 A 
ATOM     61  C   UNL     1      22.142  27.136  26.405  1.00  0.00     0.139 A 
ATOM     62  N   UNL     1      20.925  25.992  24.956  1.00  0.00    -0.132 NA
ATOM     63  N   UNL     1      21.247  27.956  25.850  1.00  0.00    -0.237 N 
ATOM     64  N   UNL     1      20.521  27.252  24.977  1.00  0.00    -0.066 NA
BRANCH  63  65
ATOM     65  C   UNL     1      21.102  29.367  26.152  1.00  0.00     0.223 C 
BRANCH  65  66
ATOM     66  C   UNL     1      22.454  29.933  26.440  1.00  0.00     0.197 C 
BRANCH  66  67
ATOM     67  O   UNL     1      22.380  31.146  27.077  1.00  0.00    -0.382 OA
ATOM     68  C   UNL     1      23.258  32.052  26.543  1.00  0.00     0.195 C 
ENDBRANCH  66  67
ENDBRANCH  65  66
BRANCH  65  69
ATOM     69  C   UNL     1      20.510  30.005  24.929  1.00  0.00     0.244 C 
ATOM     70  O   UNL     1      19.360  30.482  25.000  1.00  0.00    -0.273 OA
ATOM     71  N   UNL     1      21.274  30.043  23.736  1.00  0.00    -0.368 N 
ATOM     72  H   UNL     1      21.091  29.453  22.908  1.00  0.00     0.159 HD
ATOM     73  H   UNL     1      22.074  30.712  23.698  1.00  0.00     0.159 HD
ENDBRANCH  65  69
ENDBRANCH  63  65
ENDBRANCH  59  60
ENDBRANCH  58  59
ENDBRANCH  55  58
ENDBRANCH  53  54
ENDBRANCH  50  53
ENDBRANCH  47  50
ENDBRANCH   5  47
BRANCH   4  74
ATOM     74  N   UNL     1      22.907  27.193  18.586  1.00  0.00    -0.348 N 
ATOM     75  C   UNL     1      23.252  26.046  17.822  1.00  0.00     0.217 C 
ATOM     76  H   UNL     1      23.687  27.866  18.790  1.00  0.00     0.163 HD
ATOM     77  C   UNL     1      24.605  25.758  17.318  1.00  0.00     0.114 C 
ATOM     78  O   UNL     1      22.313  25.219  17.561  1.00  0.00    -0.275 OA
ENDBRANCH   4  74
TORSDOF 33
