REMARK VINA RESULT:    -5.514      5.334     13.434
REMARK INTER + INTRA:         -20.342
REMARK INTER:                 -13.257
REMARK INTRA:                  -7.084
REMARK UNBOUND:                -6.769
REMARK SMILES CC(=O)N[C@@H]1[C@@H](O)C[C@](OC[C@H]2O[C@@H](O[C@H]3[C@H](O)[C@@H](O)[C@H](OCCN=[N+]=[N-])O[C@@H]3CO)[C@H](O)[C@@H](O)[C@H]2O)(C(=O)O)O[C@H]1C(O)[C@H](O)CNC(=O)OCc1cn(-c2cccnc2)nn1
REMARK SMILES IDX 9 1 8 2 6 3 5 4 42 5 41 6 10 7 11 8 12 9 14 10 13 11 32 12
REMARK SMILES IDX 34 13 36 14 15 15 16 16 29 17 28 18 21 19 17 20 19 21 30 22
REMARK SMILES IDX 31 23 22 25 23 26 24 27 25 28 26 29 27 30 18 31 20 33 33 35
REMARK SMILES IDX 35 37 37 39 38 41 39 42 40 43 7 45 43 47 44 48 45 50 46 51
REMARK SMILES IDX 47 53 48 54 49 55 50 57 51 58 52 59 53 60 54 61 63 62 55 63
REMARK SMILES IDX 62 64 56 65 57 66 61 67 58 68 60 69 59 70 4 71 2 72 1 74
REMARK SMILES IDX 3 75
REMARK H PARENT 31 24 18 32 20 34 33 36 35 38 37 40 40 44 7 46 44 49 46 52
REMARK H PARENT 48 56 4 73
REMARK Flexibility Score: inf
ROOT
ATOM      1  C   UNL     1      23.889  25.411  22.565  1.00  0.00     0.272 C 
ATOM      2  C   UNL     1      22.563  24.796  22.367  1.00  0.00     0.113 C 
ATOM      3  C   UNL     1      21.735  24.829  23.604  1.00  0.00     0.145 C 
ATOM      4  C   UNL     1      21.850  26.110  24.390  1.00  0.00     0.142 C 
ATOM      5  C   UNL     1      22.767  27.104  23.772  1.00  0.00     0.178 C 
ATOM      6  O   UNL     1      23.965  26.549  23.348  1.00  0.00    -0.332 OA
ENDROOT
BRANCH   1   7
ATOM      7  O   UNL     1      24.489  25.778  21.362  1.00  0.00    -0.338 OA
BRANCH   7   8
ATOM      8  C   UNL     1      23.806  25.497  20.222  1.00  0.00     0.199 C 
BRANCH   8   9
ATOM      9  C   UNL     1      23.876  26.756  19.335  1.00  0.00     0.179 C 
ATOM     10  C   UNL     1      24.294  25.625  17.327  1.00  0.00     0.282 C 
ATOM     11  O   UNL     1      24.679  26.541  18.282  1.00  0.00    -0.341 OA
ATOM     12  C   UNL     1      22.843  25.770  17.022  1.00  0.00     0.202 C 
ATOM     13  C   UNL     1      22.418  27.181  17.456  1.00  0.00     0.179 C 
ATOM     14  C   UNL     1      22.488  27.252  18.973  1.00  0.00     0.177 C 
BRANCH  10  15
ATOM     15  O   UNL     1      24.659  24.372  17.815  1.00  0.00    -0.341 OA
BRANCH  15  16
ATOM     16  C   UNL     1      25.657  23.766  17.127  1.00  0.00     0.184 C 
ATOM     17  C   UNL     1      27.050  24.055  17.596  1.00  0.00     0.178 C 
ATOM     18  O   UNL     1      27.851  22.981  17.208  1.00  0.00    -0.341 OA
ATOM     19  C   UNL     1      27.622  22.557  15.903  1.00  0.00     0.281 C 
ATOM     20  C   UNL     1      25.675  24.123  15.644  1.00  0.00     0.180 C 
ATOM     21  C   UNL     1      26.992  23.621  15.035  1.00  0.00     0.202 C 
BRANCH  17  22
ATOM     22  C   UNL     1      27.224  24.302  19.049  1.00  0.00     0.191 C 
BRANCH  22  23
ATOM     23  O   UNL     1      26.523  23.417  19.825  1.00  0.00    -0.394 OA
ATOM     24  H   UNL     1      25.770  23.069  19.282  1.00  0.00     0.210 HD
ENDBRANCH  22  23
ENDBRANCH  17  22
BRANCH  19  25
ATOM     25  O   UNL     1      26.877  21.416  15.822  1.00  0.00    -0.350 OA
BRANCH  25  26
ATOM     26  C   UNL     1      27.056  20.565  14.791  1.00  0.00     0.169 C 
BRANCH  26  27
ATOM     27  C   UNL     1      25.883  20.217  13.944  1.00  0.00     0.119 C 
BRANCH  27  28
ATOM     28  N   UNL     1      24.594  20.492  14.479  1.00  0.00    -0.092 NA
ATOM     29  N   UNL     1      23.554  20.446  13.790  1.00  0.00     0.001 N 
ATOM     30  N   UNL     1      22.725  20.893  12.978  1.00  0.00    -0.003 NA
ENDBRANCH  27  28
ENDBRANCH  26  27
ENDBRANCH  25  26
ENDBRANCH  19  25
BRANCH  20  31
ATOM     31  O   UNL     1      24.648  23.451  14.997  1.00  0.00    -0.387 OA
ATOM     32  H   UNL     1      23.747  23.770  15.269  1.00  0.00     0.211 HD
ENDBRANCH  20  31
BRANCH  21  33
ATOM     33  O   UNL     1      27.887  24.666  14.813  1.00  0.00    -0.385 OA
ATOM     34  H   UNL     1      28.754  24.422  15.220  1.00  0.00     0.211 HD
ENDBRANCH  21  33
ENDBRANCH  15  16
ENDBRANCH  10  15
BRANCH  12  35
ATOM     35  O   UNL     1      22.654  25.779  15.627  1.00  0.00    -0.385 OA
ATOM     36  H   UNL     1      23.529  26.025  15.196  1.00  0.00     0.211 HD
ENDBRANCH  12  35
BRANCH  13  37
ATOM     37  O   UNL     1      21.191  27.543  16.963  1.00  0.00    -0.387 OA
ATOM     38  H   UNL     1      20.543  27.632  17.706  1.00  0.00     0.211 HD
ENDBRANCH  13  37
BRANCH  14  39
ATOM     39  O   UNL     1      21.479  26.514  19.559  1.00  0.00    -0.387 OA
ATOM     40  H   UNL     1      21.031  25.994  18.840  1.00  0.00     0.211 HD
ENDBRANCH  14  39
ENDBRANCH   8   9
ENDBRANCH   7   8
ENDBRANCH   1   7
BRANCH   1  41
ATOM     41  C   UNL     1      24.776  24.350  23.184  1.00  0.00     0.364 C 
ATOM     42  O   UNL     1      25.327  23.527  22.434  1.00  0.00    -0.246 OA
BRANCH  41  43
ATOM     43  O   UNL     1      24.997  24.257  24.536  1.00  0.00    -0.477 OA
ATOM     44  H   UNL     1      25.173  25.039  25.154  1.00  0.00     0.296 HD
ENDBRANCH  41  43
ENDBRANCH   1  41
BRANCH   3  45
ATOM     45  O   UNL     1      20.397  24.630  23.190  1.00  0.00    -0.391 OA
ATOM     46  H   UNL     1      19.788  25.285  23.579  1.00  0.00     0.211 HD
ENDBRANCH   3  45
BRANCH   5  47
ATOM     47  C   UNL     1      22.160  27.992  22.738  1.00  0.00     0.176 C 
BRANCH  47  48
ATOM     48  O   UNL     1      23.221  28.625  22.041  1.00  0.00    -0.388 OA
ATOM     49  H   UNL     1      23.951  27.960  21.905  1.00  0.00     0.211 HD
ENDBRANCH  47  48
BRANCH  47  50
ATOM     50  C   UNL     1      21.277  29.096  23.228  1.00  0.00     0.165 C 
BRANCH  50  51
ATOM     51  O   UNL     1      20.000  28.752  22.609  1.00  0.00    -0.388 OA
ATOM     52  H   UNL     1      19.330  28.922  23.315  1.00  0.00     0.211 HD
ENDBRANCH  50  51
BRANCH  50  53
ATOM     53  C   UNL     1      21.549  30.449  22.655  1.00  0.00     0.154 C 
BRANCH  53  54
ATOM     54  N   UNL     1      20.779  30.839  21.518  1.00  0.00    -0.319 N 
ATOM     55  C   UNL     1      21.463  30.963  20.252  1.00  0.00     0.407 C 
ATOM     56  H   UNL     1      19.781  31.026  21.493  1.00  0.00     0.167 HD
ATOM     57  O   UNL     1      22.687  30.720  20.221  1.00  0.00    -0.225 OA
BRANCH  55  58
ATOM     58  O   UNL     1      20.802  31.337  19.109  1.00  0.00    -0.443 OA
BRANCH  58  59
ATOM     59  C   UNL     1      20.154  30.368  18.322  1.00  0.00     0.294 C 
BRANCH  59  60
ATOM     60  C   UNL     1      19.065  29.759  19.115  1.00  0.00     0.121 A 
ATOM     61  C   UNL     1      17.817  30.259  19.410  1.00  0.00     0.144 A 
ATOM     62  N   UNL     1      19.107  28.535  19.721  1.00  0.00    -0.131 NA
ATOM     63  N   UNL     1      17.149  29.366  20.159  1.00  0.00    -0.219 N 
ATOM     64  N   UNL     1      17.957  28.336  20.330  1.00  0.00    -0.062 NA
BRANCH  63  65
ATOM     65  C   UNL     1      15.837  29.408  20.711  1.00  0.00     0.085 A 
ATOM     66  C   UNL     1      14.724  29.719  19.960  1.00  0.00     0.031 A 
ATOM     67  C   UNL     1      15.621  29.141  22.049  1.00  0.00     0.139 A 
ATOM     68  C   UNL     1      13.466  29.761  20.518  1.00  0.00     0.022 A 
ATOM     69  N   UNL     1      14.377  29.186  22.588  1.00  0.00    -0.262 NA
ATOM     70  C   UNL     1      13.291  29.490  21.856  1.00  0.00     0.111 A 
ENDBRANCH  63  65
ENDBRANCH  59  60
ENDBRANCH  58  59
ENDBRANCH  55  58
ENDBRANCH  53  54
ENDBRANCH  50  53
ENDBRANCH  47  50
ENDBRANCH   5  47
BRANCH   4  71
ATOM     71  N   UNL     1      22.268  25.837  25.762  1.00  0.00    -0.348 N 
ATOM     72  C   UNL     1      21.730  26.490  26.898  1.00  0.00     0.217 C 
ATOM     73  H   UNL     1      23.014  25.114  25.956  1.00  0.00     0.163 HD
ATOM     74  C   UNL     1      22.196  26.179  28.286  1.00  0.00     0.114 C 
ATOM     75  O   UNL     1      20.831  27.362  26.760  1.00  0.00    -0.275 OA
ENDBRANCH   4  71
TORSDOF 30
