REMARK VINA RESULT:    -5.654      4.891     11.427
REMARK INTER + INTRA:         -22.181
REMARK INTER:                 -17.910
REMARK INTRA:                  -4.271
REMARK UNBOUND:                -7.602
REMARK SMILES CC(=O)N[C@@H]1[C@@H](O)C[C@](OC[C@H]2O[C@@H](O[C@H]3[C@H](O)[C@@H](O)[C@H](OCCN=[N+]=[N-])O[C@@H]3CO)[C@H](O)[C@@H](O)[C@H]2O)(C(=O)O)O[C@H]1C(O)[C@H](O)CNC(=O)OCc1cn(CC(=O)Nc2ncccn2)nn1
REMARK SMILES IDX 9 1 8 2 6 3 5 4 42 5 41 6 10 7 11 8 12 9 14 10 13 11 32 12
REMARK SMILES IDX 34 13 36 14 15 15 16 16 29 17 28 18 21 19 17 20 19 21 30 22
REMARK SMILES IDX 31 23 22 25 23 26 24 27 25 28 26 29 27 30 18 31 20 33 33 35
REMARK SMILES IDX 35 37 37 39 38 41 39 42 40 43 7 45 43 47 44 48 45 50 46 51
REMARK SMILES IDX 47 53 48 54 49 55 50 57 51 58 52 59 53 60 54 61 67 62 55 63
REMARK SMILES IDX 66 64 56 65 57 66 58 67 59 68 60 70 61 71 65 72 62 73 64 74
REMARK SMILES IDX 63 75 4 76 2 77 1 79 3 80
REMARK H PARENT 31 24 18 32 20 34 33 36 35 38 37 40 40 44 7 46 44 49 46 52
REMARK H PARENT 48 56 59 69 4 78
REMARK Flexibility Score: inf
ROOT
ATOM      1  C   UNL     1      17.307  29.858  19.038  1.00  0.00     0.272 C 
ATOM      2  C   UNL     1      17.046  30.916  17.979  1.00  0.00     0.113 C 
ATOM      3  C   UNL     1      15.839  30.589  17.196  1.00  0.00     0.145 C 
ATOM      4  C   UNL     1      14.631  30.141  18.004  1.00  0.00     0.142 C 
ATOM      5  C   UNL     1      14.978  29.509  19.276  1.00  0.00     0.178 C 
ATOM      6  O   UNL     1      16.125  30.042  19.849  1.00  0.00    -0.332 OA
ENDROOT
BRANCH   1   7
ATOM      7  O   UNL     1      18.330  30.246  19.789  1.00  0.00    -0.338 OA
BRANCH   7   8
ATOM      8  C   UNL     1      19.213  29.759  20.564  1.00  0.00     0.199 C 
BRANCH   8   9
ATOM      9  C   UNL     1      20.698  29.818  20.434  1.00  0.00     0.179 C 
ATOM     10  C   UNL     1      22.536  28.474  20.954  1.00  0.00     0.282 C 
ATOM     11  O   UNL     1      21.192  28.617  21.105  1.00  0.00    -0.341 OA
ATOM     12  C   UNL     1      22.840  27.892  19.536  1.00  0.00     0.202 C 
ATOM     13  C   UNL     1      21.561  28.200  18.783  1.00  0.00     0.179 C 
ATOM     14  C   UNL     1      21.285  29.692  19.078  1.00  0.00     0.177 C 
BRANCH  10  15
ATOM     15  O   UNL     1      23.014  27.540  21.884  1.00  0.00    -0.341 OA
BRANCH  15  16
ATOM     16  C   UNL     1      22.013  27.045  22.710  1.00  0.00     0.184 C 
ATOM     17  C   UNL     1      22.353  27.460  24.148  1.00  0.00     0.178 C 
ATOM     18  O   UNL     1      22.333  26.367  25.001  1.00  0.00    -0.341 OA
ATOM     19  C   UNL     1      23.320  25.433  24.651  1.00  0.00     0.281 C 
ATOM     20  C   UNL     1      21.906  25.573  22.566  1.00  0.00     0.180 C 
ATOM     21  C   UNL     1      22.833  24.748  23.406  1.00  0.00     0.202 C 
BRANCH  17  22
ATOM     22  C   UNL     1      21.308  28.438  24.657  1.00  0.00     0.191 C 
BRANCH  22  23
ATOM     23  O   UNL     1      20.042  27.850  24.680  1.00  0.00    -0.394 OA
ATOM     24  H   UNL     1      19.378  28.408  25.169  1.00  0.00     0.210 HD
ENDBRANCH  22  23
ENDBRANCH  17  22
BRANCH  19  25
ATOM     25  O   UNL     1      23.389  24.544  25.707  1.00  0.00    -0.350 OA
BRANCH  25  26
ATOM     26  C   UNL     1      24.535  24.665  26.463  1.00  0.00     0.169 C 
BRANCH  26  27
ATOM     27  C   UNL     1      24.435  25.682  27.579  1.00  0.00     0.119 C 
BRANCH  27  28
ATOM     28  N   UNL     1      25.687  25.807  28.308  1.00  0.00    -0.092 NA
ATOM     29  N   UNL     1      25.729  25.779  29.542  1.00  0.00     0.001 N 
ATOM     30  N   UNL     1      25.558  25.864  30.754  1.00  0.00    -0.003 NA
ENDBRANCH  27  28
ENDBRANCH  26  27
ENDBRANCH  25  26
ENDBRANCH  19  25
BRANCH  20  31
ATOM     31  O   UNL     1      20.594  25.172  22.943  1.00  0.00    -0.387 OA
ATOM     32  H   UNL     1      20.071  24.947  22.121  1.00  0.00     0.211 HD
ENDBRANCH  20  31
BRANCH  21  33
ATOM     33  O   UNL     1      23.921  24.368  22.628  1.00  0.00    -0.385 OA
ATOM     34  H   UNL     1      24.161  23.432  22.828  1.00  0.00     0.211 HD
ENDBRANCH  21  33
ENDBRANCH  15  16
ENDBRANCH  10  15
BRANCH  12  35
ATOM     35  O   UNL     1      23.827  28.694  18.951  1.00  0.00    -0.385 OA
ATOM     36  H   UNL     1      24.592  28.700  19.588  1.00  0.00     0.211 HD
ENDBRANCH  12  35
BRANCH  13  37
ATOM     37  O   UNL     1      20.513  27.386  19.118  1.00  0.00    -0.387 OA
ATOM     38  H   UNL     1      19.757  27.436  18.502  1.00  0.00     0.211 HD
ENDBRANCH  13  37
BRANCH  14  39
ATOM     39  O   UNL     1      20.663  30.222  18.004  1.00  0.00    -0.387 OA
ATOM     40  H   UNL     1      19.812  30.666  18.239  1.00  0.00     0.211 HD
ENDBRANCH  14  39
ENDBRANCH   8   9
ENDBRANCH   7   8
ENDBRANCH   1   7
BRANCH   1  41
ATOM     41  C   UNL     1      17.336  28.487  18.575  1.00  0.00     0.364 C 
ATOM     42  O   UNL     1      18.088  28.161  17.595  1.00  0.00    -0.246 OA
BRANCH  41  43
ATOM     43  O   UNL     1      16.599  27.451  19.098  1.00  0.00    -0.477 OA
ATOM     44  H   UNL     1      15.651  27.248  18.891  1.00  0.00     0.296 HD
ENDBRANCH  41  43
ENDBRANCH   1  41
BRANCH   3  45
ATOM     45  O   UNL     1      15.502  31.751  16.458  1.00  0.00    -0.391 OA
ATOM     46  H   UNL     1      16.257  31.962  15.829  1.00  0.00     0.211 HD
ENDBRANCH   3  45
BRANCH   5  47
ATOM     47  C   UNL     1      13.910  29.658  20.390  1.00  0.00     0.176 C 
BRANCH  47  48
ATOM     48  O   UNL     1      13.708  28.571  21.150  1.00  0.00    -0.388 OA
ATOM     49  H   UNL     1      14.293  27.788  20.945  1.00  0.00     0.211 HD
ENDBRANCH  47  48
BRANCH  47  50
ATOM     50  C   UNL     1      13.740  30.991  20.935  1.00  0.00     0.165 C 
BRANCH  50  51
ATOM     51  O   UNL     1      14.824  31.083  21.965  1.00  0.00    -0.388 OA
ATOM     52  H   UNL     1      15.447  31.768  21.676  1.00  0.00     0.211 HD
ENDBRANCH  50  51
BRANCH  50  53
ATOM     53  C   UNL     1      12.551  31.529  21.563  1.00  0.00     0.154 C 
BRANCH  53  54
ATOM     54  N   UNL     1      11.703  30.920  22.478  1.00  0.00    -0.319 N 
ATOM     55  C   UNL     1      11.887  30.091  23.604  1.00  0.00     0.407 C 
ATOM     56  H   UNL     1      10.624  31.133  22.277  1.00  0.00     0.167 HD
ATOM     57  O   UNL     1      13.026  29.740  23.966  1.00  0.00    -0.225 OA
BRANCH  55  58
ATOM     58  O   UNL     1      10.824  29.643  24.346  1.00  0.00    -0.443 OA
BRANCH  58  59
ATOM     59  C   UNL     1      10.597  28.428  24.902  1.00  0.00     0.294 C 
BRANCH  59  60
ATOM     60  C   UNL     1       9.200  27.952  24.783  1.00  0.00     0.120 A 
ATOM     61  C   UNL     1       8.060  28.752  24.623  1.00  0.00     0.138 A 
ATOM     62  N   UNL     1       8.693  26.691  24.863  1.00  0.00    -0.132 NA
ATOM     63  N   UNL     1       6.958  27.996  24.615  1.00  0.00    -0.243 N 
ATOM     64  N   UNL     1       7.384  26.754  24.762  1.00  0.00    -0.067 NA
BRANCH  63  65
ATOM     65  C   UNL     1       5.568  28.386  24.476  1.00  0.00     0.246 C 
BRANCH  65  66
ATOM     66  C   UNL     1       5.468  29.292  23.267  1.00  0.00     0.248 C 
ATOM     67  O   UNL     1       5.109  30.491  23.367  1.00  0.00    -0.272 OA
ATOM     68  N   UNL     1       5.785  28.792  21.980  1.00  0.00    -0.293 N 
ATOM     69  H   UNL     1       6.078  27.784  21.956  1.00  0.00     0.173 HD
BRANCH  68  70
ATOM     70  C   UNL     1       5.750  29.518  20.771  1.00  0.00     0.229 A 
ATOM     71  N   UNL     1       6.250  30.756  20.610  1.00  0.00    -0.221 NA
ATOM     72  N   UNL     1       5.171  28.937  19.701  1.00  0.00    -0.221 NA
ATOM     73  C   UNL     1       6.187  31.429  19.424  1.00  0.00     0.117 A 
ATOM     74  C   UNL     1       5.083  29.547  18.519  1.00  0.00     0.117 A 
ATOM     75  C   UNL     1       5.588  30.808  18.349  1.00  0.00     0.040 A 
ENDBRANCH  68  70
ENDBRANCH  65  66
ENDBRANCH  63  65
ENDBRANCH  59  60
ENDBRANCH  58  59
ENDBRANCH  55  58
ENDBRANCH  53  54
ENDBRANCH  50  53
ENDBRANCH  47  50
ENDBRANCH   5  47
BRANCH   4  76
ATOM     76  N   UNL     1      13.807  29.402  17.097  1.00  0.00    -0.348 N 
ATOM     77  C   UNL     1      12.700  30.025  16.408  1.00  0.00     0.217 C 
ATOM     78  H   UNL     1      13.972  28.380  16.895  1.00  0.00     0.163 HD
ATOM     79  C   UNL     1      11.894  29.205  15.480  1.00  0.00     0.114 C 
ATOM     80  O   UNL     1      12.441  31.230  16.603  1.00  0.00    -0.275 OA
ENDBRANCH   4  76
TORSDOF 32
