REMARK VINA RESULT:    -4.518     10.966     15.781
REMARK INTER + INTRA:         -22.224
REMARK INTER:                 -14.960
REMARK INTRA:                  -7.264
REMARK UNBOUND:               -10.839
REMARK SMILES CC(=O)N[C@@H]1[C@@H](O)C[C@](OC[C@H]2O[C@@H](O[C@H]3[C@H](O)[C@@H](O)[C@H](OCCN=[N+]=[N-])O[C@@H]3CO)[C@H](O)[C@@H](O)[C@H]2O)(C(=O)O)O[C@H]1C(O)[C@H](O)CNC(=O)OCc1cn(-c2ccccc2C(C)C)nn1
REMARK SMILES IDX 9 1 8 2 6 3 5 4 42 5 41 6 10 7 11 8 12 9 14 10 13 11 32 12
REMARK SMILES IDX 34 13 36 14 15 15 16 16 29 17 28 18 21 19 17 20 19 21 30 22
REMARK SMILES IDX 31 23 22 25 23 26 24 27 25 28 26 29 27 30 18 31 20 33 33 35
REMARK SMILES IDX 35 37 37 39 38 41 39 42 40 43 7 45 43 47 44 48 45 50 46 51
REMARK SMILES IDX 47 53 48 54 49 55 50 57 51 58 52 59 53 60 54 61 66 62 55 63
REMARK SMILES IDX 65 64 56 65 61 66 57 67 60 68 58 69 59 70 62 71 63 72 64 73
REMARK SMILES IDX 4 74 2 75 1 77 3 78
REMARK H PARENT 31 24 18 32 20 34 33 36 35 38 37 40 40 44 7 46 44 49 46 52
REMARK H PARENT 48 56 4 76
REMARK Flexibility Score: inf
ROOT
ATOM      1  C   UNL     1      15.050  29.726  22.151  1.00  0.00     0.272 C 
ATOM      2  C   UNL     1      13.690  29.456  21.549  1.00  0.00     0.113 C 
ATOM      3  C   UNL     1      13.251  30.720  20.825  1.00  0.00     0.145 C 
ATOM      4  C   UNL     1      12.979  31.779  21.908  1.00  0.00     0.142 C 
ATOM      5  C   UNL     1      14.163  31.816  22.798  1.00  0.00     0.178 C 
ATOM      6  O   UNL     1      15.219  31.142  22.202  1.00  0.00    -0.332 OA
ENDROOT
BRANCH   1   7
ATOM      7  O   UNL     1      16.056  29.320  21.353  1.00  0.00    -0.338 OA
BRANCH   7   8
ATOM      8  C   UNL     1      16.118  28.417  20.437  1.00  0.00     0.199 C 
BRANCH   8   9
ATOM      9  C   UNL     1      16.905  28.539  19.172  1.00  0.00     0.179 C 
ATOM     10  C   UNL     1      16.767  28.786  16.917  1.00  0.00     0.282 C 
ATOM     11  O   UNL     1      16.150  28.384  18.036  1.00  0.00    -0.341 OA
ATOM     12  C   UNL     1      18.277  28.967  17.000  1.00  0.00     0.202 C 
ATOM     13  C   UNL     1      18.666  29.881  18.129  1.00  0.00     0.179 C 
ATOM     14  C   UNL     1      17.531  29.951  19.108  1.00  0.00     0.177 C 
BRANCH  10  15
ATOM     15  O   UNL     1      16.258  29.858  16.251  1.00  0.00    -0.341 OA
BRANCH  15  16
ATOM     16  C   UNL     1      14.992  29.790  15.726  1.00  0.00     0.184 C 
ATOM     17  C   UNL     1      14.902  30.262  14.313  1.00  0.00     0.178 C 
ATOM     18  O   UNL     1      14.037  31.285  14.131  1.00  0.00    -0.341 OA
ATOM     19  C   UNL     1      12.746  31.172  14.543  1.00  0.00     0.281 C 
ATOM     20  C   UNL     1      13.924  30.366  16.563  1.00  0.00     0.180 C 
ATOM     21  C   UNL     1      12.622  30.287  15.784  1.00  0.00     0.202 C 
BRANCH  17  22
ATOM     22  C   UNL     1      14.535  29.148  13.319  1.00  0.00     0.191 C 
BRANCH  22  23
ATOM     23  O   UNL     1      14.457  27.944  14.057  1.00  0.00    -0.394 OA
ATOM     24  H   UNL     1      13.806  27.360  13.555  1.00  0.00     0.210 HD
ENDBRANCH  22  23
ENDBRANCH  17  22
BRANCH  19  25
ATOM     25  O   UNL     1      11.969  30.620  13.559  1.00  0.00    -0.350 OA
BRANCH  25  26
ATOM     26  C   UNL     1      11.012  31.394  12.982  1.00  0.00     0.169 C 
BRANCH  26  27
ATOM     27  C   UNL     1      10.505  32.566  13.736  1.00  0.00     0.119 C 
BRANCH  27  28
ATOM     28  N   UNL     1       9.162  32.385  14.172  1.00  0.00    -0.092 NA
ATOM     29  N   UNL     1       8.765  31.630  15.037  1.00  0.00     0.001 N 
ATOM     30  N   UNL     1       8.550  30.939  16.026  1.00  0.00    -0.003 NA
ENDBRANCH  27  28
ENDBRANCH  26  27
ENDBRANCH  25  26
ENDBRANCH  19  25
BRANCH  20  31
ATOM     31  O   UNL     1      13.699  29.691  17.761  1.00  0.00    -0.387 OA
ATOM     32  H   UNL     1      12.751  29.433  17.793  1.00  0.00     0.211 HD
ENDBRANCH  20  31
BRANCH  21  33
ATOM     33  O   UNL     1      11.559  30.772  16.550  1.00  0.00    -0.385 OA
ATOM     34  H   UNL     1      11.954  31.324  17.271  1.00  0.00     0.211 HD
ENDBRANCH  21  33
ENDBRANCH  15  16
ENDBRANCH  10  15
BRANCH  12  35
ATOM     35  O   UNL     1      18.847  27.715  17.155  1.00  0.00    -0.385 OA
ATOM     36  H   UNL     1      19.787  27.721  16.789  1.00  0.00     0.211 HD
ENDBRANCH  12  35
BRANCH  13  37
ATOM     37  O   UNL     1      18.973  31.147  17.610  1.00  0.00    -0.387 OA
ATOM     38  H   UNL     1      19.718  31.014  16.973  1.00  0.00     0.211 HD
ENDBRANCH  13  37
BRANCH  14  39
ATOM     39  O   UNL     1      16.557  30.806  18.636  1.00  0.00    -0.387 OA
ATOM     40  H   UNL     1      15.703  30.306  18.605  1.00  0.00     0.211 HD
ENDBRANCH  14  39
ENDBRANCH   8   9
ENDBRANCH   7   8
ENDBRANCH   1   7
BRANCH   1  41
ATOM     41  C   UNL     1      15.151  29.213  23.522  1.00  0.00     0.364 C 
ATOM     42  O   UNL     1      16.331  29.164  24.024  1.00  0.00    -0.246 OA
BRANCH  41  43
ATOM     43  O   UNL     1      14.154  28.772  24.351  1.00  0.00    -0.477 OA
ATOM     44  H   UNL     1      14.243  28.113  25.101  1.00  0.00     0.296 HD
ENDBRANCH  41  43
ENDBRANCH   1  41
BRANCH   3  45
ATOM     45  O   UNL     1      14.320  31.233  20.083  1.00  0.00    -0.391 OA
ATOM     46  H   UNL     1      14.308  32.216  20.196  1.00  0.00     0.211 HD
ENDBRANCH   3  45
BRANCH   5  47
ATOM     47  C   UNL     1      14.711  33.163  23.161  1.00  0.00     0.176 C 
BRANCH  47  48
ATOM     48  O   UNL     1      15.499  33.518  22.009  1.00  0.00    -0.388 OA
ATOM     49  H   UNL     1      15.647  32.615  21.585  1.00  0.00     0.211 HD
ENDBRANCH  47  48
BRANCH  47  50
ATOM     50  C   UNL     1      15.658  33.218  24.317  1.00  0.00     0.165 C 
BRANCH  50  51
ATOM     51  O   UNL     1      15.241  34.018  25.346  1.00  0.00    -0.388 OA
ATOM     52  H   UNL     1      14.556  34.631  24.973  1.00  0.00     0.211 HD
ENDBRANCH  50  51
BRANCH  50  53
ATOM     53  C   UNL     1      17.086  33.277  23.923  1.00  0.00     0.154 C 
BRANCH  53  54
ATOM     54  N   UNL     1      17.740  31.993  23.757  1.00  0.00    -0.319 N 
ATOM     55  C   UNL     1      18.349  31.624  22.532  1.00  0.00     0.407 C 
ATOM     56  H   UNL     1      17.792  31.290  24.525  1.00  0.00     0.167 HD
ATOM     57  O   UNL     1      18.368  32.355  21.517  1.00  0.00    -0.225 OA
BRANCH  55  58
ATOM     58  O   UNL     1      18.999  30.380  22.348  1.00  0.00    -0.443 OA
BRANCH  58  59
ATOM     59  C   UNL     1      20.385  30.334  22.196  1.00  0.00     0.294 C 
BRANCH  59  60
ATOM     60  C   UNL     1      20.779  28.936  21.864  1.00  0.00     0.121 A 
ATOM     61  C   UNL     1      21.940  28.245  22.133  1.00  0.00     0.144 A 
ATOM     62  N   UNL     1      20.005  28.027  21.190  1.00  0.00    -0.131 NA
ATOM     63  N   UNL     1      21.879  26.992  21.653  1.00  0.00    -0.220 N 
ATOM     64  N   UNL     1      20.672  26.897  21.079  1.00  0.00    -0.062 NA
BRANCH  63  65
ATOM     65  C   UNL     1      22.845  25.948  21.717  1.00  0.00     0.070 A 
ATOM     66  C   UNL     1      22.906  25.152  22.839  1.00  0.00    -0.020 A 
ATOM     67  C   UNL     1      23.747  25.689  20.709  1.00  0.00     0.029 A 
ATOM     68  C   UNL     1      23.838  24.138  22.945  1.00  0.00     0.006 A 
ATOM     69  C   UNL     1      24.685  24.677  20.799  1.00  0.00     0.002 A 
ATOM     70  C   UNL     1      24.733  23.890  21.932  1.00  0.00     0.000 A 
BRANCH  66  71
ATOM     71  C   UNL     1      21.950  25.389  23.939  1.00  0.00     0.015 C 
ATOM     72  C   UNL     1      22.586  24.900  25.231  1.00  0.00     0.012 C 
ATOM     73  C   UNL     1      20.681  24.556  23.699  1.00  0.00     0.012 C 
ENDBRANCH  66  71
ENDBRANCH  63  65
ENDBRANCH  59  60
ENDBRANCH  58  59
ENDBRANCH  55  58
ENDBRANCH  53  54
ENDBRANCH  50  53
ENDBRANCH  47  50
ENDBRANCH   5  47
BRANCH   4  74
ATOM     74  N   UNL     1      11.769  31.381  22.591  1.00  0.00    -0.348 N 
ATOM     75  C   UNL     1      10.634  32.189  22.762  1.00  0.00     0.217 C 
ATOM     76  H   UNL     1      11.736  30.400  23.002  1.00  0.00     0.163 HD
ATOM     77  C   UNL     1       9.454  31.627  23.502  1.00  0.00     0.114 C 
ATOM     78  O   UNL     1      10.601  33.342  22.314  1.00  0.00    -0.275 OA
ENDBRANCH   4  74
TORSDOF 31
