REMARK VINA RESULT:    -6.182      2.407      7.366
REMARK INTER + INTRA:         -21.850
REMARK INTER:                 -15.202
REMARK INTRA:                  -6.648
REMARK UNBOUND:                -6.272
REMARK SMILES CC(=O)N[C@@H]1[C@@H](O)C[C@](OC[C@H]2O[C@@H](O[C@H]3[C@H](O)[C@@H](O)[C@H](OCCN=[N+]=[N-])O[C@@H]3CO)[C@H](O)[C@@H](O)[C@H]2O)(C(=O)O)O[C@H]1C(O)[C@H](O)CNC(=O)OCc1cn(Cc2cccc(Br)c2)nn1
REMARK SMILES IDX 9 1 8 2 6 3 5 4 42 5 41 6 10 7 11 8 12 9 14 10 13 11 32 12
REMARK SMILES IDX 34 13 36 14 15 15 16 16 29 17 28 18 21 19 17 20 19 21 30 22
REMARK SMILES IDX 31 23 22 25 23 26 24 27 25 28 26 29 27 30 18 31 20 33 33 35
REMARK SMILES IDX 35 37 37 39 38 41 39 42 40 43 7 45 43 47 44 48 45 50 46 51
REMARK SMILES IDX 47 53 48 54 49 55 50 57 51 58 52 59 53 60 54 61 65 62 55 63
REMARK SMILES IDX 64 64 56 65 57 66 58 67 63 68 59 69 61 70 60 71 62 72 4 73
REMARK SMILES IDX 2 74 1 76 3 77
REMARK H PARENT 31 24 18 32 20 34 33 36 35 38 37 40 40 44 7 46 44 49 46 52
REMARK H PARENT 48 56 4 75
REMARK Flexibility Score: inf
ROOT
ATOM      1  C   UNL     1      13.882  30.735  21.361  1.00  0.00     0.272 C 
ATOM      2  C   UNL     1      13.111  31.728  22.144  1.00  0.00     0.113 C 
ATOM      3  C   UNL     1      13.923  32.569  23.076  1.00  0.00     0.145 C 
ATOM      4  C   UNL     1      15.117  31.836  23.644  1.00  0.00     0.142 C 
ATOM      5  C   UNL     1      15.667  30.794  22.775  1.00  0.00     0.178 C 
ATOM      6  O   UNL     1      15.243  30.776  21.483  1.00  0.00    -0.332 OA
ENDROOT
BRANCH   1   7
ATOM      7  O   UNL     1      13.526  30.862  19.982  1.00  0.00    -0.338 OA
BRANCH   7   8
ATOM      8  C   UNL     1      14.487  31.493  19.247  1.00  0.00     0.199 C 
BRANCH   8   9
ATOM      9  C   UNL     1      14.134  31.453  17.745  1.00  0.00     0.179 C 
ATOM     10  C   UNL     1      15.208  30.838  15.756  1.00  0.00     0.282 C 
ATOM     11  O   UNL     1      15.312  31.292  17.092  1.00  0.00    -0.341 OA
ATOM     12  C   UNL     1      13.829  30.940  15.236  1.00  0.00     0.202 C 
ATOM     13  C   UNL     1      12.808  30.236  16.112  1.00  0.00     0.179 C 
ATOM     14  C   UNL     1      13.274  30.222  17.556  1.00  0.00     0.177 C 
BRANCH  10  15
ATOM     15  O   UNL     1      15.794  29.596  15.781  1.00  0.00    -0.341 OA
BRANCH  15  16
ATOM     16  C   UNL     1      17.089  29.529  16.147  1.00  0.00     0.184 C 
ATOM     17  C   UNL     1      17.904  29.010  14.991  1.00  0.00     0.178 C 
ATOM     18  O   UNL     1      19.255  29.109  15.315  1.00  0.00    -0.341 OA
ATOM     19  C   UNL     1      19.631  28.279  16.374  1.00  0.00     0.281 C 
ATOM     20  C   UNL     1      17.366  28.536  17.271  1.00  0.00     0.180 C 
ATOM     21  C   UNL     1      18.856  28.728  17.590  1.00  0.00     0.202 C 
BRANCH  17  22
ATOM     22  C   UNL     1      17.659  29.862  13.791  1.00  0.00     0.191 C 
BRANCH  22  23
ATOM     23  O   UNL     1      18.484  30.972  13.793  1.00  0.00    -0.394 OA
ATOM     24  H   UNL     1      17.911  31.773  13.910  1.00  0.00     0.210 HD
ENDBRANCH  22  23
ENDBRANCH  17  22
BRANCH  19  25
ATOM     25  O   UNL     1      20.994  28.431  16.514  1.00  0.00    -0.350 OA
BRANCH  25  26
ATOM     26  C   UNL     1      21.739  27.314  16.257  1.00  0.00     0.169 C 
BRANCH  26  27
ATOM     27  C   UNL     1      23.234  27.530  16.323  1.00  0.00     0.119 C 
BRANCH  27  28
ATOM     28  N   UNL     1      23.730  26.740  17.428  1.00  0.00    -0.092 NA
ATOM     29  N   UNL     1      23.198  25.720  17.839  1.00  0.00     0.001 N 
ATOM     30  N   UNL     1      22.670  24.638  18.087  1.00  0.00    -0.003 NA
ENDBRANCH  27  28
ENDBRANCH  26  27
ENDBRANCH  25  26
ENDBRANCH  19  25
BRANCH  20  31
ATOM     31  O   UNL     1      16.665  28.782  18.416  1.00  0.00    -0.387 OA
ATOM     32  H   UNL     1      17.178  28.701  19.250  1.00  0.00     0.211 HD
ENDBRANCH  20  31
BRANCH  21  33
ATOM     33  O   UNL     1      19.119  28.011  18.726  1.00  0.00    -0.385 OA
ATOM     34  H   UNL     1      19.618  28.551  19.420  1.00  0.00     0.211 HD
ENDBRANCH  21  33
ENDBRANCH  15  16
ENDBRANCH  10  15
BRANCH  12  35
ATOM     35  O   UNL     1      13.493  32.318  15.200  1.00  0.00    -0.385 OA
ATOM     36  H   UNL     1      12.506  32.410  15.157  1.00  0.00     0.211 HD
ENDBRANCH  12  35
BRANCH  13  37
ATOM     37  O   UNL     1      12.483  28.968  15.638  1.00  0.00    -0.387 OA
ATOM     38  H   UNL     1      12.427  29.012  14.629  1.00  0.00     0.211 HD
ENDBRANCH  13  37
BRANCH  14  39
ATOM     39  O   UNL     1      14.019  29.115  17.889  1.00  0.00    -0.387 OA
ATOM     40  H   UNL     1      13.444  28.290  17.887  1.00  0.00     0.211 HD
ENDBRANCH  14  39
ENDBRANCH   8   9
ENDBRANCH   7   8
ENDBRANCH   1   7
BRANCH   1  41
ATOM     41  C   UNL     1      13.410  29.363  21.717  1.00  0.00     0.364 C 
ATOM     42  O   UNL     1      13.770  28.375  20.985  1.00  0.00    -0.246 OA
BRANCH  41  43
ATOM     43  O   UNL     1      12.606  29.040  22.774  1.00  0.00    -0.477 OA
ATOM     44  H   UNL     1      12.793  28.155  23.264  1.00  0.00     0.296 HD
ENDBRANCH  41  43
ENDBRANCH   1  41
BRANCH   3  45
ATOM     45  O   UNL     1      14.255  33.790  22.508  1.00  0.00    -0.391 OA
ATOM     46  H   UNL     1      13.955  33.893  21.579  1.00  0.00     0.211 HD
ENDBRANCH   3  45
BRANCH   5  47
ATOM     47  C   UNL     1      17.203  30.751  22.800  1.00  0.00     0.176 C 
BRANCH  47  48
ATOM     48  O   UNL     1      17.528  29.563  23.571  1.00  0.00    -0.388 OA
ATOM     49  H   UNL     1      18.257  29.831  24.186  1.00  0.00     0.211 HD
ENDBRANCH  47  48
BRANCH  47  50
ATOM     50  C   UNL     1      17.850  30.575  21.476  1.00  0.00     0.165 C 
BRANCH  50  51
ATOM     51  O   UNL     1      17.641  29.182  21.156  1.00  0.00    -0.388 OA
ATOM     52  H   UNL     1      17.696  28.668  22.019  1.00  0.00     0.211 HD
ENDBRANCH  50  51
BRANCH  50  53
ATOM     53  C   UNL     1      19.332  30.729  21.395  1.00  0.00     0.154 C 
BRANCH  53  54
ATOM     54  N   UNL     1      20.020  29.551  20.890  1.00  0.00    -0.319 N 
ATOM     55  C   UNL     1      21.295  29.703  20.292  1.00  0.00     0.407 C 
ATOM     56  H   UNL     1      19.603  28.606  20.956  1.00  0.00     0.167 HD
ATOM     57  O   UNL     1      21.820  30.849  20.198  1.00  0.00    -0.225 OA
BRANCH  55  58
ATOM     58  O   UNL     1      21.998  28.604  19.799  1.00  0.00    -0.443 OA
BRANCH  58  59
ATOM     59  C   UNL     1      22.986  27.997  20.644  1.00  0.00     0.294 C 
BRANCH  59  60
ATOM     60  C   UNL     1      22.316  26.972  21.477  1.00  0.00     0.120 A 
ATOM     61  C   UNL     1      22.787  26.347  22.606  1.00  0.00     0.138 A 
ATOM     62  N   UNL     1      21.093  26.482  21.239  1.00  0.00    -0.132 NA
ATOM     63  N   UNL     1      21.827  25.495  23.015  1.00  0.00    -0.248 N 
ATOM     64  N   UNL     1      20.812  25.593  22.171  1.00  0.00    -0.067 NA
BRANCH  63  65
ATOM     65  C   UNL     1      21.921  24.629  24.187  1.00  0.00     0.181 C 
BRANCH  65  66
ATOM     66  C   UNL     1      21.914  25.420  25.444  1.00  0.00    -0.025 A 
ATOM     67  C   UNL     1      21.150  26.564  25.551  1.00  0.00     0.006 A 
ATOM     68  C   UNL     1      22.654  25.071  26.548  1.00  0.00     0.021 A 
ATOM     69  C   UNL     1      21.102  27.342  26.686  1.00  0.00     0.002 A 
ATOM     70  C   UNL     1      22.630  25.826  27.698  1.00  0.00     0.018 A 
ATOM     71  C   UNL     1      21.868  26.961  27.797  1.00  0.00     0.016 A 
ATOM     72  Br  UNL     1      23.659  25.342  29.238  1.00  0.00    -0.051 Br
ENDBRANCH  65  66
ENDBRANCH  63  65
ENDBRANCH  59  60
ENDBRANCH  58  59
ENDBRANCH  55  58
ENDBRANCH  53  54
ENDBRANCH  50  53
ENDBRANCH  47  50
ENDBRANCH   5  47
BRANCH   4  73
ATOM     73  N   UNL     1      14.752  31.267  24.967  1.00  0.00    -0.348 N 
ATOM     74  C   UNL     1      15.479  31.627  26.129  1.00  0.00     0.217 C 
ATOM     75  H   UNL     1      13.953  30.591  25.064  1.00  0.00     0.163 HD
ATOM     76  C   UNL     1      15.128  31.064  27.480  1.00  0.00     0.114 C 
ATOM     77  O   UNL     1      16.437  32.437  26.015  1.00  0.00    -0.275 OA
ENDBRANCH   4  73
TORSDOF 31
