REMARK VINA RESULT:    -6.382      1.560      2.189
REMARK INTER + INTRA:         -24.323
REMARK INTER:                 -17.202
REMARK INTRA:                  -7.121
REMARK UNBOUND:                -7.494
REMARK SMILES CC(=O)N[C@@H]1[C@@H](O)C[C@](OC[C@H]2O[C@@H](O[C@H]3[C@H](O)[C@@H](O)[C@H](OCCN=[N+]=[N-])O[C@@H]3CO)[C@H](O)[C@@H](O)[C@H]2O)(C(=O)O)O[C@H]1C(O)[C@H](O)CNC(=O)OCc1cn(C(C)CC(=O)c2ccccc2)nn1
REMARK SMILES IDX 43 1 42 2 9 3 8 4 41 5 6 6 5 7 10 8 11 9 12 10 14 11 13 12
REMARK SMILES IDX 32 13 34 14 36 15 15 16 16 17 29 18 28 19 21 20 17 21 19 22
REMARK SMILES IDX 30 23 31 24 22 26 23 27 24 28 25 29 26 30 27 31 18 32 20 34
REMARK SMILES IDX 33 36 35 38 37 40 38 42 39 43 40 44 7 46 4 48 2 49 1 51 3 52
REMARK SMILES IDX 44 53 45 55 46 56 47 58 48 59 49 60 50 62 51 63 52 64 53 65
REMARK SMILES IDX 54 66 68 67 55 68 67 69 56 70 57 71 58 72 59 73 60 74 61 75
REMARK SMILES IDX 62 76 66 77 63 78 65 79 64 80
REMARK H PARENT 31 25 18 33 20 35 33 37 35 39 37 41 40 45 7 47 4 50 44 54
REMARK H PARENT 46 57 48 61
REMARK Flexibility Score: inf
ROOT
ATOM      1  C   UNL     1      14.205  31.689  19.389  1.00  0.00     0.176 C 
ENDROOT
BRANCH   1   2
ATOM      2  C   UNL     1      14.376  30.283  19.765  1.00  0.00     0.178 C 
ATOM      3  C   UNL     1      16.008  29.751  21.383  1.00  0.00     0.272 C 
ATOM      4  C   UNL     1      16.310  28.421  20.782  1.00  0.00     0.113 C 
ATOM      5  O   UNL     1      14.625  29.987  21.047  1.00  0.00    -0.332 OA
ATOM      6  C   UNL     1      15.622  28.246  19.442  1.00  0.00     0.145 C 
ATOM      7  C   UNL     1      15.339  29.552  18.801  1.00  0.00     0.142 C 
BRANCH   3   8
ATOM      8  O   UNL     1      16.666  30.828  21.069  1.00  0.00    -0.338 OA
BRANCH   8   9
ATOM      9  C   UNL     1      17.864  31.294  21.119  1.00  0.00     0.199 C 
BRANCH   9  10
ATOM     10  C   UNL     1      19.081  30.787  20.417  1.00  0.00     0.179 C 
ATOM     11  C   UNL     1      20.272  28.741  20.365  1.00  0.00     0.282 C 
ATOM     12  O   UNL     1      19.438  29.615  20.954  1.00  0.00    -0.341 OA
ATOM     13  C   UNL     1      19.850  28.439  18.966  1.00  0.00     0.202 C 
ATOM     14  C   UNL     1      19.420  29.618  18.218  1.00  0.00     0.179 C 
ATOM     15  C   UNL     1      19.116  30.884  18.943  1.00  0.00     0.177 C 
BRANCH  11  16
ATOM     16  O   UNL     1      20.208  27.573  21.171  1.00  0.00    -0.341 OA
BRANCH  16  17
ATOM     17  C   UNL     1      21.483  27.173  21.494  1.00  0.00     0.184 C 
ATOM     18  C   UNL     1      21.492  25.801  22.102  1.00  0.00     0.178 C 
ATOM     19  O   UNL     1      20.837  25.773  23.323  1.00  0.00    -0.341 OA
ATOM     20  C   UNL     1      21.248  26.658  24.270  1.00  0.00     0.281 C 
ATOM     21  C   UNL     1      22.064  28.178  22.511  1.00  0.00     0.180 C 
ATOM     22  C   UNL     1      21.379  28.074  23.824  1.00  0.00     0.202 C 
BRANCH  18  23
ATOM     23  C   UNL     1      22.898  25.246  22.205  1.00  0.00     0.191 C 
BRANCH  23  24
ATOM     24  O   UNL     1      23.437  24.923  20.966  1.00  0.00    -0.394 OA
ATOM     25  H   UNL     1      24.410  25.128  20.972  1.00  0.00     0.210 HD
ENDBRANCH  23  24
ENDBRANCH  18  23
BRANCH  20  26
ATOM     26  O   UNL     1      22.347  26.267  24.992  1.00  0.00    -0.350 OA
BRANCH  26  27
ATOM     27  C   UNL     1      22.078  25.664  26.190  1.00  0.00     0.169 C 
BRANCH  27  28
ATOM     28  C   UNL     1      23.185  24.752  26.648  1.00  0.00     0.119 C 
BRANCH  28  29
ATOM     29  N   UNL     1      23.820  25.348  27.810  1.00  0.00    -0.092 NA
ATOM     30  N   UNL     1      25.001  25.681  27.750  1.00  0.00     0.001 N 
ATOM     31  N   UNL     1      26.115  26.190  27.610  1.00  0.00    -0.003 NA
ENDBRANCH  28  29
ENDBRANCH  27  28
ENDBRANCH  26  27
ENDBRANCH  20  26
BRANCH  21  32
ATOM     32  O   UNL     1      23.445  28.050  22.593  1.00  0.00    -0.387 OA
ATOM     33  H   UNL     1      23.792  28.238  23.498  1.00  0.00     0.211 HD
ENDBRANCH  21  32
BRANCH  22  34
ATOM     34  O   UNL     1      20.170  28.772  23.848  1.00  0.00    -0.385 OA
ATOM     35  H   UNL     1      20.163  29.260  24.710  1.00  0.00     0.211 HD
ENDBRANCH  22  34
ENDBRANCH  16  17
ENDBRANCH  11  16
BRANCH  13  36
ATOM     36  O   UNL     1      20.929  27.829  18.262  1.00  0.00    -0.385 OA
ATOM     37  H   UNL     1      20.544  26.991  17.889  1.00  0.00     0.211 HD
ENDBRANCH  13  36
BRANCH  14  38
ATOM     38  O   UNL     1      18.297  29.241  17.427  1.00  0.00    -0.387 OA
ATOM     39  H   UNL     1      18.162  29.862  16.674  1.00  0.00     0.211 HD
ENDBRANCH  14  38
BRANCH  15  40
ATOM     40  O   UNL     1      18.012  31.463  18.350  1.00  0.00    -0.387 OA
ATOM     41  H   UNL     1      17.530  32.136  18.836  1.00  0.00     0.211 HD
ENDBRANCH  15  40
ENDBRANCH   9  10
ENDBRANCH   8   9
ENDBRANCH   3   8
BRANCH   3  42
ATOM     42  C   UNL     1      15.924  29.549  22.895  1.00  0.00     0.364 C 
ATOM     43  O   UNL     1      14.818  29.442  23.437  1.00  0.00    -0.246 OA
BRANCH  42  44
ATOM     44  O   UNL     1      17.066  29.481  23.661  1.00  0.00    -0.477 OA
ATOM     45  H   UNL     1      17.646  28.656  23.560  1.00  0.00     0.296 HD
ENDBRANCH  42  44
ENDBRANCH   3  42
BRANCH   6  46
ATOM     46  O   UNL     1      16.325  27.371  18.621  1.00  0.00    -0.391 OA
ATOM     47  H   UNL     1      17.097  26.995  19.162  1.00  0.00     0.211 HD
ENDBRANCH   6  46
BRANCH   7  48
ATOM     48  N   UNL     1      14.600  29.360  17.557  1.00  0.00    -0.348 N 
ATOM     49  C   UNL     1      14.981  29.965  16.328  1.00  0.00     0.217 C 
ATOM     50  H   UNL     1      13.760  28.755  17.565  1.00  0.00     0.163 HD
ATOM     51  C   UNL     1      14.236  29.771  15.082  1.00  0.00     0.114 C 
ATOM     52  O   UNL     1      16.018  30.713  16.310  1.00  0.00    -0.275 OA
ENDBRANCH   7  48
ENDBRANCH   1   2
BRANCH   1  53
ATOM     53  O   UNL     1      15.388  32.317  18.930  1.00  0.00    -0.388 OA
ATOM     54  H   UNL     1      15.436  33.199  19.414  1.00  0.00     0.211 HD
ENDBRANCH   1  53
BRANCH   1  55
ATOM     55  C   UNL     1      13.614  32.624  20.421  1.00  0.00     0.165 C 
BRANCH  55  56
ATOM     56  O   UNL     1      14.167  32.536  21.657  1.00  0.00    -0.388 OA
ATOM     57  H   UNL     1      15.119  32.788  21.618  1.00  0.00     0.211 HD
ENDBRANCH  55  56
BRANCH  55  58
ATOM     58  C   UNL     1      12.116  32.292  20.493  1.00  0.00     0.154 C 
BRANCH  58  59
ATOM     59  N   UNL     1      11.788  31.710  21.775  1.00  0.00    -0.319 N 
ATOM     60  C   UNL     1      10.624  31.971  22.531  1.00  0.00     0.407 C 
ATOM     61  H   UNL     1      12.455  31.008  22.225  1.00  0.00     0.167 HD
ATOM     62  O   UNL     1       9.733  32.727  22.096  1.00  0.00    -0.225 OA
BRANCH  60  63
ATOM     63  O   UNL     1      10.430  31.391  23.801  1.00  0.00    -0.443 OA
BRANCH  63  64
ATOM     64  C   UNL     1      11.446  30.499  24.308  1.00  0.00     0.294 C 
BRANCH  64  65
ATOM     65  C   UNL     1      10.692  29.215  24.558  1.00  0.00     0.120 A 
ATOM     66  C   UNL     1       9.287  29.134  24.507  1.00  0.00     0.138 A 
ATOM     67  N   UNL     1      11.102  28.009  24.897  1.00  0.00    -0.132 NA
ATOM     68  N   UNL     1       8.915  27.884  24.822  1.00  0.00    -0.249 N 
ATOM     69  N   UNL     1      10.020  27.218  25.053  1.00  0.00    -0.067 NA
BRANCH  68  70
ATOM     70  C   UNL     1       7.519  27.447  24.895  1.00  0.00     0.114 C 
ATOM     71  C   UNL     1       7.454  25.986  24.581  1.00  0.00     0.034 C 
BRANCH  70  72
ATOM     72  C   UNL     1       6.904  27.860  26.192  1.00  0.00     0.108 C 
BRANCH  72  73
ATOM     73  C   UNL     1       5.939  28.955  25.910  1.00  0.00     0.164 C 
ATOM     74  O   UNL     1       5.072  28.842  25.040  1.00  0.00    -0.294 OA
BRANCH  73  75
ATOM     75  C   UNL     1       6.057  30.182  26.713  1.00  0.00     0.018 A 
ATOM     76  C   UNL     1       5.570  30.285  27.964  1.00  0.00     0.012 A 
ATOM     77  C   UNL     1       6.717  31.267  26.113  1.00  0.00     0.012 A 
ATOM     78  C   UNL     1       5.720  31.482  28.686  1.00  0.00     0.001 A 
ATOM     79  C   UNL     1       6.853  32.420  26.831  1.00  0.00     0.001 A 
ATOM     80  C   UNL     1       6.367  32.548  28.106  1.00  0.00     0.000 A 
ENDBRANCH  73  75
ENDBRANCH  72  73
ENDBRANCH  70  72
ENDBRANCH  68  70
ENDBRANCH  64  65
ENDBRANCH  63  64
ENDBRANCH  60  63
ENDBRANCH  58  59
ENDBRANCH  55  58
ENDBRANCH   1  55
TORSDOF 33
