REMARK VINA RESULT:    -6.133      3.911      5.040
REMARK INTER + INTRA:         -22.036
REMARK INTER:                 -16.453
REMARK INTRA:                  -5.583
REMARK UNBOUND:                -6.939
REMARK SMILES CC(=O)N[C@@H]1[C@@H](O)C[C@](OC[C@H]2O[C@@H](O[C@H]3[C@H](O)[C@@H](O)[C@H](OCCN=[N+]=[N-])O[C@@H]3CO)[C@H](O)[C@@H](O)[C@H]2O)(C(=O)O)O[C@H]1C(O)[C@H](O)CNC(=O)OCc1cn([C@H]2C[C@H]3CC[C@@H](C2)N3C)nn1
REMARK SMILES IDX 9 1 8 2 6 3 5 4 42 5 41 6 10 7 11 8 12 9 14 10 13 11 32 12
REMARK SMILES IDX 34 13 36 14 15 15 16 16 29 17 28 18 21 19 17 20 19 21 30 22
REMARK SMILES IDX 31 23 22 25 23 26 24 27 25 28 26 29 27 30 18 31 20 33 33 35
REMARK SMILES IDX 35 37 37 39 38 41 39 42 40 43 7 45 43 47 44 48 45 50 46 51
REMARK SMILES IDX 47 53 48 54 49 55 50 57 51 58 52 59 53 60 54 61 66 62 55 63
REMARK SMILES IDX 65 64 56 65 62 66 57 67 61 68 58 69 63 70 60 71 59 72 64 73
REMARK SMILES IDX 4 74 2 75 1 77 3 78
REMARK H PARENT 31 24 18 32 20 34 33 36 35 38 37 40 40 44 7 46 44 49 46 52
REMARK H PARENT 48 56 4 76
REMARK Flexibility Score: inf
ROOT
ATOM      1  C   UNL     1      16.391  29.745  21.295  1.00  0.00     0.272 C 
ATOM      2  C   UNL     1      15.369  28.666  20.985  1.00  0.00     0.113 C 
ATOM      3  C   UNL     1      15.237  28.324  19.532  1.00  0.00     0.145 C 
ATOM      4  C   UNL     1      15.514  29.543  18.735  1.00  0.00     0.142 C 
ATOM      5  C   UNL     1      15.137  30.751  19.597  1.00  0.00     0.178 C 
ATOM      6  O   UNL     1      16.291  30.837  20.478  1.00  0.00    -0.332 OA
ENDROOT
BRANCH   1   7
ATOM      7  O   UNL     1      17.623  29.165  21.318  1.00  0.00    -0.338 OA
BRANCH   7   8
ATOM      8  C   UNL     1      18.709  29.860  20.928  1.00  0.00     0.199 C 
BRANCH   8   9
ATOM      9  C   UNL     1      19.850  29.139  20.315  1.00  0.00     0.179 C 
ATOM     10  C   UNL     1      21.205  27.399  20.800  1.00  0.00     0.282 C 
ATOM     11  O   UNL     1      19.864  27.801  20.824  1.00  0.00    -0.341 OA
ATOM     12  C   UNL     1      21.848  27.535  19.485  1.00  0.00     0.202 C 
ATOM     13  C   UNL     1      21.170  28.342  18.445  1.00  0.00     0.179 C 
ATOM     14  C   UNL     1      19.835  28.936  18.835  1.00  0.00     0.177 C 
BRANCH  10  15
ATOM     15  O   UNL     1      21.230  26.119  21.299  1.00  0.00    -0.341 OA
BRANCH  15  16
ATOM     16  C   UNL     1      21.303  26.089  22.695  1.00  0.00     0.184 C 
ATOM     17  C   UNL     1      22.303  27.024  23.289  1.00  0.00     0.178 C 
ATOM     18  O   UNL     1      23.609  26.659  23.232  1.00  0.00    -0.341 OA
ATOM     19  C   UNL     1      23.865  25.365  23.529  1.00  0.00     0.281 C 
ATOM     20  C   UNL     1      21.620  24.651  23.041  1.00  0.00     0.180 C 
ATOM     21  C   UNL     1      23.069  24.445  22.604  1.00  0.00     0.202 C 
BRANCH  17  22
ATOM     22  C   UNL     1      21.847  27.523  24.666  1.00  0.00     0.191 C 
BRANCH  22  23
ATOM     23  O   UNL     1      20.546  27.195  24.970  1.00  0.00    -0.394 OA
ATOM     24  H   UNL     1      20.253  27.551  25.835  1.00  0.00     0.210 HD
ENDBRANCH  22  23
ENDBRANCH  17  22
BRANCH  19  25
ATOM     25  O   UNL     1      23.792  24.979  24.834  1.00  0.00    -0.350 OA
BRANCH  25  26
ATOM     26  C   UNL     1      24.744  25.433  25.695  1.00  0.00     0.169 C 
BRANCH  26  27
ATOM     27  C   UNL     1      24.418  25.131  27.118  1.00  0.00     0.119 C 
BRANCH  27  28
ATOM     28  N   UNL     1      22.998  24.796  27.290  1.00  0.00    -0.092 NA
ATOM     29  N   UNL     1      22.240  25.586  27.879  1.00  0.00     0.001 N 
ATOM     30  N   UNL     1      21.556  26.622  27.994  1.00  0.00    -0.003 NA
ENDBRANCH  27  28
ENDBRANCH  26  27
ENDBRANCH  25  26
ENDBRANCH  19  25
BRANCH  20  31
ATOM     31  O   UNL     1      21.507  24.365  24.381  1.00  0.00    -0.387 OA
ATOM     32  H   UNL     1      21.350  25.147  24.933  1.00  0.00     0.211 HD
ENDBRANCH  20  31
BRANCH  21  33
ATOM     33  O   UNL     1      23.251  24.835  21.279  1.00  0.00    -0.385 OA
ATOM     34  H   UNL     1      23.610  25.762  21.300  1.00  0.00     0.211 HD
ENDBRANCH  21  33
ENDBRANCH  15  16
ENDBRANCH  10  15
BRANCH  12  35
ATOM     35  O   UNL     1      23.128  28.105  19.702  1.00  0.00    -0.385 OA
ATOM     36  H   UNL     1      23.631  27.639  20.404  1.00  0.00     0.211 HD
ENDBRANCH  12  35
BRANCH  13  37
ATOM     37  O   UNL     1      20.934  27.579  17.274  1.00  0.00    -0.387 OA
ATOM     38  H   UNL     1      20.952  26.607  17.552  1.00  0.00     0.211 HD
ENDBRANCH  13  37
BRANCH  14  39
ATOM     39  O   UNL     1      18.870  27.954  18.507  1.00  0.00    -0.387 OA
ATOM     40  H   UNL     1      19.148  27.163  19.067  1.00  0.00     0.211 HD
ENDBRANCH  14  39
ENDBRANCH   8   9
ENDBRANCH   7   8
ENDBRANCH   1   7
BRANCH   1  41
ATOM     41  C   UNL     1      16.017  30.205  22.671  1.00  0.00     0.364 C 
ATOM     42  O   UNL     1      15.388  31.241  22.861  1.00  0.00    -0.246 OA
BRANCH  41  43
ATOM     43  O   UNL     1      16.381  29.451  23.794  1.00  0.00    -0.477 OA
ATOM     44  H   UNL     1      15.689  28.771  24.138  1.00  0.00     0.296 HD
ENDBRANCH  41  43
ENDBRANCH   1  41
BRANCH   3  45
ATOM     45  O   UNL     1      16.171  27.291  19.281  1.00  0.00    -0.391 OA
ATOM     46  H   UNL     1      16.937  27.365  19.904  1.00  0.00     0.211 HD
ENDBRANCH   3  45
BRANCH   5  47
ATOM     47  C   UNL     1      15.070  32.034  18.870  1.00  0.00     0.176 C 
BRANCH  47  48
ATOM     48  O   UNL     1      15.798  32.999  19.692  1.00  0.00    -0.388 OA
ATOM     49  H   UNL     1      15.590  33.900  19.337  1.00  0.00     0.211 HD
ENDBRANCH  47  48
BRANCH  47  50
ATOM     50  C   UNL     1      13.714  32.725  18.867  1.00  0.00     0.165 C 
BRANCH  50  51
ATOM     51  O   UNL     1      12.843  31.852  19.562  1.00  0.00    -0.388 OA
ATOM     52  H   UNL     1      13.333  31.318  20.235  1.00  0.00     0.211 HD
ENDBRANCH  50  51
BRANCH  50  53
ATOM     53  C   UNL     1      13.133  33.091  17.561  1.00  0.00     0.154 C 
BRANCH  53  54
ATOM     54  N   UNL     1      12.094  32.085  17.262  1.00  0.00    -0.319 N 
ATOM     55  C   UNL     1      12.203  31.221  16.144  1.00  0.00     0.407 C 
ATOM     56  H   UNL     1      11.274  32.022  17.891  1.00  0.00     0.167 HD
ATOM     57  O   UNL     1      13.229  31.314  15.397  1.00  0.00    -0.225 OA
BRANCH  55  58
ATOM     58  O   UNL     1      11.212  30.292  15.872  1.00  0.00    -0.443 OA
BRANCH  58  59
ATOM     59  C   UNL     1      10.802  30.124  14.533  1.00  0.00     0.294 C 
BRANCH  59  60
ATOM     60  C   UNL     1       9.336  30.074  14.367  1.00  0.00     0.120 A 
ATOM     61  C   UNL     1       8.429  30.682  15.209  1.00  0.00     0.138 A 
ATOM     62  N   UNL     1       8.601  29.452  13.439  1.00  0.00    -0.132 NA
ATOM     63  N   UNL     1       7.185  30.423  14.786  1.00  0.00    -0.249 N 
ATOM     64  N   UNL     1       7.306  29.666  13.695  1.00  0.00    -0.067 NA
BRANCH  63  65
ATOM     65  C   UNL     1       5.977  30.900  15.444  1.00  0.00     0.112 C 
ATOM     66  C   UNL     1       6.316  32.193  16.104  1.00  0.00     0.046 C 
ATOM     67  C   UNL     1       5.476  29.818  16.344  1.00  0.00     0.046 C 
ATOM     68  C   UNL     1       5.776  32.354  17.488  1.00  0.00     0.058 C 
ATOM     69  C   UNL     1       4.958  30.276  17.672  1.00  0.00     0.058 C 
ATOM     70  N   UNL     1       4.539  31.662  17.674  1.00  0.00    -0.300 NA
ATOM     71  C   UNL     1       6.710  31.639  18.462  1.00  0.00     0.021 C 
ATOM     72  C   UNL     1       6.106  30.269  18.661  1.00  0.00     0.021 C 
ATOM     73  C   UNL     1       3.528  31.943  16.683  1.00  0.00     0.105 C 
ENDBRANCH  63  65
ENDBRANCH  59  60
ENDBRANCH  58  59
ENDBRANCH  55  58
ENDBRANCH  53  54
ENDBRANCH  50  53
ENDBRANCH  47  50
ENDBRANCH   5  47
BRANCH   4  74
ATOM     74  N   UNL     1      15.139  29.529  17.385  1.00  0.00    -0.348 N 
ATOM     75  C   UNL     1      16.021  29.094  16.338  1.00  0.00     0.217 C 
ATOM     76  H   UNL     1      14.177  29.804  17.084  1.00  0.00     0.163 HD
ATOM     77  C   UNL     1      15.522  29.101  14.922  1.00  0.00     0.114 C 
ATOM     78  O   UNL     1      17.174  28.717  16.579  1.00  0.00    -0.275 OA
ENDBRANCH   4  74
TORSDOF 30
