REMARK VINA RESULT:    -6.154     21.207     27.853
REMARK INTER + INTRA:         -25.028
REMARK INTER:                 -19.552
REMARK INTRA:                  -5.476
REMARK UNBOUND:                -8.981
REMARK SMILES CC(=O)N[C@@H]1[C@@H](O)C[C@](OC[C@H]2O[C@@H](O[C@H]3[C@H](O)[C@@H](O)[C@H](OCCN=[N+]=[N-])O[C@@H]3CO)[C@H](O)[C@@H](O)[C@H]2O)(C(=O)O)O[C@H]1C(O)[C@H](O)CNC(=O)OCc1cn(-c2cc(C(=O)O)nc(-c3ccccc3)c2)nn1
REMARK SMILES IDX 9 1 8 2 6 3 5 4 42 5 41 6 10 7 11 8 12 9 14 10 13 11 32 12
REMARK SMILES IDX 34 13 36 14 15 15 16 16 29 17 28 18 21 19 17 20 19 21 30 22
REMARK SMILES IDX 31 23 22 25 23 26 24 27 25 28 26 29 27 30 18 31 20 33 33 35
REMARK SMILES IDX 35 37 37 39 38 41 39 42 40 43 7 45 43 47 44 48 45 50 46 51
REMARK SMILES IDX 47 53 48 54 49 55 50 57 51 58 52 59 53 60 54 61 72 62 55 63
REMARK SMILES IDX 71 64 56 65 57 66 70 67 58 68 63 69 62 70 59 71 60 72 61 73
REMARK SMILES IDX 64 75 65 76 69 77 66 78 68 79 67 80 4 81 2 82 1 84 3 85
REMARK H PARENT 31 24 18 32 20 34 33 36 35 38 37 40 40 44 7 46 44 49 46 52
REMARK H PARENT 48 56 61 74 4 83
REMARK Flexibility Score: inf
ROOT
ATOM      1  C   UNL     1       3.499  23.731  32.634  1.00  0.00     0.272 C 
ATOM      2  C   UNL     1       2.378  23.241  33.572  1.00  0.00     0.113 C 
ATOM      3  C   UNL     1       2.675  21.954  34.251  1.00  0.00     0.145 C 
ATOM      4  C   UNL     1       3.355  20.936  33.344  1.00  0.00     0.142 C 
ATOM      5  C   UNL     1       3.321  21.585  31.957  1.00  0.00     0.178 C 
ATOM      6  O   UNL     1       4.171  22.666  32.037  1.00  0.00    -0.332 OA
ENDROOT
BRANCH   1   7
ATOM      7  O   UNL     1       4.357  24.418  33.431  1.00  0.00    -0.338 OA
BRANCH   7   8
ATOM      8  C   UNL     1       5.516  23.836  33.832  1.00  0.00     0.199 C 
BRANCH   8   9
ATOM      9  C   UNL     1       5.950  24.387  35.214  1.00  0.00     0.179 C 
ATOM     10  C   UNL     1       7.651  24.065  36.786  1.00  0.00     0.282 C 
ATOM     11  O   UNL     1       7.052  23.698  35.608  1.00  0.00    -0.341 OA
ATOM     12  C   UNL     1       7.087  25.403  37.226  1.00  0.00     0.202 C 
ATOM     13  C   UNL     1       7.037  26.421  36.113  1.00  0.00     0.179 C 
ATOM     14  C   UNL     1       6.332  25.833  34.943  1.00  0.00     0.177 C 
BRANCH  10  15
ATOM     15  O   UNL     1       9.013  24.139  36.562  1.00  0.00    -0.341 OA
BRANCH  15  16
ATOM     16  C   UNL     1       9.761  23.144  37.169  1.00  0.00     0.184 C 
ATOM     17  C   UNL     1      10.023  23.389  38.610  1.00  0.00     0.178 C 
ATOM     18  O   UNL     1      11.376  23.506  38.879  1.00  0.00    -0.341 OA
ATOM     19  C   UNL     1      12.002  24.437  38.053  1.00  0.00     0.281 C 
ATOM     20  C   UNL     1      10.995  22.938  36.339  1.00  0.00     0.180 C 
ATOM     21  C   UNL     1      12.172  23.770  36.707  1.00  0.00     0.202 C 
BRANCH  17  22
ATOM     22  C   UNL     1       9.513  22.216  39.422  1.00  0.00     0.191 C 
BRANCH  22  23
ATOM     23  O   UNL     1       9.862  21.000  38.863  1.00  0.00    -0.394 OA
ATOM     24  H   UNL     1       9.810  20.292  39.557  1.00  0.00     0.210 HD
ENDBRANCH  22  23
ENDBRANCH  17  22
BRANCH  19  25
ATOM     25  O   UNL     1      13.252  24.684  38.599  1.00  0.00    -0.350 OA
BRANCH  25  26
ATOM     26  C   UNL     1      13.338  24.251  39.924  1.00  0.00     0.169 C 
BRANCH  26  27
ATOM     27  C   UNL     1      14.673  24.623  40.516  1.00  0.00     0.119 C 
BRANCH  27  28
ATOM     28  N   UNL     1      15.362  23.422  40.933  1.00  0.00    -0.092 NA
ATOM     29  N   UNL     1      16.450  23.168  40.434  1.00  0.00     0.001 N 
ATOM     30  N   UNL     1      17.629  22.795  40.314  1.00  0.00    -0.003 NA
ENDBRANCH  27  28
ENDBRANCH  26  27
ENDBRANCH  25  26
ENDBRANCH  19  25
BRANCH  20  31
ATOM     31  O   UNL     1      11.380  21.587  36.506  1.00  0.00    -0.387 OA
ATOM     32  H   UNL     1      10.609  21.042  36.803  1.00  0.00     0.211 HD
ENDBRANCH  20  31
BRANCH  21  33
ATOM     33  O   UNL     1      12.380  24.720  35.685  1.00  0.00    -0.385 OA
ATOM     34  H   UNL     1      12.968  25.463  35.993  1.00  0.00     0.211 HD
ENDBRANCH  21  33
ENDBRANCH  15  16
ENDBRANCH  10  15
BRANCH  12  35
ATOM     35  O   UNL     1       5.819  25.308  37.785  1.00  0.00    -0.385 OA
ATOM     36  H   UNL     1       5.398  26.200  37.629  1.00  0.00     0.211 HD
ENDBRANCH  12  35
BRANCH  13  37
ATOM     37  O   UNL     1       8.357  26.776  35.834  1.00  0.00    -0.387 OA
ATOM     38  H   UNL     1       8.874  26.641  36.669  1.00  0.00     0.211 HD
ENDBRANCH  13  37
BRANCH  14  39
ATOM     39  O   UNL     1       7.246  25.845  33.869  1.00  0.00    -0.387 OA
ATOM     40  H   UNL     1       6.880  26.258  33.070  1.00  0.00     0.211 HD
ENDBRANCH  14  39
ENDBRANCH   8   9
ENDBRANCH   7   8
ENDBRANCH   1   7
BRANCH   1  41
ATOM     41  C   UNL     1       2.877  24.516  31.538  1.00  0.00     0.364 C 
ATOM     42  O   UNL     1       1.887  25.273  31.729  1.00  0.00    -0.246 OA
BRANCH  41  43
ATOM     43  O   UNL     1       3.375  24.442  30.256  1.00  0.00    -0.477 OA
ATOM     44  H   UNL     1       3.610  23.558  29.787  1.00  0.00     0.296 HD
ENDBRANCH  41  43
ENDBRANCH   1  41
BRANCH   3  45
ATOM     45  O   UNL     1       3.317  22.100  35.462  1.00  0.00    -0.391 OA
ATOM     46  H   UNL     1       3.525  21.216  35.824  1.00  0.00     0.211 HD
ENDBRANCH   3  45
BRANCH   5  47
ATOM     47  C   UNL     1       3.559  20.637  30.844  1.00  0.00     0.176 C 
BRANCH  47  48
ATOM     48  O   UNL     1       4.954  20.491  30.666  1.00  0.00    -0.388 OA
ATOM     49  H   UNL     1       5.158  19.553  30.353  1.00  0.00     0.211 HD
ENDBRANCH  47  48
BRANCH  47  50
ATOM     50  C   UNL     1       2.906  20.979  29.533  1.00  0.00     0.165 C 
BRANCH  50  51
ATOM     51  O   UNL     1       3.537  22.069  28.969  1.00  0.00    -0.388 OA
ATOM     52  H   UNL     1       2.928  22.846  28.858  1.00  0.00     0.211 HD
ENDBRANCH  50  51
BRANCH  50  53
ATOM     53  C   UNL     1       1.452  21.253  29.830  1.00  0.00     0.154 C 
BRANCH  53  54
ATOM     54  N   UNL     1       0.666  21.713  28.744  1.00  0.00    -0.319 N 
ATOM     55  C   UNL     1       0.228  23.060  28.653  1.00  0.00     0.407 C 
ATOM     56  H   UNL     1       0.383  21.064  27.969  1.00  0.00     0.167 HD
ATOM     57  O   UNL     1       0.524  23.860  29.560  1.00  0.00    -0.225 OA
BRANCH  55  58
ATOM     58  O   UNL     1      -0.532  23.501  27.552  1.00  0.00    -0.443 OA
BRANCH  58  59
ATOM     59  C   UNL     1       0.067  23.509  26.281  1.00  0.00     0.294 C 
BRANCH  59  60
ATOM     60  C   UNL     1       1.513  23.822  26.368  1.00  0.00     0.121 A 
ATOM     61  C   UNL     1       2.156  25.037  26.394  1.00  0.00     0.144 A 
ATOM     62  N   UNL     1       2.533  22.917  26.412  1.00  0.00    -0.131 NA
ATOM     63  N   UNL     1       3.495  24.869  26.448  1.00  0.00    -0.220 N 
ATOM     64  N   UNL     1       3.687  23.550  26.459  1.00  0.00    -0.062 NA
BRANCH  63  65
ATOM     65  C   UNL     1       4.479  25.888  26.459  1.00  0.00     0.071 A 
ATOM     66  C   UNL     1       5.523  25.777  25.553  1.00  0.00     0.064 A 
ATOM     67  C   UNL     1       4.476  26.992  27.286  1.00  0.00     0.057 A 
ATOM     68  C   UNL     1       6.496  26.758  25.520  1.00  0.00     0.151 A 
ATOM     69  C   UNL     1       5.436  27.954  27.247  1.00  0.00     0.073 A 
ATOM     70  N   UNL     1       6.438  27.816  26.356  1.00  0.00    -0.241 NA
BRANCH  68  71
ATOM     71  C   UNL     1       7.603  26.671  24.578  1.00  0.00     0.354 C 
ATOM     72  O   UNL     1       8.646  26.073  24.945  1.00  0.00    -0.245 OA
BRANCH  71  73
ATOM     73  O   UNL     1       7.576  27.203  23.311  1.00  0.00    -0.477 OA
ATOM     74  H   UNL     1       8.137  26.828  22.536  1.00  0.00     0.297 HD
ENDBRANCH  71  73
ENDBRANCH  68  71
BRANCH  69  75
ATOM     75  C   UNL     1       5.409  29.116  28.126  1.00  0.00     0.000 A 
ATOM     76  C   UNL     1       5.812  30.342  27.600  1.00  0.00     0.010 A 
ATOM     77  C   UNL     1       5.014  29.075  29.432  1.00  0.00     0.010 A 
ATOM     78  C   UNL     1       5.817  31.487  28.351  1.00  0.00     0.001 A 
ATOM     79  C   UNL     1       5.024  30.238  30.183  1.00  0.00     0.001 A 
ATOM     80  C   UNL     1       5.416  31.442  29.675  1.00  0.00     0.000 A 
ENDBRANCH  69  75
ENDBRANCH  63  65
ENDBRANCH  59  60
ENDBRANCH  58  59
ENDBRANCH  55  58
ENDBRANCH  53  54
ENDBRANCH  50  53
ENDBRANCH  47  50
ENDBRANCH   5  47
BRANCH   4  81
ATOM     81  N   UNL     1       2.716  19.661  33.389  1.00  0.00    -0.348 N 
ATOM     82  C   UNL     1       3.060  18.727  34.399  1.00  0.00     0.217 C 
ATOM     83  H   UNL     1       1.994  19.432  32.667  1.00  0.00     0.163 HD
ATOM     84  C   UNL     1       2.427  17.386  34.496  1.00  0.00     0.114 C 
ATOM     85  O   UNL     1       3.942  19.015  35.277  1.00  0.00    -0.275 OA
ENDBRANCH   4  81
TORSDOF 33
