REMARK VINA RESULT:    -8.504      2.402      6.962
REMARK INTER + INTRA:         -20.189
REMARK INTER:                 -11.125
REMARK INTRA:                  -9.064
REMARK UNBOUND:                 2.731
REMARK SMILES CC(=O)N[C@@H]1[C@@H](O)C[C@](OC[C@H]2O[C@@H](O[C@H]3[C@H](O)[C@@H](O)[C@H](OCCN=[N+]=[N-])O[C@@H]3CO)[C@H](O)[C@@H](O)[C@H]2O)(C(=O)O)O[C@H]1C(O)[C@H](O)CNC(=O)OCc1cn(C2CCc3ccccc3NC2=O)nn1
REMARK SMILES IDX 43 1 42 2 9 3 8 4 41 5 6 6 5 7 10 8 11 9 12 10 14 11 13 12
REMARK SMILES IDX 32 13 34 14 36 15 15 16 16 17 29 18 28 19 21 20 17 21 19 22
REMARK SMILES IDX 30 23 31 24 22 26 23 27 24 28 25 29 26 30 27 31 18 32 20 34
REMARK SMILES IDX 33 36 35 38 37 40 38 42 39 43 40 44 7 46 4 48 2 49 1 51 3 52
REMARK SMILES IDX 44 53 45 55 46 56 47 58 48 59 49 60 50 62 51 63 52 64 53 65
REMARK SMILES IDX 54 66 69 67 55 68 68 69 56 70 57 71 66 73 65 74 67 75 64 77
REMARK SMILES IDX 59 78 63 79 60 80 62 81 61 82 58 83
REMARK H PARENT 31 25 18 33 20 35 33 37 35 39 37 41 40 45 7 47 4 50 44 54
REMARK H PARENT 46 57 48 61 65 76
REMARK Flexibility Score: 90.00
ROOT
ATOM      1  C   UNL     1      22.107  28.286  23.969  1.00  0.00     0.176 C 
ENDROOT
BRANCH   1   2
ATOM      2  C   UNL     1      22.848  26.968  24.275  1.00  0.00     0.178 C 
ATOM      3  C   UNL     1      23.201  25.277  22.631  1.00  0.00     0.272 C 
ATOM      4  C   UNL     1      22.289  24.365  23.346  1.00  0.00     0.113 C 
ATOM      5  O   UNL     1      23.530  26.482  23.255  1.00  0.00    -0.332 OA
ATOM      6  C   UNL     1      21.227  25.085  24.106  1.00  0.00     0.145 C 
ATOM      7  C   UNL     1      21.923  26.063  25.042  1.00  0.00     0.142 C 
BRANCH   3   8
ATOM      8  O   UNL     1      22.835  25.619  21.377  1.00  0.00    -0.338 OA
BRANCH   8   9
ATOM      9  C   UNL     1      23.544  26.367  20.548  1.00  0.00     0.199 C 
BRANCH   9  10
ATOM     10  C   UNL     1      23.125  26.816  19.216  1.00  0.00     0.179 C 
ATOM     11  C   UNL     1      21.267  27.732  18.184  1.00  0.00     0.282 C 
ATOM     12  O   UNL     1      21.884  27.512  19.415  1.00  0.00    -0.341 OA
ATOM     13  C   UNL     1      22.132  27.621  16.992  1.00  0.00     0.202 C 
ATOM     14  C   UNL     1      23.571  27.975  17.151  1.00  0.00     0.179 C 
ATOM     15  C   UNL     1      23.986  27.917  18.599  1.00  0.00     0.177 C 
BRANCH  11  16
ATOM     16  O   UNL     1      20.544  28.941  18.264  1.00  0.00    -0.341 OA
BRANCH  16  17
ATOM     17  C   UNL     1      19.283  28.765  18.769  1.00  0.00     0.184 C 
ATOM     18  C   UNL     1      18.167  29.344  17.939  1.00  0.00     0.178 C 
ATOM     19  O   UNL     1      16.982  28.928  18.551  1.00  0.00    -0.341 OA
ATOM     20  C   UNL     1      16.706  29.669  19.690  1.00  0.00     0.281 C 
ATOM     21  C   UNL     1      19.154  29.377  20.156  1.00  0.00     0.180 C 
ATOM     22  C   UNL     1      17.941  30.214  20.345  1.00  0.00     0.202 C 
BRANCH  18  23
ATOM     23  C   UNL     1      18.150  28.774  16.535  1.00  0.00     0.191 C 
BRANCH  23  24
ATOM     24  O   UNL     1      19.167  29.310  15.747  1.00  0.00    -0.394 OA
ATOM     25  H   UNL     1      18.849  29.990  15.115  1.00  0.00     0.210 HD
ENDBRANCH  23  24
ENDBRANCH  18  23
BRANCH  20  26
ATOM     26  O   UNL     1      15.952  28.891  20.549  1.00  0.00    -0.350 OA
BRANCH  26  27
ATOM     27  C   UNL     1      14.732  29.477  20.838  1.00  0.00     0.169 C 
BRANCH  27  28
ATOM     28  C   UNL     1      14.084  29.000  22.098  1.00  0.00     0.119 C 
BRANCH  28  29
ATOM     29  N   UNL     1      14.593  29.777  23.216  1.00  0.00    -0.092 NA
ATOM     30  N   UNL     1      15.698  29.535  23.735  1.00  0.00     0.001 N 
ATOM     31  N   UNL     1      16.935  29.507  23.805  1.00  0.00    -0.003 NA
ENDBRANCH  28  29
ENDBRANCH  27  28
ENDBRANCH  26  27
ENDBRANCH  20  26
BRANCH  21  32
ATOM     32  O   UNL     1      19.302  28.406  21.158  1.00  0.00    -0.387 OA
ATOM     33  H   UNL     1      18.980  27.537  20.803  1.00  0.00     0.211 HD
ENDBRANCH  21  32
BRANCH  22  34
ATOM     34  O   UNL     1      18.135  31.552  19.928  1.00  0.00    -0.385 OA
ATOM     35  H   UNL     1      18.680  32.060  20.558  1.00  0.00     0.211 HD
ENDBRANCH  22  34
ENDBRANCH  16  17
ENDBRANCH  11  16
BRANCH  13  36
ATOM     36  O   UNL     1      21.944  26.376  16.383  1.00  0.00    -0.385 OA
ATOM     37  H   UNL     1      21.412  26.488  15.553  1.00  0.00     0.211 HD
ENDBRANCH  13  36
BRANCH  14  38
ATOM     38  O   UNL     1      23.908  29.184  16.546  1.00  0.00    -0.387 OA
ATOM     39  H   UNL     1      24.899  29.244  16.587  1.00  0.00     0.211 HD
ENDBRANCH  14  38
BRANCH  15  40
ATOM     40  O   UNL     1      23.680  29.147  19.233  1.00  0.00    -0.387 OA
ATOM     41  H   UNL     1      22.791  29.025  19.630  1.00  0.00     0.211 HD
ENDBRANCH  15  40
ENDBRANCH   9  10
ENDBRANCH   8   9
ENDBRANCH   3   8
BRANCH   3  42
ATOM     42  C   UNL     1      24.554  24.599  22.636  1.00  0.00     0.364 C 
ATOM     43  O   UNL     1      24.702  23.460  22.258  1.00  0.00    -0.246 OA
BRANCH  42  44
ATOM     44  O   UNL     1      25.675  25.301  23.092  1.00  0.00    -0.477 OA
ATOM     45  H   UNL     1      26.446  25.536  22.489  1.00  0.00     0.296 HD
ENDBRANCH  42  44
ENDBRANCH   3  42
BRANCH   6  46
ATOM     46  O   UNL     1      20.449  25.789  23.173  1.00  0.00    -0.391 OA
ATOM     47  H   UNL     1      20.862  25.845  22.296  1.00  0.00     0.211 HD
ENDBRANCH   6  46
BRANCH   7  48
ATOM     48  N   UNL     1      22.535  25.317  26.090  1.00  0.00    -0.348 N 
ATOM     49  C   UNL     1      22.362  25.700  27.450  1.00  0.00     0.217 C 
ATOM     50  H   UNL     1      23.125  24.477  25.888  1.00  0.00     0.163 HD
ATOM     51  C   UNL     1      22.982  24.954  28.579  1.00  0.00     0.114 C 
ATOM     52  O   UNL     1      21.665  26.694  27.684  1.00  0.00    -0.275 OA
ENDBRANCH   7  48
ENDBRANCH   1   2
BRANCH   1  53
ATOM     53  O   UNL     1      21.681  28.279  22.637  1.00  0.00    -0.388 OA
ATOM     54  H   UNL     1      22.368  27.962  22.009  1.00  0.00     0.211 HD
ENDBRANCH   1  53
BRANCH   1  55
ATOM     55  C   UNL     1      20.921  28.505  24.835  1.00  0.00     0.165 C 
BRANCH  55  56
ATOM     56  O   UNL     1      19.711  28.611  24.160  1.00  0.00    -0.388 OA
ATOM     57  H   UNL     1      19.128  29.225  24.682  1.00  0.00     0.211 HD
ENDBRANCH  55  56
BRANCH  55  58
ATOM     58  C   UNL     1      21.002  29.646  25.795  1.00  0.00     0.154 C 
BRANCH  58  59
ATOM     59  N   UNL     1      21.638  30.828  25.297  1.00  0.00    -0.319 N 
ATOM     60  C   UNL     1      20.980  31.833  24.551  1.00  0.00     0.407 C 
ATOM     61  H   UNL     1      22.651  30.959  25.495  1.00  0.00     0.167 HD
ATOM     62  O   UNL     1      19.759  31.741  24.276  1.00  0.00    -0.225 OA
BRANCH  60  63
ATOM     63  O   UNL     1      21.697  32.927  24.125  1.00  0.00    -0.443 OA
BRANCH  63  64
ATOM     64  C   UNL     1      22.252  33.043  22.862  1.00  0.00     0.294 C 
BRANCH  64  65
ATOM     65  C   UNL     1      23.212  31.966  22.614  1.00  0.00     0.120 A 
ATOM     66  C   UNL     1      24.453  31.829  23.186  1.00  0.00     0.139 A 
ATOM     67  N   UNL     1      23.087  30.902  21.785  1.00  0.00    -0.132 NA
ATOM     68  N   UNL     1      25.048  30.709  22.705  1.00  0.00    -0.240 N 
ATOM     69  N   UNL     1      24.190  30.176  21.860  1.00  0.00    -0.066 NA
BRANCH  68  70
ATOM     70  C   UNL     1      26.381  30.194  23.062  1.00  0.00     0.198 C 
BRANCH  70  71
ATOM     71  C   UNL     1      26.753  30.847  24.340  1.00  0.00     0.042 CG0
ATOM     72  G   UNL     1      27.871  30.236  25.110  1.00  0.00     0.000 G0
ENDBRANCH  70  71
BRANCH  70  73
ATOM     73  C   UNL     1      26.251  28.735  23.087  1.00  0.00     0.249 C 
ATOM     74  N   UNL     1      26.066  27.850  24.181  1.00  0.00    -0.324 N 
ATOM     75  O   UNL     1      26.314  28.181  21.956  1.00  0.00    -0.272 OA
ATOM     76  H   UNL     1      25.632  26.918  24.005  1.00  0.00     0.170 HD
BRANCH  74  77
ATOM     77  C   UNL     1      26.442  28.162  25.539  1.00  0.00     0.044 A 
ATOM     78  C   UNL     1      27.233  29.201  26.013  1.00  0.00    -0.024 A 
ATOM     79  C   UNL     1      25.906  27.261  26.434  1.00  0.00     0.026 A 
ATOM     80  C   UNL     1      27.495  29.356  27.354  1.00  0.00     0.006 A 
ATOM     81  C   UNL     1      26.153  27.392  27.787  1.00  0.00     0.002 A 
ATOM     82  C   UNL     1      26.954  28.450  28.233  1.00  0.00     0.000 A 
BRANCH  78  83
ATOM     83  C   UNL     1      27.857  30.226  25.128  1.00  0.00     0.040 CG0
ATOM     84  G   UNL     1      26.756  30.847  24.342  1.00  0.00     0.000 G0
ENDBRANCH  78  83
ENDBRANCH  74  77
ENDBRANCH  70  73
ENDBRANCH  68  70
ENDBRANCH  64  65
ENDBRANCH  63  64
ENDBRANCH  60  63
ENDBRANCH  58  59
ENDBRANCH  55  58
ENDBRANCH   1  55
TORSDOF 30
