REMARK VINA RESULT:    -5.970     10.888     16.523
REMARK INTER + INTRA:         -20.658
REMARK INTER:                 -16.836
REMARK INTRA:                  -3.822
REMARK UNBOUND:                -5.964
REMARK SMILES CC(=O)N[C@@H]1[C@@H](O)C[C@](OC[C@H]2O[C@@H](O[C@H]3[C@H](O)[C@@H](O)[C@H](OCCN=[N+]=[N-])O[C@@H]3CO)[C@H](O)[C@@H](O)[C@H]2O)(C(=O)O)O[C@H]1C(O)[C@H](O)CNC(=O)OCc1cn(C2CCN(C)CC2)nn1
REMARK SMILES IDX 9 1 8 2 6 3 5 4 42 5 41 6 10 7 11 8 12 9 14 10 13 11 32 12
REMARK SMILES IDX 34 13 36 14 15 15 16 16 29 17 28 18 21 19 17 20 19 21 30 22
REMARK SMILES IDX 31 23 22 25 23 26 24 27 25 28 26 29 27 30 18 31 20 33 33 35
REMARK SMILES IDX 35 37 37 39 38 41 39 42 40 43 7 45 43 47 44 48 45 50 46 51
REMARK SMILES IDX 47 53 48 54 49 55 50 57 51 58 52 59 53 60 54 61 64 62 55 63
REMARK SMILES IDX 63 64 56 65 57 66 62 67 58 68 61 69 59 70 60 71 4 72 2 73
REMARK SMILES IDX 1 75 3 76
REMARK H PARENT 31 24 18 32 20 34 33 36 35 38 37 40 40 44 7 46 44 49 46 52
REMARK H PARENT 48 56 4 74
REMARK Flexibility Score: inf
ROOT
ATOM      1  C   UNL     1      17.980  29.042  19.997  1.00  0.00     0.272 C 
ATOM      2  C   UNL     1      18.071  30.556  20.046  1.00  0.00     0.113 C 
ATOM      3  C   UNL     1      16.801  31.291  19.929  1.00  0.00     0.145 C 
ATOM      4  C   UNL     1      15.631  30.659  20.651  1.00  0.00     0.142 C 
ATOM      5  C   UNL     1      15.810  29.213  20.913  1.00  0.00     0.178 C 
ATOM      6  O   UNL     1      17.023  28.681  21.000  1.00  0.00    -0.332 OA
ENDROOT
BRANCH   1   7
ATOM      7  O   UNL     1      19.119  28.533  20.492  1.00  0.00    -0.338 OA
BRANCH   7   8
ATOM      8  C   UNL     1      20.163  28.003  19.951  1.00  0.00     0.199 C 
BRANCH   8   9
ATOM      9  C   UNL     1      21.559  28.171  20.468  1.00  0.00     0.179 C 
ATOM     10  C   UNL     1      21.806  26.771  22.386  1.00  0.00     0.282 C 
ATOM     11  O   UNL     1      21.504  27.962  21.818  1.00  0.00    -0.341 OA
ATOM     12  C   UNL     1      22.133  25.702  21.437  1.00  0.00     0.202 C 
ATOM     13  C   UNL     1      23.230  26.276  20.525  1.00  0.00     0.179 C 
ATOM     14  C   UNL     1      22.581  27.361  19.743  1.00  0.00     0.177 C 
BRANCH  10  15
ATOM     15  O   UNL     1      20.774  26.553  23.290  1.00  0.00    -0.341 OA
BRANCH  15  16
ATOM     16  C   UNL     1      21.074  26.553  24.589  1.00  0.00     0.184 C 
ATOM     17  C   UNL     1      21.525  27.898  25.045  1.00  0.00     0.178 C 
ATOM     18  O   UNL     1      21.416  27.955  26.439  1.00  0.00    -0.341 OA
ATOM     19  C   UNL     1      22.330  27.104  27.015  1.00  0.00     0.281 C 
ATOM     20  C   UNL     1      22.245  25.629  24.960  1.00  0.00     0.180 C 
ATOM     21  C   UNL     1      22.314  25.697  26.483  1.00  0.00     0.202 C 
BRANCH  17  22
ATOM     22  C   UNL     1      20.867  29.053  24.374  1.00  0.00     0.191 C 
BRANCH  22  23
ATOM     23  O   UNL     1      19.515  28.774  24.225  1.00  0.00    -0.394 OA
ATOM     24  H   UNL     1      18.954  29.584  24.330  1.00  0.00     0.210 HD
ENDBRANCH  22  23
ENDBRANCH  17  22
BRANCH  19  25
ATOM     25  O   UNL     1      21.982  27.006  28.369  1.00  0.00    -0.350 OA
BRANCH  25  26
ATOM     26  C   UNL     1      22.781  27.740  29.209  1.00  0.00     0.169 C 
BRANCH  26  27
ATOM     27  C   UNL     1      23.353  26.936  30.359  1.00  0.00     0.119 C 
BRANCH  27  28
ATOM     28  N   UNL     1      24.061  25.766  29.876  1.00  0.00    -0.092 NA
ATOM     29  N   UNL     1      25.194  25.860  29.407  1.00  0.00     0.001 N 
ATOM     30  N   UNL     1      26.068  25.857  28.538  1.00  0.00    -0.003 NA
ENDBRANCH  27  28
ENDBRANCH  26  27
ENDBRANCH  25  26
ENDBRANCH  19  25
BRANCH  20  31
ATOM     31  O   UNL     1      22.022  24.318  24.635  1.00  0.00    -0.387 OA
ATOM     32  H   UNL     1      21.637  24.271  23.733  1.00  0.00     0.211 HD
ENDBRANCH  20  31
BRANCH  21  33
ATOM     33  O   UNL     1      23.418  25.008  26.918  1.00  0.00    -0.385 OA
ATOM     34  H   UNL     1      24.183  25.581  27.090  1.00  0.00     0.211 HD
ENDBRANCH  21  33
ENDBRANCH  15  16
ENDBRANCH  10  15
BRANCH  12  35
ATOM     35  O   UNL     1      22.741  24.580  21.997  1.00  0.00    -0.385 OA
ATOM     36  H   UNL     1      22.807  23.856  21.327  1.00  0.00     0.211 HD
ENDBRANCH  12  35
BRANCH  13  37
ATOM     37  O   UNL     1      23.811  25.318  19.732  1.00  0.00    -0.387 OA
ATOM     38  H   UNL     1      23.485  24.434  20.038  1.00  0.00     0.211 HD
ENDBRANCH  13  37
BRANCH  14  39
ATOM     39  O   UNL     1      21.992  26.798  18.614  1.00  0.00    -0.387 OA
ATOM     40  H   UNL     1      21.085  27.139  18.438  1.00  0.00     0.211 HD
ENDBRANCH  14  39
ENDBRANCH   8   9
ENDBRANCH   7   8
ENDBRANCH   1   7
BRANCH   1  41
ATOM     41  C   UNL     1      17.459  28.639  18.699  1.00  0.00     0.364 C 
ATOM     42  O   UNL     1      16.978  27.438  18.608  1.00  0.00    -0.246 OA
BRANCH  41  43
ATOM     43  O   UNL     1      17.385  29.320  17.513  1.00  0.00    -0.477 OA
ATOM     44  H   UNL     1      16.632  29.213  16.833  1.00  0.00     0.296 HD
ENDBRANCH  41  43
ENDBRANCH   1  41
BRANCH   3  45
ATOM     45  O   UNL     1      16.987  32.610  20.442  1.00  0.00    -0.391 OA
ATOM     46  H   UNL     1      16.624  32.687  21.349  1.00  0.00     0.211 HD
ENDBRANCH   3  45
BRANCH   5  47
ATOM     47  C   UNL     1      15.036  28.786  22.190  1.00  0.00     0.176 C 
BRANCH  47  48
ATOM     48  O   UNL     1      13.694  28.623  21.873  1.00  0.00    -0.388 OA
ATOM     49  H   UNL     1      13.177  29.452  21.946  1.00  0.00     0.211 HD
ENDBRANCH  47  48
BRANCH  47  50
ATOM     50  C   UNL     1      15.230  29.757  23.262  1.00  0.00     0.165 C 
BRANCH  50  51
ATOM     51  O   UNL     1      16.550  29.498  23.801  1.00  0.00    -0.388 OA
ATOM     52  H   UNL     1      16.456  28.976  24.634  1.00  0.00     0.211 HD
ENDBRANCH  50  51
BRANCH  50  53
ATOM     53  C   UNL     1      14.307  29.822  24.401  1.00  0.00     0.154 C 
BRANCH  53  54
ATOM     54  N   UNL     1      13.097  29.116  24.454  1.00  0.00    -0.319 N 
ATOM     55  C   UNL     1      11.786  29.651  24.405  1.00  0.00     0.407 C 
ATOM     56  H   UNL     1      13.158  28.044  24.544  1.00  0.00     0.167 HD
ATOM     57  O   UNL     1      11.586  30.873  24.264  1.00  0.00    -0.225 OA
BRANCH  55  58
ATOM     58  O   UNL     1      10.693  28.762  24.522  1.00  0.00    -0.443 OA
BRANCH  58  59
ATOM     59  C   UNL     1       9.389  29.278  24.446  1.00  0.00     0.294 C 
BRANCH  59  60
ATOM     60  C   UNL     1       8.430  28.192  24.764  1.00  0.00     0.120 A 
ATOM     61  C   UNL     1       7.194  28.352  25.414  1.00  0.00     0.138 A 
ATOM     62  N   UNL     1       8.493  26.876  24.518  1.00  0.00    -0.132 NA
ATOM     63  N   UNL     1       6.584  27.160  25.528  1.00  0.00    -0.249 N 
ATOM     64  N   UNL     1       7.389  26.288  24.980  1.00  0.00    -0.067 NA
BRANCH  63  65
ATOM     65  C   UNL     1       5.298  26.909  26.135  1.00  0.00     0.111 C 
ATOM     66  C   UNL     1       4.424  28.098  25.858  1.00  0.00     0.043 C 
ATOM     67  C   UNL     1       4.641  25.671  25.588  1.00  0.00     0.043 C 
ATOM     68  C   UNL     1       3.451  27.757  24.753  1.00  0.00     0.086 C 
ATOM     69  C   UNL     1       3.156  25.634  25.828  1.00  0.00     0.086 C 
ATOM     70  N   UNL     1       2.485  26.801  25.294  1.00  0.00    -0.306 NA
ATOM     71  C   UNL     1       1.763  27.466  26.364  1.00  0.00     0.105 C 
ENDBRANCH  63  65
ENDBRANCH  59  60
ENDBRANCH  58  59
ENDBRANCH  55  58
ENDBRANCH  53  54
ENDBRANCH  50  53
ENDBRANCH  47  50
ENDBRANCH   5  47
BRANCH   4  72
ATOM     72  N   UNL     1      14.378  30.923  19.970  1.00  0.00    -0.348 N 
ATOM     73  C   UNL     1      13.534  31.950  20.451  1.00  0.00     0.217 C 
ATOM     74  H   UNL     1      14.072  30.377  19.128  1.00  0.00     0.163 HD
ATOM     75  C   UNL     1      12.227  32.261  19.786  1.00  0.00     0.114 C 
ATOM     76  O   UNL     1      13.880  32.631  21.469  1.00  0.00    -0.275 OA
ENDBRANCH   4  72
TORSDOF 30
