REMARK VINA RESULT:    -4.824     15.543     20.411
REMARK INTER + INTRA:         -20.840
REMARK INTER:                 -13.707
REMARK INTRA:                  -7.132
REMARK UNBOUND:                -8.118
REMARK SMILES CC(=O)N[C@@H]1[C@@H](O)C[C@](OC[C@H]2O[C@@H](O[C@H]3[C@H](O)[C@@H](O)[C@H](OCCN=[N+]=[N-])O[C@@H]3CO)[C@H](O)[C@@H](O)[C@H]2O)(C(=O)O)O[C@H]1C(O)[C@H](O)CNC(=O)OCc1cn(CCOC(C)=O)nn1
REMARK SMILES IDX 43 1 42 2 9 3 8 4 41 5 6 6 5 7 10 8 11 9 12 10 14 11 13 12
REMARK SMILES IDX 32 13 34 14 36 15 15 16 16 17 29 18 28 19 21 20 17 21 19 22
REMARK SMILES IDX 30 23 31 24 22 26 23 27 24 28 25 29 26 30 27 31 18 32 20 34
REMARK SMILES IDX 33 36 35 38 37 40 38 42 39 43 40 44 7 46 4 48 2 49 1 51 3 52
REMARK SMILES IDX 44 53 45 55 46 56 47 58 48 59 49 60 50 62 51 63 52 64 53 65
REMARK SMILES IDX 54 66 63 67 55 68 62 69 56 70 57 71 58 72 59 73 61 74 60 75
REMARK H PARENT 31 25 18 33 20 35 33 37 35 39 37 41 40 45 7 47 4 50 44 54
REMARK H PARENT 46 57 48 61
REMARK Flexibility Score: inf
ROOT
ATOM      1  C   UNL     1      18.520  28.964  17.868  1.00  0.00     0.176 C 
ENDROOT
BRANCH   1   2
ATOM      2  C   UNL     1      19.367  29.293  19.071  1.00  0.00     0.178 C 
ATOM      3  C   UNL     1      21.173  28.352  20.259  1.00  0.00     0.272 C 
ATOM      4  C   UNL     1      21.021  29.667  20.985  1.00  0.00     0.113 C 
ATOM      5  O   UNL     1      20.376  28.306  19.083  1.00  0.00    -0.332 OA
ATOM      6  C   UNL     1      19.616  29.968  21.364  1.00  0.00     0.145 C 
ATOM      7  C   UNL     1      18.688  29.176  20.400  1.00  0.00     0.142 C 
BRANCH   3   8
ATOM      8  O   UNL     1      20.906  27.255  20.924  1.00  0.00    -0.338 OA
BRANCH   8   9
ATOM      9  C   UNL     1      21.596  26.173  21.157  1.00  0.00     0.199 C 
BRANCH   9  10
ATOM     10  C   UNL     1      22.401  25.882  22.351  1.00  0.00     0.179 C 
ATOM     11  C   UNL     1      23.510  26.999  24.036  1.00  0.00     0.282 C 
ATOM     12  O   UNL     1      22.406  27.075  23.174  1.00  0.00    -0.341 OA
ATOM     13  C   UNL     1      23.732  25.670  24.626  1.00  0.00     0.202 C 
ATOM     14  C   UNL     1      22.694  24.627  24.396  1.00  0.00     0.179 C 
ATOM     15  C   UNL     1      21.707  24.901  23.316  1.00  0.00     0.177 C 
BRANCH  11  16
ATOM     16  O   UNL     1      23.394  28.057  24.921  1.00  0.00    -0.341 OA
BRANCH  16  17
ATOM     17  C   UNL     1      22.384  28.927  24.604  1.00  0.00     0.184 C 
ATOM     18  C   UNL     1      22.867  30.352  24.755  1.00  0.00     0.178 C 
ATOM     19  O   UNL     1      21.784  31.157  24.377  1.00  0.00    -0.341 OA
ATOM     20  C   UNL     1      20.867  31.194  25.385  1.00  0.00     0.281 C 
ATOM     21  C   UNL     1      21.152  28.709  25.468  1.00  0.00     0.180 C 
ATOM     22  C   UNL     1      20.764  29.939  26.219  1.00  0.00     0.202 C 
BRANCH  18  23
ATOM     23  C   UNL     1      24.016  30.614  23.799  1.00  0.00     0.191 C 
BRANCH  23  24
ATOM     24  O   UNL     1      23.853  29.860  22.652  1.00  0.00    -0.394 OA
ATOM     25  H   UNL     1      24.250  30.403  21.907  1.00  0.00     0.210 HD
ENDBRANCH  23  24
ENDBRANCH  18  23
BRANCH  20  26
ATOM     26  O   UNL     1      19.629  31.521  24.816  1.00  0.00    -0.350 OA
BRANCH  26  27
ATOM     27  C   UNL     1      18.626  31.570  25.778  1.00  0.00     0.169 C 
BRANCH  27  28
ATOM     28  C   UNL     1      17.530  32.461  25.182  1.00  0.00     0.119 C 
BRANCH  28  29
ATOM     29  N   UNL     1      16.354  31.638  24.959  1.00  0.00    -0.092 NA
ATOM     30  N   UNL     1      16.427  30.480  24.527  1.00  0.00     0.001 N 
ATOM     31  N   UNL     1      16.459  29.507  23.751  1.00  0.00    -0.003 NA
ENDBRANCH  28  29
ENDBRANCH  27  28
ENDBRANCH  26  27
ENDBRANCH  20  26
BRANCH  21  32
ATOM     32  O   UNL     1      20.075  28.191  24.759  1.00  0.00    -0.387 OA
ATOM     33  H   UNL     1      19.958  28.591  23.862  1.00  0.00     0.211 HD
ENDBRANCH  21  32
BRANCH  22  34
ATOM     34  O   UNL     1      21.444  30.022  27.419  1.00  0.00    -0.385 OA
ATOM     35  H   UNL     1      22.173  30.700  27.320  1.00  0.00     0.211 HD
ENDBRANCH  22  34
ENDBRANCH  16  17
ENDBRANCH  11  16
BRANCH  13  36
ATOM     36  O   UNL     1      25.029  25.172  24.331  1.00  0.00    -0.385 OA
ATOM     37  H   UNL     1      25.711  25.871  24.405  1.00  0.00     0.211 HD
ENDBRANCH  13  36
BRANCH  14  38
ATOM     38  O   UNL     1      21.976  24.345  25.569  1.00  0.00    -0.387 OA
ATOM     39  H   UNL     1      22.588  23.855  26.194  1.00  0.00     0.211 HD
ENDBRANCH  14  38
BRANCH  15  40
ATOM     40  O   UNL     1      20.625  25.602  23.916  1.00  0.00    -0.387 OA
ATOM     41  H   UNL     1      20.955  26.242  24.579  1.00  0.00     0.211 HD
ENDBRANCH  15  40
ENDBRANCH   9  10
ENDBRANCH   8   9
ENDBRANCH   3   8
BRANCH   3  42
ATOM     42  C   UNL     1      22.538  28.396  19.664  1.00  0.00     0.364 C 
ATOM     43  O   UNL     1      23.597  28.646  20.270  1.00  0.00    -0.246 OA
BRANCH  42  44
ATOM     44  O   UNL     1      22.707  28.138  18.287  1.00  0.00    -0.477 OA
ATOM     45  H   UNL     1      22.006  28.475  17.643  1.00  0.00     0.296 HD
ENDBRANCH  42  44
ENDBRANCH   3  42
BRANCH   6  46
ATOM     46  O   UNL     1      19.286  29.716  22.675  1.00  0.00    -0.391 OA
ATOM     47  H   UNL     1      18.389  29.309  22.787  1.00  0.00     0.211 HD
ENDBRANCH   6  46
BRANCH   7  48
ATOM     48  N   UNL     1      17.360  29.678  20.514  1.00  0.00    -0.348 N 
ATOM     49  C   UNL     1      16.225  28.827  20.478  1.00  0.00     0.217 C 
ATOM     50  H   UNL     1      17.211  30.690  20.651  1.00  0.00     0.163 HD
ATOM     51  C   UNL     1      14.833  29.362  20.597  1.00  0.00     0.114 C 
ATOM     52  O   UNL     1      16.337  27.571  20.344  1.00  0.00    -0.275 OA
ENDBRANCH   7  48
ENDBRANCH   1   2
BRANCH   1  53
ATOM     53  O   UNL     1      18.137  27.600  18.068  1.00  0.00    -0.388 OA
ATOM     54  H   UNL     1      17.943  27.440  19.015  1.00  0.00     0.211 HD
ENDBRANCH   1  53
BRANCH   1  55
ATOM     55  C   UNL     1      19.375  28.918  16.625  1.00  0.00     0.165 C 
BRANCH  55  56
ATOM     56  O   UNL     1      20.489  29.754  16.802  1.00  0.00    -0.388 OA
ATOM     57  H   UNL     1      20.212  30.675  16.622  1.00  0.00     0.211 HD
ENDBRANCH  55  56
BRANCH  55  58
ATOM     58  C   UNL     1      18.622  29.258  15.376  1.00  0.00     0.154 C 
BRANCH  58  59
ATOM     59  N   UNL     1      17.268  28.803  15.327  1.00  0.00    -0.319 N 
ATOM     60  C   UNL     1      16.534  28.671  14.133  1.00  0.00     0.407 C 
ATOM     61  H   UNL     1      16.736  28.533  16.212  1.00  0.00     0.167 HD
ATOM     62  O   UNL     1      17.015  28.933  13.011  1.00  0.00    -0.225 OA
BRANCH  60  63
ATOM     63  O   UNL     1      15.200  28.234  14.129  1.00  0.00    -0.443 OA
BRANCH  63  64
ATOM     64  C   UNL     1      14.119  29.113  14.255  1.00  0.00     0.294 C 
BRANCH  64  65
ATOM     65  C   UNL     1      12.940  28.662  13.465  1.00  0.00     0.120 A 
ATOM     66  C   UNL     1      12.407  29.375  12.405  1.00  0.00     0.138 A 
ATOM     67  N   UNL     1      12.196  27.566  13.574  1.00  0.00    -0.132 NA
ATOM     68  N   UNL     1      11.371  28.677  11.930  1.00  0.00    -0.249 N 
ATOM     69  N   UNL     1      11.261  27.579  12.655  1.00  0.00    -0.067 NA
BRANCH  68  70
ATOM     70  C   UNL     1      10.488  29.045  10.814  1.00  0.00     0.187 C 
BRANCH  70  71
ATOM     71  C   UNL     1       9.573  30.174  11.236  1.00  0.00     0.256 C 
BRANCH  71  72
ATOM     72  O   UNL     1       8.381  29.607  11.769  1.00  0.00    -0.464 OA
BRANCH  72  73
ATOM     73  C   UNL     1       8.131  29.647  13.137  1.00  0.00     0.302 C 
ATOM     74  O   UNL     1       7.062  29.142  13.555  1.00  0.00    -0.253 OA
ATOM     75  C   UNL     1       9.090  30.266  14.110  1.00  0.00     0.139 C 
ENDBRANCH  72  73
ENDBRANCH  71  72
ENDBRANCH  70  71
ENDBRANCH  68  70
ENDBRANCH  64  65
ENDBRANCH  63  64
ENDBRANCH  60  63
ENDBRANCH  58  59
ENDBRANCH  55  58
ENDBRANCH   1  55
TORSDOF 33
