REMARK VINA RESULT:    -5.797      4.832      8.521
REMARK INTER + INTRA:         -23.700
REMARK INTER:                 -17.242
REMARK INTRA:                  -6.459
REMARK UNBOUND:                -8.074
REMARK SMILES CC(=O)N[C@@H]1[C@@H](O)C[C@](OC[C@H]2O[C@@H](O[C@H]3[C@H](O)[C@@H](O)[C@H](OCCN=[N+]=[N-])O[C@@H]3CO)[C@H](O)[C@@H](O)[C@H]2O)(C(=O)O)O[C@H]1C(O)[C@H](O)CNC(=O)OCc1cn(C[C@@H](C)CN2CCN(c3ccc(Cl)cc3)CC2)nn1
REMARK SMILES IDX 43 1 42 2 9 3 8 4 41 5 6 6 5 7 10 8 11 9 12 10 14 11 13 12
REMARK SMILES IDX 32 13 34 14 36 15 15 16 16 17 29 18 28 19 21 20 17 21 19 22
REMARK SMILES IDX 30 23 31 24 22 26 23 27 24 28 25 29 26 30 27 31 18 32 20 34
REMARK SMILES IDX 33 36 35 38 37 40 38 42 39 43 40 44 7 46 4 48 2 49 1 51 3 52
REMARK SMILES IDX 44 53 45 55 46 56 47 58 48 59 49 60 50 62 51 63 52 64 53 65
REMARK SMILES IDX 54 66 74 67 55 68 73 69 56 70 57 71 58 72 59 73 60 74 61 75
REMARK SMILES IDX 72 76 62 77 71 78 63 79 64 80 65 81 70 82 66 83 69 84 67 85
REMARK SMILES IDX 68 86
REMARK H PARENT 31 25 18 33 20 35 33 37 35 39 37 41 40 45 7 47 4 50 44 54
REMARK H PARENT 46 57 48 61
REMARK Flexibility Score: inf
ROOT
ATOM      1  C   UNL     1      31.742  21.726  19.272  1.00  0.00     0.176 C 
ENDROOT
BRANCH   1   2
ATOM      2  C   UNL     1      30.974  20.467  19.649  1.00  0.00     0.178 C 
ATOM      3  C   UNL     1      29.562  18.770  18.810  1.00  0.00     0.272 C 
ATOM      4  C   UNL     1      29.137  18.612  20.185  1.00  0.00     0.113 C 
ATOM      5  O   UNL     1      30.181  20.046  18.634  1.00  0.00    -0.332 OA
ATOM      6  C   UNL     1      28.957  19.932  20.912  1.00  0.00     0.145 C 
ATOM      7  C   UNL     1      30.346  20.579  20.998  1.00  0.00     0.142 C 
BRANCH   3   8
ATOM      8  O   UNL     1      28.703  18.693  17.797  1.00  0.00    -0.338 OA
BRANCH   8   9
ATOM      9  C   UNL     1      28.416  19.581  16.881  1.00  0.00     0.199 C 
BRANCH   9  10
ATOM     10  C   UNL     1      27.957  19.219  15.498  1.00  0.00     0.179 C 
ATOM     11  C   UNL     1      26.703  20.338  13.879  1.00  0.00     0.282 C 
ATOM     12  O   UNL     1      26.773  19.792  15.133  1.00  0.00    -0.341 OA
ATOM     13  C   UNL     1      27.667  21.506  13.794  1.00  0.00     0.202 C 
ATOM     14  C   UNL     1      29.043  21.002  14.083  1.00  0.00     0.179 C 
ATOM     15  C   UNL     1      29.081  19.575  14.513  1.00  0.00     0.177 C 
BRANCH  11  16
ATOM     16  O   UNL     1      25.394  20.863  13.755  1.00  0.00    -0.341 OA
BRANCH  16  17
ATOM     17  C   UNL     1      24.617  19.993  13.033  1.00  0.00     0.184 C 
ATOM     18  C   UNL     1      24.637  20.286  11.547  1.00  0.00     0.178 C 
ATOM     19  O   UNL     1      23.465  20.760  11.042  1.00  0.00    -0.341 OA
ATOM     20  C   UNL     1      22.340  19.988  11.266  1.00  0.00     0.281 C 
ATOM     21  C   UNL     1      23.185  19.943  13.555  1.00  0.00     0.180 C 
ATOM     22  C   UNL     1      22.377  19.178  12.533  1.00  0.00     0.202 C 
BRANCH  18  23
ATOM     23  C   UNL     1      25.217  19.131  10.746  1.00  0.00     0.191 C 
BRANCH  23  24
ATOM     24  O   UNL     1      24.964  19.249   9.403  1.00  0.00    -0.394 OA
ATOM     25  H   UNL     1      24.090  18.782   9.229  1.00  0.00     0.210 HD
ENDBRANCH  23  24
ENDBRANCH  18  23
BRANCH  20  26
ATOM     26  O   UNL     1      22.040  19.162  10.189  1.00  0.00    -0.350 OA
BRANCH  26  27
ATOM     27  C   UNL     1      21.644  17.894  10.505  1.00  0.00     0.169 C 
BRANCH  27  28
ATOM     28  C   UNL     1      20.571  17.392   9.582  1.00  0.00     0.119 C 
BRANCH  28  29
ATOM     29  N   UNL     1      19.448  18.316   9.608  1.00  0.00    -0.092 NA
ATOM     30  N   UNL     1      18.829  18.495  10.673  1.00  0.00     0.001 N 
ATOM     31  N   UNL     1      18.307  18.578  11.777  1.00  0.00    -0.003 NA
ENDBRANCH  28  29
ENDBRANCH  27  28
ENDBRANCH  26  27
ENDBRANCH  20  26
BRANCH  21  32
ATOM     32  O   UNL     1      23.121  19.237  14.754  1.00  0.00    -0.387 OA
ATOM     33  H   UNL     1      23.965  19.466  15.244  1.00  0.00     0.211 HD
ENDBRANCH  21  32
BRANCH  22  34
ATOM     34  O   UNL     1      21.050  19.071  13.015  1.00  0.00    -0.385 OA
ATOM     35  H   UNL     1      20.457  18.606  12.404  1.00  0.00     0.211 HD
ENDBRANCH  22  34
ENDBRANCH  16  17
ENDBRANCH  11  16
BRANCH  13  36
ATOM     36  O   UNL     1      27.539  22.077  12.539  1.00  0.00    -0.385 OA
ATOM     37  H   UNL     1      26.713  22.643  12.564  1.00  0.00     0.211 HD
ENDBRANCH  13  36
BRANCH  14  38
ATOM     38  O   UNL     1      29.745  21.813  14.984  1.00  0.00    -0.387 OA
ATOM     39  H   UNL     1      30.469  21.311  15.424  1.00  0.00     0.211 HD
ENDBRANCH  14  38
BRANCH  15  40
ATOM     40  O   UNL     1      30.287  19.262  15.089  1.00  0.00    -0.387 OA
ATOM     41  H   UNL     1      30.457  18.292  15.110  1.00  0.00     0.211 HD
ENDBRANCH  15  40
ENDBRANCH   9  10
ENDBRANCH   8   9
ENDBRANCH   3   8
BRANCH   3  42
ATOM     42  C   UNL     1      30.741  17.861  18.523  1.00  0.00     0.364 C 
ATOM     43  O   UNL     1      31.024  16.899  19.319  1.00  0.00    -0.246 OA
BRANCH  42  44
ATOM     44  O   UNL     1      31.571  17.991  17.438  1.00  0.00    -0.477 OA
ATOM     45  H   UNL     1      32.558  18.191  17.545  1.00  0.00     0.296 HD
ENDBRANCH  42  44
ENDBRANCH   3  42
BRANCH   6  46
ATOM     46  O   UNL     1      28.108  20.715  20.131  1.00  0.00    -0.391 OA
ATOM     47  H   UNL     1      27.387  20.176  19.725  1.00  0.00     0.211 HD
ENDBRANCH   6  46
BRANCH   7  48
ATOM     48  N   UNL     1      31.085  19.866  22.020  1.00  0.00    -0.348 N 
ATOM     49  C   UNL     1      30.906  20.196  23.387  1.00  0.00     0.217 C 
ATOM     50  H   UNL     1      31.772  19.095  21.793  1.00  0.00     0.163 HD
ATOM     51  C   UNL     1      31.693  19.431  24.419  1.00  0.00     0.114 C 
ATOM     52  O   UNL     1      30.117  21.100  23.783  1.00  0.00    -0.275 OA
ENDBRANCH   7  48
ENDBRANCH   1   2
BRANCH   1  53
ATOM     53  O   UNL     1      32.868  21.324  18.555  1.00  0.00    -0.388 OA
ATOM     54  H   UNL     1      32.880  21.722  17.654  1.00  0.00     0.211 HD
ENDBRANCH   1  53
BRANCH   1  55
ATOM     55  C   UNL     1      30.977  22.662  18.378  1.00  0.00     0.165 C 
BRANCH  55  56
ATOM     56  O   UNL     1      31.556  22.919  17.163  1.00  0.00    -0.388 OA
ATOM     57  H   UNL     1      32.202  23.646  17.194  1.00  0.00     0.211 HD
ENDBRANCH  55  56
BRANCH  55  58
ATOM     58  C   UNL     1      30.525  23.920  19.037  1.00  0.00     0.154 C 
BRANCH  58  59
ATOM     59  N   UNL     1      29.318  23.628  19.814  1.00  0.00    -0.319 N 
ATOM     60  C   UNL     1      29.314  23.704  21.226  1.00  0.00     0.407 C 
ATOM     61  H   UNL     1      28.450  23.359  19.310  1.00  0.00     0.167 HD
ATOM     62  O   UNL     1      30.381  24.026  21.803  1.00  0.00    -0.225 OA
BRANCH  60  63
ATOM     63  O   UNL     1      28.156  23.429  21.942  1.00  0.00    -0.443 OA
BRANCH  63  64
ATOM     64  C   UNL     1      26.913  23.865  21.392  1.00  0.00     0.294 C 
BRANCH  64  65
ATOM     65  C   UNL     1      26.232  24.855  22.256  1.00  0.00     0.120 A 
ATOM     66  C   UNL     1      25.353  24.598  23.284  1.00  0.00     0.138 A 
ATOM     67  N   UNL     1      26.337  26.204  22.205  1.00  0.00    -0.132 NA
ATOM     68  N   UNL     1      24.977  25.769  23.790  1.00  0.00    -0.252 N 
ATOM     69  N   UNL     1      25.575  26.739  23.134  1.00  0.00    -0.067 NA
BRANCH  68  70
ATOM     70  C   UNL     1      24.034  25.926  24.897  1.00  0.00     0.150 C 
BRANCH  70  71
ATOM     71  C   UNL     1      22.795  25.052  24.679  1.00  0.00     0.022 C 
ATOM     72  C   UNL     1      22.233  24.782  26.058  1.00  0.00     0.011 C 
BRANCH  71  73
ATOM     73  C   UNL     1      21.819  25.794  23.820  1.00  0.00     0.089 C 
BRANCH  73  74
ATOM     74  N   UNL     1      21.833  25.565  22.435  1.00  0.00    -0.299 NA
ATOM     75  C   UNL     1      21.873  24.265  21.912  1.00  0.00     0.106 C 
ATOM     76  C   UNL     1      22.438  26.595  21.655  1.00  0.00     0.106 C 
ATOM     77  C   UNL     1      22.995  24.077  20.891  1.00  0.00     0.132 C 
ATOM     78  C   UNL     1      22.186  26.327  20.182  1.00  0.00     0.132 C 
ATOM     79  N   UNL     1      22.877  25.107  19.859  1.00  0.00    -0.369 N 
BRANCH  79  80
ATOM     80  C   UNL     1      23.441  24.879  18.598  1.00  0.00     0.037 A 
ATOM     81  C   UNL     1      22.684  24.916  17.430  1.00  0.00     0.027 A 
ATOM     82  C   UNL     1      24.792  24.611  18.418  1.00  0.00     0.027 A 
ATOM     83  C   UNL     1      23.214  24.703  16.180  1.00  0.00     0.022 A 
ATOM     84  C   UNL     1      25.328  24.398  17.164  1.00  0.00     0.022 A 
ATOM     85  C   UNL     1      24.550  24.439  16.028  1.00  0.00     0.041 A 
ATOM     86  Cl  UNL     1      25.220  24.172  14.452  1.00  0.00    -0.084 Cl
ENDBRANCH  79  80
ENDBRANCH  73  74
ENDBRANCH  71  73
ENDBRANCH  70  71
ENDBRANCH  68  70
ENDBRANCH  64  65
ENDBRANCH  63  64
ENDBRANCH  60  63
ENDBRANCH  58  59
ENDBRANCH  55  58
ENDBRANCH   1  55
TORSDOF 34
