REMARK VINA RESULT:    -5.796      2.966      6.281
REMARK INTER + INTRA:         -21.041
REMARK INTER:                 -14.186
REMARK INTRA:                  -6.856
REMARK UNBOUND:                -6.268
REMARK SMILES CC(=O)N[C@@H]1[C@@H](O)C[C@](OC[C@H]2O[C@@H](O[C@H]3[C@H](O)[C@@H](O)[C@H](OCCN=[N+]=[N-])O[C@@H]3CO)[C@H](O)[C@@H](O)[C@H]2O)(C(=O)O)O[C@H]1C(O)[C@H](O)CNC(=O)OCc1cn(C(C)(C)CO)nn1
REMARK SMILES IDX 9 1 8 2 6 3 5 4 42 5 41 6 10 7 11 8 12 9 14 10 13 11 32 12
REMARK SMILES IDX 34 13 36 14 15 15 16 16 29 17 28 18 21 19 17 20 19 21 30 22
REMARK SMILES IDX 31 23 22 25 23 26 24 27 25 28 26 29 27 30 18 31 20 33 33 35
REMARK SMILES IDX 35 37 37 39 38 41 39 42 40 43 7 45 43 47 44 48 45 50 46 51
REMARK SMILES IDX 47 53 48 54 49 55 50 57 51 58 52 59 53 60 54 61 62 62 55 63
REMARK SMILES IDX 61 64 56 65 57 66 58 67 59 68 60 69 4 71 2 72 1 74 3 75
REMARK H PARENT 31 24 18 32 20 34 33 36 35 38 37 40 40 44 7 46 44 49 46 52
REMARK H PARENT 48 56 60 70 4 73
REMARK Flexibility Score: inf
ROOT
ATOM      1  C   UNL     1      15.699  31.108  23.522  1.00  0.00     0.272 C 
ATOM      2  C   UNL     1      14.529  31.241  24.460  1.00  0.00     0.113 C 
ATOM      3  C   UNL     1      13.686  29.996  24.322  1.00  0.00     0.145 C 
ATOM      4  C   UNL     1      13.022  30.112  22.931  1.00  0.00     0.142 C 
ATOM      5  C   UNL     1      14.132  30.319  21.944  1.00  0.00     0.178 C 
ATOM      6  O   UNL     1      15.384  30.137  22.497  1.00  0.00    -0.332 OA
ENDROOT
BRANCH   1   7
ATOM      7  O   UNL     1      16.810  30.576  24.090  1.00  0.00    -0.338 OA
BRANCH   7   8
ATOM      8  C   UNL     1      17.741  31.282  24.709  1.00  0.00     0.199 C 
BRANCH   8   9
ATOM      9  C   UNL     1      19.195  31.071  24.594  1.00  0.00     0.179 C 
ATOM     10  C   UNL     1      20.858  29.704  25.423  1.00  0.00     0.282 C 
ATOM     11  O   UNL     1      19.509  29.813  25.211  1.00  0.00    -0.341 OA
ATOM     12  C   UNL     1      21.732  30.584  24.603  1.00  0.00     0.202 C 
ATOM     13  C   UNL     1      21.188  30.887  23.224  1.00  0.00     0.179 C 
ATOM     14  C   UNL     1      19.695  30.849  23.172  1.00  0.00     0.177 C 
BRANCH  10  15
ATOM     15  O   UNL     1      21.192  28.349  25.338  1.00  0.00    -0.341 OA
BRANCH  15  16
ATOM     16  C   UNL     1      22.542  28.103  25.430  1.00  0.00     0.184 C 
ATOM     17  C   UNL     1      22.925  26.684  25.073  1.00  0.00     0.178 C 
ATOM     18  O   UNL     1      23.805  26.110  25.967  1.00  0.00    -0.341 OA
ATOM     19  C   UNL     1      23.356  25.980  27.252  1.00  0.00     0.281 C 
ATOM     20  C   UNL     1      22.911  28.330  26.908  1.00  0.00     0.180 C 
ATOM     21  C   UNL     1      22.393  27.089  27.611  1.00  0.00     0.202 C 
BRANCH  17  22
ATOM     22  C   UNL     1      23.658  26.774  23.740  1.00  0.00     0.191 C 
BRANCH  22  23
ATOM     23  O   UNL     1      23.084  27.779  22.959  1.00  0.00    -0.394 OA
ATOM     24  H   UNL     1      23.008  27.546  22.016  1.00  0.00     0.210 HD
ENDBRANCH  22  23
ENDBRANCH  17  22
BRANCH  19  25
ATOM     25  O   UNL     1      24.463  25.951  28.081  1.00  0.00    -0.350 OA
BRANCH  25  26
ATOM     26  C   UNL     1      24.206  25.846  29.412  1.00  0.00     0.169 C 
BRANCH  26  27
ATOM     27  C   UNL     1      25.284  26.443  30.303  1.00  0.00     0.119 C 
BRANCH  27  28
ATOM     28  N   UNL     1      25.749  25.476  31.279  1.00  0.00    -0.092 NA
ATOM     29  N   UNL     1      26.954  25.186  31.264  1.00  0.00     0.001 N 
ATOM     30  N   UNL     1      28.163  25.101  31.573  1.00  0.00    -0.003 NA
ENDBRANCH  27  28
ENDBRANCH  26  27
ENDBRANCH  25  26
ENDBRANCH  19  25
BRANCH  20  31
ATOM     31  O   UNL     1      24.307  28.403  26.930  1.00  0.00    -0.387 OA
ATOM     32  H   UNL     1      24.606  27.604  27.440  1.00  0.00     0.211 HD
ENDBRANCH  20  31
BRANCH  21  33
ATOM     33  O   UNL     1      21.158  26.768  27.023  1.00  0.00    -0.385 OA
ATOM     34  H   UNL     1      20.723  27.599  26.664  1.00  0.00     0.211 HD
ENDBRANCH  21  33
ENDBRANCH  15  16
ENDBRANCH  10  15
BRANCH  12  35
ATOM     35  O   UNL     1      22.150  31.748  25.250  1.00  0.00    -0.385 OA
ATOM     36  H   UNL     1      22.913  32.093  24.744  1.00  0.00     0.211 HD
ENDBRANCH  12  35
BRANCH  13  37
ATOM     37  O   UNL     1      21.750  30.029  22.263  1.00  0.00    -0.387 OA
ATOM     38  H   UNL     1      22.386  30.521  21.678  1.00  0.00     0.211 HD
ENDBRANCH  13  37
BRANCH  14  39
ATOM     39  O   UNL     1      19.336  29.527  22.822  1.00  0.00    -0.387 OA
ATOM     40  H   UNL     1      20.111  29.062  22.444  1.00  0.00     0.211 HD
ENDBRANCH  14  39
ENDBRANCH   8   9
ENDBRANCH   7   8
ENDBRANCH   1   7
BRANCH   1  41
ATOM     41  C   UNL     1      15.944  32.321  22.744  1.00  0.00     0.364 C 
ATOM     42  O   UNL     1      15.329  33.372  22.941  1.00  0.00    -0.246 OA
BRANCH  41  43
ATOM     43  O   UNL     1      16.900  32.372  21.713  1.00  0.00    -0.477 OA
ATOM     44  H   UNL     1      16.604  32.058  20.796  1.00  0.00     0.296 HD
ENDBRANCH  41  43
ENDBRANCH   1  41
BRANCH   3  45
ATOM     45  O   UNL     1      14.558  28.911  24.207  1.00  0.00    -0.391 OA
ATOM     46  H   UNL     1      15.492  29.194  24.275  1.00  0.00     0.211 HD
ENDBRANCH   3  45
BRANCH   5  47
ATOM     47  C   UNL     1      14.010  29.166  20.931  1.00  0.00     0.176 C 
BRANCH  47  48
ATOM     48  O   UNL     1      15.135  28.321  21.088  1.00  0.00    -0.388 OA
ATOM     49  H   UNL     1      14.889  27.381  21.091  1.00  0.00     0.211 HD
ENDBRANCH  47  48
BRANCH  47  50
ATOM     50  C   UNL     1      14.117  29.659  19.497  1.00  0.00     0.165 C 
BRANCH  50  51
ATOM     51  O   UNL     1      14.115  28.658  18.581  1.00  0.00    -0.388 OA
ATOM     52  H   UNL     1      13.720  27.802  18.869  1.00  0.00     0.211 HD
ENDBRANCH  50  51
BRANCH  50  53
ATOM     53  C   UNL     1      15.342  30.537  19.343  1.00  0.00     0.154 C 
BRANCH  53  54
ATOM     54  N   UNL     1      16.466  29.935  18.726  1.00  0.00    -0.319 N 
ATOM     55  C   UNL     1      17.637  29.568  19.396  1.00  0.00     0.407 C 
ATOM     56  H   UNL     1      16.439  29.737  17.667  1.00  0.00     0.167 HD
ATOM     57  O   UNL     1      17.785  29.735  20.617  1.00  0.00    -0.225 OA
BRANCH  55  58
ATOM     58  O   UNL     1      18.726  28.981  18.708  1.00  0.00    -0.443 OA
BRANCH  58  59
ATOM     59  C   UNL     1      20.058  29.234  19.094  1.00  0.00     0.294 C 
BRANCH  59  60
ATOM     60  C   UNL     1      20.722  28.075  19.725  1.00  0.00     0.120 A 
ATOM     61  C   UNL     1      21.749  27.312  19.207  1.00  0.00     0.139 A 
ATOM     62  N   UNL     1      20.454  27.545  20.928  1.00  0.00    -0.132 NA
ATOM     63  N   UNL     1      22.075  26.346  20.100  1.00  0.00    -0.244 N 
ATOM     64  N   UNL     1      21.272  26.510  21.138  1.00  0.00    -0.066 NA
BRANCH  63  65
ATOM     65  C   UNL     1      23.105  25.353  19.923  1.00  0.00     0.082 C 
ATOM     66  C   UNL     1      22.882  24.216  20.877  1.00  0.00     0.039 C 
ATOM     67  C   UNL     1      24.478  25.952  20.259  1.00  0.00     0.039 C 
BRANCH  65  68
ATOM     68  C   UNL     1      23.193  24.813  18.525  1.00  0.00     0.186 C 
BRANCH  68  69
ATOM     69  O   UNL     1      22.287  23.812  18.262  1.00  0.00    -0.394 OA
ATOM     70  H   UNL     1      22.642  22.910  18.294  1.00  0.00     0.210 HD
ENDBRANCH  68  69
ENDBRANCH  65  68
ENDBRANCH  63  65
ENDBRANCH  59  60
ENDBRANCH  58  59
ENDBRANCH  55  58
ENDBRANCH  53  54
ENDBRANCH  50  53
ENDBRANCH  47  50
ENDBRANCH   5  47
BRANCH   4  71
ATOM     71  N   UNL     1      12.087  31.186  23.041  1.00  0.00    -0.348 N 
ATOM     72  C   UNL     1      10.811  31.126  23.648  1.00  0.00     0.217 C 
ATOM     73  H   UNL     1      12.333  32.139  22.637  1.00  0.00     0.163 HD
ATOM     74  C   UNL     1       9.903  32.303  23.712  1.00  0.00     0.114 C 
ATOM     75  O   UNL     1      10.426  30.057  24.149  1.00  0.00    -0.275 OA
ENDBRANCH   4  71
TORSDOF 32
