REMARK VINA RESULT:    -5.797      3.605     10.695
REMARK INTER + INTRA:         -20.235
REMARK INTER:                 -12.949
REMARK INTRA:                  -7.286
REMARK UNBOUND:                -5.964
REMARK SMILES CC(=O)N[C@@H]1[C@@H](O)C[C@](OC[C@H]2O[C@@H](O[C@H]3[C@H](O)[C@@H](O)[C@H](OCCN=[N+]=[N-])O[C@@H]3CO)[C@H](O)[C@@H](O)[C@H]2O)(C(=O)O)O[C@H]1C(O)[C@H](O)CNC(=O)OCc1cn(C2CCN(C)CC2)nn1
REMARK SMILES IDX 9 1 8 2 6 3 5 4 42 5 41 6 10 7 11 8 12 9 14 10 13 11 32 12
REMARK SMILES IDX 34 13 36 14 15 15 16 16 29 17 28 18 21 19 17 20 19 21 30 22
REMARK SMILES IDX 31 23 22 25 23 26 24 27 25 28 26 29 27 30 18 31 20 33 33 35
REMARK SMILES IDX 35 37 37 39 38 41 39 42 40 43 7 45 43 47 44 48 45 50 46 51
REMARK SMILES IDX 47 53 48 54 49 55 50 57 51 58 52 59 53 60 54 61 64 62 55 63
REMARK SMILES IDX 63 64 56 65 57 66 62 67 58 68 61 69 59 70 60 71 4 72 2 73
REMARK SMILES IDX 1 75 3 76
REMARK H PARENT 31 24 18 32 20 34 33 36 35 38 37 40 40 44 7 46 44 49 46 52
REMARK H PARENT 48 56 4 74
REMARK Flexibility Score: inf
ROOT
ATOM      1  C   UNL     1      22.645  22.858  12.489  1.00  0.00     0.272 C 
ATOM      2  C   UNL     1      21.129  22.788  12.445  1.00  0.00     0.113 C 
ATOM      3  C   UNL     1      20.548  21.614  11.773  1.00  0.00     0.145 C 
ATOM      4  C   UNL     1      21.279  20.313  12.020  1.00  0.00     0.142 C 
ATOM      5  C   UNL     1      22.683  20.498  12.450  1.00  0.00     0.178 C 
ATOM      6  O   UNL     1      23.071  21.614  13.055  1.00  0.00    -0.332 OA
ENDROOT
BRANCH   1   7
ATOM      7  O   UNL     1      23.000  23.741  13.435  1.00  0.00    -0.338 OA
BRANCH   7   8
ATOM      8  C   UNL     1      23.777  23.675  14.463  1.00  0.00     0.199 C 
BRANCH   8   9
ATOM      9  C   UNL     1      24.969  24.556  14.678  1.00  0.00     0.179 C 
ATOM     10  C   UNL     1      25.765  24.186  16.898  1.00  0.00     0.282 C 
ATOM     11  O   UNL     1      24.995  24.859  16.011  1.00  0.00    -0.341 OA
ATOM     12  C   UNL     1      26.518  23.062  16.331  1.00  0.00     0.202 C 
ATOM     13  C   UNL     1      27.280  23.638  15.125  1.00  0.00     0.179 C 
ATOM     14  C   UNL     1      26.242  24.007  14.128  1.00  0.00     0.177 C 
BRANCH  10  15
ATOM     15  O   UNL     1      24.913  23.931  17.965  1.00  0.00    -0.341 OA
BRANCH  15  16
ATOM     16  C   UNL     1      24.520  24.967  18.708  1.00  0.00     0.184 C 
ATOM     17  C   UNL     1      24.902  24.789  20.137  1.00  0.00     0.178 C 
ATOM     18  O   UNL     1      24.858  26.038  20.768  1.00  0.00    -0.341 OA
ATOM     19  C   UNL     1      23.558  26.478  20.842  1.00  0.00     0.281 C 
ATOM     20  C   UNL     1      22.996  25.157  18.757  1.00  0.00     0.180 C 
ATOM     21  C   UNL     1      22.801  26.452  19.541  1.00  0.00     0.202 C 
BRANCH  17  22
ATOM     22  C   UNL     1      26.190  24.078  20.370  1.00  0.00     0.191 C 
BRANCH  22  23
ATOM     23  O   UNL     1      27.163  25.010  20.703  1.00  0.00    -0.394 OA
ATOM     24  H   UNL     1      27.674  24.742  21.509  1.00  0.00     0.210 HD
ENDBRANCH  22  23
ENDBRANCH  17  22
BRANCH  19  25
ATOM     25  O   UNL     1      23.617  27.826  21.224  1.00  0.00    -0.350 OA
BRANCH  25  26
ATOM     26  C   UNL     1      24.587  28.550  20.580  1.00  0.00     0.169 C 
BRANCH  26  27
ATOM     27  C   UNL     1      25.397  29.437  21.503  1.00  0.00     0.119 C 
BRANCH  27  28
ATOM     28  N   UNL     1      26.705  28.865  21.759  1.00  0.00    -0.092 NA
ATOM     29  N   UNL     1      27.554  29.487  22.395  1.00  0.00     0.001 N 
ATOM     30  N   UNL     1      28.593  30.124  22.584  1.00  0.00    -0.003 NA
ENDBRANCH  27  28
ENDBRANCH  26  27
ENDBRANCH  25  26
ENDBRANCH  19  25
BRANCH  20  31
ATOM     31  O   UNL     1      22.438  25.358  17.523  1.00  0.00    -0.387 OA
ATOM     32  H   UNL     1      22.161  24.493  17.151  1.00  0.00     0.211 HD
ENDBRANCH  20  31
BRANCH  21  33
ATOM     33  O   UNL     1      21.462  26.651  19.763  1.00  0.00    -0.385 OA
ATOM     34  H   UNL     1      20.977  26.914  18.964  1.00  0.00     0.211 HD
ENDBRANCH  21  33
ENDBRANCH  15  16
ENDBRANCH  10  15
BRANCH  12  35
ATOM     35  O   UNL     1      27.537  22.564  17.141  1.00  0.00    -0.385 OA
ATOM     36  H   UNL     1      28.344  22.377  16.601  1.00  0.00     0.211 HD
ENDBRANCH  12  35
BRANCH  13  37
ATOM     37  O   UNL     1      28.216  22.766  14.628  1.00  0.00    -0.387 OA
ATOM     38  H   UNL     1      29.105  23.196  14.713  1.00  0.00     0.211 HD
ENDBRANCH  13  37
BRANCH  14  39
ATOM     39  O   UNL     1      25.953  22.883  13.358  1.00  0.00    -0.387 OA
ATOM     40  H   UNL     1      26.699  22.609  12.776  1.00  0.00     0.211 HD
ENDBRANCH  14  39
ENDBRANCH   8   9
ENDBRANCH   7   8
ENDBRANCH   1   7
BRANCH   1  41
ATOM     41  C   UNL     1      23.155  22.943  11.128  1.00  0.00     0.364 C 
ATOM     42  O   UNL     1      24.445  22.935  10.985  1.00  0.00    -0.246 OA
BRANCH  41  43
ATOM     43  O   UNL     1      22.500  23.038   9.930  1.00  0.00    -0.477 OA
ATOM     44  H   UNL     1      22.963  23.060   9.021  1.00  0.00     0.296 HD
ENDBRANCH  41  43
ENDBRANCH   1  41
BRANCH   3  45
ATOM     45  O   UNL     1      19.197  21.461  12.207  1.00  0.00    -0.391 OA
ATOM     46  H   UNL     1      18.584  21.955  11.624  1.00  0.00     0.211 HD
ENDBRANCH   3  45
BRANCH   5  47
ATOM     47  C   UNL     1      23.144  19.314  13.345  1.00  0.00     0.176 C 
BRANCH  47  48
ATOM     48  O   UNL     1      23.658  19.818  14.533  1.00  0.00    -0.388 OA
ATOM     49  H   UNL     1      24.354  20.493  14.395  1.00  0.00     0.211 HD
ENDBRANCH  47  48
BRANCH  47  50
ATOM     50  C   UNL     1      24.112  18.479  12.641  1.00  0.00     0.165 C 
BRANCH  50  51
ATOM     51  O   UNL     1      23.357  17.373  12.088  1.00  0.00    -0.388 OA
ATOM     52  H   UNL     1      23.409  17.413  11.103  1.00  0.00     0.211 HD
ENDBRANCH  50  51
BRANCH  50  53
ATOM     53  C   UNL     1      25.265  17.902  13.342  1.00  0.00     0.154 C 
BRANCH  53  54
ATOM     54  N   UNL     1      26.558  18.439  13.272  1.00  0.00    -0.319 N 
ATOM     55  C   UNL     1      27.071  19.545  13.992  1.00  0.00     0.407 C 
ATOM     56  H   UNL     1      27.249  17.966  12.594  1.00  0.00     0.167 HD
ATOM     57  O   UNL     1      26.378  20.151  14.834  1.00  0.00    -0.225 OA
BRANCH  55  58
ATOM     58  O   UNL     1      28.398  19.957  13.736  1.00  0.00    -0.443 OA
BRANCH  58  59
ATOM     59  C   UNL     1      29.453  19.264  14.354  1.00  0.00     0.294 C 
BRANCH  59  60
ATOM     60  C   UNL     1      29.724  19.891  15.670  1.00  0.00     0.120 A 
ATOM     61  C   UNL     1      29.678  19.240  16.916  1.00  0.00     0.138 A 
ATOM     62  N   UNL     1      30.070  21.148  15.981  1.00  0.00    -0.132 NA
ATOM     63  N   UNL     1      29.989  20.109  17.893  1.00  0.00    -0.249 N 
ATOM     64  N   UNL     1      30.220  21.251  17.301  1.00  0.00    -0.067 NA
BRANCH  63  65
ATOM     65  C   UNL     1      30.051  19.822  19.307  1.00  0.00     0.111 C 
ATOM     66  C   UNL     1      29.805  21.109  20.044  1.00  0.00     0.043 C 
ATOM     67  C   UNL     1      29.027  18.805  19.729  1.00  0.00     0.043 C 
ATOM     68  C   UNL     1      28.392  21.115  20.578  1.00  0.00     0.086 C 
ATOM     69  C   UNL     1      28.743  18.828  21.206  1.00  0.00     0.086 C 
ATOM     70  N   UNL     1      28.325  20.137  21.663  1.00  0.00    -0.306 NA
ATOM     71  C   UNL     1      29.224  20.584  22.713  1.00  0.00     0.105 C 
ENDBRANCH  63  65
ENDBRANCH  59  60
ENDBRANCH  58  59
ENDBRANCH  55  58
ENDBRANCH  53  54
ENDBRANCH  50  53
ENDBRANCH  47  50
ENDBRANCH   5  47
BRANCH   4  72
ATOM     72  N   UNL     1      21.186  19.424  10.879  1.00  0.00    -0.348 N 
ATOM     73  C   UNL     1      20.062  18.578  10.752  1.00  0.00     0.217 C 
ATOM     74  H   UNL     1      21.928  19.384  10.138  1.00  0.00     0.163 HD
ATOM     75  C   UNL     1      19.919  17.638   9.594  1.00  0.00     0.114 C 
ATOM     76  O   UNL     1      19.144  18.605  11.634  1.00  0.00    -0.275 OA
ENDBRANCH   4  72
TORSDOF 30
