REMARK VINA RESULT:    -7.270      0.000      0.000
REMARK INTER + INTRA:         -25.594
REMARK INTER:                 -17.575
REMARK INTRA:                  -8.019
REMARK UNBOUND:                -6.425
REMARK SMILES CC(=O)N[C@@H]1[C@@H](O)C[C@](OC[C@H]2O[C@@H](O[C@H]3[C@H](O)[C@@H](O)[C@H](OCCN=[N+]=[N-])O[C@@H]3CO)[C@H](O)[C@@H](O)[C@H]2O)(C(=O)O)O[C@H]1C(O)[C@H](O)CNC(=O)OCc1cn(-c2ccc(S(=O)(=O)Nc3nccs3)cc2)nn1
REMARK SMILES IDX 43 1 42 2 9 3 8 4 41 5 6 6 5 7 10 8 11 9 12 10 14 11 13 12
REMARK SMILES IDX 32 13 34 14 36 15 15 16 16 17 29 18 28 19 21 20 17 21 19 22
REMARK SMILES IDX 30 23 31 24 22 26 23 27 24 28 25 29 26 30 27 31 18 32 20 34
REMARK SMILES IDX 33 36 35 38 37 40 38 42 39 43 40 44 7 46 4 48 2 49 1 51 3 52
REMARK SMILES IDX 44 53 45 55 46 56 47 58 48 59 49 60 50 62 51 63 52 64 53 65
REMARK SMILES IDX 54 66 72 67 55 68 71 69 56 70 57 71 70 72 58 73 69 74 59 75
REMARK SMILES IDX 60 76 61 77 62 78 63 79 64 81 65 82 68 83 66 84 67 85
REMARK H PARENT 31 25 18 33 20 35 33 37 35 39 37 41 40 45 7 47 4 50 44 54
REMARK H PARENT 46 57 48 61 63 80
REMARK Flexibility Score: inf
ROOT
ATOM      1  C   UNL     1      25.463  25.876  22.284  1.00  0.00     0.176 C 
ENDROOT
BRANCH   1   2
ATOM      2  C   UNL     1      24.202  25.135  21.989  1.00  0.00     0.178 C 
ATOM      3  C   UNL     1      22.621  25.196  20.269  1.00  0.00     0.272 C 
ATOM      4  C   UNL     1      22.106  24.044  21.160  1.00  0.00     0.113 C 
ATOM      5  O   UNL     1      23.626  25.868  20.905  1.00  0.00    -0.332 OA
ATOM      6  C   UNL     1      21.937  24.432  22.579  1.00  0.00     0.145 C 
ATOM      7  C   UNL     1      23.151  25.224  23.070  1.00  0.00     0.142 C 
BRANCH   3   8
ATOM      8  O   UNL     1      21.603  26.079  20.010  1.00  0.00    -0.338 OA
BRANCH   8   9
ATOM      9  C   UNL     1      22.004  27.336  19.636  1.00  0.00     0.199 C 
BRANCH   9  10
ATOM     10  C   UNL     1      21.126  28.434  20.191  1.00  0.00     0.179 C 
ATOM     11  C   UNL     1      19.083  29.119  20.773  1.00  0.00     0.282 C 
ATOM     12  O   UNL     1      19.892  27.967  20.630  1.00  0.00    -0.341 OA
ATOM     13  C   UNL     1      19.476  29.751  22.086  1.00  0.00     0.202 C 
ATOM     14  C   UNL     1      20.815  29.177  22.560  1.00  0.00     0.179 C 
ATOM     15  C   UNL     1      21.779  29.100  21.392  1.00  0.00     0.177 C 
BRANCH  11  16
ATOM     16  O   UNL     1      17.759  28.840  20.747  1.00  0.00    -0.341 OA
BRANCH  16  17
ATOM     17  C   UNL     1      17.019  29.506  19.787  1.00  0.00     0.184 C 
ATOM     18  C   UNL     1      15.821  28.830  19.256  1.00  0.00     0.178 C 
ATOM     19  O   UNL     1      15.614  29.293  17.926  1.00  0.00    -0.341 OA
ATOM     20  C   UNL     1      16.523  28.690  17.046  1.00  0.00     0.281 C 
ATOM     21  C   UNL     1      17.910  29.991  18.651  1.00  0.00     0.180 C 
ATOM     22  C   UNL     1      17.942  28.997  17.489  1.00  0.00     0.202 C 
BRANCH  18  23
ATOM     23  C   UNL     1      14.512  29.201  19.953  1.00  0.00     0.191 C 
BRANCH  23  24
ATOM     24  O   UNL     1      14.162  28.371  20.974  1.00  0.00    -0.394 OA
ATOM     25  H   UNL     1      14.728  27.566  20.969  1.00  0.00     0.210 HD
ENDBRANCH  23  24
ENDBRANCH  18  23
BRANCH  20  26
ATOM     26  O   UNL     1      16.287  29.190  15.785  1.00  0.00    -0.350 OA
BRANCH  26  27
ATOM     27  C   UNL     1      14.975  29.458  15.490  1.00  0.00     0.169 C 
BRANCH  27  28
ATOM     28  C   UNL     1      14.478  28.756  14.248  1.00  0.00     0.119 C 
BRANCH  28  29
ATOM     29  N   UNL     1      13.039  28.759  14.303  1.00  0.00    -0.092 NA
ATOM     30  N   UNL     1      12.404  28.029  13.545  1.00  0.00     0.001 N 
ATOM     31  N   UNL     1      11.698  27.674  12.599  1.00  0.00    -0.003 NA
ENDBRANCH  28  29
ENDBRANCH  27  28
ENDBRANCH  26  27
ENDBRANCH  20  26
BRANCH  21  32
ATOM     32  O   UNL     1      17.442  31.196  18.131  1.00  0.00    -0.387 OA
ATOM     33  H   UNL     1      16.834  31.047  17.371  1.00  0.00     0.211 HD
ENDBRANCH  21  32
BRANCH  22  34
ATOM     34  O   UNL     1      18.670  27.861  17.813  1.00  0.00    -0.385 OA
ATOM     35  H   UNL     1      18.297  27.509  18.651  1.00  0.00     0.211 HD
ENDBRANCH  22  34
ENDBRANCH  16  17
ENDBRANCH  11  16
BRANCH  13  36
ATOM     36  O   UNL     1      19.742  31.137  21.952  1.00  0.00    -0.385 OA
ATOM     37  H   UNL     1      20.432  31.433  22.563  1.00  0.00     0.211 HD
ENDBRANCH  13  36
BRANCH  14  38
ATOM     38  O   UNL     1      20.629  27.954  23.188  1.00  0.00    -0.387 OA
ATOM     39  H   UNL     1      19.891  27.433  22.779  1.00  0.00     0.211 HD
ENDBRANCH  14  38
BRANCH  15  40
ATOM     40  O   UNL     1      22.904  28.409  21.814  1.00  0.00    -0.387 OA
ATOM     41  H   UNL     1      22.791  27.915  22.642  1.00  0.00     0.211 HD
ENDBRANCH  15  40
ENDBRANCH   9  10
ENDBRANCH   8   9
ENDBRANCH   3   8
BRANCH   3  42
ATOM     42  C   UNL     1      23.102  24.551  19.045  1.00  0.00     0.364 C 
ATOM     43  O   UNL     1      24.317  24.628  18.673  1.00  0.00    -0.246 OA
BRANCH  42  44
ATOM     44  O   UNL     1      22.278  23.815  18.211  1.00  0.00    -0.477 OA
ATOM     45  H   UNL     1      21.271  23.759  18.411  1.00  0.00     0.296 HD
ENDBRANCH  42  44
ENDBRANCH   3  42
BRANCH   6  46
ATOM     46  O   UNL     1      20.757  25.137  22.821  1.00  0.00    -0.391 OA
ATOM     47  H   UNL     1      19.995  24.510  22.824  1.00  0.00     0.211 HD
ENDBRANCH   6  46
BRANCH   7  48
ATOM     48  N   UNL     1      23.541  24.773  24.358  1.00  0.00    -0.348 N 
ATOM     49  C   UNL     1      23.359  25.611  25.494  1.00  0.00     0.217 C 
ATOM     50  H   UNL     1      23.961  23.837  24.513  1.00  0.00     0.163 HD
ATOM     51  C   UNL     1      23.734  25.220  26.863  1.00  0.00     0.114 C 
ATOM     52  O   UNL     1      22.842  26.769  25.331  1.00  0.00    -0.275 OA
ENDBRANCH   7  48
ENDBRANCH   1   2
BRANCH   1  53
ATOM     53  O   UNL     1      25.120  27.077  22.983  1.00  0.00    -0.388 OA
ATOM     54  H   UNL     1      25.175  27.849  22.391  1.00  0.00     0.211 HD
ENDBRANCH   1  53
BRANCH   1  55
ATOM     55  C   UNL     1      26.326  26.236  21.109  1.00  0.00     0.165 C 
BRANCH  55  56
ATOM     56  O   UNL     1      27.633  25.783  21.500  1.00  0.00    -0.388 OA
ATOM     57  H   UNL     1      27.631  25.617  22.478  1.00  0.00     0.211 HD
ENDBRANCH  55  56
BRANCH  55  58
ATOM     58  C   UNL     1      26.511  27.743  20.985  1.00  0.00     0.154 C 
BRANCH  58  59
ATOM     59  N   UNL     1      25.463  28.224  20.124  1.00  0.00    -0.319 N 
ATOM     60  C   UNL     1      25.541  28.202  18.706  1.00  0.00     0.407 C 
ATOM     61  H   UNL     1      24.559  28.625  20.536  1.00  0.00     0.167 HD
ATOM     62  O   UNL     1      26.535  27.738  18.134  1.00  0.00    -0.225 OA
BRANCH  60  63
ATOM     63  O   UNL     1      24.511  28.700  17.917  1.00  0.00    -0.443 OA
BRANCH  63  64
ATOM     64  C   UNL     1      24.366  28.517  16.536  1.00  0.00     0.294 C 
BRANCH  64  65
ATOM     65  C   UNL     1      23.565  27.347  16.141  1.00  0.00     0.121 A 
ATOM     66  C   UNL     1      24.053  26.158  15.590  1.00  0.00     0.144 A 
ATOM     67  N   UNL     1      22.249  27.158  16.222  1.00  0.00    -0.131 NA
ATOM     68  N   UNL     1      23.027  25.300  15.359  1.00  0.00    -0.220 N 
ATOM     69  N   UNL     1      21.941  25.938  15.754  1.00  0.00    -0.062 NA
BRANCH  68  70
ATOM     70  C   UNL     1      23.160  23.980  14.802  1.00  0.00     0.066 A 
ATOM     71  C   UNL     1      22.333  23.512  13.821  1.00  0.00     0.030 A 
ATOM     72  C   UNL     1      24.160  23.161  15.295  1.00  0.00     0.030 A 
ATOM     73  C   UNL     1      22.496  22.220  13.324  1.00  0.00     0.024 A 
ATOM     74  C   UNL     1      24.360  21.881  14.838  1.00  0.00     0.024 A 
ATOM     75  C   UNL     1      23.501  21.437  13.841  1.00  0.00     0.088 A 
BRANCH  75  76
ATOM     76  S   UNL     1      23.727  19.811  13.244  1.00  0.00     0.263 S 
ATOM     77  O   UNL     1      24.787  19.149  14.103  1.00  0.00    -0.201 OA
ATOM     78  O   UNL     1      24.283  19.930  11.853  1.00  0.00    -0.201 OA
BRANCH  76  79
ATOM     79  N   UNL     1      22.249  18.966  13.275  1.00  0.00    -0.255 N 
ATOM     80  H   UNL     1      21.962  18.511  14.159  1.00  0.00     0.182 HD
BRANCH  79  81
ATOM     81  C   UNL     1      21.466  18.902  12.134  1.00  0.00     0.196 A 
ATOM     82  N   UNL     1      21.479  18.383  10.969  1.00  0.00    -0.228 NA
ATOM     83  S   UNL     1      19.833  19.782  12.049  1.00  0.00    -0.105 S 
ATOM     84  C   UNL     1      20.568  18.503  10.075  1.00  0.00     0.125 A 
ATOM     85  C   UNL     1      19.452  19.248  10.345  1.00  0.00     0.089 A 
ENDBRANCH  79  81
ENDBRANCH  76  79
ENDBRANCH  75  76
ENDBRANCH  68  70
ENDBRANCH  64  65
ENDBRANCH  63  64
ENDBRANCH  60  63
ENDBRANCH  58  59
ENDBRANCH  55  58
ENDBRANCH   1  55
TORSDOF 33
