REMARK VINA RESULT:    -6.721      3.262      8.225
REMARK INTER + INTRA:         -21.561
REMARK INTER:                 -14.277
REMARK INTRA:                  -7.285
REMARK UNBOUND:                -5.017
REMARK SMILES CC(=O)N[C@@H]1[C@@H](O)C[C@](OC[C@H]2O[C@@H](O[C@H]3[C@H](O)[C@@H](O)[C@H](OCCN=[N+]=[N-])O[C@@H]3CO)[C@H](O)[C@@H](O)[C@H]2O)(C(=O)O)O[C@H]1C(O)[C@H](O)CNC(=O)OCc1cn(C2CCCCC2)nn1
REMARK SMILES IDX 9 1 8 2 6 3 5 4 42 5 41 6 10 7 11 8 12 9 14 10 13 11 32 12
REMARK SMILES IDX 34 13 36 14 15 15 16 16 29 17 28 18 21 19 17 20 19 21 30 22
REMARK SMILES IDX 31 23 22 25 23 26 24 27 25 28 26 29 27 30 18 31 20 33 33 35
REMARK SMILES IDX 35 37 37 39 38 41 39 42 40 43 7 45 43 47 44 48 45 50 46 51
REMARK SMILES IDX 47 53 48 54 49 55 50 57 51 58 52 59 53 60 54 61 63 62 55 63
REMARK SMILES IDX 62 64 56 65 57 66 61 67 58 68 60 69 59 70 4 71 2 72 1 74
REMARK SMILES IDX 3 75
REMARK H PARENT 31 24 18 32 20 34 33 36 35 38 37 40 40 44 7 46 44 49 46 52
REMARK H PARENT 48 56 4 73
REMARK Flexibility Score: inf
ROOT
ATOM      1  C   UNL     1      23.089  25.360  20.945  1.00  0.00     0.272 C 
ATOM      2  C   UNL     1      22.446  24.102  21.639  1.00  0.00     0.113 C 
ATOM      3  C   UNL     1      21.566  24.553  22.764  1.00  0.00     0.145 C 
ATOM      4  C   UNL     1      22.330  25.412  23.737  1.00  0.00     0.142 C 
ATOM      5  C   UNL     1      23.310  26.324  23.087  1.00  0.00     0.178 C 
ATOM      6  O   UNL     1      23.710  26.139  21.845  1.00  0.00    -0.332 OA
ENDROOT
BRANCH   1   7
ATOM      7  O   UNL     1      22.051  25.940  20.358  1.00  0.00    -0.338 OA
BRANCH   7   8
ATOM      8  C   UNL     1      21.695  27.157  20.122  1.00  0.00     0.199 C 
BRANCH   8   9
ATOM      9  C   UNL     1      21.978  27.855  18.802  1.00  0.00     0.179 C 
ATOM     10  C   UNL     1      20.414  29.227  17.720  1.00  0.00     0.282 C 
ATOM     11  O   UNL     1      20.881  27.949  18.009  1.00  0.00    -0.341 OA
ATOM     12  C   UNL     1      21.517  30.044  17.161  1.00  0.00     0.202 C 
ATOM     13  C   UNL     1      22.779  30.016  17.987  1.00  0.00     0.179 C 
ATOM     14  C   UNL     1      22.564  29.205  19.207  1.00  0.00     0.177 C 
BRANCH  10  15
ATOM     15  O   UNL     1      19.738  29.669  18.797  1.00  0.00    -0.341 OA
BRANCH  15  16
ATOM     16  C   UNL     1      18.382  29.686  18.798  1.00  0.00     0.184 C 
ATOM     17  C   UNL     1      17.927  30.452  20.023  1.00  0.00     0.178 C 
ATOM     18  O   UNL     1      16.585  30.776  19.975  1.00  0.00    -0.341 OA
ATOM     19  C   UNL     1      15.822  29.931  19.213  1.00  0.00     0.281 C 
ATOM     20  C   UNL     1      17.748  28.318  18.935  1.00  0.00     0.180 C 
ATOM     21  C   UNL     1      16.292  28.525  19.282  1.00  0.00     0.202 C 
BRANCH  17  22
ATOM     22  C   UNL     1      18.803  31.624  20.360  1.00  0.00     0.191 C 
BRANCH  22  23
ATOM     23  O   UNL     1      19.739  31.193  21.300  1.00  0.00    -0.394 OA
ATOM     24  H   UNL     1      19.356  30.545  21.938  1.00  0.00     0.210 HD
ENDBRANCH  22  23
ENDBRANCH  17  22
BRANCH  19  25
ATOM     25  O   UNL     1      15.660  30.462  17.961  1.00  0.00    -0.350 OA
BRANCH  25  26
ATOM     26  C   UNL     1      15.027  29.623  17.058  1.00  0.00     0.169 C 
BRANCH  26  27
ATOM     27  C   UNL     1      15.143  30.069  15.626  1.00  0.00     0.119 C 
BRANCH  27  28
ATOM     28  N   UNL     1      15.177  28.889  14.786  1.00  0.00    -0.092 NA
ATOM     29  N   UNL     1      14.144  28.645  14.147  1.00  0.00     0.001 N 
ATOM     30  N   UNL     1      13.098  28.017  13.904  1.00  0.00    -0.003 NA
ENDBRANCH  27  28
ENDBRANCH  26  27
ENDBRANCH  25  26
ENDBRANCH  19  25
BRANCH  20  31
ATOM     31  O   UNL     1      17.818  27.558  17.793  1.00  0.00    -0.387 OA
ATOM     32  H   UNL     1      17.512  26.627  17.923  1.00  0.00     0.211 HD
ENDBRANCH  20  31
BRANCH  21  33
ATOM     33  O   UNL     1      16.154  28.114  20.631  1.00  0.00    -0.385 OA
ATOM     34  H   UNL     1      16.035  28.897  21.221  1.00  0.00     0.211 HD
ENDBRANCH  21  33
ENDBRANCH  15  16
ENDBRANCH  10  15
BRANCH  12  35
ATOM     35  O   UNL     1      21.854  29.447  15.918  1.00  0.00    -0.385 OA
ATOM     36  H   UNL     1      21.468  29.943  15.163  1.00  0.00     0.211 HD
ENDBRANCH  12  35
BRANCH  13  37
ATOM     37  O   UNL     1      23.181  31.319  18.341  1.00  0.00    -0.387 OA
ATOM     38  H   UNL     1      22.983  31.460  19.280  1.00  0.00     0.211 HD
ENDBRANCH  13  37
BRANCH  14  39
ATOM     39  O   UNL     1      21.902  29.804  20.243  1.00  0.00    -0.387 OA
ATOM     40  H   UNL     1      21.094  30.240  19.883  1.00  0.00     0.211 HD
ENDBRANCH  14  39
ENDBRANCH   8   9
ENDBRANCH   7   8
ENDBRANCH   1   7
BRANCH   1  41
ATOM     41  C   UNL     1      24.151  24.743  20.076  1.00  0.00     0.364 C 
ATOM     42  O   UNL     1      24.108  24.689  18.853  1.00  0.00    -0.246 OA
BRANCH  41  43
ATOM     43  O   UNL     1      25.294  24.178  20.677  1.00  0.00    -0.477 OA
ATOM     44  H   UNL     1      25.198  23.538  21.450  1.00  0.00     0.296 HD
ENDBRANCH  41  43
ENDBRANCH   1  41
BRANCH   3  45
ATOM     45  O   UNL     1      20.419  25.182  22.296  1.00  0.00    -0.391 OA
ATOM     46  H   UNL     1      20.624  25.544  21.386  1.00  0.00     0.211 HD
ENDBRANCH   3  45
BRANCH   5  47
ATOM     47  C   UNL     1      22.806  27.797  23.185  1.00  0.00     0.176 C 
BRANCH  47  48
ATOM     48  O   UNL     1      22.301  28.008  24.483  1.00  0.00    -0.388 OA
ATOM     49  H   UNL     1      21.549  28.633  24.481  1.00  0.00     0.211 HD
ENDBRANCH  47  48
BRANCH  47  50
ATOM     50  C   UNL     1      23.876  28.772  22.833  1.00  0.00     0.165 C 
BRANCH  50  51
ATOM     51  O   UNL     1      25.065  28.296  23.435  1.00  0.00    -0.388 OA
ATOM     52  H   UNL     1      25.497  27.611  22.889  1.00  0.00     0.211 HD
ENDBRANCH  50  51
BRANCH  50  53
ATOM     53  C   UNL     1      23.696  30.168  23.299  1.00  0.00     0.154 C 
BRANCH  53  54
ATOM     54  N   UNL     1      22.379  30.723  23.125  1.00  0.00    -0.319 N 
ATOM     55  C   UNL     1      21.535  31.081  24.210  1.00  0.00     0.407 C 
ATOM     56  H   UNL     1      22.022  30.876  22.166  1.00  0.00     0.167 HD
ATOM     57  O   UNL     1      21.927  30.918  25.392  1.00  0.00    -0.225 OA
BRANCH  55  58
ATOM     58  O   UNL     1      20.287  31.605  24.016  1.00  0.00    -0.443 OA
BRANCH  58  59
ATOM     59  C   UNL     1      19.233  31.641  24.947  1.00  0.00     0.294 C 
BRANCH  59  60
ATOM     60  C   UNL     1      18.054  30.966  24.362  1.00  0.00     0.120 A 
ATOM     61  C   UNL     1      16.786  31.462  24.467  1.00  0.00     0.138 A 
ATOM     62  N   UNL     1      17.976  29.824  23.671  1.00  0.00    -0.132 NA
ATOM     63  N   UNL     1      15.944  30.612  23.835  1.00  0.00    -0.249 N 
ATOM     64  N   UNL     1      16.698  29.623  23.360  1.00  0.00    -0.067 NA
BRANCH  63  65
ATOM     65  C   UNL     1      14.508  30.765  23.714  1.00  0.00     0.109 C 
ATOM     66  C   UNL     1      13.903  29.770  24.700  1.00  0.00     0.027 C 
ATOM     67  C   UNL     1      14.053  30.391  22.322  1.00  0.00     0.027 C 
ATOM     68  C   UNL     1      12.383  29.934  24.700  1.00  0.00     0.002 C 
ATOM     69  C   UNL     1      12.934  29.370  22.330  1.00  0.00     0.002 C 
ATOM     70  C   UNL     1      11.868  29.766  23.307  1.00  0.00     0.000 C 
ENDBRANCH  63  65
ENDBRANCH  59  60
ENDBRANCH  58  59
ENDBRANCH  55  58
ENDBRANCH  53  54
ENDBRANCH  50  53
ENDBRANCH  47  50
ENDBRANCH   5  47
BRANCH   4  71
ATOM     71  N   UNL     1      22.877  24.638  24.821  1.00  0.00    -0.348 N 
ATOM     72  C   UNL     1      22.701  24.934  26.182  1.00  0.00     0.217 C 
ATOM     73  H   UNL     1      23.467  23.765  24.632  1.00  0.00     0.163 HD
ATOM     74  C   UNL     1      23.290  24.072  27.264  1.00  0.00     0.114 C 
ATOM     75  O   UNL     1      22.055  25.914  26.551  1.00  0.00    -0.275 OA
ENDBRANCH   4  71
TORSDOF 30
