REMARK VINA RESULT:    -5.457      8.324     12.042
REMARK INTER + INTRA:         -20.201
REMARK INTER:                 -13.158
REMARK INTRA:                  -7.043
REMARK UNBOUND:                -6.769
REMARK SMILES CC(=O)N[C@@H]1[C@@H](O)C[C@](OC[C@H]2O[C@@H](O[C@H]3[C@H](O)[C@@H](O)[C@H](OCCN=[N+]=[N-])O[C@@H]3CO)[C@H](O)[C@@H](O)[C@H]2O)(C(=O)O)O[C@H]1C(O)[C@H](O)CNC(=O)OCc1cn(-c2cccnc2)nn1
REMARK SMILES IDX 9 1 8 2 6 3 5 4 42 5 41 6 10 7 11 8 12 9 14 10 13 11 32 12
REMARK SMILES IDX 34 13 36 14 15 15 16 16 29 17 28 18 21 19 17 20 19 21 30 22
REMARK SMILES IDX 31 23 22 25 23 26 24 27 25 28 26 29 27 30 18 31 20 33 33 35
REMARK SMILES IDX 35 37 37 39 38 41 39 42 40 43 7 45 43 47 44 48 45 50 46 51
REMARK SMILES IDX 47 53 48 54 49 55 50 57 51 58 52 59 53 60 54 61 63 62 55 63
REMARK SMILES IDX 62 64 56 65 57 66 61 67 58 68 60 69 59 70 4 71 2 72 1 74
REMARK SMILES IDX 3 75
REMARK H PARENT 31 24 18 32 20 34 33 36 35 38 37 40 40 44 7 46 44 49 46 52
REMARK H PARENT 48 56 4 73
REMARK Flexibility Score: inf
ROOT
ATOM      1  C   UNL     1      23.965  24.561  15.101  1.00  0.00     0.272 C 
ATOM      2  C   UNL     1      23.731  23.175  15.547  1.00  0.00     0.113 C 
ATOM      3  C   UNL     1      23.063  22.351  14.502  1.00  0.00     0.145 C 
ATOM      4  C   UNL     1      23.561  22.607  13.102  1.00  0.00     0.142 C 
ATOM      5  C   UNL     1      24.635  23.633  13.034  1.00  0.00     0.178 C 
ATOM      6  O   UNL     1      24.357  24.763  13.790  1.00  0.00    -0.332 OA
ENDROOT
BRANCH   1   7
ATOM      7  O   UNL     1      24.944  25.203  15.857  1.00  0.00    -0.338 OA
BRANCH   7   8
ATOM      8  C   UNL     1      25.027  24.869  17.171  1.00  0.00     0.199 C 
BRANCH   8   9
ATOM      9  C   UNL     1      26.339  25.473  17.707  1.00  0.00     0.179 C 
ATOM     10  C   UNL     1      25.979  24.908  19.951  1.00  0.00     0.282 C 
ATOM     11  O   UNL     1      26.188  25.864  18.981  1.00  0.00    -0.341 OA
ATOM     12  C   UNL     1      26.875  23.739  19.730  1.00  0.00     0.202 C 
ATOM     13  C   UNL     1      28.049  24.213  18.860  1.00  0.00     0.179 C 
ATOM     14  C   UNL     1      27.512  24.537  17.474  1.00  0.00     0.177 C 
BRANCH  10  15
ATOM     15  O   UNL     1      24.619  24.607  19.919  1.00  0.00    -0.341 OA
BRANCH  15  16
ATOM     16  C   UNL     1      23.835  25.456  20.628  1.00  0.00     0.184 C 
ATOM     17  C   UNL     1      23.751  25.200  22.101  1.00  0.00     0.178 C 
ATOM     18  O   UNL     1      23.424  26.410  22.715  1.00  0.00    -0.341 OA
ATOM     19  C   UNL     1      22.414  27.110  22.064  1.00  0.00     0.281 C 
ATOM     20  C   UNL     1      22.382  25.469  20.163  1.00  0.00     0.180 C 
ATOM     21  C   UNL     1      21.543  26.229  21.199  1.00  0.00     0.202 C 
BRANCH  17  22
ATOM     22  C   UNL     1      24.960  24.630  22.746  1.00  0.00     0.191 C 
BRANCH  22  23
ATOM     23  O   UNL     1      25.003  23.262  22.677  1.00  0.00    -0.394 OA
ATOM     24  H   UNL     1      25.004  22.913  23.604  1.00  0.00     0.210 HD
ENDBRANCH  22  23
ENDBRANCH  17  22
BRANCH  19  25
ATOM     25  O   UNL     1      22.870  28.158  21.317  1.00  0.00    -0.350 OA
BRANCH  25  26
ATOM     26  C   UNL     1      22.119  29.271  21.186  1.00  0.00     0.169 C 
BRANCH  26  27
ATOM     27  C   UNL     1      21.707  29.695  19.821  1.00  0.00     0.119 C 
BRANCH  27  28
ATOM     28  N   UNL     1      20.771  28.867  19.142  1.00  0.00    -0.092 NA
ATOM     29  N   UNL     1      19.587  28.738  19.519  1.00  0.00     0.001 N 
ATOM     30  N   UNL     1      18.681  28.268  20.229  1.00  0.00    -0.003 NA
ENDBRANCH  27  28
ENDBRANCH  26  27
ENDBRANCH  25  26
ENDBRANCH  19  25
BRANCH  20  31
ATOM     31  O   UNL     1      22.287  26.172  18.970  1.00  0.00    -0.387 OA
ATOM     32  H   UNL     1      21.800  27.032  19.068  1.00  0.00     0.211 HD
ENDBRANCH  20  31
BRANCH  21  33
ATOM     33  O   UNL     1      20.789  25.362  21.986  1.00  0.00    -0.385 OA
ATOM     34  H   UNL     1      21.386  24.647  22.317  1.00  0.00     0.211 HD
ENDBRANCH  21  33
ENDBRANCH  15  16
ENDBRANCH  10  15
BRANCH  12  35
ATOM     35  O   UNL     1      27.486  23.379  20.946  1.00  0.00    -0.385 OA
ATOM     36  H   UNL     1      27.268  24.087  21.626  1.00  0.00     0.211 HD
ENDBRANCH  12  35
BRANCH  13  37
ATOM     37  O   UNL     1      29.087  23.319  18.832  1.00  0.00    -0.387 OA
ATOM     38  H   UNL     1      28.749  22.405  19.006  1.00  0.00     0.211 HD
ENDBRANCH  13  37
BRANCH  14  39
ATOM     39  O   UNL     1      27.163  23.391  16.789  1.00  0.00    -0.387 OA
ATOM     40  H   UNL     1      26.917  22.701  17.463  1.00  0.00     0.211 HD
ENDBRANCH  14  39
ENDBRANCH   8   9
ENDBRANCH   7   8
ENDBRANCH   1   7
BRANCH   1  41
ATOM     41  C   UNL     1      22.674  25.320  15.333  1.00  0.00     0.364 C 
ATOM     42  O   UNL     1      22.437  26.314  14.627  1.00  0.00    -0.246 OA
BRANCH  41  43
ATOM     43  O   UNL     1      21.757  24.958  16.288  1.00  0.00    -0.477 OA
ATOM     44  H   UNL     1      20.853  25.393  16.424  1.00  0.00     0.296 HD
ENDBRANCH  41  43
ENDBRANCH   1  41
BRANCH   3  45
ATOM     45  O   UNL     1      23.287  21.001  14.859  1.00  0.00    -0.391 OA
ATOM     46  H   UNL     1      23.262  20.405  14.086  1.00  0.00     0.211 HD
ENDBRANCH   3  45
BRANCH   5  47
ATOM     47  C   UNL     1      26.024  23.135  13.254  1.00  0.00     0.176 C 
BRANCH  47  48
ATOM     48  O   UNL     1      26.794  24.219  13.749  1.00  0.00    -0.388 OA
ATOM     49  H   UNL     1      27.720  23.893  13.925  1.00  0.00     0.211 HD
ENDBRANCH  47  48
BRANCH  47  50
ATOM     50  C   UNL     1      26.758  22.627  12.054  1.00  0.00     0.165 C 
BRANCH  50  51
ATOM     51  O   UNL     1      25.930  23.133  10.962  1.00  0.00    -0.388 OA
ATOM     52  H   UNL     1      25.575  23.991  11.300  1.00  0.00     0.211 HD
ENDBRANCH  50  51
BRANCH  50  53
ATOM     53  C   UNL     1      26.698  21.150  11.833  1.00  0.00     0.154 C 
BRANCH  53  54
ATOM     54  N   UNL     1      27.327  20.321  12.811  1.00  0.00    -0.319 N 
ATOM     55  C   UNL     1      26.480  19.487  13.631  1.00  0.00     0.407 C 
ATOM     56  H   UNL     1      28.323  20.237  12.988  1.00  0.00     0.167 HD
ATOM     57  O   UNL     1      25.248  19.534  13.438  1.00  0.00    -0.225 OA
BRANCH  55  58
ATOM     58  O   UNL     1      26.998  18.664  14.599  1.00  0.00    -0.443 OA
BRANCH  58  59
ATOM     59  C   UNL     1      28.330  18.826  15.021  1.00  0.00     0.294 C 
BRANCH  59  60
ATOM     60  C   UNL     1      28.332  19.342  16.406  1.00  0.00     0.121 A 
ATOM     61  C   UNL     1      28.930  18.820  17.530  1.00  0.00     0.144 A 
ATOM     62  N   UNL     1      27.712  20.483  16.834  1.00  0.00    -0.131 NA
ATOM     63  N   UNL     1      28.675  19.620  18.579  1.00  0.00    -0.219 N 
ATOM     64  N   UNL     1      27.936  20.615  18.125  1.00  0.00    -0.062 NA
BRANCH  63  65
ATOM     65  C   UNL     1      29.067  19.520  19.944  1.00  0.00     0.085 A 
ATOM     66  C   UNL     1      30.024  18.628  20.380  1.00  0.00     0.031 A 
ATOM     67  C   UNL     1      28.491  20.324  20.909  1.00  0.00     0.139 A 
ATOM     68  C   UNL     1      30.381  18.545  21.707  1.00  0.00     0.022 A 
ATOM     69  N   UNL     1      28.851  20.232  22.213  1.00  0.00    -0.262 NA
ATOM     70  C   UNL     1      29.783  19.362  22.639  1.00  0.00     0.111 A 
ENDBRANCH  63  65
ENDBRANCH  59  60
ENDBRANCH  58  59
ENDBRANCH  55  58
ENDBRANCH  53  54
ENDBRANCH  50  53
ENDBRANCH  47  50
ENDBRANCH   5  47
BRANCH   4  71
ATOM     71  N   UNL     1      22.457  22.987  12.225  1.00  0.00    -0.348 N 
ATOM     72  C   UNL     1      22.355  22.596  10.867  1.00  0.00     0.217 C 
ATOM     73  H   UNL     1      21.670  23.589  12.591  1.00  0.00     0.163 HD
ATOM     74  C   UNL     1      21.206  23.016  10.005  1.00  0.00     0.114 C 
ATOM     75  O   UNL     1      23.247  21.873  10.348  1.00  0.00    -0.275 OA
ENDBRANCH   4  71
TORSDOF 30
