REMARK VINA RESULT:    -6.445      9.345     14.306
REMARK INTER + INTRA:         -22.608
REMARK INTER:                 -15.124
REMARK INTRA:                  -7.484
REMARK UNBOUND:                -6.367
REMARK SMILES CC(=O)N[C@@H]1[C@@H](O)C[C@](OC[C@H]2O[C@@H](O[C@H]3[C@H](O)[C@@H](O)[C@H](OCCN=[N+]=[N-])O[C@@H]3CO)[C@H](O)[C@@H](O)[C@H]2O)(C(=O)O)O[C@H]1C(O)[C@H](O)CNC(=O)OCc1cn(-c2ncn3c2c(=O)n(C(C)C)c2ccccc23)nn1
REMARK SMILES IDX 9 1 8 2 6 3 5 4 42 5 41 6 10 7 11 8 12 9 14 10 13 11 32 12
REMARK SMILES IDX 34 13 36 14 15 15 16 16 29 17 28 18 21 19 17 20 19 21 30 22
REMARK SMILES IDX 31 23 22 25 23 26 24 27 25 28 26 29 27 30 18 31 20 33 33 35
REMARK SMILES IDX 35 37 37 39 38 41 39 42 40 43 7 45 43 47 44 48 45 50 46 51
REMARK SMILES IDX 47 53 48 54 49 55 50 57 51 58 52 59 53 60 54 61 74 62 55 63
REMARK SMILES IDX 73 64 56 65 57 66 60 67 58 68 59 69 61 70 72 71 63 72 62 73
REMARK SMILES IDX 71 74 67 75 70 76 68 77 69 78 64 79 65 80 66 81 4 82 2 83
REMARK SMILES IDX 1 85 3 86
REMARK H PARENT 31 24 18 32 20 34 33 36 35 38 37 40 40 44 7 46 44 49 46 52
REMARK H PARENT 48 56 4 84
REMARK Flexibility Score: inf
ROOT
ATOM      1  C   UNL     1      14.225  29.682  22.280  1.00  0.00     0.272 C 
ATOM      2  C   UNL     1      12.825  30.123  21.946  1.00  0.00     0.113 C 
ATOM      3  C   UNL     1      12.458  31.400  22.578  1.00  0.00     0.145 C 
ATOM      4  C   UNL     1      13.512  32.467  22.500  1.00  0.00     0.142 C 
ATOM      5  C   UNL     1      14.898  31.938  22.430  1.00  0.00     0.178 C 
ATOM      6  O   UNL     1      15.095  30.744  21.875  1.00  0.00    -0.332 OA
ENDROOT
BRANCH   1   7
ATOM      7  O   UNL     1      14.544  28.711  21.372  1.00  0.00    -0.338 OA
BRANCH   7   8
ATOM      8  C   UNL     1      14.455  28.780  20.074  1.00  0.00     0.199 C 
BRANCH   8   9
ATOM      9  C   UNL     1      15.499  28.372  19.092  1.00  0.00     0.179 C 
ATOM     10  C   UNL     1      16.366  29.200  17.095  1.00  0.00     0.282 C 
ATOM     11  O   UNL     1      15.455  29.405  18.098  1.00  0.00    -0.341 OA
ATOM     12  C   UNL     1      17.798  29.255  17.595  1.00  0.00     0.202 C 
ATOM     13  C   UNL     1      17.990  28.322  18.777  1.00  0.00     0.179 C 
ATOM     14  C   UNL     1      16.867  28.552  19.751  1.00  0.00     0.177 C 
BRANCH  10  15
ATOM     15  O   UNL     1      16.198  30.230  16.177  1.00  0.00    -0.341 OA
BRANCH  15  16
ATOM     16  C   UNL     1      15.866  29.741  14.940  1.00  0.00     0.184 C 
ATOM     17  C   UNL     1      15.716  30.850  13.963  1.00  0.00     0.178 C 
ATOM     18  O   UNL     1      14.435  31.274  13.717  1.00  0.00    -0.341 OA
ATOM     19  C   UNL     1      13.526  31.067  14.720  1.00  0.00     0.281 C 
ATOM     20  C   UNL     1      14.659  28.827  14.972  1.00  0.00     0.180 C 
ATOM     21  C   UNL     1      13.414  29.620  15.131  1.00  0.00     0.202 C 
BRANCH  17  22
ATOM     22  C   UNL     1      16.396  30.503  12.655  1.00  0.00     0.191 C 
BRANCH  22  23
ATOM     23  O   UNL     1      17.274  29.435  12.961  1.00  0.00    -0.394 OA
ATOM     24  H   UNL     1      18.069  29.567  12.396  1.00  0.00     0.210 HD
ENDBRANCH  22  23
ENDBRANCH  17  22
BRANCH  19  25
ATOM     25  O   UNL     1      12.262  31.416  14.213  1.00  0.00    -0.350 OA
BRANCH  25  26
ATOM     26  C   UNL     1      11.691  32.497  14.828  1.00  0.00     0.169 C 
BRANCH  26  27
ATOM     27  C   UNL     1      10.722  32.189  15.926  1.00  0.00     0.119 C 
BRANCH  27  28
ATOM     28  N   UNL     1      11.523  32.099  17.157  1.00  0.00    -0.092 NA
ATOM     29  N   UNL     1      12.082  33.045  17.667  1.00  0.00     0.001 N 
ATOM     30  N   UNL     1      12.903  33.861  18.099  1.00  0.00    -0.003 NA
ENDBRANCH  27  28
ENDBRANCH  26  27
ENDBRANCH  25  26
ENDBRANCH  19  25
BRANCH  20  31
ATOM     31  O   UNL     1      14.672  28.025  13.824  1.00  0.00    -0.387 OA
ATOM     32  H   UNL     1      14.888  28.655  13.075  1.00  0.00     0.211 HD
ENDBRANCH  20  31
BRANCH  21  33
ATOM     33  O   UNL     1      13.067  29.585  16.494  1.00  0.00    -0.385 OA
ATOM     34  H   UNL     1      12.798  30.481  16.826  1.00  0.00     0.211 HD
ENDBRANCH  21  33
ENDBRANCH  15  16
ENDBRANCH  10  15
BRANCH  12  35
ATOM     35  O   UNL     1      18.612  28.762  16.577  1.00  0.00    -0.385 OA
ATOM     36  H   UNL     1      18.815  27.804  16.690  1.00  0.00     0.211 HD
ENDBRANCH  12  35
BRANCH  13  37
ATOM     37  O   UNL     1      19.168  28.740  19.424  1.00  0.00    -0.387 OA
ATOM     38  H   UNL     1      19.648  29.408  18.861  1.00  0.00     0.211 HD
ENDBRANCH  13  37
BRANCH  14  39
ATOM     39  O   UNL     1      16.972  29.911  20.147  1.00  0.00    -0.387 OA
ATOM     40  H   UNL     1      17.257  29.968  21.090  1.00  0.00     0.211 HD
ENDBRANCH  14  39
ENDBRANCH   8   9
ENDBRANCH   7   8
ENDBRANCH   1   7
BRANCH   1  41
ATOM     41  C   UNL     1      14.471  29.438  23.694  1.00  0.00     0.364 C 
ATOM     42  O   UNL     1      15.574  29.503  24.236  1.00  0.00    -0.246 OA
BRANCH  41  43
ATOM     43  O   UNL     1      13.407  29.099  24.551  1.00  0.00    -0.477 OA
ATOM     44  H   UNL     1      13.115  28.132  24.624  1.00  0.00     0.296 HD
ENDBRANCH  41  43
ENDBRANCH   1  41
BRANCH   3  45
ATOM     45  O   UNL     1      11.286  31.858  21.920  1.00  0.00    -0.391 OA
ATOM     46  H   UNL     1      10.483  31.446  22.312  1.00  0.00     0.211 HD
ENDBRANCH   3  45
BRANCH   5  47
ATOM     47  C   UNL     1      15.864  32.934  21.813  1.00  0.00     0.176 C 
BRANCH  47  48
ATOM     48  O   UNL     1      15.839  34.111  22.528  1.00  0.00    -0.388 OA
ATOM     49  H   UNL     1      16.626  34.233  23.117  1.00  0.00     0.211 HD
ENDBRANCH  47  48
BRANCH  47  50
ATOM     50  C   UNL     1      15.648  33.190  20.363  1.00  0.00     0.165 C 
BRANCH  50  51
ATOM     51  O   UNL     1      15.069  32.180  19.642  1.00  0.00    -0.388 OA
ATOM     52  H   UNL     1      15.433  32.066  18.735  1.00  0.00     0.211 HD
ENDBRANCH  50  51
BRANCH  50  53
ATOM     53  C   UNL     1      16.862  33.706  19.652  1.00  0.00     0.154 C 
BRANCH  53  54
ATOM     54  N   UNL     1      18.047  32.920  20.016  1.00  0.00    -0.319 N 
ATOM     55  C   UNL     1      18.938  32.404  19.060  1.00  0.00     0.407 C 
ATOM     56  H   UNL     1      18.250  32.728  21.043  1.00  0.00     0.167 HD
ATOM     57  O   UNL     1      18.748  32.586  17.830  1.00  0.00    -0.225 OA
BRANCH  55  58
ATOM     58  O   UNL     1      20.049  31.679  19.515  1.00  0.00    -0.443 OA
BRANCH  58  59
ATOM     59  C   UNL     1      20.651  31.992  20.739  1.00  0.00     0.294 C 
BRANCH  59  60
ATOM     60  C   UNL     1      20.160  31.111  21.865  1.00  0.00     0.121 A 
ATOM     61  C   UNL     1      20.895  30.690  22.950  1.00  0.00     0.146 A 
ATOM     62  N   UNL     1      18.937  30.582  22.030  1.00  0.00    -0.131 NA
ATOM     63  N   UNL     1      20.109  29.914  23.754  1.00  0.00    -0.200 N 
ATOM     64  N   UNL     1      18.933  29.876  23.158  1.00  0.00    -0.060 NA
BRANCH  63  65
ATOM     65  C   UNL     1      20.519  29.301  24.976  1.00  0.00     0.186 A 
ATOM     66  N   UNL     1      20.473  29.888  26.183  1.00  0.00    -0.216 NA
ATOM     67  C   UNL     1      21.040  28.053  25.210  1.00  0.00     0.158 A 
ATOM     68  C   UNL     1      20.944  29.043  27.121  1.00  0.00     0.207 A 
ATOM     69  N   UNL     1      21.307  27.883  26.530  1.00  0.00    -0.291 N 
ATOM     70  C   UNL     1      21.305  27.035  24.331  1.00  0.00     0.279 A 
ATOM     71  C   UNL     1      21.827  26.736  27.001  1.00  0.00     0.071 A 
ATOM     72  N   UNL     1      21.830  25.865  24.777  1.00  0.00    -0.302 N 
ATOM     73  O   UNL     1      21.065  27.165  23.091  1.00  0.00    -0.267 OA
ATOM     74  C   UNL     1      22.101  26.565  28.331  1.00  0.00     0.029 A 
ATOM     75  C   UNL     1      22.085  25.729  26.097  1.00  0.00     0.068 A 
ATOM     76  C   UNL     1      22.650  25.370  28.821  1.00  0.00     0.002 A 
ATOM     77  C   UNL     1      22.625  24.554  26.584  1.00  0.00     0.028 A 
ATOM     78  C   UNL     1      22.912  24.356  27.929  1.00  0.00     0.002 A 
BRANCH  72  79
ATOM     79  C   UNL     1      22.105  24.774  23.840  1.00  0.00     0.085 C 
ATOM     80  C   UNL     1      20.910  24.344  23.056  1.00  0.00     0.031 C 
ATOM     81  C   UNL     1      23.339  25.030  23.011  1.00  0.00     0.031 C 
ENDBRANCH  72  79
ENDBRANCH  63  65
ENDBRANCH  59  60
ENDBRANCH  58  59
ENDBRANCH  55  58
ENDBRANCH  53  54
ENDBRANCH  50  53
ENDBRANCH  47  50
ENDBRANCH   5  47
BRANCH   4  82
ATOM     82  N   UNL     1      13.315  33.384  23.603  1.00  0.00    -0.348 N 
ATOM     83  C   UNL     1      13.127  32.964  24.940  1.00  0.00     0.217 C 
ATOM     84  H   UNL     1      13.307  34.417  23.424  1.00  0.00     0.163 HD
ATOM     85  C   UNL     1      12.924  33.920  26.068  1.00  0.00     0.114 C 
ATOM     86  O   UNL     1      13.133  31.720  25.172  1.00  0.00    -0.275 OA
ENDBRANCH   4  82
TORSDOF 31
