REMARK VINA RESULT:    -4.554      3.523      6.631
REMARK INTER + INTRA:         -20.600
REMARK INTER:                 -11.209
REMARK INTRA:                  -9.390
REMARK UNBOUND:                -9.390
REMARK SMILES CC(=O)N[C@@H]1[C@@H](O)C[C@](OC[C@H]2O[C@@H](O[C@H]3[C@H](O)[C@@H](O)[C@H](OCCN=[N+]=[N-])O[C@@H]3CO)[C@H](O)[C@@H](O)[C@H]2O)(C(=O)O)O[C@H]1C(O)[C@H](O)CNC(=O)OCc1cn(-c2ccncc2)nn1
REMARK SMILES IDX 9 1 8 2 6 3 5 4 42 5 41 6 10 7 11 8 12 9 14 10 13 11 32 12
REMARK SMILES IDX 34 13 36 14 15 15 16 16 29 17 28 18 21 19 17 20 19 21 30 22
REMARK SMILES IDX 31 23 22 25 23 26 24 27 25 28 26 29 27 30 18 31 20 33 33 35
REMARK SMILES IDX 35 37 37 39 38 41 39 42 40 43 7 45 43 47 44 48 45 50 46 51
REMARK SMILES IDX 47 53 48 54 49 55 50 57 51 58 52 59 53 60 54 61 63 62 55 63
REMARK SMILES IDX 62 64 56 65 57 66 61 67 58 68 60 69 59 70 4 71 2 72 1 74
REMARK SMILES IDX 3 75
REMARK H PARENT 31 24 18 32 20 34 33 36 35 38 37 40 40 44 7 46 44 49 46 52
REMARK H PARENT 48 56 4 73
REMARK Flexibility Score: inf
ROOT
ATOM      1  C   UNL     1      20.137  30.890  24.288  1.00  0.00     0.272 C 
ATOM      2  C   UNL     1      20.420  32.129  25.162  1.00  0.00     0.113 C 
ATOM      3  C   UNL     1      21.487  33.008  24.501  1.00  0.00     0.145 C 
ATOM      4  C   UNL     1      22.820  32.189  24.581  1.00  0.00     0.142 C 
ATOM      5  C   UNL     1      22.503  30.842  24.000  1.00  0.00     0.178 C 
ATOM      6  O   UNL     1      21.244  30.891  23.417  1.00  0.00    -0.332 OA
ENDROOT
BRANCH   1   7
ATOM      7  O   UNL     1      19.088  31.094  23.516  1.00  0.00    -0.338 OA
BRANCH   7   8
ATOM      8  C   UNL     1      17.949  31.629  23.472  1.00  0.00     0.199 C 
BRANCH   8   9
ATOM      9  C   UNL     1      16.880  31.129  22.549  1.00  0.00     0.179 C 
ATOM     10  C   UNL     1      16.696  29.438  20.928  1.00  0.00     0.282 C 
ATOM     11  O   UNL     1      17.512  30.052  21.850  1.00  0.00    -0.341 OA
ATOM     12  C   UNL     1      15.526  28.785  21.595  1.00  0.00     0.202 C 
ATOM     13  C   UNL     1      14.790  29.813  22.457  1.00  0.00     0.179 C 
ATOM     14  C   UNL     1      15.788  30.445  23.379  1.00  0.00     0.177 C 
BRANCH  10  15
ATOM     15  O   UNL     1      17.532  28.447  20.352  1.00  0.00    -0.341 OA
BRANCH  15  16
ATOM     16  C   UNL     1      18.463  28.951  19.508  1.00  0.00     0.184 C 
ATOM     17  C   UNL     1      18.347  28.479  18.115  1.00  0.00     0.178 C 
ATOM     18  O   UNL     1      19.282  29.143  17.293  1.00  0.00    -0.341 OA
ATOM     19  C   UNL     1      20.503  28.431  17.600  1.00  0.00     0.281 C 
ATOM     20  C   UNL     1      19.865  28.528  20.045  1.00  0.00     0.180 C 
ATOM     21  C   UNL     1      20.891  28.840  18.971  1.00  0.00     0.202 C 
BRANCH  17  22
ATOM     22  C   UNL     1      16.989  28.632  17.542  1.00  0.00     0.191 C 
BRANCH  22  23
ATOM     23  O   UNL     1      16.053  27.776  18.142  1.00  0.00    -0.394 OA
ATOM     24  H   UNL     1      16.423  27.540  19.043  1.00  0.00     0.210 HD
ENDBRANCH  22  23
ENDBRANCH  17  22
BRANCH  19  25
ATOM     25  O   UNL     1      21.400  28.867  16.664  1.00  0.00    -0.350 OA
BRANCH  25  26
ATOM     26  C   UNL     1      21.211  30.166  16.304  1.00  0.00     0.169 C 
BRANCH  26  27
ATOM     27  C   UNL     1      22.434  31.019  16.208  1.00  0.00     0.119 C 
BRANCH  27  28
ATOM     28  N   UNL     1      22.775  31.659  17.462  1.00  0.00    -0.092 NA
ATOM     29  N   UNL     1      23.539  31.184  18.292  1.00  0.00     0.001 N 
ATOM     30  N   UNL     1      24.098  30.515  19.166  1.00  0.00    -0.003 NA
ENDBRANCH  27  28
ENDBRANCH  26  27
ENDBRANCH  25  26
ENDBRANCH  19  25
BRANCH  20  31
ATOM     31  O   UNL     1      20.116  29.327  21.134  1.00  0.00    -0.387 OA
ATOM     32  H   UNL     1      20.078  28.800  21.994  1.00  0.00     0.211 HD
ENDBRANCH  20  31
BRANCH  21  33
ATOM     33  O   UNL     1      22.118  28.286  19.306  1.00  0.00    -0.385 OA
ATOM     34  H   UNL     1      22.133  27.339  19.012  1.00  0.00     0.211 HD
ENDBRANCH  21  33
ENDBRANCH  15  16
ENDBRANCH  10  15
BRANCH  12  35
ATOM     35  O   UNL     1      14.592  28.322  20.637  1.00  0.00    -0.385 OA
ATOM     36  H   UNL     1      13.960  29.068  20.507  1.00  0.00     0.211 HD
ENDBRANCH  12  35
BRANCH  13  37
ATOM     37  O   UNL     1      13.762  29.261  23.184  1.00  0.00    -0.387 OA
ATOM     38  H   UNL     1      13.543  28.336  22.846  1.00  0.00     0.211 HD
ENDBRANCH  13  37
BRANCH  14  39
ATOM     39  O   UNL     1      16.452  29.476  24.148  1.00  0.00    -0.387 OA
ATOM     40  H   UNL     1      16.414  29.741  25.117  1.00  0.00     0.211 HD
ENDBRANCH  14  39
ENDBRANCH   8   9
ENDBRANCH   7   8
ENDBRANCH   1   7
BRANCH   1  41
ATOM     41  C   UNL     1      20.078  29.675  25.107  1.00  0.00     0.364 C 
ATOM     42  O   UNL     1      20.212  29.709  26.374  1.00  0.00    -0.246 OA
BRANCH  41  43
ATOM     43  O   UNL     1      19.879  28.420  24.581  1.00  0.00    -0.477 OA
ATOM     44  H   UNL     1      19.138  27.791  24.805  1.00  0.00     0.296 HD
ENDBRANCH  41  43
ENDBRANCH   1  41
BRANCH   3  45
ATOM     45  O   UNL     1      21.193  33.172  23.175  1.00  0.00    -0.391 OA
ATOM     46  H   UNL     1      20.247  33.364  23.023  1.00  0.00     0.211 HD
ENDBRANCH   3  45
BRANCH   5  47
ATOM     47  C   UNL     1      23.394  30.467  22.808  1.00  0.00     0.176 C 
BRANCH  47  48
ATOM     48  O   UNL     1      22.560  30.933  21.700  1.00  0.00    -0.388 OA
ATOM     49  H   UNL     1      21.734  31.324  22.116  1.00  0.00     0.211 HD
ENDBRANCH  47  48
BRANCH  47  50
ATOM     50  C   UNL     1      23.650  29.042  22.580  1.00  0.00     0.165 C 
BRANCH  50  51
ATOM     51  O   UNL     1      22.679  28.296  21.956  1.00  0.00    -0.388 OA
ATOM     52  H   UNL     1      22.201  28.826  21.265  1.00  0.00     0.211 HD
ENDBRANCH  50  51
BRANCH  50  53
ATOM     53  C   UNL     1      24.476  28.355  23.597  1.00  0.00     0.154 C 
BRANCH  53  54
ATOM     54  N   UNL     1      24.177  26.966  23.820  1.00  0.00    -0.319 N 
ATOM     55  C   UNL     1      23.098  26.575  24.650  1.00  0.00     0.407 C 
ATOM     56  H   UNL     1      24.789  26.266  23.365  1.00  0.00     0.167 HD
ATOM     57  O   UNL     1      22.420  27.488  25.172  1.00  0.00    -0.225 OA
BRANCH  55  58
ATOM     58  O   UNL     1      22.758  25.278  24.910  1.00  0.00    -0.443 OA
BRANCH  58  59
ATOM     59  C   UNL     1      21.865  24.483  24.159  1.00  0.00     0.294 C 
BRANCH  59  60
ATOM     60  C   UNL     1      21.959  24.776  22.691  1.00  0.00     0.121 A 
ATOM     61  C   UNL     1      22.897  24.361  21.772  1.00  0.00     0.144 A 
ATOM     62  N   UNL     1      21.089  25.543  21.991  1.00  0.00    -0.131 NA
ATOM     63  N   UNL     1      22.582  24.872  20.568  1.00  0.00    -0.220 N 
ATOM     64  N   UNL     1      21.470  25.592  20.728  1.00  0.00    -0.062 NA
BRANCH  63  65
ATOM     65  C   UNL     1      23.317  24.667  19.370  1.00  0.00     0.069 A 
ATOM     66  C   UNL     1      22.744  24.376  18.150  1.00  0.00     0.048 A 
ATOM     67  C   UNL     1      24.689  24.770  19.427  1.00  0.00     0.048 A 
ATOM     68  C   UNL     1      23.500  24.189  17.004  1.00  0.00     0.113 A 
ATOM     69  C   UNL     1      25.436  24.581  18.277  1.00  0.00     0.113 A 
ATOM     70  N   UNL     1      24.844  24.300  17.109  1.00  0.00    -0.265 NA
ENDBRANCH  63  65
ENDBRANCH  59  60
ENDBRANCH  58  59
ENDBRANCH  55  58
ENDBRANCH  53  54
ENDBRANCH  50  53
ENDBRANCH  47  50
ENDBRANCH   5  47
BRANCH   4  71
ATOM     71  N   UNL     1      23.091  32.167  25.998  1.00  0.00    -0.348 N 
ATOM     72  C   UNL     1      24.353  31.901  26.573  1.00  0.00     0.217 C 
ATOM     73  H   UNL     1      22.314  32.357  26.657  1.00  0.00     0.163 HD
ATOM     74  C   UNL     1      24.510  31.905  28.035  1.00  0.00     0.114 C 
ATOM     75  O   UNL     1      25.336  31.663  25.844  1.00  0.00    -0.275 OA
ENDBRANCH   4  71
TORSDOF 30
