REMARK VINA RESULT:    -4.768      3.386      5.377
REMARK INTER + INTRA:         -21.352
REMARK INTER:                 -15.079
REMARK INTRA:                  -6.273
REMARK UNBOUND:                -8.780
REMARK SMILES COc1ccc(Cn2cc(COC(=O)NC[C@@H](O)C(O)[C@@H]3O[C@@](OC[C@H]4O[C@@H](O[C@H]5[C@H](O)[C@@H](O)[C@H](OCCN=[N+]=[N-])O[C@@H]5CO)[C@H](O)[C@@H](O)[C@H]4O)(C(=O)O)C[C@H](O)[C@H]3NC(C)=O)nn2)cc1OC
REMARK SMILES IDX 23 1 55 2 56 3 58 4 21 5 22 6 24 7 25 8 26 9 28 10 27 11
REMARK SMILES IDX 46 12 48 13 50 14 29 15 30 16 43 17 42 18 35 19 31 20 33 21
REMARK SMILES IDX 44 22 45 23 36 25 37 26 38 27 39 28 40 29 41 30 32 31 34 33
REMARK SMILES IDX 47 35 49 37 51 39 52 41 53 42 54 43 57 45 19 47 20 48 17 50
REMARK SMILES IDX 18 51 16 53 15 54 13 55 14 57 12 58 11 59 10 60 9 61 63 62
REMARK SMILES IDX 8 63 64 64 7 65 6 66 65 67 5 68 66 69 4 70 3 71 67 72 68 73
REMARK SMILES IDX 2 74 1 75 59 76 60 77 61 79 62 80
REMARK H PARENT 45 24 32 32 34 34 47 36 49 38 51 40 54 44 57 46 20 49 18 52
REMARK H PARENT 15 56 59 78
REMARK Flexibility Score: inf
ROOT
ATOM      1  C   UNL     1      22.423  25.912  21.050  1.00  0.00     0.272 C 
ATOM      2  C   UNL     1      21.696  24.709  21.625  1.00  0.00     0.113 C 
ATOM      3  C   UNL     1      21.599  24.576  23.102  1.00  0.00     0.145 C 
ATOM      4  C   UNL     1      22.700  25.399  23.765  1.00  0.00     0.142 C 
ATOM      5  C   UNL     1      23.831  25.376  22.815  1.00  0.00     0.178 C 
ATOM      6  O   UNL     1      23.578  26.256  21.779  1.00  0.00    -0.332 OA
ENDROOT
BRANCH   1   7
ATOM      7  O   UNL     1      21.514  26.955  21.175  1.00  0.00    -0.338 OA
BRANCH   7   8
ATOM      8  C   UNL     1      22.014  28.209  21.346  1.00  0.00     0.199 C 
BRANCH   8   9
ATOM      9  C   UNL     1      20.934  29.174  21.749  1.00  0.00     0.179 C 
ATOM     10  C   UNL     1      18.760  29.792  21.508  1.00  0.00     0.282 C 
ATOM     11  O   UNL     1      19.658  28.656  21.458  1.00  0.00    -0.341 OA
ATOM     12  C   UNL     1      18.561  30.199  22.894  1.00  0.00     0.202 C 
ATOM     13  C   UNL     1      19.861  30.262  23.678  1.00  0.00     0.179 C 
ATOM     14  C   UNL     1      20.906  29.295  23.279  1.00  0.00     0.177 C 
BRANCH  10  15
ATOM     15  O   UNL     1      17.620  29.404  20.834  1.00  0.00    -0.341 OA
BRANCH  15  16
ATOM     16  C   UNL     1      17.705  29.767  19.489  1.00  0.00     0.184 C 
ATOM     17  C   UNL     1      16.613  30.658  19.047  1.00  0.00     0.178 C 
ATOM     18  O   UNL     1      16.954  31.168  17.797  1.00  0.00    -0.341 OA
ATOM     19  C   UNL     1      17.577  30.273  17.002  1.00  0.00     0.281 C 
ATOM     20  C   UNL     1      17.676  28.468  18.676  1.00  0.00     0.180 C 
ATOM     21  C   UNL     1      17.237  28.821  17.248  1.00  0.00     0.202 C 
BRANCH  17  22
ATOM     22  C   UNL     1      16.310  31.762  20.032  1.00  0.00     0.191 C 
BRANCH  22  23
ATOM     23  O   UNL     1      15.546  31.187  21.047  1.00  0.00    -0.394 OA
ATOM     24  H   UNL     1      15.068  31.915  21.544  1.00  0.00     0.210 HD
ENDBRANCH  22  23
ENDBRANCH  17  22
BRANCH  19  25
ATOM     25  O   UNL     1      18.995  30.379  17.239  1.00  0.00    -0.350 OA
BRANCH  25  26
ATOM     26  C   UNL     1      19.590  30.666  15.994  1.00  0.00     0.169 C 
BRANCH  26  27
ATOM     27  C   UNL     1      21.099  30.507  16.014  1.00  0.00     0.119 C 
BRANCH  27  28
ATOM     28  N   UNL     1      21.446  29.278  15.355  1.00  0.00    -0.092 NA
ATOM     29  N   UNL     1      21.261  28.176  15.878  1.00  0.00     0.001 N 
ATOM     30  N   UNL     1      21.125  27.260  16.714  1.00  0.00    -0.003 NA
ENDBRANCH  27  28
ENDBRANCH  26  27
ENDBRANCH  25  26
ENDBRANCH  19  25
BRANCH  20  31
ATOM     31  O   UNL     1      18.979  28.001  18.598  1.00  0.00    -0.387 OA
ATOM     32  H   UNL     1      18.956  27.090  18.178  1.00  0.00     0.211 HD
ENDBRANCH  20  31
BRANCH  21  33
ATOM     33  O   UNL     1      15.877  28.640  17.161  1.00  0.00    -0.385 OA
ATOM     34  H   UNL     1      15.374  29.236  17.780  1.00  0.00     0.211 HD
ENDBRANCH  21  33
ENDBRANCH  15  16
ENDBRANCH  10  15
BRANCH  12  35
ATOM     35  O   UNL     1      18.001  31.462  22.984  1.00  0.00    -0.385 OA
ATOM     36  H   UNL     1      18.652  32.181  22.736  1.00  0.00     0.211 HD
ENDBRANCH  12  35
BRANCH  13  37
ATOM     37  O   UNL     1      19.531  30.120  25.052  1.00  0.00    -0.387 OA
ATOM     38  H   UNL     1      19.287  29.167  25.186  1.00  0.00     0.211 HD
ENDBRANCH  13  37
BRANCH  14  39
ATOM     39  O   UNL     1      20.616  27.995  23.748  1.00  0.00    -0.387 OA
ATOM     40  H   UNL     1      21.180  27.303  23.259  1.00  0.00     0.211 HD
ENDBRANCH  14  39
ENDBRANCH   8   9
ENDBRANCH   7   8
ENDBRANCH   1   7
BRANCH   1  41
ATOM     41  C   UNL     1      22.829  25.584  19.660  1.00  0.00     0.364 C 
ATOM     42  O   UNL     1      23.619  26.294  19.032  1.00  0.00    -0.246 OA
BRANCH  41  43
ATOM     43  O   UNL     1      22.348  24.452  18.951  1.00  0.00    -0.477 OA
ATOM     44  H   UNL     1      23.070  23.729  18.725  1.00  0.00     0.296 HD
ENDBRANCH  41  43
ENDBRANCH   1  41
BRANCH   3  45
ATOM     45  O   UNL     1      20.386  25.013  23.576  1.00  0.00    -0.391 OA
ATOM     46  H   UNL     1      20.476  25.934  23.959  1.00  0.00     0.211 HD
ENDBRANCH   3  45
BRANCH   5  47
ATOM     47  C   UNL     1      25.148  25.437  23.438  1.00  0.00     0.176 C 
BRANCH  47  48
ATOM     48  O   UNL     1      25.529  24.333  24.192  1.00  0.00    -0.388 OA
ATOM     49  H   UNL     1      24.827  23.707  24.401  1.00  0.00     0.211 HD
ENDBRANCH  47  48
BRANCH  47  50
ATOM     50  C   UNL     1      26.249  25.273  22.256  1.00  0.00     0.165 C 
BRANCH  50  51
ATOM     51  O   UNL     1      26.255  26.419  21.561  1.00  0.00    -0.388 OA
ATOM     52  H   UNL     1      27.173  26.797  21.426  1.00  0.00     0.211 HD
ENDBRANCH  50  51
BRANCH  50  53
ATOM     53  C   UNL     1      26.134  23.970  21.644  1.00  0.00     0.154 C 
BRANCH  53  54
ATOM     54  N   UNL     1      26.756  22.784  22.129  1.00  0.00    -0.319 N 
ATOM     55  C   UNL     1      28.121  22.606  21.794  1.00  0.00     0.407 C 
ATOM     56  H   UNL     1      26.319  22.046  22.677  1.00  0.00     0.167 HD
ATOM     57  O   UNL     1      28.731  23.472  21.085  1.00  0.00    -0.225 OA
BRANCH  55  58
ATOM     58  O   UNL     1      28.910  21.527  22.176  1.00  0.00    -0.443 OA
BRANCH  58  59
ATOM     59  C   UNL     1      28.260  20.210  22.149  1.00  0.00     0.294 C 
BRANCH  59  60
ATOM     60  C   UNL     1      29.151  19.430  21.242  1.00  0.00     0.120 A 
ATOM     61  C   UNL     1      30.434  19.848  20.816  1.00  0.00     0.138 A 
ATOM     62  N   UNL     1      28.949  18.214  20.749  1.00  0.00    -0.132 NA
ATOM     63  N   UNL     1      30.922  18.820  20.082  1.00  0.00    -0.248 N 
ATOM     64  N   UNL     1      30.051  17.873  20.047  1.00  0.00    -0.067 NA
BRANCH  63  65
ATOM     65  C   UNL     1      32.285  18.799  19.485  1.00  0.00     0.181 C 
BRANCH  65  66
ATOM     66  C   UNL     1      31.995  18.686  17.988  1.00  0.00    -0.023 A 
ATOM     67  C   UNL     1      32.228  17.528  17.280  1.00  0.00     0.056 A 
ATOM     68  C   UNL     1      31.375  19.740  17.396  1.00  0.00     0.010 A 
ATOM     69  C   UNL     1      31.773  17.536  15.931  1.00  0.00     0.161 A 
ATOM     70  C   UNL     1      30.927  19.727  16.039  1.00  0.00     0.051 A 
ATOM     71  C   UNL     1      31.158  18.568  15.348  1.00  0.00     0.160 A 
BRANCH  69  72
ATOM     72  O   UNL     1      31.986  16.394  15.156  1.00  0.00    -0.493 OA
ATOM     73  C   UNL     1      33.286  16.043  14.668  1.00  0.00     0.278 C 
ENDBRANCH  69  72
BRANCH  71  74
ATOM     74  O   UNL     1      30.723  18.448  13.998  1.00  0.00    -0.493 OA
ATOM     75  C   UNL     1      31.439  19.187  12.986  1.00  0.00     0.278 C 
ENDBRANCH  71  74
ENDBRANCH  65  66
ENDBRANCH  63  65
ENDBRANCH  59  60
ENDBRANCH  58  59
ENDBRANCH  55  58
ENDBRANCH  53  54
ENDBRANCH  50  53
ENDBRANCH  47  50
ENDBRANCH   5  47
BRANCH   4  76
ATOM     76  N   UNL     1      22.975  24.834  25.058  1.00  0.00    -0.348 N 
ATOM     77  C   UNL     1      22.397  25.406  26.197  1.00  0.00     0.217 C 
ATOM     78  H   UNL     1      23.584  23.982  25.206  1.00  0.00     0.163 HD
ATOM     79  C   UNL     1      22.601  24.957  27.608  1.00  0.00     0.114 C 
ATOM     80  O   UNL     1      21.597  26.425  26.134  1.00  0.00    -0.275 OA
ENDBRANCH   4  76
TORSDOF 33
