REMARK VINA RESULT:    -5.671     12.177     18.487
REMARK INTER + INTRA:         -21.925
REMARK INTER:                 -14.717
REMARK INTRA:                  -7.208
REMARK UNBOUND:                -7.468
REMARK SMILES CC(=O)N[C@@H]1[C@@H](O)C[C@](OC[C@H]2O[C@@H](O[C@H]3[C@H](O)[C@@H](O)[C@H](OCCN=[N+]=[N-])O[C@@H]3CO)[C@H](O)[C@@H](O)[C@H]2O)(C(=O)O)O[C@H]1C(O)[C@H](O)CNC(=O)OCc1cn(CC(=O)O)nn1
REMARK SMILES IDX 9 1 8 2 6 3 5 4 42 5 41 6 10 7 11 8 12 9 14 10 13 11 32 12
REMARK SMILES IDX 34 13 36 14 15 15 16 16 29 17 28 18 21 19 17 20 19 21 30 22
REMARK SMILES IDX 31 23 22 25 23 26 24 27 25 28 26 29 27 30 18 31 20 33 33 35
REMARK SMILES IDX 35 37 37 39 38 41 39 42 40 43 7 45 43 47 44 48 45 50 46 51
REMARK SMILES IDX 47 53 48 54 49 55 50 57 51 58 52 59 53 60 54 61 61 62 55 63
REMARK SMILES IDX 60 64 56 65 57 66 58 67 59 68 4 70 2 71 1 73 3 74
REMARK H PARENT 31 24 18 32 20 34 33 36 35 38 37 40 40 44 7 46 44 49 46 52
REMARK H PARENT 48 56 59 69 4 72
REMARK Flexibility Score: inf
ROOT
ATOM      1  C   UNL     1      12.961  31.995  16.495  1.00  0.00     0.272 C 
ATOM      2  C   UNL     1      11.561  31.923  15.956  1.00  0.00     0.113 C 
ATOM      3  C   UNL     1      11.270  30.833  15.012  1.00  0.00     0.145 C 
ATOM      4  C   UNL     1      12.479  30.152  14.380  1.00  0.00     0.142 C 
ATOM      5  C   UNL     1      13.604  31.137  14.457  1.00  0.00     0.178 C 
ATOM      6  O   UNL     1      13.861  31.205  15.853  1.00  0.00    -0.332 OA
ENDROOT
BRANCH   1   7
ATOM      7  O   UNL     1      13.003  31.691  17.873  1.00  0.00    -0.338 OA
BRANCH   7   8
ATOM      8  C   UNL     1      13.745  30.596  18.195  1.00  0.00     0.199 C 
BRANCH   8   9
ATOM      9  C   UNL     1      14.890  31.011  19.133  1.00  0.00     0.179 C 
ATOM     10  C   UNL     1      15.917  29.891  20.869  1.00  0.00     0.282 C 
ATOM     11  O   UNL     1      14.725  30.536  20.409  1.00  0.00    -0.341 OA
ATOM     12  C   UNL     1      16.054  28.696  19.999  1.00  0.00     0.202 C 
ATOM     13  C   UNL     1      16.589  29.212  18.653  1.00  0.00     0.179 C 
ATOM     14  C   UNL     1      16.224  30.664  18.504  1.00  0.00     0.177 C 
BRANCH  10  15
ATOM     15  O   UNL     1      15.783  29.687  22.210  1.00  0.00    -0.341 OA
BRANCH  15  16
ATOM     16  C   UNL     1      14.610  30.216  22.749  1.00  0.00     0.184 C 
ATOM     17  C   UNL     1      14.950  30.890  24.045  1.00  0.00     0.178 C 
ATOM     18  O   UNL     1      13.895  30.852  24.917  1.00  0.00    -0.341 OA
ATOM     19  C   UNL     1      12.639  30.985  24.382  1.00  0.00     0.281 C 
ATOM     20  C   UNL     1      13.595  29.129  23.029  1.00  0.00     0.180 C 
ATOM     21  C   UNL     1      12.303  29.837  23.446  1.00  0.00     0.202 C 
BRANCH  17  22
ATOM     22  C   UNL     1      15.332  32.334  23.774  1.00  0.00     0.191 C 
BRANCH  22  23
ATOM     23  O   UNL     1      15.093  32.547  22.413  1.00  0.00    -0.394 OA
ATOM     24  H   UNL     1      15.285  31.736  21.892  1.00  0.00     0.210 HD
ENDBRANCH  22  23
ENDBRANCH  17  22
BRANCH  19  25
ATOM     25  O   UNL     1      12.482  32.209  23.793  1.00  0.00    -0.350 OA
BRANCH  25  26
ATOM     26  C   UNL     1      11.585  32.232  22.755  1.00  0.00     0.169 C 
BRANCH  26  27
ATOM     27  C   UNL     1      11.519  33.537  22.007  1.00  0.00     0.119 C 
BRANCH  27  28
ATOM     28  N   UNL     1      10.242  33.678  21.303  1.00  0.00    -0.092 NA
ATOM     29  N   UNL     1      10.208  33.199  20.152  1.00  0.00     0.001 N 
ATOM     30  N   UNL     1       9.941  33.178  18.935  1.00  0.00    -0.003 NA
ENDBRANCH  27  28
ENDBRANCH  26  27
ENDBRANCH  25  26
ENDBRANCH  19  25
BRANCH  20  31
ATOM     31  O   UNL     1      13.298  28.359  21.932  1.00  0.00    -0.387 OA
ATOM     32  H   UNL     1      13.430  28.784  21.070  1.00  0.00     0.211 HD
ENDBRANCH  20  31
BRANCH  21  33
ATOM     33  O   UNL     1      11.435  28.965  24.076  1.00  0.00    -0.385 OA
ATOM     34  H   UNL     1      11.508  28.046  23.711  1.00  0.00     0.211 HD
ENDBRANCH  21  33
ENDBRANCH  15  16
ENDBRANCH  10  15
BRANCH  12  35
ATOM     35  O   UNL     1      16.780  27.647  20.485  1.00  0.00    -0.385 OA
ATOM     36  H   UNL     1      17.651  27.607  20.058  1.00  0.00     0.211 HD
ENDBRANCH  12  35
BRANCH  13  37
ATOM     37  O   UNL     1      15.993  28.446  17.663  1.00  0.00    -0.387 OA
ATOM     38  H   UNL     1      14.999  28.533  17.653  1.00  0.00     0.211 HD
ENDBRANCH  13  37
BRANCH  14  39
ATOM     39  O   UNL     1      16.126  30.906  17.134  1.00  0.00    -0.387 OA
ATOM     40  H   UNL     1      16.921  30.599  16.639  1.00  0.00     0.211 HD
ENDBRANCH  14  39
ENDBRANCH   8   9
ENDBRANCH   7   8
ENDBRANCH   1   7
BRANCH   1  41
ATOM     41  C   UNL     1      13.416  33.401  16.402  1.00  0.00     0.364 C 
ATOM     42  O   UNL     1      12.651  34.314  16.038  1.00  0.00    -0.246 OA
BRANCH  41  43
ATOM     43  O   UNL     1      14.714  33.769  16.716  1.00  0.00    -0.477 OA
ATOM     44  H   UNL     1      15.157  34.620  16.349  1.00  0.00     0.296 HD
ENDBRANCH  41  43
ENDBRANCH   1  41
BRANCH   3  45
ATOM     45  O   UNL     1      10.337  29.900  15.478  1.00  0.00    -0.391 OA
ATOM     46  H   UNL     1      10.516  29.578  16.377  1.00  0.00     0.211 HD
ENDBRANCH   3  45
BRANCH   5  47
ATOM     47  C   UNL     1      14.871  30.790  13.753  1.00  0.00     0.176 C 
BRANCH  47  48
ATOM     48  O   UNL     1      14.568  30.980  12.364  1.00  0.00    -0.388 OA
ATOM     49  H   UNL     1      15.209  30.445  11.814  1.00  0.00     0.211 HD
ENDBRANCH  47  48
BRANCH  47  50
ATOM     50  C   UNL     1      15.313  29.355  13.936  1.00  0.00     0.165 C 
BRANCH  50  51
ATOM     51  O   UNL     1      14.814  28.880  15.178  1.00  0.00    -0.388 OA
ATOM     52  H   UNL     1      14.033  28.319  14.978  1.00  0.00     0.211 HD
ENDBRANCH  50  51
BRANCH  50  53
ATOM     53  C   UNL     1      16.780  29.179  13.901  1.00  0.00     0.154 C 
BRANCH  53  54
ATOM     54  N   UNL     1      17.320  28.767  15.164  1.00  0.00    -0.319 N 
ATOM     55  C   UNL     1      18.683  28.688  15.527  1.00  0.00     0.407 C 
ATOM     56  H   UNL     1      16.657  28.473  15.969  1.00  0.00     0.167 HD
ATOM     57  O   UNL     1      19.582  28.975  14.733  1.00  0.00    -0.225 OA
BRANCH  55  58
ATOM     58  O   UNL     1      19.090  28.278  16.802  1.00  0.00    -0.443 OA
BRANCH  58  59
ATOM     59  C   UNL     1      20.173  28.912  17.461  1.00  0.00     0.294 C 
BRANCH  59  60
ATOM     60  C   UNL     1      20.411  28.290  18.800  1.00  0.00     0.120 A 
ATOM     61  C   UNL     1      21.540  27.590  19.199  1.00  0.00     0.139 A 
ATOM     62  N   UNL     1      19.592  28.286  19.863  1.00  0.00    -0.132 NA
ATOM     63  N   UNL     1      21.360  27.195  20.472  1.00  0.00    -0.241 N 
ATOM     64  N   UNL     1      20.169  27.629  20.854  1.00  0.00    -0.066 NA
BRANCH  63  65
ATOM     65  C   UNL     1      22.286  26.430  21.313  1.00  0.00     0.268 C 
BRANCH  65  66
ATOM     66  C   UNL     1      21.664  25.126  21.605  1.00  0.00     0.325 C 
ATOM     67  O   UNL     1      22.135  24.085  21.123  1.00  0.00    -0.250 OA
BRANCH  66  68
ATOM     68  O   UNL     1      20.552  25.066  22.419  1.00  0.00    -0.480 OA
ATOM     69  H   UNL     1      19.619  25.175  22.080  1.00  0.00     0.296 HD
ENDBRANCH  66  68
ENDBRANCH  65  66
ENDBRANCH  63  65
ENDBRANCH  59  60
ENDBRANCH  58  59
ENDBRANCH  55  58
ENDBRANCH  53  54
ENDBRANCH  50  53
ENDBRANCH  47  50
ENDBRANCH   5  47
BRANCH   4  70
ATOM     70  N   UNL     1      12.158  29.609  13.105  1.00  0.00    -0.348 N 
ATOM     71  C   UNL     1      12.091  28.193  12.865  1.00  0.00     0.217 C 
ATOM     72  H   UNL     1      11.943  30.227  12.297  1.00  0.00     0.163 HD
ATOM     73  C   UNL     1      11.748  27.716  11.506  1.00  0.00     0.114 C 
ATOM     74  O   UNL     1      12.317  27.372  13.784  1.00  0.00    -0.275 OA
ENDBRANCH   4  70
TORSDOF 32
