REMARK VINA RESULT:    -4.975     10.761     15.071
REMARK INTER + INTRA:         -20.956
REMARK INTER:                 -12.959
REMARK INTRA:                  -7.997
REMARK UNBOUND:                -8.275
REMARK SMILES CC(=O)N[C@@H]1[C@@H](O)C[C@](OC[C@H]2O[C@@H](O[C@H]3[C@H](O)[C@@H](O)[C@H](OCCN=[N+]=[N-])O[C@@H]3CO)[C@H](O)[C@@H](O)[C@H]2O)(C(=O)O)O[C@H]1C(O)[C@H](O)CNC(=O)OCc1cn(C(C)(C)C(=O)O)nn1
REMARK SMILES IDX 9 1 8 2 6 3 5 4 42 5 41 6 10 7 11 8 12 9 14 10 13 11 32 12
REMARK SMILES IDX 34 13 36 14 15 15 16 16 29 17 28 18 21 19 17 20 19 21 30 22
REMARK SMILES IDX 31 23 22 25 23 26 24 27 25 28 26 29 27 30 18 31 20 33 33 35
REMARK SMILES IDX 35 37 37 39 38 41 39 42 40 43 7 45 43 47 44 48 45 50 46 51
REMARK SMILES IDX 47 53 48 54 49 55 50 57 51 58 52 59 53 60 54 61 63 62 55 63
REMARK SMILES IDX 62 64 56 65 57 66 58 67 59 68 60 69 61 70 4 72 2 73 1 75
REMARK SMILES IDX 3 76
REMARK H PARENT 31 24 18 32 20 34 33 36 35 38 37 40 40 44 7 46 44 49 46 52
REMARK H PARENT 48 56 61 71 4 74
REMARK Flexibility Score: inf
ROOT
ATOM      1  C   UNL     1      33.040  17.497  28.142  1.00  0.00     0.272 C 
ATOM      2  C   UNL     1      32.572  16.284  27.452  1.00  0.00     0.113 C 
ATOM      3  C   UNL     1      33.075  16.114  26.047  1.00  0.00     0.145 C 
ATOM      4  C   UNL     1      33.396  17.452  25.452  1.00  0.00     0.142 C 
ATOM      5  C   UNL     1      32.440  18.447  26.137  1.00  0.00     0.178 C 
ATOM      6  O   UNL     1      32.937  18.677  27.399  1.00  0.00    -0.332 OA
ENDROOT
BRANCH   1   7
ATOM      7  O   UNL     1      34.309  17.427  28.630  1.00  0.00    -0.338 OA
BRANCH   7   8
ATOM      8  C   UNL     1      34.592  16.497  29.581  1.00  0.00     0.199 C 
BRANCH   8   9
ATOM      9  C   UNL     1      35.316  17.113  30.757  1.00  0.00     0.179 C 
ATOM     10  C   UNL     1      36.152  19.137  31.487  1.00  0.00     0.282 C 
ATOM     11  O   UNL     1      35.250  18.491  30.564  1.00  0.00    -0.341 OA
ATOM     12  C   UNL     1      35.548  18.980  32.830  1.00  0.00     0.202 C 
ATOM     13  C   UNL     1      34.359  18.020  32.816  1.00  0.00     0.179 C 
ATOM     14  C   UNL     1      34.693  16.748  32.052  1.00  0.00     0.177 C 
BRANCH  10  15
ATOM     15  O   UNL     1      36.285  20.391  30.972  1.00  0.00    -0.341 OA
BRANCH  15  16
ATOM     16  C   UNL     1      35.393  20.713  29.963  1.00  0.00     0.184 C 
ATOM     17  C   UNL     1      36.102  21.474  28.887  1.00  0.00     0.178 C 
ATOM     18  O   UNL     1      35.205  22.229  28.116  1.00  0.00    -0.341 OA
ATOM     19  C   UNL     1      34.721  23.340  28.791  1.00  0.00     0.281 C 
ATOM     20  C   UNL     1      34.282  21.614  30.502  1.00  0.00     0.180 C 
ATOM     21  C   UNL     1      34.644  23.059  30.276  1.00  0.00     0.202 C 
BRANCH  17  22
ATOM     22  C   UNL     1      36.772  20.529  27.876  1.00  0.00     0.191 C 
BRANCH  22  23
ATOM     23  O   UNL     1      36.088  19.331  27.917  1.00  0.00    -0.394 OA
ATOM     24  H   UNL     1      35.383  19.345  27.203  1.00  0.00     0.210 HD
ENDBRANCH  22  23
ENDBRANCH  17  22
BRANCH  19  25
ATOM     25  O   UNL     1      33.459  23.599  28.259  1.00  0.00    -0.350 OA
BRANCH  25  26
ATOM     26  C   UNL     1      32.831  24.704  28.773  1.00  0.00     0.169 C 
BRANCH  26  27
ATOM     27  C   UNL     1      31.333  24.369  28.801  1.00  0.00     0.119 C 
BRANCH  27  28
ATOM     28  N   UNL     1      30.531  25.499  29.209  1.00  0.00    -0.092 NA
ATOM     29  N   UNL     1      29.486  25.279  29.840  1.00  0.00     0.001 N 
ATOM     30  N   UNL     1      28.356  25.032  30.238  1.00  0.00    -0.003 NA
ENDBRANCH  27  28
ENDBRANCH  26  27
ENDBRANCH  25  26
ENDBRANCH  19  25
BRANCH  20  31
ATOM     31  O   UNL     1      33.104  21.355  29.809  1.00  0.00    -0.387 OA
ATOM     32  H   UNL     1      32.377  21.988  30.029  1.00  0.00     0.211 HD
ENDBRANCH  20  31
BRANCH  21  33
ATOM     33  O   UNL     1      35.854  23.307  30.913  1.00  0.00    -0.385 OA
ATOM     34  H   UNL     1      36.600  23.475  30.289  1.00  0.00     0.211 HD
ENDBRANCH  21  33
ENDBRANCH  15  16
ENDBRANCH  10  15
BRANCH  12  35
ATOM     35  O   UNL     1      36.495  18.352  33.669  1.00  0.00    -0.385 OA
ATOM     36  H   UNL     1      36.367  17.397  33.765  1.00  0.00     0.211 HD
ENDBRANCH  12  35
BRANCH  13  37
ATOM     37  O   UNL     1      33.240  18.647  32.300  1.00  0.00    -0.387 OA
ATOM     38  H   UNL     1      32.480  18.012  32.244  1.00  0.00     0.211 HD
ENDBRANCH  13  37
BRANCH  14  39
ATOM     39  O   UNL     1      33.500  16.068  31.864  1.00  0.00    -0.387 OA
ATOM     40  H   UNL     1      33.542  15.228  32.405  1.00  0.00     0.211 HD
ENDBRANCH  14  39
ENDBRANCH   8   9
ENDBRANCH   7   8
ENDBRANCH   1   7
BRANCH   1  41
ATOM     41  C   UNL     1      32.061  17.746  29.296  1.00  0.00     0.364 C 
ATOM     42  O   UNL     1      31.911  18.898  29.757  1.00  0.00    -0.246 OA
BRANCH  41  43
ATOM     43  O   UNL     1      31.330  16.712  29.847  1.00  0.00    -0.477 OA
ATOM     44  H   UNL     1      31.335  15.768  29.495  1.00  0.00     0.296 HD
ENDBRANCH  41  43
ENDBRANCH   1  41
BRANCH   3  45
ATOM     45  O   UNL     1      34.217  15.341  26.064  1.00  0.00    -0.391 OA
ATOM     46  H   UNL     1      34.865  15.603  25.359  1.00  0.00     0.211 HD
ENDBRANCH   3  45
BRANCH   5  47
ATOM     47  C   UNL     1      32.329  19.728  25.360  1.00  0.00     0.176 C 
BRANCH  47  48
ATOM     48  O   UNL     1      31.271  19.636  24.460  1.00  0.00    -0.388 OA
ATOM     49  H   UNL     1      31.548  19.967  23.554  1.00  0.00     0.211 HD
ENDBRANCH  47  48
BRANCH  47  50
ATOM     50  C   UNL     1      32.046  20.877  26.301  1.00  0.00     0.165 C 
BRANCH  50  51
ATOM     51  O   UNL     1      30.741  20.801  26.805  1.00  0.00    -0.388 OA
ATOM     52  H   UNL     1      30.664  21.437  27.550  1.00  0.00     0.211 HD
ENDBRANCH  50  51
BRANCH  50  53
ATOM     53  C   UNL     1      32.226  22.223  25.651  1.00  0.00     0.154 C 
BRANCH  53  54
ATOM     54  N   UNL     1      31.295  22.416  24.566  1.00  0.00    -0.319 N 
ATOM     55  C   UNL     1      31.679  23.059  23.365  1.00  0.00     0.407 C 
ATOM     56  H   UNL     1      30.316  22.080  24.653  1.00  0.00     0.167 HD
ATOM     57  O   UNL     1      32.845  23.492  23.181  1.00  0.00    -0.225 OA
BRANCH  55  58
ATOM     58  O   UNL     1      30.764  23.245  22.318  1.00  0.00    -0.443 OA
BRANCH  58  59
ATOM     59  C   UNL     1      29.663  22.339  22.198  1.00  0.00     0.294 C 
BRANCH  59  60
ATOM     60  C   UNL     1      29.995  21.211  21.328  1.00  0.00     0.120 A 
ATOM     61  C   UNL     1      29.783  21.133  19.976  1.00  0.00     0.139 A 
ATOM     62  N   UNL     1      30.561  20.061  21.703  1.00  0.00    -0.132 NA
ATOM     63  N   UNL     1      30.224  19.934  19.549  1.00  0.00    -0.235 N 
ATOM     64  N   UNL     1      30.691  19.314  20.638  1.00  0.00    -0.066 NA
BRANCH  63  65
ATOM     65  C   UNL     1      30.224  19.374  18.214  1.00  0.00     0.155 C 
ATOM     66  C   UNL     1      30.724  20.384  17.224  1.00  0.00     0.049 C 
ATOM     67  C   UNL     1      28.813  18.968  17.799  1.00  0.00     0.049 C 
BRANCH  65  68
ATOM     68  C   UNL     1      31.056  18.150  18.233  1.00  0.00     0.331 C 
ATOM     69  O   UNL     1      32.206  18.190  17.770  1.00  0.00    -0.250 OA
BRANCH  68  70
ATOM     70  O   UNL     1      30.529  16.989  18.770  1.00  0.00    -0.479 OA
ATOM     71  H   UNL     1      29.761  16.486  18.341  1.00  0.00     0.296 HD
ENDBRANCH  68  70
ENDBRANCH  65  68
ENDBRANCH  63  65
ENDBRANCH  59  60
ENDBRANCH  58  59
ENDBRANCH  55  58
ENDBRANCH  53  54
ENDBRANCH  50  53
ENDBRANCH  47  50
ENDBRANCH   5  47
BRANCH   4  72
ATOM     72  N   UNL     1      33.099  17.523  24.045  1.00  0.00    -0.348 N 
ATOM     73  C   UNL     1      34.024  17.181  23.017  1.00  0.00     0.217 C 
ATOM     74  H   UNL     1      32.153  17.839  23.758  1.00  0.00     0.163 HD
ATOM     75  C   UNL     1      33.635  17.283  21.577  1.00  0.00     0.114 C 
ATOM     76  O   UNL     1      35.178  16.789  23.333  1.00  0.00    -0.275 OA
ENDBRANCH   4  72
TORSDOF 32
