REMARK VINA RESULT:    -5.359      3.654      7.426
REMARK INTER + INTRA:         -19.961
REMARK INTER:                 -13.229
REMARK INTRA:                  -6.732
REMARK UNBOUND:                -6.769
REMARK SMILES CC(=O)N[C@@H]1[C@@H](O)C[C@](OC[C@H]2O[C@@H](O[C@H]3[C@H](O)[C@@H](O)[C@H](OCCN=[N+]=[N-])O[C@@H]3CO)[C@H](O)[C@@H](O)[C@H]2O)(C(=O)O)O[C@H]1C(O)[C@H](O)CNC(=O)OCc1cn(-c2cccnc2)nn1
REMARK SMILES IDX 9 1 8 2 6 3 5 4 42 5 41 6 10 7 11 8 12 9 14 10 13 11 32 12
REMARK SMILES IDX 34 13 36 14 15 15 16 16 29 17 28 18 21 19 17 20 19 21 30 22
REMARK SMILES IDX 31 23 22 25 23 26 24 27 25 28 26 29 27 30 18 31 20 33 33 35
REMARK SMILES IDX 35 37 37 39 38 41 39 42 40 43 7 45 43 47 44 48 45 50 46 51
REMARK SMILES IDX 47 53 48 54 49 55 50 57 51 58 52 59 53 60 54 61 63 62 55 63
REMARK SMILES IDX 62 64 56 65 57 66 61 67 58 68 60 69 59 70 4 71 2 72 1 74
REMARK SMILES IDX 3 75
REMARK H PARENT 31 24 18 32 20 34 33 36 35 38 37 40 40 44 7 46 44 49 46 52
REMARK H PARENT 48 56 4 73
REMARK Flexibility Score: inf
ROOT
ATOM      1  C   UNL     1      15.675  29.307  21.154  1.00  0.00     0.272 C 
ATOM      2  C   UNL     1      16.010  28.037  20.484  1.00  0.00     0.113 C 
ATOM      3  C   UNL     1      15.989  28.159  19.000  1.00  0.00     0.145 C 
ATOM      4  C   UNL     1      16.569  29.450  18.479  1.00  0.00     0.142 C 
ATOM      5  C   UNL     1      17.060  30.354  19.551  1.00  0.00     0.178 C 
ATOM      6  O   UNL     1      16.170  30.478  20.609  1.00  0.00    -0.332 OA
ENDROOT
BRANCH   1   7
ATOM      7  O   UNL     1      16.102  29.335  22.480  1.00  0.00    -0.338 OA
BRANCH   7   8
ATOM      8  C   UNL     1      16.217  30.556  23.064  1.00  0.00     0.199 C 
BRANCH   8   9
ATOM      9  C   UNL     1      15.531  30.461  24.441  1.00  0.00     0.179 C 
ATOM     10  C   UNL     1      17.144  31.694  25.611  1.00  0.00     0.282 C 
ATOM     11  O   UNL     1      16.444  30.521  25.423  1.00  0.00    -0.341 OA
ATOM     12  C   UNL     1      16.233  32.867  25.494  1.00  0.00     0.202 C 
ATOM     13  C   UNL     1      14.801  32.367  25.734  1.00  0.00     0.179 C 
ATOM     14  C   UNL     1      14.408  31.474  24.568  1.00  0.00     0.177 C 
BRANCH  10  15
ATOM     15  O   UNL     1      18.188  31.680  24.689  1.00  0.00    -0.341 OA
BRANCH  15  16
ATOM     16  C   UNL     1      19.399  31.364  25.211  1.00  0.00     0.184 C 
ATOM     17  C   UNL     1      19.979  30.052  24.782  1.00  0.00     0.178 C 
ATOM     18  O   UNL     1      21.365  30.146  24.917  1.00  0.00    -0.341 OA
ATOM     19  C   UNL     1      21.770  30.739  26.108  1.00  0.00     0.281 C 
ATOM     20  C   UNL     1      19.404  31.301  26.735  1.00  0.00     0.180 C 
ATOM     21  C   UNL     1      20.724  30.665  27.195  1.00  0.00     0.202 C 
BRANCH  17  22
ATOM     22  C   UNL     1      19.646  29.594  23.411  1.00  0.00     0.191 C 
BRANCH  22  23
ATOM     23  O   UNL     1      20.543  28.681  22.923  1.00  0.00    -0.394 OA
ATOM     24  H   UNL     1      21.169  29.162  22.325  1.00  0.00     0.210 HD
ENDBRANCH  22  23
ENDBRANCH  17  22
BRANCH  19  25
ATOM     25  O   UNL     1      22.173  32.035  25.963  1.00  0.00    -0.350 OA
BRANCH  25  26
ATOM     26  C   UNL     1      23.392  32.311  25.456  1.00  0.00     0.169 C 
BRANCH  26  27
ATOM     27  C   UNL     1      24.410  31.226  25.419  1.00  0.00     0.119 C 
BRANCH  27  28
ATOM     28  N   UNL     1      25.165  31.090  24.222  1.00  0.00    -0.092 NA
ATOM     29  N   UNL     1      24.633  30.986  23.097  1.00  0.00     0.001 N 
ATOM     30  N   UNL     1      24.065  30.373  22.177  1.00  0.00    -0.003 NA
ENDBRANCH  27  28
ENDBRANCH  26  27
ENDBRANCH  25  26
ENDBRANCH  19  25
BRANCH  20  31
ATOM     31  O   UNL     1      19.375  32.589  27.249  1.00  0.00    -0.387 OA
ATOM     32  H   UNL     1      18.682  32.709  27.950  1.00  0.00     0.211 HD
ENDBRANCH  20  31
BRANCH  21  33
ATOM     33  O   UNL     1      20.541  29.348  27.612  1.00  0.00    -0.385 OA
ATOM     34  H   UNL     1      21.182  28.777  27.120  1.00  0.00     0.211 HD
ENDBRANCH  21  33
ENDBRANCH  15  16
ENDBRANCH  10  15
BRANCH  12  35
ATOM     35  O   UNL     1      16.463  33.749  26.567  1.00  0.00    -0.385 OA
ATOM     36  H   UNL     1      15.711  34.416  26.588  1.00  0.00     0.211 HD
ENDBRANCH  12  35
BRANCH  13  37
ATOM     37  O   UNL     1      13.910  33.387  25.946  1.00  0.00    -0.387 OA
ATOM     38  H   UNL     1      13.532  33.320  26.859  1.00  0.00     0.211 HD
ENDBRANCH  13  37
BRANCH  14  39
ATOM     39  O   UNL     1      14.208  32.209  23.416  1.00  0.00    -0.387 OA
ATOM     40  H   UNL     1      15.076  32.251  22.933  1.00  0.00     0.211 HD
ENDBRANCH  14  39
ENDBRANCH   8   9
ENDBRANCH   7   8
ENDBRANCH   1   7
BRANCH   1  41
ATOM     41  C   UNL     1      14.162  29.401  21.185  1.00  0.00     0.364 C 
ATOM     42  O   UNL     1      13.626  30.448  20.789  1.00  0.00    -0.246 OA
BRANCH  41  43
ATOM     43  O   UNL     1      13.361  28.380  21.634  1.00  0.00    -0.477 OA
ATOM     44  H   UNL     1      12.363  28.448  21.792  1.00  0.00     0.296 HD
ENDBRANCH  41  43
ENDBRANCH   1  41
BRANCH   3  45
ATOM     45  O   UNL     1      16.725  27.059  18.501  1.00  0.00    -0.391 OA
ATOM     46  H   UNL     1      17.637  27.037  18.846  1.00  0.00     0.211 HD
ENDBRANCH   3  45
BRANCH   5  47
ATOM     47  C   UNL     1      18.456  30.112  20.016  1.00  0.00     0.176 C 
BRANCH  47  48
ATOM     48  O   UNL     1      19.197  31.300  19.785  1.00  0.00    -0.388 OA
ATOM     49  H   UNL     1      20.137  31.147  20.077  1.00  0.00     0.211 HD
ENDBRANCH  47  48
BRANCH  47  50
ATOM     50  C   UNL     1      19.216  29.019  19.334  1.00  0.00     0.165 C 
BRANCH  50  51
ATOM     51  O   UNL     1      19.203  27.969  20.350  1.00  0.00    -0.388 OA
ATOM     52  H   UNL     1      19.098  28.455  21.204  1.00  0.00     0.211 HD
ENDBRANCH  50  51
BRANCH  50  53
ATOM     53  C   UNL     1      20.680  29.260  19.151  1.00  0.00     0.154 C 
BRANCH  53  54
ATOM     54  N   UNL     1      21.572  28.396  19.855  1.00  0.00    -0.319 N 
ATOM     55  C   UNL     1      22.178  27.310  19.119  1.00  0.00     0.407 C 
ATOM     56  H   UNL     1      21.849  28.469  20.828  1.00  0.00     0.167 HD
ATOM     57  O   UNL     1      21.890  27.189  17.911  1.00  0.00    -0.225 OA
BRANCH  55  58
ATOM     58  O   UNL     1      23.044  26.429  19.717  1.00  0.00    -0.443 OA
BRANCH  58  59
ATOM     59  C   UNL     1      22.565  25.209  20.226  1.00  0.00     0.294 C 
BRANCH  59  60
ATOM     60  C   UNL     1      22.079  25.424  21.605  1.00  0.00     0.121 A 
ATOM     61  C   UNL     1      22.759  25.319  22.796  1.00  0.00     0.144 A 
ATOM     62  N   UNL     1      20.808  25.784  21.956  1.00  0.00    -0.131 NA
ATOM     63  N   UNL     1      21.925  25.606  23.809  1.00  0.00    -0.219 N 
ATOM     64  N   UNL     1      20.753  25.882  23.267  1.00  0.00    -0.062 NA
BRANCH  63  65
ATOM     65  C   UNL     1      22.144  25.640  25.216  1.00  0.00     0.085 A 
ATOM     66  C   UNL     1      22.541  24.533  25.934  1.00  0.00     0.031 A 
ATOM     67  C   UNL     1      21.958  26.805  25.935  1.00  0.00     0.139 A 
ATOM     68  C   UNL     1      22.739  24.589  27.296  1.00  0.00     0.022 A 
ATOM     69  N   UNL     1      22.156  26.848  27.276  1.00  0.00    -0.262 NA
ATOM     70  C   UNL     1      22.542  25.768  27.977  1.00  0.00     0.111 A 
ENDBRANCH  63  65
ENDBRANCH  59  60
ENDBRANCH  58  59
ENDBRANCH  55  58
ENDBRANCH  53  54
ENDBRANCH  50  53
ENDBRANCH  47  50
ENDBRANCH   5  47
BRANCH   4  71
ATOM     71  N   UNL     1      15.596  30.151  17.646  1.00  0.00    -0.348 N 
ATOM     72  C   UNL     1      15.409  29.898  16.265  1.00  0.00     0.217 C 
ATOM     73  H   UNL     1      14.978  30.899  18.065  1.00  0.00     0.163 HD
ATOM     74  C   UNL     1      14.402  30.649  15.451  1.00  0.00     0.114 C 
ATOM     75  O   UNL     1      16.099  29.019  15.682  1.00  0.00    -0.275 OA
ENDBRANCH   4  71
TORSDOF 30
