REMARK VINA RESULT:    -5.844      2.617      5.965
REMARK INTER + INTRA:         -19.806
REMARK INTER:                 -13.792
REMARK INTRA:                  -6.014
REMARK UNBOUND:                -4.909
REMARK SMILES CC(=O)N[C@@H]1[C@@H](O)C[C@](OC[C@H]2O[C@@H](O[C@H]3[C@H](O)[C@@H](O)[C@H](OCCN=[N+]=[N-])O[C@@H]3CO)[C@H](O)[C@@H](O)[C@H]2O)(C(=O)O)O[C@H]1C(O)[C@H](O)CNC(=O)OCc1cn(CCO)nn1
REMARK SMILES IDX 9 1 8 2 6 3 5 4 42 5 41 6 10 7 11 8 12 9 14 10 13 11 32 12
REMARK SMILES IDX 34 13 36 14 15 15 16 16 29 17 28 18 21 19 17 20 19 21 30 22
REMARK SMILES IDX 31 23 22 25 23 26 24 27 25 28 26 29 27 30 18 31 20 33 33 35
REMARK SMILES IDX 35 37 37 39 38 41 39 42 40 43 7 45 43 47 44 48 45 50 46 51
REMARK SMILES IDX 47 53 48 54 49 55 50 57 51 58 52 59 53 60 54 61 60 62 55 63
REMARK SMILES IDX 59 64 56 65 57 66 58 67 4 69 2 70 1 72 3 73
REMARK H PARENT 31 24 18 32 20 34 33 36 35 38 37 40 40 44 7 46 44 49 46 52
REMARK H PARENT 48 56 58 68 4 71
REMARK Flexibility Score: inf
ROOT
ATOM      1  C   UNL     1       5.472  27.250  33.272  1.00  0.00     0.272 C 
ATOM      2  C   UNL     1       6.828  27.811  33.551  1.00  0.00     0.113 C 
ATOM      3  C   UNL     1       7.406  27.178  34.787  1.00  0.00     0.145 C 
ATOM      4  C   UNL     1       7.403  25.672  34.526  1.00  0.00     0.142 C 
ATOM      5  C   UNL     1       5.936  25.264  34.445  1.00  0.00     0.178 C 
ATOM      6  O   UNL     1       5.492  25.887  33.255  1.00  0.00    -0.332 OA
ENDROOT
BRANCH   1   7
ATOM      7  O   UNL     1       4.991  27.685  32.016  1.00  0.00    -0.338 OA
BRANCH   7   8
ATOM      8  C   UNL     1       4.888  26.730  31.060  1.00  0.00     0.199 C 
BRANCH   8   9
ATOM      9  C   UNL     1       3.541  26.825  30.326  1.00  0.00     0.179 C 
ATOM     10  C   UNL     1       2.529  26.456  28.271  1.00  0.00     0.282 C 
ATOM     11  O   UNL     1       3.722  26.568  28.983  1.00  0.00    -0.341 OA
ATOM     12  C   UNL     1       1.689  25.298  28.743  1.00  0.00     0.202 C 
ATOM     13  C   UNL     1       2.019  24.839  30.140  1.00  0.00     0.179 C 
ATOM     14  C   UNL     1       2.468  26.013  30.966  1.00  0.00     0.177 C 
BRANCH  10  15
ATOM     15  O   UNL     1       2.870  26.261  26.987  1.00  0.00    -0.341 OA
BRANCH  15  16
ATOM     16  C   UNL     1       3.907  26.906  26.431  1.00  0.00     0.184 C 
ATOM     17  C   UNL     1       3.732  28.039  25.522  1.00  0.00     0.178 C 
ATOM     18  O   UNL     1       4.704  28.032  24.537  1.00  0.00    -0.341 OA
ATOM     19  C   UNL     1       5.977  27.725  24.898  1.00  0.00     0.281 C 
ATOM     20  C   UNL     1       4.667  25.816  25.631  1.00  0.00     0.180 C 
ATOM     21  C   UNL     1       6.086  26.334  25.541  1.00  0.00     0.202 C 
BRANCH  17  22
ATOM     22  C   UNL     1       3.803  29.396  26.218  1.00  0.00     0.191 C 
BRANCH  22  23
ATOM     23  O   UNL     1       4.263  29.282  27.532  1.00  0.00    -0.394 OA
ATOM     24  H   UNL     1       4.033  28.391  27.859  1.00  0.00     0.210 HD
ENDBRANCH  22  23
ENDBRANCH  17  22
BRANCH  19  25
ATOM     25  O   UNL     1       6.667  28.664  25.611  1.00  0.00    -0.350 OA
BRANCH  25  26
ATOM     26  C   UNL     1       7.649  29.345  24.958  1.00  0.00     0.169 C 
BRANCH  26  27
ATOM     27  C   UNL     1       7.381  30.812  24.951  1.00  0.00     0.119 C 
BRANCH  27  28
ATOM     28  N   UNL     1       7.125  31.249  23.568  1.00  0.00    -0.092 NA
ATOM     29  N   UNL     1       6.056  30.837  23.082  1.00  0.00     0.001 N 
ATOM     30  N   UNL     1       4.876  30.982  22.717  1.00  0.00    -0.003 NA
ENDBRANCH  27  28
ENDBRANCH  26  27
ENDBRANCH  25  26
ENDBRANCH  19  25
BRANCH  20  31
ATOM     31  O   UNL     1       4.570  24.597  26.249  1.00  0.00    -0.387 OA
ATOM     32  H   UNL     1       4.267  24.666  27.190  1.00  0.00     0.211 HD
ENDBRANCH  20  31
BRANCH  21  33
ATOM     33  O   UNL     1       6.887  25.471  24.842  1.00  0.00    -0.385 OA
ATOM     34  H   UNL     1       7.675  25.915  24.442  1.00  0.00     0.211 HD
ENDBRANCH  21  33
ENDBRANCH  15  16
ENDBRANCH  10  15
BRANCH  12  35
ATOM     35  O   UNL     1       0.355  25.732  28.792  1.00  0.00    -0.385 OA
ATOM     36  H   UNL     1       0.265  26.705  28.805  1.00  0.00     0.211 HD
ENDBRANCH  12  35
BRANCH  13  37
ATOM     37  O   UNL     1       2.933  23.819  30.086  1.00  0.00    -0.387 OA
ATOM     38  H   UNL     1       3.152  23.560  29.136  1.00  0.00     0.211 HD
ENDBRANCH  13  37
BRANCH  14  39
ATOM     39  O   UNL     1       2.996  25.492  32.168  1.00  0.00    -0.387 OA
ATOM     40  H   UNL     1       2.653  25.993  32.949  1.00  0.00     0.211 HD
ENDBRANCH  14  39
ENDBRANCH   8   9
ENDBRANCH   7   8
ENDBRANCH   1   7
BRANCH   1  41
ATOM     41  C   UNL     1       4.512  27.821  34.242  1.00  0.00     0.364 C 
ATOM     42  O   UNL     1       4.723  28.881  34.859  1.00  0.00    -0.246 OA
BRANCH  41  43
ATOM     43  O   UNL     1       3.312  27.184  34.506  1.00  0.00    -0.477 OA
ATOM     44  H   UNL     1       2.446  27.698  34.742  1.00  0.00     0.296 HD
ENDBRANCH  41  43
ENDBRANCH   1  41
BRANCH   3  45
ATOM     45  O   UNL     1       8.761  27.544  34.945  1.00  0.00    -0.391 OA
ATOM     46  H   UNL     1       9.269  27.239  34.147  1.00  0.00     0.211 HD
ENDBRANCH   3  45
BRANCH   5  47
ATOM     47  C   UNL     1       5.855  23.801  34.152  1.00  0.00     0.176 C 
BRANCH  47  48
ATOM     48  O   UNL     1       4.664  23.244  34.620  1.00  0.00    -0.388 OA
ATOM     49  H   UNL     1       4.361  23.668  35.466  1.00  0.00     0.211 HD
ENDBRANCH  47  48
BRANCH  47  50
ATOM     50  C   UNL     1       6.137  23.331  32.778  1.00  0.00     0.165 C 
BRANCH  50  51
ATOM     51  O   UNL     1       4.849  23.531  32.114  1.00  0.00    -0.388 OA
ATOM     52  H   UNL     1       5.024  23.716  31.162  1.00  0.00     0.211 HD
ENDBRANCH  50  51
BRANCH  50  53
ATOM     53  C   UNL     1       6.292  21.826  32.650  1.00  0.00     0.154 C 
BRANCH  53  54
ATOM     54  N   UNL     1       5.176  21.086  33.144  1.00  0.00    -0.319 N 
ATOM     55  C   UNL     1       4.121  20.698  32.280  1.00  0.00     0.407 C 
ATOM     56  H   UNL     1       5.096  20.815  34.165  1.00  0.00     0.167 HD
ATOM     57  O   UNL     1       4.233  21.057  31.059  1.00  0.00    -0.225 OA
BRANCH  55  58
ATOM     58  O   UNL     1       3.009  19.981  32.632  1.00  0.00    -0.443 OA
BRANCH  58  59
ATOM     59  C   UNL     1       2.265  20.376  33.769  1.00  0.00     0.294 C 
BRANCH  59  60
ATOM     60  C   UNL     1       2.783  19.810  35.017  1.00  0.00     0.120 A 
ATOM     61  C   UNL     1       2.214  19.963  36.258  1.00  0.00     0.138 A 
ATOM     62  N   UNL     1       3.875  19.054  35.213  1.00  0.00    -0.132 NA
ATOM     63  N   UNL     1       2.959  19.308  37.170  1.00  0.00    -0.250 N 
ATOM     64  N   UNL     1       3.960  18.763  36.518  1.00  0.00    -0.067 NA
BRANCH  63  65
ATOM     65  C   UNL     1       2.676  19.235  38.611  1.00  0.00     0.174 C 
BRANCH  65  66
ATOM     66  C   UNL     1       3.178  20.504  39.254  1.00  0.00     0.179 C 
BRANCH  66  67
ATOM     67  O   UNL     1       4.442  20.781  38.707  1.00  0.00    -0.394 OA
ATOM     68  H   UNL     1       4.480  20.665  37.742  1.00  0.00     0.210 HD
ENDBRANCH  66  67
ENDBRANCH  65  66
ENDBRANCH  63  65
ENDBRANCH  59  60
ENDBRANCH  58  59
ENDBRANCH  55  58
ENDBRANCH  53  54
ENDBRANCH  50  53
ENDBRANCH  47  50
ENDBRANCH   5  47
BRANCH   4  69
ATOM     69  N   UNL     1       8.216  24.943  35.418  1.00  0.00    -0.348 N 
ATOM     70  C   UNL     1       9.274  24.081  35.050  1.00  0.00     0.217 C 
ATOM     71  H   UNL     1       8.059  25.040  36.454  1.00  0.00     0.163 HD
ATOM     72  C   UNL     1      10.043  23.376  36.096  1.00  0.00     0.114 C 
ATOM     73  O   UNL     1       9.568  23.905  33.858  1.00  0.00    -0.275 OA
ENDBRANCH   4  69
TORSDOF 32
