REMARK VINA RESULT:    -4.105      3.110      3.933
REMARK INTER + INTRA:         -22.242
REMARK INTER:                 -15.927
REMARK INTRA:                  -6.315
REMARK UNBOUND:               -11.418
REMARK SMILES CC(=O)N[C@@H]1[C@@H](O)C[C@](OC[C@H]2O[C@@H](O[C@H]3[C@H](O)[C@@H](O)[C@H](OCCN=[N+]=[N-])O[C@@H]3CO)[C@H](O)[C@@H](O)[C@H]2O)(C(=O)O)O[C@H]1C(O)[C@H](O)CNC(=O)OCc1cn(CC(=O)NCc2cccs2)nn1
REMARK SMILES IDX 43 1 42 2 9 3 8 4 41 5 6 6 5 7 10 8 11 9 12 10 14 11 13 12
REMARK SMILES IDX 32 13 34 14 36 15 15 16 16 17 29 18 28 19 21 20 17 21 19 22
REMARK SMILES IDX 30 23 31 24 22 26 23 27 24 28 25 29 26 30 27 31 18 32 20 34
REMARK SMILES IDX 33 36 35 38 37 40 38 42 39 43 40 44 7 46 4 48 2 49 1 51 3 52
REMARK SMILES IDX 44 53 45 55 46 56 47 58 48 59 49 60 50 62 51 63 52 64 53 65
REMARK SMILES IDX 54 66 67 67 55 68 66 69 56 70 57 71 58 72 59 73 60 75 61 76
REMARK SMILES IDX 62 77 65 78 63 79 64 80
REMARK H PARENT 31 25 18 33 20 35 33 37 35 39 37 41 40 45 7 47 4 50 44 54
REMARK H PARENT 46 57 48 61 59 74
REMARK Flexibility Score: inf
ROOT
ATOM      1  C   UNL     1       4.510  26.394  33.798  1.00  0.00     0.176 C 
ENDROOT
BRANCH   1   2
ATOM      2  C   UNL     1       5.187  25.062  33.997  1.00  0.00     0.178 C 
ATOM      3  C   UNL     1       4.233  23.291  32.754  1.00  0.00     0.272 C 
ATOM      4  C   UNL     1       3.234  23.117  33.910  1.00  0.00     0.113 C 
ATOM      5  O   UNL     1       5.051  24.343  32.862  1.00  0.00    -0.332 OA
ATOM      6  C   UNL     1       3.968  23.210  35.185  1.00  0.00     0.145 C 
ATOM      7  C   UNL     1       4.912  24.380  35.280  1.00  0.00     0.142 C 
BRANCH   3   8
ATOM      8  O   UNL     1       3.436  23.387  31.638  1.00  0.00    -0.338 OA
BRANCH   8   9
ATOM      9  C   UNL     1       2.321  22.664  31.513  1.00  0.00     0.199 C 
BRANCH   9  10
ATOM     10  C   UNL     1       1.607  22.618  30.192  1.00  0.00     0.179 C 
ATOM     11  C   UNL     1       1.111  24.113  28.523  1.00  0.00     0.282 C 
ATOM     12  O   UNL     1       2.058  23.766  29.496  1.00  0.00    -0.341 OA
ATOM     13  C   UNL     1       0.634  22.920  27.764  1.00  0.00     0.202 C 
ATOM     14  C   UNL     1       1.446  21.681  27.942  1.00  0.00     0.179 C 
ATOM     15  C   UNL     1       2.023  21.465  29.304  1.00  0.00     0.177 C 
BRANCH  11  16
ATOM     16  O   UNL     1       1.559  25.084  27.671  1.00  0.00    -0.341 OA
BRANCH  16  17
ATOM     17  C   UNL     1       2.896  25.421  27.868  1.00  0.00     0.184 C 
ATOM     18  C   UNL     1       3.108  26.802  28.311  1.00  0.00     0.178 C 
ATOM     19  O   UNL     1       3.691  27.686  27.444  1.00  0.00    -0.341 OA
ATOM     20  C   UNL     1       3.844  27.310  26.149  1.00  0.00     0.281 C 
ATOM     21  C   UNL     1       3.656  24.965  26.655  1.00  0.00     0.180 C 
ATOM     22  C   UNL     1       4.639  25.992  26.155  1.00  0.00     0.202 C 
BRANCH  18  23
ATOM     23  C   UNL     1       4.010  26.824  29.562  1.00  0.00     0.191 C 
BRANCH  23  24
ATOM     24  O   UNL     1       4.294  25.558  30.025  1.00  0.00    -0.394 OA
ATOM     25  H   UNL     1       4.242  25.576  31.019  1.00  0.00     0.210 HD
ENDBRANCH  23  24
ENDBRANCH  18  23
BRANCH  20  26
ATOM     26  O   UNL     1       4.705  28.223  25.517  1.00  0.00    -0.350 OA
BRANCH  26  27
ATOM     27  C   UNL     1       5.558  28.832  26.415  1.00  0.00     0.169 C 
BRANCH  27  28
ATOM     28  C   UNL     1       6.892  29.049  25.694  1.00  0.00     0.119 C 
BRANCH  28  29
ATOM     29  N   UNL     1       7.315  27.798  25.085  1.00  0.00    -0.092 NA
ATOM     30  N   UNL     1       8.287  27.198  25.541  1.00  0.00     0.001 N 
ATOM     31  N   UNL     1       9.128  26.451  26.075  1.00  0.00    -0.003 NA
ENDBRANCH  28  29
ENDBRANCH  27  28
ENDBRANCH  26  27
ENDBRANCH  20  26
BRANCH  21  32
ATOM     32  O   UNL     1       4.274  23.723  26.832  1.00  0.00    -0.387 OA
ATOM     33  H   UNL     1       3.753  23.151  27.475  1.00  0.00     0.211 HD
ENDBRANCH  21  32
BRANCH  22  34
ATOM     34  O   UNL     1       5.021  25.642  24.876  1.00  0.00    -0.385 OA
ATOM     35  H   UNL     1       4.935  26.414  24.259  1.00  0.00     0.211 HD
ENDBRANCH  22  34
ENDBRANCH  16  17
ENDBRANCH  11  16
BRANCH  13  36
ATOM     36  O   UNL     1      -0.727  22.644  28.030  1.00  0.00    -0.385 OA
ATOM     37  H   UNL     1      -0.921  22.518  28.972  1.00  0.00     0.211 HD
ENDBRANCH  13  36
BRANCH  14  38
ATOM     38  O   UNL     1       2.437  21.588  26.937  1.00  0.00    -0.387 OA
ATOM     39  H   UNL     1       3.313  21.389  27.351  1.00  0.00     0.211 HD
ENDBRANCH  14  38
BRANCH  15  40
ATOM     40  O   UNL     1       3.429  21.500  29.151  1.00  0.00    -0.387 OA
ATOM     41  H   UNL     1       3.887  21.774  29.978  1.00  0.00     0.211 HD
ENDBRANCH  15  40
ENDBRANCH   9  10
ENDBRANCH   8   9
ENDBRANCH   3   8
BRANCH   3  42
ATOM     42  C   UNL     1       5.019  22.017  32.757  1.00  0.00     0.364 C 
ATOM     43  O   UNL     1       4.703  20.989  33.397  1.00  0.00    -0.246 OA
BRANCH  42  44
ATOM     44  O   UNL     1       6.183  21.941  32.002  1.00  0.00    -0.477 OA
ATOM     45  H   UNL     1       7.065  21.706  32.441  1.00  0.00     0.296 HD
ENDBRANCH  42  44
ENDBRANCH   3  42
BRANCH   6  46
ATOM     46  O   UNL     1       3.036  23.221  36.262  1.00  0.00    -0.391 OA
ATOM     47  H   UNL     1       2.458  24.014  36.225  1.00  0.00     0.211 HD
ENDBRANCH   6  46
BRANCH   7  48
ATOM     48  N   UNL     1       6.132  24.004  35.966  1.00  0.00    -0.348 N 
ATOM     49  C   UNL     1       6.238  24.163  37.364  1.00  0.00     0.217 C 
ATOM     50  H   UNL     1       6.964  23.612  35.451  1.00  0.00     0.163 HD
ATOM     51  C   UNL     1       7.503  23.771  38.053  1.00  0.00     0.114 C 
ATOM     52  O   UNL     1       5.323  24.623  38.086  1.00  0.00    -0.275 OA
ENDBRANCH   7  48
ENDBRANCH   1   2
BRANCH   1  53
ATOM     53  O   UNL     1       3.666  26.785  34.796  1.00  0.00    -0.388 OA
ATOM     54  H   UNL     1       2.727  26.517  34.706  1.00  0.00     0.211 HD
ENDBRANCH   1  53
BRANCH   1  55
ATOM     55  C   UNL     1       5.414  27.504  33.307  1.00  0.00     0.165 C 
BRANCH  55  56
ATOM     56  O   UNL     1       6.170  27.155  32.230  1.00  0.00    -0.388 OA
ATOM     57  H   UNL     1       6.204  26.193  32.036  1.00  0.00     0.211 HD
ENDBRANCH  55  56
BRANCH  55  58
ATOM     58  C   UNL     1       6.280  28.012  34.446  1.00  0.00     0.154 C 
BRANCH  58  59
ATOM     59  N   UNL     1       7.326  27.100  34.803  1.00  0.00    -0.319 N 
ATOM     60  C   UNL     1       8.643  27.067  34.283  1.00  0.00     0.407 C 
ATOM     61  H   UNL     1       7.153  26.331  35.545  1.00  0.00     0.167 HD
ATOM     62  O   UNL     1       9.032  27.869  33.434  1.00  0.00    -0.225 OA
BRANCH  60  63
ATOM     63  O   UNL     1       9.577  26.105  34.716  1.00  0.00    -0.443 OA
BRANCH  63  64
ATOM     64  C   UNL     1      10.668  26.362  35.538  1.00  0.00     0.294 C 
BRANCH  64  65
ATOM     65  C   UNL     1      10.931  25.335  36.555  1.00  0.00     0.120 A 
ATOM     66  C   UNL     1      10.768  25.454  37.918  1.00  0.00     0.138 A 
ATOM     67  N   UNL     1      11.379  24.069  36.343  1.00  0.00    -0.132 NA
ATOM     68  N   UNL     1      11.111  24.293  38.491  1.00  0.00    -0.243 N 
ATOM     69  N   UNL     1      11.470  23.488  37.520  1.00  0.00    -0.067 NA
BRANCH  68  70
ATOM     70  C   UNL     1      11.116  23.897  39.883  1.00  0.00     0.245 C 
BRANCH  70  71
ATOM     71  C   UNL     1      12.455  24.162  40.439  1.00  0.00     0.242 C 
ATOM     72  O   UNL     1      12.600  24.976  41.369  1.00  0.00    -0.273 OA
ATOM     73  N   UNL     1      13.592  23.493  39.922  1.00  0.00    -0.350 N 
ATOM     74  H   UNL     1      13.512  22.794  39.131  1.00  0.00     0.163 HD
BRANCH  73  75
ATOM     75  C   UNL     1      14.908  23.720  40.435  1.00  0.00     0.162 C 
BRANCH  75  76
ATOM     76  C   UNL     1      15.455  22.453  40.943  1.00  0.00     0.024 A 
ATOM     77  C   UNL     1      15.992  21.383  40.305  1.00  0.00     0.017 A 
ATOM     78  S   UNL     1      15.550  22.007  42.641  1.00  0.00    -0.147 S 
ATOM     79  C   UNL     1      16.428  20.338  41.024  1.00  0.00     0.012 A 
ATOM     80  C   UNL     1      16.333  20.354  42.366  1.00  0.00     0.065 A 
ENDBRANCH  75  76
ENDBRANCH  73  75
ENDBRANCH  70  71
ENDBRANCH  68  70
ENDBRANCH  64  65
ENDBRANCH  63  64
ENDBRANCH  60  63
ENDBRANCH  58  59
ENDBRANCH  55  58
ENDBRANCH   1  55
TORSDOF 33
