REMARK VINA RESULT:    -5.355      5.428     11.288
REMARK INTER + INTRA:         -21.257
REMARK INTER:                 -16.025
REMARK INTRA:                  -5.233
REMARK UNBOUND:                -7.606
REMARK SMILES CC(=O)N[C@@H]1[C@@H](O)C[C@](OC[C@H]2O[C@@H](O[C@H]3[C@H](O)[C@@H](O)[C@H](OCCN=[N+]=[N-])O[C@@H]3CO)[C@H](O)[C@@H](O)[C@H]2O)(C(=O)O)O[C@H]1C(O)[C@H](O)CNC(=O)OCc1cn(-c2ccc(CO)cn2)nn1
REMARK SMILES IDX 9 1 8 2 6 3 5 4 42 5 41 6 10 7 11 8 12 9 14 10 13 11 32 12
REMARK SMILES IDX 34 13 36 14 15 15 16 16 29 17 28 18 21 19 17 20 19 21 30 22
REMARK SMILES IDX 31 23 22 25 23 26 24 27 25 28 26 29 27 30 18 31 20 33 33 35
REMARK SMILES IDX 35 37 37 39 38 41 39 42 40 43 7 45 43 47 44 48 45 50 46 51
REMARK SMILES IDX 47 53 48 54 49 55 50 57 51 58 52 59 53 60 54 61 65 62 55 63
REMARK SMILES IDX 64 64 56 65 57 66 63 67 58 68 62 69 59 70 60 71 61 72 4 74
REMARK SMILES IDX 2 75 1 77 3 78
REMARK H PARENT 31 24 18 32 20 34 33 36 35 38 37 40 40 44 7 46 44 49 46 52
REMARK H PARENT 48 56 61 73 4 76
REMARK Flexibility Score: inf
ROOT
ATOM      1  C   UNL     1      22.686  25.660  23.104  1.00  0.00     0.272 C 
ATOM      2  C   UNL     1      23.580  24.522  23.433  1.00  0.00     0.113 C 
ATOM      3  C   UNL     1      24.223  23.925  22.212  1.00  0.00     0.145 C 
ATOM      4  C   UNL     1      24.806  25.022  21.343  1.00  0.00     0.142 C 
ATOM      5  C   UNL     1      23.804  26.073  21.094  1.00  0.00     0.178 C 
ATOM      6  O   UNL     1      23.223  26.556  22.215  1.00  0.00    -0.332 OA
ENDROOT
BRANCH   1   7
ATOM      7  O   UNL     1      22.273  26.384  24.209  1.00  0.00    -0.338 OA
BRANCH   7   8
ATOM      8  C   UNL     1      21.992  27.704  23.920  1.00  0.00     0.199 C 
BRANCH   8   9
ATOM      9  C   UNL     1      22.619  28.591  24.953  1.00  0.00     0.179 C 
ATOM     10  C   UNL     1      22.931  28.805  27.182  1.00  0.00     0.282 C 
ATOM     11  O   UNL     1      22.974  27.873  26.112  1.00  0.00    -0.341 OA
ATOM     12  C   UNL     1      23.714  30.005  26.840  1.00  0.00     0.202 C 
ATOM     13  C   UNL     1      24.621  29.882  25.628  1.00  0.00     0.179 C 
ATOM     14  C   UNL     1      23.870  29.244  24.463  1.00  0.00     0.177 C 
BRANCH  10  15
ATOM     15  O   UNL     1      23.313  28.164  28.365  1.00  0.00    -0.341 OA
BRANCH  15  16
ATOM     16  C   UNL     1      23.738  26.870  28.156  1.00  0.00     0.184 C 
ATOM     17  C   UNL     1      23.060  25.822  28.982  1.00  0.00     0.178 C 
ATOM     18  O   UNL     1      23.892  25.232  29.929  1.00  0.00    -0.341 OA
ATOM     19  C   UNL     1      24.461  26.135  30.791  1.00  0.00     0.281 C 
ATOM     20  C   UNL     1      25.228  26.845  28.544  1.00  0.00     0.180 C 
ATOM     21  C   UNL     1      25.233  27.224  30.031  1.00  0.00     0.202 C 
BRANCH  17  22
ATOM     22  C   UNL     1      22.684  24.675  28.025  1.00  0.00     0.191 C 
BRANCH  22  23
ATOM     23  O   UNL     1      23.042  23.445  28.599  1.00  0.00    -0.394 OA
ATOM     24  H   UNL     1      22.357  22.744  28.381  1.00  0.00     0.210 HD
ENDBRANCH  22  23
ENDBRANCH  17  22
BRANCH  19  25
ATOM     25  O   UNL     1      25.348  25.453  31.620  1.00  0.00    -0.350 OA
BRANCH  25  26
ATOM     26  C   UNL     1      26.143  26.283  32.367  1.00  0.00     0.169 C 
BRANCH  26  27
ATOM     27  C   UNL     1      27.524  25.648  32.467  1.00  0.00     0.119 C 
BRANCH  27  28
ATOM     28  N   UNL     1      27.831  24.911  31.249  1.00  0.00    -0.092 NA
ATOM     29  N   UNL     1      28.594  25.315  30.387  1.00  0.00     0.001 N 
ATOM     30  N   UNL     1      29.601  25.442  29.691  1.00  0.00    -0.003 NA
ENDBRANCH  27  28
ENDBRANCH  26  27
ENDBRANCH  25  26
ENDBRANCH  19  25
BRANCH  20  31
ATOM     31  O   UNL     1      25.826  25.641  28.291  1.00  0.00    -0.387 OA
ATOM     32  H   UNL     1      26.387  25.713  27.505  1.00  0.00     0.211 HD
ENDBRANCH  20  31
BRANCH  21  33
ATOM     33  O   UNL     1      24.557  28.438  30.122  1.00  0.00    -0.385 OA
ATOM     34  H   UNL     1      25.148  29.072  30.601  1.00  0.00     0.211 HD
ENDBRANCH  21  33
ENDBRANCH  15  16
ENDBRANCH  10  15
BRANCH  12  35
ATOM     35  O   UNL     1      22.824  31.080  26.602  1.00  0.00    -0.385 OA
ATOM     36  H   UNL     1      22.115  31.123  27.294  1.00  0.00     0.211 HD
ENDBRANCH  12  35
BRANCH  13  37
ATOM     37  O   UNL     1      25.805  29.229  25.925  1.00  0.00    -0.387 OA
ATOM     38  H   UNL     1      26.388  29.715  26.529  1.00  0.00     0.211 HD
ENDBRANCH  13  37
BRANCH  14  39
ATOM     39  O   UNL     1      24.723  28.342  23.866  1.00  0.00    -0.387 OA
ATOM     40  H   UNL     1      25.505  28.205  24.436  1.00  0.00     0.211 HD
ENDBRANCH  14  39
ENDBRANCH   8   9
ENDBRANCH   7   8
ENDBRANCH   1   7
BRANCH   1  41
ATOM     41  C   UNL     1      21.405  25.185  22.451  1.00  0.00     0.364 C 
ATOM     42  O   UNL     1      21.157  25.351  21.233  1.00  0.00    -0.246 OA
BRANCH  41  43
ATOM     43  O   UNL     1      20.440  24.538  23.196  1.00  0.00    -0.477 OA
ATOM     44  H   UNL     1      19.956  23.722  22.802  1.00  0.00     0.296 HD
ENDBRANCH  41  43
ENDBRANCH   1  41
BRANCH   3  45
ATOM     45  O   UNL     1      25.323  23.175  22.673  1.00  0.00    -0.391 OA
ATOM     46  H   UNL     1      25.866  23.648  23.329  1.00  0.00     0.211 HD
ENDBRANCH   3  45
BRANCH   5  47
ATOM     47  C   UNL     1      24.320  27.211  20.233  1.00  0.00     0.176 C 
BRANCH  47  48
ATOM     48  O   UNL     1      24.185  28.416  20.922  1.00  0.00    -0.388 OA
ATOM     49  H   UNL     1      24.500  29.169  20.370  1.00  0.00     0.211 HD
ENDBRANCH  47  48
BRANCH  47  50
ATOM     50  C   UNL     1      23.673  27.356  18.909  1.00  0.00     0.165 C 
BRANCH  50  51
ATOM     51  O   UNL     1      24.169  28.439  18.170  1.00  0.00    -0.388 OA
ATOM     52  H   UNL     1      23.556  29.187  18.118  1.00  0.00     0.211 HD
ENDBRANCH  50  51
BRANCH  50  53
ATOM     53  C   UNL     1      22.172  27.345  18.900  1.00  0.00     0.154 C 
BRANCH  53  54
ATOM     54  N   UNL     1      21.645  28.624  19.298  1.00  0.00    -0.319 N 
ATOM     55  C   UNL     1      20.247  28.839  19.324  1.00  0.00     0.407 C 
ATOM     56  H   UNL     1      22.315  29.414  19.575  1.00  0.00     0.167 HD
ATOM     57  O   UNL     1      19.417  27.955  19.014  1.00  0.00    -0.225 OA
BRANCH  55  58
ATOM     58  O   UNL     1      19.714  30.074  19.706  1.00  0.00    -0.443 OA
BRANCH  58  59
ATOM     59  C   UNL     1      19.957  30.554  20.998  1.00  0.00     0.294 C 
BRANCH  59  60
ATOM     60  C   UNL     1      18.951  30.229  22.000  1.00  0.00     0.121 A 
ATOM     61  C   UNL     1      17.588  30.297  21.854  1.00  0.00     0.146 A 
ATOM     62  N   UNL     1      19.167  29.805  23.257  1.00  0.00    -0.131 NA
ATOM     63  N   UNL     1      17.014  29.917  23.014  1.00  0.00    -0.202 N 
ATOM     64  N   UNL     1      18.006  29.627  23.836  1.00  0.00    -0.061 NA
BRANCH  63  65
ATOM     65  C   UNL     1      15.616  29.864  23.246  1.00  0.00     0.155 A 
ATOM     66  C   UNL     1      15.071  30.125  24.499  1.00  0.00     0.049 A 
ATOM     67  N   UNL     1      14.760  29.549  22.259  1.00  0.00    -0.237 NA
ATOM     68  C   UNL     1      13.700  30.060  24.709  1.00  0.00     0.011 A 
ATOM     69  C   UNL     1      13.419  29.480  22.442  1.00  0.00     0.119 A 
ATOM     70  C   UNL     1      12.847  29.734  23.678  1.00  0.00    -0.004 A 
BRANCH  70  71
ATOM     71  C   UNL     1      11.380  29.663  23.910  1.00  0.00     0.193 C 
BRANCH  71  72
ATOM     72  O   UNL     1      11.045  28.516  24.628  1.00  0.00    -0.392 OA
ATOM     73  H   UNL     1      11.133  28.640  25.595  1.00  0.00     0.211 HD
ENDBRANCH  71  72
ENDBRANCH  70  71
ENDBRANCH  63  65
ENDBRANCH  59  60
ENDBRANCH  58  59
ENDBRANCH  55  58
ENDBRANCH  53  54
ENDBRANCH  50  53
ENDBRANCH  47  50
ENDBRANCH   5  47
BRANCH   4  74
ATOM     74  N   UNL     1      25.317  24.434  20.104  1.00  0.00    -0.348 N 
ATOM     75  C   UNL     1      26.657  24.095  19.931  1.00  0.00     0.217 C 
ATOM     76  H   UNL     1      24.640  24.262  19.334  1.00  0.00     0.163 HD
ATOM     77  C   UNL     1      27.052  23.503  18.598  1.00  0.00     0.114 C 
ATOM     78  O   UNL     1      27.532  24.251  20.795  1.00  0.00    -0.275 OA
ENDBRANCH   4  74
TORSDOF 32
