REMARK VINA RESULT:    -5.341      3.066     10.165
REMARK INTER + INTRA:         -21.373
REMARK INTER:                 -14.204
REMARK INTRA:                  -7.169
REMARK UNBOUND:                -7.602
REMARK SMILES CC(=O)N[C@@H]1[C@@H](O)C[C@](OC[C@H]2O[C@@H](O[C@H]3[C@H](O)[C@@H](O)[C@H](OCCN=[N+]=[N-])O[C@@H]3CO)[C@H](O)[C@@H](O)[C@H]2O)(C(=O)O)O[C@H]1C(O)[C@H](O)CNC(=O)OCc1cn(CC(=O)Nc2ncccn2)nn1
REMARK SMILES IDX 9 1 8 2 6 3 5 4 42 5 41 6 10 7 11 8 12 9 14 10 13 11 32 12
REMARK SMILES IDX 34 13 36 14 15 15 16 16 29 17 28 18 21 19 17 20 19 21 30 22
REMARK SMILES IDX 31 23 22 25 23 26 24 27 25 28 26 29 27 30 18 31 20 33 33 35
REMARK SMILES IDX 35 37 37 39 38 41 39 42 40 43 7 45 43 47 44 48 45 50 46 51
REMARK SMILES IDX 47 53 48 54 49 55 50 57 51 58 52 59 53 60 54 61 67 62 55 63
REMARK SMILES IDX 66 64 56 65 57 66 58 67 59 68 60 70 61 71 65 72 62 73 64 74
REMARK SMILES IDX 63 75 4 76 2 77 1 79 3 80
REMARK H PARENT 31 24 18 32 20 34 33 36 35 38 37 40 40 44 7 46 44 49 46 52
REMARK H PARENT 48 56 59 69 4 78
REMARK Flexibility Score: inf
ROOT
ATOM      1  C   UNL     1      13.481  31.646  15.797  1.00  0.00     0.272 C 
ATOM      2  C   UNL     1      12.210  30.983  16.302  1.00  0.00     0.113 C 
ATOM      3  C   UNL     1      11.245  30.792  15.204  1.00  0.00     0.145 C 
ATOM      4  C   UNL     1      11.820  30.234  13.911  1.00  0.00     0.142 C 
ATOM      5  C   UNL     1      13.233  30.552  13.713  1.00  0.00     0.178 C 
ATOM      6  O   UNL     1      13.946  30.610  14.903  1.00  0.00    -0.332 OA
ENDROOT
BRANCH   1   7
ATOM      7  O   UNL     1      14.362  31.697  16.788  1.00  0.00    -0.338 OA
BRANCH   7   8
ATOM      8  C   UNL     1      15.618  31.648  16.981  1.00  0.00     0.199 C 
BRANCH   8   9
ATOM      9  C   UNL     1      16.396  30.659  17.784  1.00  0.00     0.179 C 
ATOM     10  C   UNL     1      16.696  30.110  20.034  1.00  0.00     0.282 C 
ATOM     11  O   UNL     1      16.145  31.013  19.180  1.00  0.00    -0.341 OA
ATOM     12  C   UNL     1      15.781  28.845  20.114  1.00  0.00     0.202 C 
ATOM     13  C   UNL     1      14.949  28.971  18.854  1.00  0.00     0.179 C 
ATOM     14  C   UNL     1      15.979  29.236  17.733  1.00  0.00     0.177 C 
BRANCH  10  15
ATOM     15  O   UNL     1      16.745  30.655  21.323  1.00  0.00    -0.341 OA
BRANCH  15  16
ATOM     16  C   UNL     1      15.566  30.465  22.032  1.00  0.00     0.184 C 
ATOM     17  C   UNL     1      14.969  31.849  22.317  1.00  0.00     0.178 C 
ATOM     18  O   UNL     1      14.680  32.002  23.665  1.00  0.00    -0.341 OA
ATOM     19  C   UNL     1      15.847  31.942  24.442  1.00  0.00     0.281 C 
ATOM     20  C   UNL     1      15.827  29.704  23.277  1.00  0.00     0.180 C 
ATOM     21  C   UNL     1      16.266  30.500  24.469  1.00  0.00     0.202 C 
BRANCH  17  22
ATOM     22  C   UNL     1      13.659  32.006  21.563  1.00  0.00     0.191 C 
BRANCH  22  23
ATOM     23  O   UNL     1      12.969  33.141  21.990  1.00  0.00    -0.394 OA
ATOM     24  H   UNL     1      11.987  33.060  21.845  1.00  0.00     0.210 HD
ENDBRANCH  22  23
ENDBRANCH  17  22
BRANCH  19  25
ATOM     25  O   UNL     1      15.480  32.371  25.704  1.00  0.00    -0.350 OA
BRANCH  25  26
ATOM     26  C   UNL     1      14.675  31.482  26.383  1.00  0.00     0.169 C 
BRANCH  26  27
ATOM     27  C   UNL     1      13.604  32.138  27.228  1.00  0.00     0.119 C 
BRANCH  27  28
ATOM     28  N   UNL     1      12.929  33.206  26.509  1.00  0.00    -0.092 NA
ATOM     29  N   UNL     1      12.139  32.974  25.587  1.00  0.00     0.001 N 
ATOM     30  N   UNL     1      11.503  32.560  24.625  1.00  0.00    -0.003 NA
ENDBRANCH  27  28
ENDBRANCH  26  27
ENDBRANCH  25  26
ENDBRANCH  19  25
BRANCH  20  31
ATOM     31  O   UNL     1      14.627  29.054  23.676  1.00  0.00    -0.387 OA
ATOM     32  H   UNL     1      13.843  29.597  23.374  1.00  0.00     0.211 HD
ENDBRANCH  20  31
BRANCH  21  33
ATOM     33  O   UNL     1      17.651  30.420  24.574  1.00  0.00    -0.385 OA
ATOM     34  H   UNL     1      18.045  30.303  23.677  1.00  0.00     0.211 HD
ENDBRANCH  21  33
ENDBRANCH  15  16
ENDBRANCH  10  15
BRANCH  12  35
ATOM     35  O   UNL     1      16.592  27.721  19.923  1.00  0.00    -0.385 OA
ATOM     36  H   UNL     1      16.518  27.487  18.959  1.00  0.00     0.211 HD
ENDBRANCH  12  35
BRANCH  13  37
ATOM     37  O   UNL     1      13.978  29.933  18.926  1.00  0.00    -0.387 OA
ATOM     38  H   UNL     1      13.309  29.878  18.216  1.00  0.00     0.211 HD
ENDBRANCH  13  37
BRANCH  14  39
ATOM     39  O   UNL     1      15.503  28.696  16.591  1.00  0.00    -0.387 OA
ATOM     40  H   UNL     1      14.696  29.160  16.261  1.00  0.00     0.211 HD
ENDBRANCH  14  39
ENDBRANCH   8   9
ENDBRANCH   7   8
ENDBRANCH   1   7
BRANCH   1  41
ATOM     41  C   UNL     1      13.304  32.863  15.034  1.00  0.00     0.364 C 
ATOM     42  O   UNL     1      12.300  33.619  15.264  1.00  0.00    -0.246 OA
BRANCH  41  43
ATOM     43  O   UNL     1      14.137  33.309  14.035  1.00  0.00    -0.477 OA
ATOM     44  H   UNL     1      15.088  33.569  14.143  1.00  0.00     0.296 HD
ENDBRANCH  41  43
ENDBRANCH   1  41
BRANCH   3  45
ATOM     45  O   UNL     1      10.243  29.912  15.687  1.00  0.00    -0.391 OA
ATOM     46  H   UNL     1      10.362  29.806  16.679  1.00  0.00     0.211 HD
ENDBRANCH   3  45
BRANCH   5  47
ATOM     47  C   UNL     1      14.020  29.518  12.866  1.00  0.00     0.176 C 
BRANCH  47  48
ATOM     48  O   UNL     1      13.326  28.437  12.478  1.00  0.00    -0.388 OA
ATOM     49  H   UNL     1      13.871  27.678  12.128  1.00  0.00     0.211 HD
ENDBRANCH  47  48
BRANCH  47  50
ATOM     50  C   UNL     1      15.093  30.048  12.049  1.00  0.00     0.165 C 
BRANCH  50  51
ATOM     51  O   UNL     1      15.047  29.192  10.821  1.00  0.00    -0.388 OA
ATOM     52  H   UNL     1      14.121  28.946  10.668  1.00  0.00     0.211 HD
ENDBRANCH  50  51
BRANCH  50  53
ATOM     53  C   UNL     1      16.493  30.149  12.409  1.00  0.00     0.154 C 
BRANCH  53  54
ATOM     54  N   UNL     1      17.174  29.500  13.430  1.00  0.00    -0.319 N 
ATOM     55  C   UNL     1      18.027  29.913  14.473  1.00  0.00     0.407 C 
ATOM     56  H   UNL     1      17.011  28.393  13.424  1.00  0.00     0.167 HD
ATOM     57  O   UNL     1      18.329  31.112  14.622  1.00  0.00    -0.225 OA
BRANCH  55  58
ATOM     58  O   UNL     1      18.553  29.015  15.367  1.00  0.00    -0.443 OA
BRANCH  58  59
ATOM     59  C   UNL     1      19.771  28.986  15.961  1.00  0.00     0.294 C 
BRANCH  59  60
ATOM     60  C   UNL     1      19.729  28.927  17.440  1.00  0.00     0.120 A 
ATOM     61  C   UNL     1      20.277  29.865  18.326  1.00  0.00     0.138 A 
ATOM     62  N   UNL     1      19.232  27.964  18.266  1.00  0.00    -0.132 NA
ATOM     63  N   UNL     1      20.110  29.464  19.591  1.00  0.00    -0.243 N 
ATOM     64  N   UNL     1      19.473  28.309  19.511  1.00  0.00    -0.067 NA
BRANCH  63  65
ATOM     65  C   UNL     1      20.512  30.107  20.826  1.00  0.00     0.246 C 
BRANCH  65  66
ATOM     66  C   UNL     1      20.559  29.040  21.900  1.00  0.00     0.248 C 
ATOM     67  O   UNL     1      19.869  29.123  22.945  1.00  0.00    -0.272 OA
ATOM     68  N   UNL     1      21.398  27.910  21.739  1.00  0.00    -0.293 N 
ATOM     69  H   UNL     1      21.952  27.893  20.847  1.00  0.00     0.173 HD
BRANCH  68  70
ATOM     70  C   UNL     1      21.535  26.836  22.644  1.00  0.00     0.229 A 
ATOM     71  N   UNL     1      22.312  26.858  23.741  1.00  0.00    -0.221 NA
ATOM     72  N   UNL     1      20.846  25.705  22.390  1.00  0.00    -0.221 NA
ATOM     73  C   UNL     1      22.425  25.792  24.587  1.00  0.00     0.117 A 
ATOM     74  C   UNL     1      20.918  24.635  23.183  1.00  0.00     0.117 A 
ATOM     75  C   UNL     1      21.709  24.650  24.300  1.00  0.00     0.040 A 
ENDBRANCH  68  70
ENDBRANCH  65  66
ENDBRANCH  63  65
ENDBRANCH  59  60
ENDBRANCH  58  59
ENDBRANCH  55  58
ENDBRANCH  53  54
ENDBRANCH  50  53
ENDBRANCH  47  50
ENDBRANCH   5  47
BRANCH   4  76
ATOM     76  N   UNL     1      10.902  30.613  12.880  1.00  0.00    -0.348 N 
ATOM     77  C   UNL     1      10.133  29.625  12.157  1.00  0.00     0.217 C 
ATOM     78  H   UNL     1      10.749  31.620  12.608  1.00  0.00     0.163 HD
ATOM     79  C   UNL     1       9.199  30.086  11.109  1.00  0.00     0.114 C 
ATOM     80  O   UNL     1      10.267  28.412  12.421  1.00  0.00    -0.275 OA
ENDBRANCH   4  76
TORSDOF 32
