REMARK VINA RESULT:    -6.852     17.782     22.574
REMARK INTER + INTRA:         -25.861
REMARK INTER:                 -19.630
REMARK INTRA:                  -6.231
REMARK UNBOUND:                -7.995
REMARK SMILES CC(=O)N[C@@H]1[C@@H](O)C[C@](OC[C@H]2O[C@@H](O[C@H]3[C@H](O)[C@@H](O)[C@H](OCCN=[N+]=[N-])O[C@@H]3CO)[C@H](O)[C@@H](O)[C@H]2O)(C(=O)O)O[C@H]1C(O)[C@H](O)CNC(=O)OCc1cn(-c2ccc(-c3c4ccc(=O)cc-4oc4cc(O)ccc34)c(C(=O)[O-])c2)nn1
REMARK SMILES IDX 9 1 8 2 6 3 5 4 42 5 41 6 10 7 11 8 12 9 14 10 13 11 32 12
REMARK SMILES IDX 34 13 36 14 15 15 16 16 29 17 28 18 21 19 17 20 19 21 30 22
REMARK SMILES IDX 31 23 22 25 23 26 24 27 25 28 26 29 27 30 18 31 20 33 33 35
REMARK SMILES IDX 35 37 37 39 38 41 39 42 40 43 7 45 43 47 44 48 45 50 46 51
REMARK SMILES IDX 47 53 48 54 49 55 50 57 51 58 52 59 53 60 54 61 82 62 55 63
REMARK SMILES IDX 81 64 56 65 80 66 57 67 76 68 58 69 59 70 77 71 78 72 79 73
REMARK SMILES IDX 60 74 75 75 61 76 74 77 69 78 67 79 62 80 73 81 70 82 68 83
REMARK SMILES IDX 66 84 63 85 71 86 64 87 65 88 72 89 4 91 2 92 1 94 3 95
REMARK H PARENT 31 24 18 32 20 34 33 36 35 38 37 40 40 44 7 46 44 49 46 52
REMARK H PARENT 48 56 72 90 4 93
REMARK Flexibility Score: inf
ROOT
ATOM      1  C   UNL     1       4.731  23.292  33.265  1.00  0.00     0.272 C 
ATOM      2  C   UNL     1       3.478  23.411  34.097  1.00  0.00     0.113 C 
ATOM      3  C   UNL     1       2.864  22.084  34.442  1.00  0.00     0.145 C 
ATOM      4  C   UNL     1       3.461  21.046  33.525  1.00  0.00     0.142 C 
ATOM      5  C   UNL     1       3.480  21.648  32.145  1.00  0.00     0.178 C 
ATOM      6  O   UNL     1       4.480  22.584  32.064  1.00  0.00    -0.332 OA
ENDROOT
BRANCH   1   7
ATOM      7  O   UNL     1       5.817  22.748  33.892  1.00  0.00    -0.338 OA
BRANCH   7   8
ATOM      8  C   UNL     1       6.989  22.916  33.243  1.00  0.00     0.199 C 
BRANCH   8   9
ATOM      9  C   UNL     1       8.133  23.253  34.211  1.00  0.00     0.179 C 
ATOM     10  C   UNL     1       9.844  24.764  34.540  1.00  0.00     0.282 C 
ATOM     11  O   UNL     1       9.061  24.062  33.665  1.00  0.00    -0.341 OA
ATOM     12  C   UNL     1      10.049  24.130  35.859  1.00  0.00     0.202 C 
ATOM     13  C   UNL     1       8.759  23.693  36.511  1.00  0.00     0.179 C 
ATOM     14  C   UNL     1       7.618  23.757  35.508  1.00  0.00     0.177 C 
BRANCH  10  15
ATOM     15  O   UNL     1       9.370  26.075  34.539  1.00  0.00    -0.341 OA
BRANCH  15  16
ATOM     16  C   UNL     1      10.332  27.006  34.756  1.00  0.00     0.184 C 
ATOM     17  C   UNL     1       9.844  28.168  35.565  1.00  0.00     0.178 C 
ATOM     18  O   UNL     1      10.929  28.861  36.120  1.00  0.00    -0.341 OA
ATOM     19  C   UNL     1      11.955  29.015  35.196  1.00  0.00     0.281 C 
ATOM     20  C   UNL     1      10.859  27.639  33.455  1.00  0.00     0.180 C 
ATOM     21  C   UNL     1      11.471  28.983  33.791  1.00  0.00     0.202 C 
BRANCH  17  22
ATOM     22  C   UNL     1       8.964  27.695  36.681  1.00  0.00     0.191 C 
BRANCH  22  23
ATOM     23  O   UNL     1       9.746  27.006  37.609  1.00  0.00    -0.394 OA
ATOM     24  H   UNL     1      10.491  27.599  37.850  1.00  0.00     0.210 HD
ENDBRANCH  22  23
ENDBRANCH  17  22
BRANCH  19  25
ATOM     25  O   UNL     1      12.967  28.105  35.415  1.00  0.00    -0.350 OA
BRANCH  25  26
ATOM     26  C   UNL     1      13.248  27.876  36.756  1.00  0.00     0.169 C 
BRANCH  26  27
ATOM     27  C   UNL     1      14.021  26.571  36.814  1.00  0.00     0.119 C 
BRANCH  27  28
ATOM     28  N   UNL     1      14.897  26.415  35.684  1.00  0.00    -0.092 NA
ATOM     29  N   UNL     1      16.112  26.288  35.887  1.00  0.00     0.001 N 
ATOM     30  N   UNL     1      17.281  25.901  35.867  1.00  0.00    -0.003 NA
ENDBRANCH  27  28
ENDBRANCH  26  27
ENDBRANCH  25  26
ENDBRANCH  19  25
BRANCH  20  31
ATOM     31  O   UNL     1      11.884  26.812  33.006  1.00  0.00    -0.387 OA
ATOM     32  H   UNL     1      12.100  26.077  33.620  1.00  0.00     0.211 HD
ENDBRANCH  20  31
BRANCH  21  33
ATOM     33  O   UNL     1      10.633  30.055  33.484  1.00  0.00    -0.385 OA
ATOM     34  H   UNL     1      11.141  30.876  33.770  1.00  0.00     0.211 HD
ENDBRANCH  21  33
ENDBRANCH  15  16
ENDBRANCH  10  15
BRANCH  12  35
ATOM     35  O   UNL     1      10.916  23.013  35.743  1.00  0.00    -0.385 OA
ATOM     36  H   UNL     1      10.373  22.225  35.439  1.00  0.00     0.211 HD
ENDBRANCH  12  35
BRANCH  13  37
ATOM     37  O   UNL     1       8.490  24.393  37.676  1.00  0.00    -0.387 OA
ATOM     38  H   UNL     1       9.310  24.877  37.933  1.00  0.00     0.211 HD
ENDBRANCH  13  37
BRANCH  14  39
ATOM     39  O   UNL     1       7.153  25.065  35.481  1.00  0.00    -0.387 OA
ATOM     40  H   UNL     1       7.312  25.387  34.546  1.00  0.00     0.211 HD
ENDBRANCH  14  39
ENDBRANCH   8   9
ENDBRANCH   7   8
ENDBRANCH   1   7
BRANCH   1  41
ATOM     41  C   UNL     1       4.993  24.700  32.766  1.00  0.00     0.364 C 
ATOM     42  O   UNL     1       5.153  25.678  33.519  1.00  0.00    -0.246 OA
BRANCH  41  43
ATOM     43  O   UNL     1       5.065  24.948  31.399  1.00  0.00    -0.477 OA
ATOM     44  H   UNL     1       5.166  25.888  31.044  1.00  0.00     0.296 HD
ENDBRANCH  41  43
ENDBRANCH   1  41
BRANCH   3  45
ATOM     45  O   UNL     1       3.048  21.827  35.787  1.00  0.00    -0.391 OA
ATOM     46  H   UNL     1       2.157  21.840  36.217  1.00  0.00     0.211 HD
ENDBRANCH   3  45
BRANCH   5  47
ATOM     47  C   UNL     1       3.810  20.582  31.097  1.00  0.00     0.176 C 
BRANCH  47  48
ATOM     48  O   UNL     1       5.160  20.767  30.710  1.00  0.00    -0.388 OA
ATOM     49  H   UNL     1       5.295  21.585  30.204  1.00  0.00     0.211 HD
ENDBRANCH  47  48
BRANCH  47  50
ATOM     50  C   UNL     1       3.000  20.779  29.859  1.00  0.00     0.165 C 
BRANCH  50  51
ATOM     51  O   UNL     1       3.358  21.978  29.240  1.00  0.00    -0.388 OA
ATOM     52  H   UNL     1       4.305  21.912  28.952  1.00  0.00     0.211 HD
ENDBRANCH  50  51
BRANCH  50  53
ATOM     53  C   UNL     1       1.524  20.684  30.031  1.00  0.00     0.154 C 
BRANCH  53  54
ATOM     54  N   UNL     1       0.809  21.072  28.836  1.00  0.00    -0.319 N 
ATOM     55  C   UNL     1       0.117  22.296  28.681  1.00  0.00     0.407 C 
ATOM     56  H   UNL     1       0.768  20.432  27.985  1.00  0.00     0.167 HD
ATOM     57  O   UNL     1       0.099  23.124  29.612  1.00  0.00    -0.225 OA
BRANCH  55  58
ATOM     58  O   UNL     1      -0.563  22.634  27.517  1.00  0.00    -0.443 OA
BRANCH  58  59
ATOM     59  C   UNL     1      -0.013  22.398  26.216  1.00  0.00     0.294 C 
BRANCH  59  60
ATOM     60  C   UNL     1       1.306  23.079  26.202  1.00  0.00     0.121 A 
ATOM     61  C   UNL     1       1.569  24.360  25.802  1.00  0.00     0.144 A 
ATOM     62  N   UNL     1       2.506  22.558  26.588  1.00  0.00    -0.131 NA
ATOM     63  N   UNL     1       2.890  24.604  25.941  1.00  0.00    -0.220 N 
ATOM     64  N   UNL     1       3.429  23.487  26.421  1.00  0.00    -0.062 NA
BRANCH  63  65
ATOM     65  C   UNL     1       3.544  25.825  25.631  1.00  0.00     0.067 A 
ATOM     66  C   UNL     1       4.913  25.918  25.541  1.00  0.00     0.039 A 
ATOM     67  C   UNL     1       2.783  26.945  25.409  1.00  0.00     0.029 A 
ATOM     68  C   UNL     1       5.499  27.123  25.232  1.00  0.00     0.007 A 
ATOM     69  C   UNL     1       3.373  28.152  25.100  1.00  0.00     0.012 A 
ATOM     70  C   UNL     1       4.740  28.269  25.005  1.00  0.00    -0.008 A 
BRANCH  68  71
ATOM     71  C   UNL     1       6.954  27.258  25.128  1.00  0.00     0.072 C 
ATOM     72  O   UNL     1       7.556  27.132  24.035  1.00  0.00    -0.545 OA
ATOM     73  O   UNL     1       7.685  27.531  26.258  1.00  0.00    -0.545 OA
ENDBRANCH  68  71
BRANCH  70  74
ATOM     74  C   UNL     1       5.371  29.535  24.677  1.00  0.00     0.004 A 
ATOM     75  C   UNL     1       5.705  30.393  25.695  1.00  0.00     0.026 A 
ATOM     76  C   UNL     1       5.641  29.903  23.384  1.00  0.00     0.026 A 
ATOM     77  C   UNL     1       5.471  30.108  27.019  1.00  0.00     0.016 A 
ATOM     78  C   UNL     1       6.305  31.603  25.363  1.00  0.00     0.139 A 
ATOM     79  C   UNL     1       6.282  31.201  23.082  1.00  0.00     0.139 A 
ATOM     80  C   UNL     1       5.337  29.097  22.316  1.00  0.00     0.016 A 
ATOM     81  C   UNL     1       5.812  30.981  28.036  1.00  0.00     0.047 A 
ATOM     82  C   UNL     1       6.641  32.464  26.379  1.00  0.00     0.093 A 
ATOM     83  O   UNL     1       6.562  31.949  24.117  1.00  0.00    -0.456 OA
ATOM     84  C   UNL     1       6.551  31.565  21.787  1.00  0.00     0.099 A 
ATOM     85  C   UNL     1       5.614  29.478  21.015  1.00  0.00     0.053 A 
ATOM     86  C   UNL     1       6.407  32.182  27.718  1.00  0.00     0.119 A 
ATOM     87  C   UNL     1       6.214  30.700  20.773  1.00  0.00     0.182 A 
ATOM     88  O   UNL     1       6.441  30.989  19.567  1.00  0.00    -0.290 OA
BRANCH  86  89
ATOM     89  O   UNL     1       6.746  33.050  28.744  1.00  0.00    -0.508 OA
ATOM     90  H   UNL     1       7.205  32.640  29.553  1.00  0.00     0.293 HD
ENDBRANCH  86  89
ENDBRANCH  70  74
ENDBRANCH  63  65
ENDBRANCH  59  60
ENDBRANCH  58  59
ENDBRANCH  55  58
ENDBRANCH  53  54
ENDBRANCH  50  53
ENDBRANCH  47  50
ENDBRANCH   5  47
BRANCH   4  91
ATOM     91  N   UNL     1       2.741  19.791  33.563  1.00  0.00    -0.348 N 
ATOM     92  C   UNL     1       3.118  18.824  34.515  1.00  0.00     0.217 C 
ATOM     93  H   UNL     1       1.952  19.564  32.918  1.00  0.00     0.163 HD
ATOM     94  C   UNL     1       2.452  17.504  34.643  1.00  0.00     0.114 C 
ATOM     95  O   UNL     1       4.077  19.040  35.335  1.00  0.00    -0.275 OA
ENDBRANCH   4  91
TORSDOF 33
