REMARK VINA RESULT:    -6.556      4.326      9.212
REMARK INTER + INTRA:         -22.007
REMARK INTER:                 -13.914
REMARK INTRA:                  -8.093
REMARK UNBOUND:                -5.485
REMARK SMILES CC(=O)N[C@@H]1[C@@H](O)C[C@](OC[C@H]2O[C@@H](O[C@H]3[C@H](O)[C@@H](O)[C@H](OCCN=[N+]=[N-])O[C@@H]3CO)[C@H](O)[C@@H](O)[C@H]2O)(C(=O)O)O[C@H]1C(O)[C@H](O)CNC(=O)OCc1cn(Cc2ccc(Br)cc2)nn1
REMARK SMILES IDX 9 1 8 2 6 3 5 4 42 5 41 6 10 7 11 8 12 9 14 10 13 11 32 12
REMARK SMILES IDX 34 13 36 14 15 15 16 16 29 17 28 18 21 19 17 20 19 21 30 22
REMARK SMILES IDX 31 23 22 25 23 26 24 27 25 28 26 29 27 30 18 31 20 33 33 35
REMARK SMILES IDX 35 37 37 39 38 41 39 42 40 43 7 45 43 47 44 48 45 50 46 51
REMARK SMILES IDX 47 53 48 54 49 55 50 57 51 58 52 59 53 60 54 61 65 62 55 63
REMARK SMILES IDX 64 64 56 65 57 66 58 67 63 68 59 69 62 70 60 71 61 72 4 73
REMARK SMILES IDX 2 74 1 76 3 77
REMARK H PARENT 31 24 18 32 20 34 33 36 35 38 37 40 40 44 7 46 44 49 46 52
REMARK H PARENT 48 56 4 75
REMARK Flexibility Score: inf
ROOT
ATOM      1  C   UNL     1      20.339  28.262  19.541  1.00  0.00     0.272 C 
ATOM      2  C   UNL     1      21.617  27.897  18.877  1.00  0.00     0.113 C 
ATOM      3  C   UNL     1      22.378  26.739  19.389  1.00  0.00     0.145 C 
ATOM      4  C   UNL     1      22.012  26.340  20.844  1.00  0.00     0.142 C 
ATOM      5  C   UNL     1      21.591  27.655  21.439  1.00  0.00     0.178 C 
ATOM      6  O   UNL     1      20.294  27.846  20.884  1.00  0.00    -0.332 OA
ENDROOT
BRANCH   1   7
ATOM      7  O   UNL     1      19.179  28.123  18.909  1.00  0.00    -0.338 OA
BRANCH   7   8
ATOM      8  C   UNL     1      18.709  28.353  17.742  1.00  0.00     0.199 C 
BRANCH   8   9
ATOM      9  C   UNL     1      17.319  28.940  17.677  1.00  0.00     0.179 C 
ATOM     10  C   UNL     1      15.408  29.355  18.827  1.00  0.00     0.282 C 
ATOM     11  O   UNL     1      16.566  28.661  18.786  1.00  0.00    -0.341 OA
ATOM     12  C   UNL     1      14.994  30.064  17.550  1.00  0.00     0.202 C 
ATOM     13  C   UNL     1      16.125  30.887  16.977  1.00  0.00     0.179 C 
ATOM     14  C   UNL     1      17.444  30.471  17.612  1.00  0.00     0.177 C 
BRANCH  10  15
ATOM     15  O   UNL     1      15.227  30.232  19.844  1.00  0.00    -0.341 OA
BRANCH  15  16
ATOM     16  C   UNL     1      15.015  29.876  21.119  1.00  0.00     0.184 C 
ATOM     17  C   UNL     1      13.865  30.523  21.820  1.00  0.00     0.178 C 
ATOM     18  O   UNL     1      14.228  31.320  22.871  1.00  0.00    -0.341 OA
ATOM     19  C   UNL     1      14.889  30.656  23.894  1.00  0.00     0.281 C 
ATOM     20  C   UNL     1      16.275  30.118  21.924  1.00  0.00     0.180 C 
ATOM     21  C   UNL     1      15.985  29.756  23.359  1.00  0.00     0.202 C 
BRANCH  17  22
ATOM     22  C   UNL     1      12.870  29.462  22.229  1.00  0.00     0.191 C 
BRANCH  22  23
ATOM     23  O   UNL     1      13.284  28.181  21.810  1.00  0.00    -0.394 OA
ATOM     24  H   UNL     1      13.000  27.494  22.439  1.00  0.00     0.210 HD
ENDBRANCH  22  23
ENDBRANCH  17  22
BRANCH  19  25
ATOM     25  O   UNL     1      14.053  29.969  24.758  1.00  0.00    -0.350 OA
BRANCH  25  26
ATOM     26  C   UNL     1      13.375  30.739  25.664  1.00  0.00     0.169 C 
BRANCH  26  27
ATOM     27  C   UNL     1      14.196  31.841  26.267  1.00  0.00     0.119 C 
BRANCH  27  28
ATOM     28  N   UNL     1      15.034  31.312  27.336  1.00  0.00    -0.092 NA
ATOM     29  N   UNL     1      16.256  31.297  27.209  1.00  0.00     0.001 N 
ATOM     30  N   UNL     1      17.475  31.020  27.126  1.00  0.00    -0.003 NA
ENDBRANCH  27  28
ENDBRANCH  26  27
ENDBRANCH  25  26
ENDBRANCH  19  25
BRANCH  20  31
ATOM     31  O   UNL     1      17.233  29.197  21.453  1.00  0.00    -0.387 OA
ATOM     32  H   UNL     1      17.107  29.051  20.475  1.00  0.00     0.211 HD
ENDBRANCH  20  31
BRANCH  21  33
ATOM     33  O   UNL     1      17.125  29.798  24.153  1.00  0.00    -0.385 OA
ATOM     34  H   UNL     1      17.330  30.753  24.320  1.00  0.00     0.211 HD
ENDBRANCH  21  33
ENDBRANCH  15  16
ENDBRANCH  10  15
BRANCH  12  35
ATOM     35  O   UNL     1      14.510  29.211  16.574  1.00  0.00    -0.385 OA
ATOM     36  H   UNL     1      14.939  29.308  15.692  1.00  0.00     0.211 HD
ENDBRANCH  12  35
BRANCH  13  37
ATOM     37  O   UNL     1      15.925  32.256  17.106  1.00  0.00    -0.387 OA
ATOM     38  H   UNL     1      16.358  32.533  17.951  1.00  0.00     0.211 HD
ENDBRANCH  13  37
BRANCH  14  39
ATOM     39  O   UNL     1      17.533  30.908  18.939  1.00  0.00    -0.387 OA
ATOM     40  H   UNL     1      17.442  30.146  19.544  1.00  0.00     0.211 HD
ENDBRANCH  14  39
ENDBRANCH   8   9
ENDBRANCH   7   8
ENDBRANCH   1   7
BRANCH   1  41
ATOM     41  C   UNL     1      20.411  29.789  19.710  1.00  0.00     0.364 C 
ATOM     42  O   UNL     1      21.199  30.411  19.000  1.00  0.00    -0.246 OA
BRANCH  41  43
ATOM     43  O   UNL     1      19.637  30.470  20.612  1.00  0.00    -0.477 OA
ATOM     44  H   UNL     1      19.350  31.440  20.405  1.00  0.00     0.296 HD
ENDBRANCH  41  43
ENDBRANCH   1  41
BRANCH   3  45
ATOM     45  O   UNL     1      22.431  25.623  18.570  1.00  0.00    -0.391 OA
ATOM     46  H   UNL     1      22.702  24.851  19.112  1.00  0.00     0.211 HD
ENDBRANCH   3  45
BRANCH   5  47
ATOM     47  C   UNL     1      21.513  27.752  22.916  1.00  0.00     0.176 C 
BRANCH  47  48
ATOM     48  O   UNL     1      22.550  27.151  23.550  1.00  0.00    -0.388 OA
ATOM     49  H   UNL     1      22.593  26.201  23.394  1.00  0.00     0.211 HD
ENDBRANCH  47  48
BRANCH  47  50
ATOM     50  C   UNL     1      21.057  29.003  23.541  1.00  0.00     0.165 C 
BRANCH  50  51
ATOM     51  O   UNL     1      19.738  29.334  23.191  1.00  0.00    -0.388 OA
ATOM     52  H   UNL     1      19.423  30.180  23.541  1.00  0.00     0.211 HD
ENDBRANCH  50  51
BRANCH  50  53
ATOM     53  C   UNL     1      21.929  30.194  23.537  1.00  0.00     0.154 C 
BRANCH  53  54
ATOM     54  N   UNL     1      23.343  29.928  23.335  1.00  0.00    -0.319 N 
ATOM     55  C   UNL     1      24.289  30.085  24.381  1.00  0.00     0.407 C 
ATOM     56  H   UNL     1      23.734  29.607  22.414  1.00  0.00     0.167 HD
ATOM     57  O   UNL     1      23.901  30.455  25.535  1.00  0.00    -0.225 OA
BRANCH  55  58
ATOM     58  O   UNL     1      25.653  29.857  24.224  1.00  0.00    -0.443 OA
BRANCH  58  59
ATOM     59  C   UNL     1      26.243  29.895  22.910  1.00  0.00     0.294 C 
BRANCH  59  60
ATOM     60  C   UNL     1      26.264  28.571  22.268  1.00  0.00     0.120 A 
ATOM     61  C   UNL     1      27.107  28.198  21.239  1.00  0.00     0.138 A 
ATOM     62  N   UNL     1      25.496  27.515  22.540  1.00  0.00    -0.132 NA
ATOM     63  N   UNL     1      26.828  26.929  20.918  1.00  0.00    -0.248 N 
ATOM     64  N   UNL     1      25.853  26.545  21.718  1.00  0.00    -0.067 NA
BRANCH  63  65
ATOM     65  C   UNL     1      27.456  26.092  19.916  1.00  0.00     0.181 C 
BRANCH  65  66
ATOM     66  C   UNL     1      27.699  24.702  20.365  1.00  0.00    -0.026 A 
ATOM     67  C   UNL     1      27.359  23.664  19.493  1.00  0.00     0.007 A 
ATOM     68  C   UNL     1      28.247  24.367  21.571  1.00  0.00     0.007 A 
ATOM     69  C   UNL     1      27.580  22.347  19.860  1.00  0.00     0.016 A 
ATOM     70  C   UNL     1      28.475  23.044  21.952  1.00  0.00     0.016 A 
ATOM     71  C   UNL     1      28.138  22.038  21.088  1.00  0.00     0.017 A 
ATOM     72  Br  UNL     1      28.433  20.196  21.561  1.00  0.00    -0.051 Br
ENDBRANCH  65  66
ENDBRANCH  63  65
ENDBRANCH  59  60
ENDBRANCH  58  59
ENDBRANCH  55  58
ENDBRANCH  53  54
ENDBRANCH  50  53
ENDBRANCH  47  50
ENDBRANCH   5  47
BRANCH   4  73
ATOM     73  N   UNL     1      23.111  25.677  21.445  1.00  0.00    -0.348 N 
ATOM     74  C   UNL     1      23.186  24.263  21.447  1.00  0.00     0.217 C 
ATOM     75  H   UNL     1      23.879  26.220  21.875  1.00  0.00     0.163 HD
ATOM     76  C   UNL     1      24.275  23.475  22.032  1.00  0.00     0.114 C 
ATOM     77  O   UNL     1      22.231  23.610  20.893  1.00  0.00    -0.275 OA
ENDBRANCH   4  73
TORSDOF 31
