REMARK VINA RESULT:    -5.492      5.151     12.704
REMARK INTER + INTRA:         -22.587
REMARK INTER:                 -17.244
REMARK INTRA:                  -5.343
REMARK UNBOUND:                -7.304
REMARK SMILES CC(=O)N[C@@H]1[C@@H](O)C[C@](OC[C@H]2O[C@@H](O[C@H]3[C@H](O)[C@@H](O)[C@H](OCCN=[N+]=[N-])O[C@@H]3CO)[C@H](O)[C@@H](O)[C@H]2O)(C(=O)O)O[C@H]1C(O)[C@H](O)CNC(=O)OCc1cn(CCCCCC(=O)O)nn1
REMARK SMILES IDX 47 1 45 2 43 3 42 4 9 5 8 6 41 7 6 8 5 9 10 10 11 11 12 12
REMARK SMILES IDX 14 13 13 14 32 15 34 16 36 17 15 18 16 19 29 20 28 21 21 22
REMARK SMILES IDX 17 23 19 24 30 25 31 26 22 28 23 29 24 30 25 31 26 32 27 33
REMARK SMILES IDX 18 34 20 36 33 38 35 40 37 42 38 44 39 45 40 46 7 48 4 50
REMARK SMILES IDX 2 51 1 53 3 54 44 55 46 57 48 59 49 60 50 62 51 63 52 64
REMARK SMILES IDX 53 65 54 66 65 67 55 68 64 69 56 70 57 71 58 72 59 73 60 74
REMARK SMILES IDX 61 75 62 76 63 77
REMARK H PARENT 31 27 18 35 20 37 33 39 35 41 37 43 40 47 7 49 4 52 44 56
REMARK H PARENT 46 58 48 61 63 78
REMARK Flexibility Score: inf
ROOT
ATOM      1  C   UNL     1      26.021  23.414  21.847  1.00  0.00     0.154 C 
ENDROOT
BRANCH   1   2
ATOM      2  C   UNL     1      26.354  24.837  22.226  1.00  0.00     0.165 C 
BRANCH   2   3
ATOM      3  C   UNL     1      25.279  25.300  23.155  1.00  0.00     0.176 C 
BRANCH   3   4
ATOM      4  C   UNL     1      23.879  25.107  22.686  1.00  0.00     0.178 C 
ATOM      5  C   UNL     1      22.434  25.387  20.980  1.00  0.00     0.272 C 
ATOM      6  C   UNL     1      21.654  24.347  21.716  1.00  0.00     0.113 C 
ATOM      7  O   UNL     1      23.464  25.982  21.696  1.00  0.00    -0.332 OA
ATOM      8  C   UNL     1      21.638  24.414  23.195  1.00  0.00     0.145 C 
ATOM      9  C   UNL     1      22.825  25.199  23.768  1.00  0.00     0.142 C 
BRANCH   5  10
ATOM     10  O   UNL     1      21.620  26.336  20.364  1.00  0.00    -0.338 OA
BRANCH  10  11
ATOM     11  C   UNL     1      22.088  27.608  20.291  1.00  0.00     0.199 C 
BRANCH  11  12
ATOM     12  C   UNL     1      20.884  28.504  20.070  1.00  0.00     0.179 C 
ATOM     13  C   UNL     1      18.661  28.747  20.108  1.00  0.00     0.282 C 
ATOM     14  O   UNL     1      19.753  28.110  20.769  1.00  0.00    -0.341 OA
ATOM     15  C   UNL     1      18.948  30.086  19.597  1.00  0.00     0.202 C 
ATOM     16  C   UNL     1      20.143  30.800  20.164  1.00  0.00     0.179 C 
ATOM     17  C   UNL     1      21.236  29.873  20.622  1.00  0.00     0.177 C 
BRANCH  13  18
ATOM     18  O   UNL     1      17.495  28.547  20.841  1.00  0.00    -0.341 OA
BRANCH  18  19
ATOM     19  C   UNL     1      16.488  29.403  20.587  1.00  0.00     0.184 C 
ATOM     20  C   UNL     1      15.899  30.009  21.824  1.00  0.00     0.178 C 
ATOM     21  O   UNL     1      15.176  31.135  21.378  1.00  0.00    -0.341 OA
ATOM     22  C   UNL     1      14.081  30.765  20.674  1.00  0.00     0.281 C 
ATOM     23  C   UNL     1      15.266  28.634  19.977  1.00  0.00     0.180 C 
ATOM     24  C   UNL     1      13.991  29.309  20.415  1.00  0.00     0.202 C 
BRANCH  20  25
ATOM     25  C   UNL     1      16.924  30.508  22.809  1.00  0.00     0.191 C 
BRANCH  25  26
ATOM     26  O   UNL     1      17.408  29.475  23.583  1.00  0.00    -0.394 OA
ATOM     27  H   UNL     1      16.627  28.957  23.914  1.00  0.00     0.210 HD
ENDBRANCH  25  26
ENDBRANCH  20  25
BRANCH  22  28
ATOM     28  O   UNL     1      13.908  31.490  19.488  1.00  0.00    -0.350 OA
BRANCH  28  29
ATOM     29  C   UNL     1      12.687  31.267  18.902  1.00  0.00     0.169 C 
BRANCH  29  30
ATOM     30  C   UNL     1      12.867  31.076  17.403  1.00  0.00     0.119 C 
BRANCH  30  31
ATOM     31  N   UNL     1      14.271  31.168  17.035  1.00  0.00    -0.092 NA
ATOM     32  N   UNL     1      14.699  30.497  16.077  1.00  0.00     0.001 N 
ATOM     33  N   UNL     1      15.272  29.579  15.489  1.00  0.00    -0.003 NA
ENDBRANCH  30  31
ENDBRANCH  29  30
ENDBRANCH  28  29
ENDBRANCH  22  28
BRANCH  23  34
ATOM     34  O   UNL     1      15.338  28.730  18.588  1.00  0.00    -0.387 OA
ATOM     35  H   UNL     1      16.148  28.233  18.273  1.00  0.00     0.211 HD
ENDBRANCH  23  34
BRANCH  24  36
ATOM     36  O   UNL     1      13.311  28.592  21.408  1.00  0.00    -0.385 OA
ATOM     37  H   UNL     1      12.478  28.178  21.071  1.00  0.00     0.211 HD
ENDBRANCH  24  36
ENDBRANCH  18  19
ENDBRANCH  13  18
BRANCH  15  38
ATOM     38  O   UNL     1      19.156  30.079  18.187  1.00  0.00    -0.385 OA
ATOM     39  H   UNL     1      20.096  29.924  17.984  1.00  0.00     0.211 HD
ENDBRANCH  15  38
BRANCH  16  40
ATOM     40  O   UNL     1      19.813  31.615  21.261  1.00  0.00    -0.387 OA
ATOM     41  H   UNL     1      18.864  31.593  21.480  1.00  0.00     0.211 HD
ENDBRANCH  16  40
BRANCH  17  42
ATOM     42  O   UNL     1      21.175  29.748  22.033  1.00  0.00    -0.387 OA
ATOM     43  H   UNL     1      20.497  30.437  22.322  1.00  0.00     0.211 HD
ENDBRANCH  17  42
ENDBRANCH  11  12
ENDBRANCH  10  11
ENDBRANCH   5  10
BRANCH   5  44
ATOM     44  C   UNL     1      23.112  24.686  19.853  1.00  0.00     0.364 C 
ATOM     45  O   UNL     1      24.233  25.063  19.447  1.00  0.00    -0.246 OA
BRANCH  44  46
ATOM     46  O   UNL     1      22.508  23.612  19.246  1.00  0.00    -0.477 OA
ATOM     47  H   UNL     1      21.797  23.025  19.712  1.00  0.00     0.296 HD
ENDBRANCH  44  46
ENDBRANCH   5  44
BRANCH   8  48
ATOM     48  O   UNL     1      20.429  24.807  23.763  1.00  0.00    -0.391 OA
ATOM     49  H   UNL     1      20.391  24.437  24.673  1.00  0.00     0.211 HD
ENDBRANCH   8  48
BRANCH   9  50
ATOM     50  N   UNL     1      23.222  24.701  25.038  1.00  0.00    -0.348 N 
ATOM     51  C   UNL     1      22.660  25.251  26.215  1.00  0.00     0.217 C 
ATOM     52  H   UNL     1      23.913  23.942  25.121  1.00  0.00     0.163 HD
ATOM     53  C   UNL     1      23.054  24.746  27.556  1.00  0.00     0.114 C 
ATOM     54  O   UNL     1      21.806  26.185  26.180  1.00  0.00    -0.275 OA
ENDBRANCH   9  50
ENDBRANCH   3   4
BRANCH   3  55
ATOM     55  O   UNL     1      25.457  26.659  23.502  1.00  0.00    -0.388 OA
ATOM     56  H   UNL     1      25.209  26.797  24.444  1.00  0.00     0.211 HD
ENDBRANCH   3  55
ENDBRANCH   2   3
BRANCH   2  57
ATOM     57  O   UNL     1      26.363  25.600  21.064  1.00  0.00    -0.388 OA
ATOM     58  H   UNL     1      25.614  25.277  20.501  1.00  0.00     0.211 HD
ENDBRANCH   2  57
ENDBRANCH   1   2
BRANCH   1  59
ATOM     59  N   UNL     1      27.160  22.575  21.651  1.00  0.00    -0.319 N 
ATOM     60  C   UNL     1      27.670  22.424  20.322  1.00  0.00     0.407 C 
ATOM     61  H   UNL     1      27.631  22.075  22.421  1.00  0.00     0.167 HD
ATOM     62  O   UNL     1      27.124  23.017  19.359  1.00  0.00    -0.225 OA
BRANCH  60  63
ATOM     63  O   UNL     1      28.760  21.633  20.045  1.00  0.00    -0.443 OA
BRANCH  63  64
ATOM     64  C   UNL     1      28.898  20.311  20.433  1.00  0.00     0.294 C 
BRANCH  64  65
ATOM     65  C   UNL     1      29.735  20.049  21.610  1.00  0.00     0.120 A 
ATOM     66  C   UNL     1      30.853  19.259  21.683  1.00  0.00     0.138 A 
ATOM     67  N   UNL     1      29.523  20.546  22.850  1.00  0.00    -0.132 NA
ATOM     68  N   UNL     1      31.290  19.291  22.943  1.00  0.00    -0.252 N 
ATOM     69  N   UNL     1      30.469  20.073  23.615  1.00  0.00    -0.067 NA
BRANCH  68  70
ATOM     70  C   UNL     1      32.462  18.596  23.457  1.00  0.00     0.146 C 
BRANCH  70  71
ATOM     71  C   UNL     1      32.023  17.751  24.653  1.00  0.00     0.024 C 
BRANCH  71  72
ATOM     72  C   UNL     1      33.198  17.331  25.485  1.00  0.00     0.002 C 
BRANCH  72  73
ATOM     73  C   UNL     1      33.016  17.801  26.900  1.00  0.00     0.012 C 
BRANCH  73  74
ATOM     74  C   UNL     1      31.641  17.564  27.431  1.00  0.00     0.122 C 
BRANCH  74  75
ATOM     75  C   UNL     1      31.652  17.691  28.915  1.00  0.00     0.303 C 
ATOM     76  O   UNL     1      31.760  16.669  29.628  1.00  0.00    -0.252 OA
BRANCH  75  77
ATOM     77  O   UNL     1      31.546  18.934  29.530  1.00  0.00    -0.481 OA
ATOM     78  H   UNL     1      31.070  19.697  29.045  1.00  0.00     0.296 HD
ENDBRANCH  75  77
ENDBRANCH  74  75
ENDBRANCH  73  74
ENDBRANCH  72  73
ENDBRANCH  71  72
ENDBRANCH  70  71
ENDBRANCH  68  70
ENDBRANCH  64  65
ENDBRANCH  63  64
ENDBRANCH  60  63
ENDBRANCH   1  59
TORSDOF 36
