REMARK VINA RESULT:    -5.449      7.549     15.509
REMARK INTER + INTRA:         -23.932
REMARK INTER:                 -14.693
REMARK INTRA:                  -9.239
REMARK UNBOUND:                -9.245
REMARK SMILES CC(=O)N[C@@H]1[C@@H](O)C[C@](OC[C@H]2O[C@@H](O[C@H]3[C@H](O)[C@@H](O)[C@H](OCCN=[N+]=[N-])O[C@@H]3CO)[C@H](O)[C@@H](O)[C@H]2O)(C(=O)O)O[C@H]1C(O)[C@H](O)CNC(=O)OCc1cn([C@@H](C)C(=O)OCc2ccccc2)nn1
REMARK SMILES IDX 43 1 42 2 9 3 8 4 41 5 6 6 5 7 10 8 11 9 12 10 14 11 13 12
REMARK SMILES IDX 32 13 34 14 36 15 15 16 16 17 29 18 28 19 21 20 17 21 19 22
REMARK SMILES IDX 30 23 31 24 22 26 23 27 24 28 25 29 26 30 27 31 18 32 20 34
REMARK SMILES IDX 33 36 35 38 37 40 38 42 39 43 40 44 7 46 4 48 2 49 1 51 3 52
REMARK SMILES IDX 44 53 45 55 46 56 47 58 48 59 49 60 50 62 51 63 52 64 53 65
REMARK SMILES IDX 54 66 69 67 55 68 68 69 56 70 57 71 58 72 59 73 60 74 61 75
REMARK SMILES IDX 62 76 63 77 67 78 64 79 66 80 65 81
REMARK H PARENT 31 25 18 33 20 35 33 37 35 39 37 41 40 45 7 47 4 50 44 54
REMARK H PARENT 46 57 48 61
REMARK Flexibility Score: inf
ROOT
ATOM      1  C   UNL     1      14.457  30.022  23.166  1.00  0.00     0.176 C 
ENDROOT
BRANCH   1   2
ATOM      2  C   UNL     1      13.888  30.923  24.191  1.00  0.00     0.178 C 
ATOM      3  C   UNL     1      14.831  32.987  23.645  1.00  0.00     0.272 C 
ATOM      4  C   UNL     1      15.586  32.949  24.918  1.00  0.00     0.113 C 
ATOM      5  O   UNL     1      13.629  32.208  23.793  1.00  0.00    -0.332 OA
ATOM      6  C   UNL     1      15.912  31.553  25.393  1.00  0.00     0.145 C 
ATOM      7  C   UNL     1      14.628  30.787  25.496  1.00  0.00     0.142 C 
BRANCH   3   8
ATOM      8  O   UNL     1      15.363  32.585  22.520  1.00  0.00    -0.338 OA
BRANCH   8   9
ATOM      9  C   UNL     1      16.051  33.185  21.592  1.00  0.00     0.199 C 
BRANCH   9  10
ATOM     10  C   UNL     1      17.551  33.270  21.598  1.00  0.00     0.179 C 
ATOM     11  C   UNL     1      19.309  33.036  23.106  1.00  0.00     0.282 C 
ATOM     12  O   UNL     1      17.988  33.418  22.881  1.00  0.00    -0.341 OA
ATOM     13  C   UNL     1      20.130  33.050  21.867  1.00  0.00     0.202 C 
ATOM     14  C   UNL     1      19.611  32.057  20.863  1.00  0.00     0.179 C 
ATOM     15  C   UNL     1      18.129  31.990  20.956  1.00  0.00     0.177 C 
BRANCH  11  16
ATOM     16  O   UNL     1      19.274  31.869  23.818  1.00  0.00    -0.341 OA
BRANCH  16  17
ATOM     17  C   UNL     1      20.260  31.712  24.746  1.00  0.00     0.184 C 
ATOM     18  C   UNL     1      20.450  30.243  25.027  1.00  0.00     0.178 C 
ATOM     19  O   UNL     1      21.348  30.072  26.087  1.00  0.00    -0.341 OA
ATOM     20  C   UNL     1      20.557  30.221  27.254  1.00  0.00     0.281 C 
ATOM     21  C   UNL     1      19.935  32.377  26.073  1.00  0.00     0.180 C 
ATOM     22  C   UNL     1      19.696  31.444  27.201  1.00  0.00     0.202 C 
BRANCH  18  23
ATOM     23  C   UNL     1      20.838  29.427  23.830  1.00  0.00     0.191 C 
BRANCH  23  24
ATOM     24  O   UNL     1      19.658  29.153  23.133  1.00  0.00    -0.394 OA
ATOM     25  H   UNL     1      19.667  29.497  22.208  1.00  0.00     0.210 HD
ENDBRANCH  23  24
ENDBRANCH  18  23
BRANCH  20  26
ATOM     26  O   UNL     1      21.388  30.157  28.327  1.00  0.00    -0.350 OA
BRANCH  26  27
ATOM     27  C   UNL     1      21.940  28.966  28.665  1.00  0.00     0.169 C 
BRANCH  27  28
ATOM     28  C   UNL     1      21.169  27.730  28.372  1.00  0.00     0.119 C 
BRANCH  28  29
ATOM     29  N   UNL     1      21.783  26.758  27.541  1.00  0.00    -0.092 NA
ATOM     30  N   UNL     1      22.290  25.736  27.988  1.00  0.00     0.001 N 
ATOM     31  N   UNL     1      22.667  24.609  28.358  1.00  0.00    -0.003 NA
ENDBRANCH  28  29
ENDBRANCH  27  28
ENDBRANCH  26  27
ENDBRANCH  20  26
BRANCH  21  32
ATOM     32  O   UNL     1      20.930  33.287  26.443  1.00  0.00    -0.387 OA
ATOM     33  H   UNL     1      20.570  34.146  26.758  1.00  0.00     0.211 HD
ENDBRANCH  21  32
BRANCH  22  34
ATOM     34  O   UNL     1      18.330  31.154  27.281  1.00  0.00    -0.385 OA
ATOM     35  H   UNL     1      18.259  30.194  27.532  1.00  0.00     0.211 HD
ENDBRANCH  22  34
ENDBRANCH  16  17
ENDBRANCH  11  16
BRANCH  13  36
ATOM     36  O   UNL     1      20.107  34.362  21.336  1.00  0.00    -0.385 OA
ATOM     37  H   UNL     1      19.262  34.396  20.793  1.00  0.00     0.211 HD
ENDBRANCH  13  36
BRANCH  14  38
ATOM     38  O   UNL     1      20.237  30.846  21.072  1.00  0.00    -0.387 OA
ATOM     39  H   UNL     1      20.334  30.630  22.039  1.00  0.00     0.211 HD
ENDBRANCH  14  38
BRANCH  15  40
ATOM     40  O   UNL     1      17.683  30.849  21.609  1.00  0.00    -0.387 OA
ATOM     41  H   UNL     1      18.479  30.313  21.914  1.00  0.00     0.211 HD
ENDBRANCH  15  40
ENDBRANCH   9  10
ENDBRANCH   8   9
ENDBRANCH   3   8
BRANCH   3  42
ATOM     42  C   UNL     1      14.198  34.360  23.537  1.00  0.00     0.364 C 
ATOM     43  O   UNL     1      14.826  35.389  23.824  1.00  0.00    -0.246 OA
BRANCH  42  44
ATOM     44  O   UNL     1      12.881  34.504  23.106  1.00  0.00    -0.477 OA
ATOM     45  H   UNL     1      12.073  34.235  23.659  1.00  0.00     0.296 HD
ENDBRANCH  42  44
ENDBRANCH   3  42
BRANCH   6  46
ATOM     46  O   UNL     1      16.856  30.915  24.593  1.00  0.00    -0.391 OA
ATOM     47  H   UNL     1      16.357  30.453  23.880  1.00  0.00     0.211 HD
ENDBRANCH   6  46
BRANCH   7  48
ATOM     48  N   UNL     1      13.853  31.325  26.607  1.00  0.00    -0.348 N 
ATOM     49  C   UNL     1      14.399  31.232  27.925  1.00  0.00     0.217 C 
ATOM     50  H   UNL     1      12.922  31.774  26.498  1.00  0.00     0.163 HD
ATOM     51  C   UNL     1      13.604  31.783  29.064  1.00  0.00     0.114 C 
ATOM     52  O   UNL     1      15.525  30.696  28.111  1.00  0.00    -0.275 OA
ENDBRANCH   7  48
ENDBRANCH   1   2
BRANCH   1  53
ATOM     53  O   UNL     1      14.734  28.771  23.769  1.00  0.00    -0.388 OA
ATOM     54  H   UNL     1      15.209  28.904  24.635  1.00  0.00     0.211 HD
ENDBRANCH   1  53
BRANCH   1  55
ATOM     55  C   UNL     1      13.472  29.668  22.041  1.00  0.00     0.165 C 
BRANCH  55  56
ATOM     56  O   UNL     1      13.152  28.347  22.025  1.00  0.00    -0.388 OA
ATOM     57  H   UNL     1      12.402  28.153  22.637  1.00  0.00     0.211 HD
ENDBRANCH  55  56
BRANCH  55  58
ATOM     58  C   UNL     1      13.918  30.248  20.738  1.00  0.00     0.154 C 
BRANCH  58  59
ATOM     59  N   UNL     1      15.038  29.519  20.211  1.00  0.00    -0.319 N 
ATOM     60  C   UNL     1      15.278  29.235  18.846  1.00  0.00     0.407 C 
ATOM     61  H   UNL     1      15.787  29.136  20.870  1.00  0.00     0.167 HD
ATOM     62  O   UNL     1      14.491  29.599  17.969  1.00  0.00    -0.225 OA
BRANCH  60  63
ATOM     63  O   UNL     1      16.423  28.529  18.444  1.00  0.00    -0.443 OA
BRANCH  63  64
ATOM     64  C   UNL     1      17.586  29.181  18.001  1.00  0.00     0.294 C 
BRANCH  64  65
ATOM     65  C   UNL     1      18.714  28.705  18.835  1.00  0.00     0.120 A 
ATOM     66  C   UNL     1      20.034  28.556  18.476  1.00  0.00     0.139 A 
ATOM     67  N   UNL     1      18.622  28.324  20.114  1.00  0.00    -0.132 NA
ATOM     68  N   UNL     1      20.722  28.083  19.552  1.00  0.00    -0.238 N 
ATOM     69  N   UNL     1      19.842  27.953  20.527  1.00  0.00    -0.066 NA
BRANCH  68  70
ATOM     70  C   UNL     1      22.136  27.808  19.500  1.00  0.00     0.215 C 
ATOM     71  C   UNL     1      22.794  28.051  20.845  1.00  0.00     0.046 C 
BRANCH  70  72
ATOM     72  C   UNL     1      22.380  26.384  19.072  1.00  0.00     0.331 C 
ATOM     73  O   UNL     1      22.974  26.170  18.001  1.00  0.00    -0.250 OA
BRANCH  72  74
ATOM     74  O   UNL     1      21.961  25.323  19.840  1.00  0.00    -0.459 OA
BRANCH  74  75
ATOM     75  C   UNL     1      22.804  24.497  20.606  1.00  0.00     0.268 C 
BRANCH  75  76
ATOM     76  C   UNL     1      22.506  24.525  22.053  1.00  0.00    -0.011 A 
ATOM     77  C   UNL     1      23.491  24.519  23.006  1.00  0.00     0.007 A 
ATOM     78  C   UNL     1      21.203  24.555  22.485  1.00  0.00     0.007 A 
ATOM     79  C   UNL     1      23.217  24.542  24.355  1.00  0.00     0.000 A 
ATOM     80  C   UNL     1      20.882  24.580  23.823  1.00  0.00     0.000 A 
ATOM     81  C   UNL     1      21.908  24.572  24.760  1.00  0.00     0.000 A 
ENDBRANCH  75  76
ENDBRANCH  74  75
ENDBRANCH  72  74
ENDBRANCH  70  72
ENDBRANCH  68  70
ENDBRANCH  64  65
ENDBRANCH  63  64
ENDBRANCH  60  63
ENDBRANCH  58  59
ENDBRANCH  55  58
ENDBRANCH   1  55
TORSDOF 34
