REMARK VINA RESULT:    -4.890      9.183     13.816
REMARK INTER + INTRA:         -21.801
REMARK INTER:                 -14.544
REMARK INTRA:                  -7.256
REMARK UNBOUND:                -8.334
REMARK SMILES CC[N+](C)(CC)CCCn1cc(COC(=O)NC[C@@H](O)C(O)[C@@H]2O[C@@](OC[C@H]3O[C@@H](O[C@H]4[C@H](O)[C@@H](O)[C@H](OCCN=[N+]=[N-])O[C@@H]4CO)[C@H](O)[C@@H](O)[C@H]3O)(C(=O)O)C[C@H](O)[C@H]2NC(C)=O)nn1
REMARK SMILES IDX 21 1 23 2 25 3 57 4 24 5 58 6 60 7 26 8 27 9 28 10 30 11
REMARK SMILES IDX 29 12 48 13 50 14 52 15 31 16 32 17 45 18 44 19 37 20 33 21
REMARK SMILES IDX 35 22 46 23 47 24 38 26 39 27 40 28 41 29 42 30 43 31 34 32
REMARK SMILES IDX 36 34 49 36 51 38 53 40 54 42 55 43 56 44 59 46 61 48 62 49
REMARK SMILES IDX 63 51 64 52 22 53 19 55 20 56 18 58 17 59 15 60 16 62 14 63
REMARK SMILES IDX 13 64 12 65 11 66 65 67 10 68 66 69 9 70 8 71 7 72 3 73 4 74
REMARK SMILES IDX 2 75 1 76 5 77 6 78
REMARK H PARENT 47 25 34 33 36 35 49 37 51 39 53 41 56 45 59 47 61 50 22 54
REMARK H PARENT 20 57 17 61
REMARK Flexibility Score: inf
ROOT
ATOM      1  C   UNL     1      23.665  26.542  12.950  1.00  0.00     0.176 C 
ENDROOT
BRANCH   1   2
ATOM      2  C   UNL     1      23.601  26.512  11.426  1.00  0.00     0.178 C 
ATOM      3  C   UNL     1      22.328  25.531   9.699  1.00  0.00     0.272 C 
ATOM      4  C   UNL     1      23.620  25.561   8.953  1.00  0.00     0.113 C 
ATOM      5  O   UNL     1      22.682  25.548  11.077  1.00  0.00    -0.332 OA
ATOM      6  C   UNL     1      24.795  25.170   9.811  1.00  0.00     0.145 C 
ATOM      7  C   UNL     1      24.967  26.241  10.884  1.00  0.00     0.142 C 
BRANCH   3   8
ATOM      8  O   UNL     1      21.634  24.345   9.576  1.00  0.00    -0.338 OA
BRANCH   8   9
ATOM      9  C   UNL     1      20.982  24.054   8.438  1.00  0.00     0.199 C 
BRANCH   9  10
ATOM     10  C   UNL     1      21.629  22.840   7.721  1.00  0.00     0.179 C 
ATOM     11  C   UNL     1      20.852  21.034   9.025  1.00  0.00     0.282 C 
ATOM     12  O   UNL     1      21.895  21.816   8.544  1.00  0.00    -0.341 OA
ATOM     13  C   UNL     1      19.717  20.896   8.084  1.00  0.00     0.202 C 
ATOM     14  C   UNL     1      20.350  20.991   6.679  1.00  0.00     0.179 C 
ATOM     15  C   UNL     1      20.737  22.447   6.543  1.00  0.00     0.177 C 
BRANCH  11  16
ATOM     16  O   UNL     1      20.528  21.408  10.337  1.00  0.00    -0.341 OA
BRANCH  16  17
ATOM     17  C   UNL     1      21.212  20.691  11.275  1.00  0.00     0.184 C 
ATOM     18  C   UNL     1      20.501  19.756  12.153  1.00  0.00     0.178 C 
ATOM     19  O   UNL     1      21.416  18.952  12.809  1.00  0.00    -0.341 OA
ATOM     20  C   UNL     1      22.698  19.354  12.918  1.00  0.00     0.281 C 
ATOM     21  C   UNL     1      21.978  21.642  12.224  1.00  0.00     0.180 C 
ATOM     22  C   UNL     1      22.956  20.835  13.035  1.00  0.00     0.202 C 
BRANCH  18  23
ATOM     23  C   UNL     1      19.486  18.845  11.490  1.00  0.00     0.191 C 
BRANCH  23  24
ATOM     24  O   UNL     1      18.202  19.373  11.469  1.00  0.00    -0.394 OA
ATOM     25  H   UNL     1      18.028  19.719  12.403  1.00  0.00     0.210 HD
ENDBRANCH  23  24
ENDBRANCH  18  23
BRANCH  20  26
ATOM     26  O   UNL     1      23.498  18.750  11.964  1.00  0.00    -0.350 OA
BRANCH  26  27
ATOM     27  C   UNL     1      23.299  17.423  11.771  1.00  0.00     0.169 C 
BRANCH  27  28
ATOM     28  C   UNL     1      23.436  16.987  10.327  1.00  0.00     0.119 C 
BRANCH  28  29
ATOM     29  N   UNL     1      22.593  17.822   9.488  1.00  0.00    -0.092 NA
ATOM     30  N   UNL     1      21.547  17.424   8.981  1.00  0.00     0.001 N 
ATOM     31  N   UNL     1      20.483  17.051   8.483  1.00  0.00    -0.003 NA
ENDBRANCH  28  29
ENDBRANCH  27  28
ENDBRANCH  26  27
ENDBRANCH  20  26
BRANCH  21  32
ATOM     32  O   UNL     1      22.533  22.624  11.436  1.00  0.00    -0.387 OA
ATOM     33  H   UNL     1      22.976  23.345  11.910  1.00  0.00     0.211 HD
ENDBRANCH  21  32
BRANCH  22  34
ATOM     34  O   UNL     1      22.931  21.287  14.345  1.00  0.00    -0.385 OA
ATOM     35  H   UNL     1      22.093  21.760  14.591  1.00  0.00     0.211 HD
ENDBRANCH  22  34
ENDBRANCH  16  17
ENDBRANCH  11  16
BRANCH  13  36
ATOM     36  O   UNL     1      19.091  19.640   8.133  1.00  0.00    -0.385 OA
ATOM     37  H   UNL     1      19.795  18.975   8.293  1.00  0.00     0.211 HD
ENDBRANCH  13  36
BRANCH  14  38
ATOM     38  O   UNL     1      19.400  20.645   5.718  1.00  0.00    -0.387 OA
ATOM     39  H   UNL     1      19.893  20.372   4.918  1.00  0.00     0.211 HD
ENDBRANCH  14  38
BRANCH  15  40
ATOM     40  O   UNL     1      19.554  23.172   6.673  1.00  0.00    -0.387 OA
ATOM     41  H   UNL     1      18.896  22.791   7.275  1.00  0.00     0.211 HD
ENDBRANCH  15  40
ENDBRANCH   9  10
ENDBRANCH   8   9
ENDBRANCH   3   8
BRANCH   3  42
ATOM     42  C   UNL     1      21.428  26.662   9.420  1.00  0.00     0.364 C 
ATOM     43  O   UNL     1      21.798  27.650   8.747  1.00  0.00    -0.246 OA
BRANCH  42  44
ATOM     44  O   UNL     1      20.140  26.674   9.896  1.00  0.00    -0.477 OA
ATOM     45  H   UNL     1      19.480  25.913   9.745  1.00  0.00     0.296 HD
ENDBRANCH  42  44
ENDBRANCH   3  42
BRANCH   6  46
ATOM     46  O   UNL     1      24.651  23.941  10.411  1.00  0.00    -0.391 OA
ATOM     47  H   UNL     1      25.462  23.690  10.951  1.00  0.00     0.211 HD
ENDBRANCH   6  46
BRANCH   7  48
ATOM     48  N   UNL     1      25.428  27.431  10.148  1.00  0.00    -0.348 N 
ATOM     49  C   UNL     1      26.403  28.310  10.695  1.00  0.00     0.217 C 
ATOM     50  H   UNL     1      25.069  27.694   9.208  1.00  0.00     0.163 HD
ATOM     51  C   UNL     1      26.898  29.517   9.988  1.00  0.00     0.114 C 
ATOM     52  O   UNL     1      26.865  28.049  11.820  1.00  0.00    -0.275 OA
ENDBRANCH   7  48
ENDBRANCH   1   2
BRANCH   1  53
ATOM     53  O   UNL     1      24.282  27.777  13.349  1.00  0.00    -0.388 OA
ATOM     54  H   UNL     1      24.953  27.539  14.041  1.00  0.00     0.211 HD
ENDBRANCH   1  53
BRANCH   1  55
ATOM     55  C   UNL     1      24.540  25.450  13.472  1.00  0.00     0.165 C 
BRANCH  55  56
ATOM     56  O   UNL     1      23.664  24.287  13.431  1.00  0.00    -0.388 OA
ATOM     57  H   UNL     1      23.360  24.191  12.476  1.00  0.00     0.211 HD
ENDBRANCH  55  56
BRANCH  55  58
ATOM     58  C   UNL     1      25.045  25.572  14.862  1.00  0.00     0.154 C 
BRANCH  58  59
ATOM     59  N   UNL     1      24.204  25.748  15.958  1.00  0.00    -0.319 N 
ATOM     60  C   UNL     1      23.482  24.771  16.682  1.00  0.00     0.407 C 
ATOM     61  H   UNL     1      24.070  26.780  16.322  1.00  0.00     0.167 HD
ATOM     62  O   UNL     1      23.507  23.559  16.418  1.00  0.00    -0.225 OA
BRANCH  60  63
ATOM     63  O   UNL     1      22.664  25.163  17.770  1.00  0.00    -0.443 OA
BRANCH  63  64
ATOM     64  C   UNL     1      23.210  26.149  18.666  1.00  0.00     0.294 C 
BRANCH  64  65
ATOM     65  C   UNL     1      22.296  26.055  19.865  1.00  0.00     0.120 A 
ATOM     66  C   UNL     1      22.291  25.068  20.822  1.00  0.00     0.138 A 
ATOM     67  N   UNL     1      21.358  26.921  20.266  1.00  0.00    -0.132 NA
ATOM     68  N   UNL     1      21.348  25.375  21.770  1.00  0.00    -0.252 N 
ATOM     69  N   UNL     1      20.802  26.514  21.388  1.00  0.00    -0.067 NA
BRANCH  68  70
ATOM     70  C   UNL     1      21.070  24.603  22.968  1.00  0.00     0.152 C 
BRANCH  70  71
ATOM     71  C   UNL     1      21.434  25.311  24.201  1.00  0.00     0.085 C 
BRANCH  71  72
ATOM     72  C   UNL     1      22.289  24.667  25.212  1.00  0.00     0.265 C 
BRANCH  72  73
ATOM     73  N   UNL     1      22.592  25.374  26.412  1.00  0.00    -0.326 N 
ATOM     74  C   UNL     1      22.660  24.464  27.523  1.00  0.00     0.334 C 
BRANCH  73  75
ATOM     75  C   UNL     1      21.741  26.490  26.709  1.00  0.00     0.260 C 
ATOM     76  C   UNL     1      21.672  26.805  28.185  1.00  0.00     0.071 C 
ENDBRANCH  73  75
BRANCH  73  77
ATOM     77  C   UNL     1      23.964  25.882  26.245  1.00  0.00     0.260 C 
ATOM     78  C   UNL     1      24.874  24.945  25.533  1.00  0.00     0.071 C 
ENDBRANCH  73  77
ENDBRANCH  72  73
ENDBRANCH  71  72
ENDBRANCH  70  71
ENDBRANCH  68  70
ENDBRANCH  64  65
ENDBRANCH  63  64
ENDBRANCH  60  63
ENDBRANCH  58  59
ENDBRANCH  55  58
ENDBRANCH   1  55
TORSDOF 35
