REMARK VINA RESULT:    -5.693      3.330      6.464
REMARK INTER + INTRA:         -20.781
REMARK INTER:                 -15.754
REMARK INTRA:                  -5.026
REMARK UNBOUND:                -6.268
REMARK SMILES CC(=O)N[C@@H]1[C@@H](O)C[C@](OC[C@H]2O[C@@H](O[C@H]3[C@H](O)[C@@H](O)[C@H](OCCN=[N+]=[N-])O[C@@H]3CO)[C@H](O)[C@@H](O)[C@H]2O)(C(=O)O)O[C@H]1C(O)[C@H](O)CNC(=O)OCc1cn(C(C)(C)CO)nn1
REMARK SMILES IDX 9 1 8 2 6 3 5 4 42 5 41 6 10 7 11 8 12 9 14 10 13 11 32 12
REMARK SMILES IDX 34 13 36 14 15 15 16 16 29 17 28 18 21 19 17 20 19 21 30 22
REMARK SMILES IDX 31 23 22 25 23 26 24 27 25 28 26 29 27 30 18 31 20 33 33 35
REMARK SMILES IDX 35 37 37 39 38 41 39 42 40 43 7 45 43 47 44 48 45 50 46 51
REMARK SMILES IDX 47 53 48 54 49 55 50 57 51 58 52 59 53 60 54 61 62 62 55 63
REMARK SMILES IDX 61 64 56 65 57 66 58 67 59 68 60 69 4 71 2 72 1 74 3 75
REMARK H PARENT 31 24 18 32 20 34 33 36 35 38 37 40 40 44 7 46 44 49 46 52
REMARK H PARENT 48 56 60 70 4 73
REMARK Flexibility Score: inf
ROOT
ATOM      1  C   UNL     1      19.180  28.939  20.024  1.00  0.00     0.272 C 
ATOM      2  C   UNL     1      19.873  30.214  20.426  1.00  0.00     0.113 C 
ATOM      3  C   UNL     1      19.285  30.660  21.743  1.00  0.00     0.145 C 
ATOM      4  C   UNL     1      17.856  31.141  21.403  1.00  0.00     0.142 C 
ATOM      5  C   UNL     1      17.184  30.010  20.685  1.00  0.00     0.178 C 
ATOM      6  O   UNL     1      17.916  28.840  20.721  1.00  0.00    -0.332 OA
ENDROOT
BRANCH   1   7
ATOM      7  O   UNL     1      19.818  27.810  20.422  1.00  0.00    -0.338 OA
BRANCH   7   8
ATOM      8  C   UNL     1      21.119  27.607  20.302  1.00  0.00     0.199 C 
BRANCH   8   9
ATOM      9  C   UNL     1      22.002  27.062  21.347  1.00  0.00     0.179 C 
ATOM     10  C   UNL     1      22.584  27.435  23.548  1.00  0.00     0.282 C 
ATOM     11  O   UNL     1      21.617  27.648  22.601  1.00  0.00    -0.341 OA
ATOM     12  C   UNL     1      23.529  26.316  23.293  1.00  0.00     0.202 C 
ATOM     13  C   UNL     1      22.926  25.156  22.531  1.00  0.00     0.179 C 
ATOM     14  C   UNL     1      21.809  25.577  21.631  1.00  0.00     0.177 C 
BRANCH  10  15
ATOM     15  O   UNL     1      21.950  27.358  24.791  1.00  0.00    -0.341 OA
BRANCH  15  16
ATOM     16  C   UNL     1      22.785  26.990  25.820  1.00  0.00     0.184 C 
ATOM     17  C   UNL     1      22.166  25.998  26.778  1.00  0.00     0.178 C 
ATOM     18  O   UNL     1      22.362  26.318  28.106  1.00  0.00    -0.341 OA
ATOM     19  C   UNL     1      21.826  27.506  28.522  1.00  0.00     0.281 C 
ATOM     20  C   UNL     1      23.078  28.281  26.606  1.00  0.00     0.180 C 
ATOM     21  C   UNL     1      21.809  28.522  27.403  1.00  0.00     0.202 C 
BRANCH  17  22
ATOM     22  C   UNL     1      22.890  24.679  26.538  1.00  0.00     0.191 C 
BRANCH  22  23
ATOM     23  O   UNL     1      22.925  23.943  27.723  1.00  0.00    -0.394 OA
ATOM     24  H   UNL     1      23.389  23.089  27.641  1.00  0.00     0.210 HD
ENDBRANCH  22  23
ENDBRANCH  17  22
BRANCH  19  25
ATOM     25  O   UNL     1      22.559  27.933  29.616  1.00  0.00    -0.350 OA
BRANCH  25  26
ATOM     26  C   UNL     1      22.738  27.018  30.605  1.00  0.00     0.169 C 
BRANCH  26  27
ATOM     27  C   UNL     1      24.189  26.822  31.016  1.00  0.00     0.119 C 
BRANCH  27  28
ATOM     28  N   UNL     1      24.754  25.642  30.391  1.00  0.00    -0.092 NA
ATOM     29  N   UNL     1      25.432  25.810  29.368  1.00  0.00     0.001 N 
ATOM     30  N   UNL     1      26.399  25.890  28.579  1.00  0.00    -0.003 NA
ENDBRANCH  27  28
ENDBRANCH  26  27
ENDBRANCH  25  26
ENDBRANCH  19  25
BRANCH  20  31
ATOM     31  O   UNL     1      24.165  27.971  27.429  1.00  0.00    -0.387 OA
ATOM     32  H   UNL     1      24.165  28.665  28.140  1.00  0.00     0.211 HD
ENDBRANCH  20  31
BRANCH  21  33
ATOM     33  O   UNL     1      20.729  28.194  26.566  1.00  0.00    -0.385 OA
ATOM     34  H   UNL     1      19.931  27.944  27.120  1.00  0.00     0.211 HD
ENDBRANCH  21  33
ENDBRANCH  15  16
ENDBRANCH  10  15
BRANCH  12  35
ATOM     35  O   UNL     1      24.750  26.705  22.739  1.00  0.00    -0.385 OA
ATOM     36  H   UNL     1      24.925  26.101  21.990  1.00  0.00     0.211 HD
ENDBRANCH  12  35
BRANCH  13  37
ATOM     37  O   UNL     1      22.512  24.139  23.409  1.00  0.00    -0.387 OA
ATOM     38  H   UNL     1      22.882  24.286  24.320  1.00  0.00     0.211 HD
ENDBRANCH  13  37
BRANCH  14  39
ATOM     39  O   UNL     1      20.618  25.463  22.384  1.00  0.00    -0.387 OA
ATOM     40  H   UNL     1      19.978  26.148  22.099  1.00  0.00     0.211 HD
ENDBRANCH  14  39
ENDBRANCH   8   9
ENDBRANCH   7   8
ENDBRANCH   1   7
BRANCH   1  41
ATOM     41  C   UNL     1      18.769  28.933  18.621  1.00  0.00     0.364 C 
ATOM     42  O   UNL     1      18.998  29.875  17.858  1.00  0.00    -0.246 OA
BRANCH  41  43
ATOM     43  O   UNL     1      18.081  27.851  18.044  1.00  0.00    -0.477 OA
ATOM     44  H   UNL     1      18.644  27.129  17.609  1.00  0.00     0.296 HD
ENDBRANCH  41  43
ENDBRANCH   1  41
BRANCH   3  45
ATOM     45  O   UNL     1      19.097  29.519  22.525  1.00  0.00    -0.391 OA
ATOM     46  H   UNL     1      18.694  28.793  22.007  1.00  0.00     0.211 HD
ENDBRANCH   3  45
BRANCH   5  47
ATOM     47  C   UNL     1      15.927  29.679  21.511  1.00  0.00     0.176 C 
BRANCH  47  48
ATOM     48  O   UNL     1      16.345  29.244  22.792  1.00  0.00    -0.388 OA
ATOM     49  H   UNL     1      16.106  29.878  23.489  1.00  0.00     0.211 HD
ENDBRANCH  47  48
BRANCH  47  50
ATOM     50  C   UNL     1      15.176  28.485  20.944  1.00  0.00     0.165 C 
BRANCH  50  51
ATOM     51  O   UNL     1      15.540  28.171  19.676  1.00  0.00    -0.388 OA
ATOM     52  H   UNL     1      15.682  27.214  19.487  1.00  0.00     0.211 HD
ENDBRANCH  50  51
BRANCH  50  53
ATOM     53  C   UNL     1      13.682  28.722  21.039  1.00  0.00     0.154 C 
BRANCH  53  54
ATOM     54  N   UNL     1      13.209  29.220  22.278  1.00  0.00    -0.319 N 
ATOM     55  C   UNL     1      12.519  30.426  22.438  1.00  0.00     0.407 C 
ATOM     56  H   UNL     1      13.381  28.646  23.174  1.00  0.00     0.167 HD
ATOM     57  O   UNL     1      12.251  31.170  21.481  1.00  0.00    -0.225 OA
BRANCH  55  58
ATOM     58  O   UNL     1      12.088  30.865  23.713  1.00  0.00    -0.443 OA
BRANCH  58  59
ATOM     59  C   UNL     1      11.125  31.885  23.850  1.00  0.00     0.294 C 
BRANCH  59  60
ATOM     60  C   UNL     1       9.783  31.389  24.216  1.00  0.00     0.120 A 
ATOM     61  C   UNL     1       9.351  30.078  24.236  1.00  0.00     0.139 A 
ATOM     62  N   UNL     1       8.727  32.121  24.603  1.00  0.00    -0.132 NA
ATOM     63  N   UNL     1       8.054  30.047  24.632  1.00  0.00    -0.244 N 
ATOM     64  N   UNL     1       7.700  31.303  24.848  1.00  0.00    -0.066 NA
BRANCH  63  65
ATOM     65  C   UNL     1       7.250  28.860  24.780  1.00  0.00     0.082 C 
ATOM     66  C   UNL     1       6.190  28.830  23.719  1.00  0.00     0.039 C 
ATOM     67  C   UNL     1       6.525  28.881  26.134  1.00  0.00     0.039 C 
BRANCH  65  68
ATOM     68  C   UNL     1       8.038  27.583  24.726  1.00  0.00     0.186 C 
BRANCH  68  69
ATOM     69  O   UNL     1       7.693  26.766  23.674  1.00  0.00    -0.394 OA
ATOM     70  H   UNL     1       7.100  26.031  23.895  1.00  0.00     0.210 HD
ENDBRANCH  68  69
ENDBRANCH  65  68
ENDBRANCH  63  65
ENDBRANCH  59  60
ENDBRANCH  58  59
ENDBRANCH  55  58
ENDBRANCH  53  54
ENDBRANCH  50  53
ENDBRANCH  47  50
ENDBRANCH   5  47
BRANCH   4  71
ATOM     71  N   UNL     1      18.025  32.339  20.645  1.00  0.00    -0.348 N 
ATOM     72  C   UNL     1      17.205  33.491  20.705  1.00  0.00     0.217 C 
ATOM     73  H   UNL     1      18.830  32.414  19.954  1.00  0.00     0.163 HD
ATOM     74  C   UNL     1      17.462  34.695  19.870  1.00  0.00     0.114 C 
ATOM     75  O   UNL     1      16.235  33.507  21.479  1.00  0.00    -0.275 OA
ENDBRANCH   4  71
TORSDOF 32
