REMARK VINA RESULT:    -6.072      4.590     10.183
REMARK INTER + INTRA:         -20.990
REMARK INTER:                 -13.842
REMARK INTRA:                  -7.148
REMARK UNBOUND:                -6.043
REMARK SMILES CC(=O)N[C@@H]1[C@@H](O)C[C@](OC[C@H]2O[C@@H](O[C@H]3[C@H](O)[C@@H](O)[C@H](OCCN=[N+]=[N-])O[C@@H]3CO)[C@H](O)[C@@H](O)[C@H]2O)(C(=O)O)O[C@H]1C(O)[C@H](O)CNC(=O)OCc1cn(-c2ccccc2I)nn1
REMARK SMILES IDX 9 1 8 2 6 3 5 4 42 5 41 6 10 7 11 8 12 9 14 10 13 11 32 12
REMARK SMILES IDX 34 13 36 14 15 15 16 16 29 17 28 18 21 19 17 20 19 21 30 22
REMARK SMILES IDX 31 23 22 25 23 26 24 27 25 28 26 29 27 30 18 31 20 33 33 35
REMARK SMILES IDX 35 37 37 39 38 41 39 42 40 43 7 45 43 47 44 48 45 50 46 51
REMARK SMILES IDX 47 53 48 54 49 55 50 57 51 58 52 59 53 60 54 61 64 62 55 63
REMARK SMILES IDX 63 64 56 65 57 66 61 67 58 68 60 69 62 70 59 71 4 72 2 73
REMARK SMILES IDX 1 75 3 76
REMARK H PARENT 31 24 18 32 20 34 33 36 35 38 37 40 40 44 7 46 44 49 46 52
REMARK H PARENT 48 56 4 74
REMARK Flexibility Score: inf
ROOT
ATOM      1  C   UNL     1      23.389  24.799  22.731  1.00  0.00     0.272 C 
ATOM      2  C   UNL     1      22.346  24.522  23.777  1.00  0.00     0.113 C 
ATOM      3  C   UNL     1      21.407  25.727  23.960  1.00  0.00     0.145 C 
ATOM      4  C   UNL     1      22.321  26.861  24.507  1.00  0.00     0.142 C 
ATOM      5  C   UNL     1      23.517  26.984  23.605  1.00  0.00     0.178 C 
ATOM      6  O   UNL     1      23.279  26.206  22.466  1.00  0.00    -0.332 OA
ENDROOT
BRANCH   1   7
ATOM      7  O   UNL     1      23.225  24.245  21.501  1.00  0.00    -0.338 OA
BRANCH   7   8
ATOM      8  C   UNL     1      22.810  24.805  20.404  1.00  0.00     0.199 C 
BRANCH   8   9
ATOM      9  C   UNL     1      23.131  24.249  19.075  1.00  0.00     0.179 C 
ATOM     10  C   UNL     1      22.740  25.783  17.428  1.00  0.00     0.282 C 
ATOM     11  O   UNL     1      22.361  24.609  18.020  1.00  0.00    -0.341 OA
ATOM     12  C   UNL     1      23.983  25.580  16.573  1.00  0.00     0.202 C 
ATOM     13  C   UNL     1      24.823  24.455  17.222  1.00  0.00     0.179 C 
ATOM     14  C   UNL     1      24.621  24.544  18.722  1.00  0.00     0.177 C 
BRANCH  10  15
ATOM     15  O   UNL     1      22.705  26.922  18.168  1.00  0.00    -0.341 OA
BRANCH  15  16
ATOM     16  C   UNL     1      21.619  27.742  17.967  1.00  0.00     0.184 C 
ATOM     17  C   UNL     1      21.906  29.058  17.294  1.00  0.00     0.178 C 
ATOM     18  O   UNL     1      20.924  29.991  17.614  1.00  0.00    -0.341 OA
ATOM     19  C   UNL     1      19.674  29.422  17.887  1.00  0.00     0.281 C 
ATOM     20  C   UNL     1      21.136  28.166  19.372  1.00  0.00     0.180 C 
ATOM     21  C   UNL     1      19.696  28.614  19.159  1.00  0.00     0.202 C 
BRANCH  17  22
ATOM     22  C   UNL     1      22.165  28.975  15.824  1.00  0.00     0.191 C 
BRANCH  22  23
ATOM     23  O   UNL     1      21.429  27.886  15.342  1.00  0.00    -0.394 OA
ATOM     24  H   UNL     1      21.262  27.271  16.106  1.00  0.00     0.210 HD
ENDBRANCH  22  23
ENDBRANCH  17  22
BRANCH  19  25
ATOM     25  O   UNL     1      19.143  28.768  16.818  1.00  0.00    -0.350 OA
BRANCH  25  26
ATOM     26  C   UNL     1      18.013  29.356  16.341  1.00  0.00     0.169 C 
BRANCH  26  27
ATOM     27  C   UNL     1      16.895  29.575  17.310  1.00  0.00     0.119 C 
BRANCH  27  28
ATOM     28  N   UNL     1      16.223  28.398  17.785  1.00  0.00    -0.092 NA
ATOM     29  N   UNL     1      16.344  28.140  18.997  1.00  0.00     0.001 N 
ATOM     30  N   UNL     1      16.389  27.659  20.130  1.00  0.00    -0.003 NA
ENDBRANCH  27  28
ENDBRANCH  26  27
ENDBRANCH  25  26
ENDBRANCH  19  25
BRANCH  20  31
ATOM     31  O   UNL     1      21.211  27.106  20.255  1.00  0.00    -0.387 OA
ATOM     32  H   UNL     1      22.177  26.934  20.417  1.00  0.00     0.211 HD
ENDBRANCH  20  31
BRANCH  21  33
ATOM     33  O   UNL     1      19.222  29.316  20.265  1.00  0.00    -0.385 OA
ATOM     34  H   UNL     1      19.632  28.903  21.093  1.00  0.00     0.211 HD
ENDBRANCH  21  33
ENDBRANCH  15  16
ENDBRANCH  10  15
BRANCH  12  35
ATOM     35  O   UNL     1      23.691  25.130  15.293  1.00  0.00    -0.385 OA
ATOM     36  H   UNL     1      23.779  25.912  14.688  1.00  0.00     0.211 HD
ENDBRANCH  12  35
BRANCH  13  37
ATOM     37  O   UNL     1      26.136  24.484  16.877  1.00  0.00    -0.387 OA
ATOM     38  H   UNL     1      26.333  24.369  15.898  1.00  0.00     0.211 HD
ENDBRANCH  13  37
BRANCH  14  39
ATOM     39  O   UNL     1      24.855  25.845  19.132  1.00  0.00    -0.387 OA
ATOM     40  H   UNL     1      24.096  26.155  19.719  1.00  0.00     0.211 HD
ENDBRANCH  14  39
ENDBRANCH   8   9
ENDBRANCH   7   8
ENDBRANCH   1   7
BRANCH   1  41
ATOM     41  C   UNL     1      24.735  24.555  23.282  1.00  0.00     0.364 C 
ATOM     42  O   UNL     1      25.791  24.587  22.628  1.00  0.00    -0.246 OA
BRANCH  41  43
ATOM     43  O   UNL     1      24.904  24.254  24.651  1.00  0.00    -0.477 OA
ATOM     44  H   UNL     1      25.018  23.270  24.935  1.00  0.00     0.296 HD
ENDBRANCH  41  43
ENDBRANCH   1  41
BRANCH   3  45
ATOM     45  O   UNL     1      20.808  26.110  22.779  1.00  0.00    -0.391 OA
ATOM     46  H   UNL     1      20.834  25.372  22.124  1.00  0.00     0.211 HD
ENDBRANCH   3  45
BRANCH   5  47
ATOM     47  C   UNL     1      23.574  28.424  23.026  1.00  0.00     0.176 C 
BRANCH  47  48
ATOM     48  O   UNL     1      22.383  28.545  22.211  1.00  0.00    -0.388 OA
ATOM     49  H   UNL     1      22.707  28.957  21.353  1.00  0.00     0.211 HD
ENDBRANCH  47  48
BRANCH  47  50
ATOM     50  C   UNL     1      24.665  28.574  22.009  1.00  0.00     0.165 C 
BRANCH  50  51
ATOM     51  O   UNL     1      24.237  27.994  20.786  1.00  0.00    -0.388 OA
ATOM     52  H   UNL     1      24.685  27.125  20.631  1.00  0.00     0.211 HD
ENDBRANCH  50  51
BRANCH  50  53
ATOM     53  C   UNL     1      26.003  28.056  22.323  1.00  0.00     0.154 C 
BRANCH  53  54
ATOM     54  N   UNL     1      26.650  27.300  21.267  1.00  0.00    -0.319 N 
ATOM     55  C   UNL     1      27.931  27.724  20.800  1.00  0.00     0.407 C 
ATOM     56  H   UNL     1      26.241  26.458  20.818  1.00  0.00     0.167 HD
ATOM     57  O   UNL     1      28.466  28.760  21.316  1.00  0.00    -0.225 OA
BRANCH  55  58
ATOM     58  O   UNL     1      28.661  27.095  19.812  1.00  0.00    -0.443 OA
BRANCH  58  59
ATOM     59  C   UNL     1      28.088  26.062  19.023  1.00  0.00     0.294 C 
BRANCH  59  60
ATOM     60  C   UNL     1      28.709  24.757  19.450  1.00  0.00     0.121 A 
ATOM     61  C   UNL     1      28.074  23.586  19.795  1.00  0.00     0.144 A 
ATOM     62  N   UNL     1      30.027  24.522  19.573  1.00  0.00    -0.131 NA
ATOM     63  N   UNL     1      29.054  22.715  20.106  1.00  0.00    -0.219 N 
ATOM     64  N   UNL     1      30.234  23.288  19.969  1.00  0.00    -0.062 NA
BRANCH  63  65
ATOM     65  C   UNL     1      28.887  21.368  20.533  1.00  0.00     0.080 A 
ATOM     66  C   UNL     1      28.713  21.065  21.878  1.00  0.00     0.029 A 
ATOM     67  C   UNL     1      28.901  20.331  19.630  1.00  0.00     0.039 A 
ATOM     68  C   UNL     1      28.559  19.725  22.253  1.00  0.00     0.002 A 
ATOM     69  C   UNL     1      28.745  18.995  20.023  1.00  0.00     0.017 A 
ATOM     70  I   UNL     1      29.166  20.761  17.577  1.00  0.00    -0.042 I 
ATOM     71  C   UNL     1      28.572  18.690  21.349  1.00  0.00     0.001 A 
ENDBRANCH  63  65
ENDBRANCH  59  60
ENDBRANCH  58  59
ENDBRANCH  55  58
ENDBRANCH  53  54
ENDBRANCH  50  53
ENDBRANCH  47  50
ENDBRANCH   5  47
BRANCH   4  72
ATOM     72  N   UNL     1      22.584  26.519  25.858  1.00  0.00    -0.348 N 
ATOM     73  C   UNL     1      21.756  26.961  26.950  1.00  0.00     0.217 C 
ATOM     74  H   UNL     1      23.385  25.929  26.145  1.00  0.00     0.163 HD
ATOM     75  C   UNL     1      22.021  26.611  28.359  1.00  0.00     0.114 C 
ATOM     76  O   UNL     1      20.770  27.681  26.642  1.00  0.00    -0.275 OA
ENDBRANCH   4  72
TORSDOF 30
