REMARK VINA RESULT:    -5.405     11.450     16.849
REMARK INTER + INTRA:         -23.787
REMARK INTER:                 -15.210
REMARK INTRA:                  -8.578
REMARK UNBOUND:                -7.166
REMARK SMILES CC(=O)N[C@@H]1[C@@H](O)C[C@](OC[C@H]2O[C@@H](O[C@H]3[C@H](O)[C@@H](O)[C@H](OCCN=[N+]=[N-])O[C@@H]3CO)[C@H](O)[C@@H](O)[C@H]2O)(C(=O)O)O[C@H]1C(O)[C@H](O)CNC(=O)OCc1cn(CCCCCCCCCCC(=O)O)nn1
REMARK SMILES IDX 51 1 49 2 48 3 50 5 47 6 45 7 43 8 42 9 9 10 8 11 41 12 6 13
REMARK SMILES IDX 5 14 10 15 11 16 12 17 14 18 13 19 32 20 34 21 36 22 15 23
REMARK SMILES IDX 16 24 29 25 28 26 21 27 17 28 19 29 30 30 31 31 22 33 23 34
REMARK SMILES IDX 24 35 25 36 26 37 27 38 18 39 20 41 33 43 35 45 37 47 38 49
REMARK SMILES IDX 39 50 40 51 7 53 4 55 2 56 1 58 3 59 44 60 46 62 52 64 53 65
REMARK SMILES IDX 54 66 70 67 55 68 69 69 56 70 57 71 58 72 59 73 60 74 61 75
REMARK SMILES IDX 62 76 63 77 64 78 65 79 66 80 67 81 68 82
REMARK H PARENT 48 4 31 32 18 40 20 42 33 44 35 46 37 48 40 52 7 54 4 57 44 61
REMARK H PARENT 46 63 68 83
REMARK Flexibility Score: inf
ROOT
ATOM      1  O   UNL     1      24.988  23.286  11.085  1.00  0.00    -0.443 OA
ENDROOT
BRANCH   1   2
ATOM      2  C   UNL     1      24.165  23.103   9.951  1.00  0.00     0.407 C 
ATOM      3  N   UNL     1      22.843  23.610   9.924  1.00  0.00    -0.319 N 
ATOM      4  H   UNL     1      22.484  24.121  10.774  1.00  0.00     0.167 HD
ATOM      5  O   UNL     1      24.585  22.491   8.942  1.00  0.00    -0.225 OA
BRANCH   3   6
ATOM      6  C   UNL     1      21.979  23.456   8.793  1.00  0.00     0.154 C 
BRANCH   6   7
ATOM      7  C   UNL     1      20.726  22.630   9.066  1.00  0.00     0.165 C 
BRANCH   7   8
ATOM      8  C   UNL     1      20.818  21.438   8.180  1.00  0.00     0.176 C 
BRANCH   8   9
ATOM      9  C   UNL     1      20.463  20.111   8.809  1.00  0.00     0.178 C 
ATOM     10  C   UNL     1      20.471  19.077  10.892  1.00  0.00     0.272 C 
ATOM     11  C   UNL     1      20.839  17.804  10.160  1.00  0.00     0.113 C 
ATOM     12  O   UNL     1      20.885  20.138  10.109  1.00  0.00    -0.332 OA
ATOM     13  C   UNL     1      21.678  18.029   8.944  1.00  0.00     0.145 C 
ATOM     14  C   UNL     1      20.924  18.941   7.998  1.00  0.00     0.142 C 
BRANCH  10  15
ATOM     15  O   UNL     1      21.097  19.125  12.149  1.00  0.00    -0.338 OA
BRANCH  15  16
ATOM     16  C   UNL     1      22.074  20.048  12.308  1.00  0.00     0.199 C 
BRANCH  16  17
ATOM     17  C   UNL     1      23.099  19.430  13.283  1.00  0.00     0.179 C 
ATOM     18  C   UNL     1      25.241  19.638  12.299  1.00  0.00     0.282 C 
ATOM     19  O   UNL     1      24.167  18.902  12.671  1.00  0.00    -0.341 OA
ATOM     20  C   UNL     1      25.305  20.978  12.926  1.00  0.00     0.202 C 
ATOM     21  C   UNL     1      24.821  20.873  14.366  1.00  0.00     0.179 C 
ATOM     22  C   UNL     1      23.384  20.395  14.411  1.00  0.00     0.177 C 
BRANCH  18  23
ATOM     23  O   UNL     1      25.237  19.670  10.881  1.00  0.00    -0.341 OA
BRANCH  23  24
ATOM     24  C   UNL     1      26.387  19.023  10.450  1.00  0.00     0.184 C 
ATOM     25  C   UNL     1      27.167  19.744   9.401  1.00  0.00     0.178 C 
ATOM     26  O   UNL     1      28.174  18.959   8.921  1.00  0.00    -0.341 OA
ATOM     27  C   UNL     1      28.480  17.787   9.504  1.00  0.00     0.281 C 
ATOM     28  C   UNL     1      26.015  17.661   9.843  1.00  0.00     0.180 C 
ATOM     29  C   UNL     1      27.304  16.876   9.763  1.00  0.00     0.202 C 
BRANCH  25  30
ATOM     30  C   UNL     1      27.731  21.074   9.868  1.00  0.00     0.191 C 
BRANCH  30  31
ATOM     31  O   UNL     1      28.483  20.986  11.011  1.00  0.00    -0.394 OA
ATOM     32  H   UNL     1      29.035  21.807  11.088  1.00  0.00     0.210 HD
ENDBRANCH  30  31
ENDBRANCH  25  30
BRANCH  27  33
ATOM     33  O   UNL     1      29.129  18.006  10.712  1.00  0.00    -0.350 OA
BRANCH  33  34
ATOM     34  C   UNL     1      29.291  16.830  11.444  1.00  0.00     0.169 C 
BRANCH  34  35
ATOM     35  C   UNL     1      29.774  17.095  12.842  1.00  0.00     0.119 C 
BRANCH  35  36
ATOM     36  N   UNL     1      30.242  18.481  12.919  1.00  0.00    -0.092 NA
ATOM     37  N   UNL     1      29.603  19.334  13.572  1.00  0.00     0.001 N 
ATOM     38  N   UNL     1      28.773  19.962  14.265  1.00  0.00    -0.003 NA
ENDBRANCH  35  36
ENDBRANCH  34  35
ENDBRANCH  33  34
ENDBRANCH  27  33
BRANCH  28  39
ATOM     39  O   UNL     1      25.095  16.973  10.607  1.00  0.00    -0.387 OA
ATOM     40  H   UNL     1      24.655  17.532  11.295  1.00  0.00     0.211 HD
ENDBRANCH  28  39
BRANCH  29  41
ATOM     41  O   UNL     1      27.197  16.010   8.679  1.00  0.00    -0.385 OA
ATOM     42  H   UNL     1      28.120  15.654   8.489  1.00  0.00     0.211 HD
ENDBRANCH  29  41
ENDBRANCH  23  24
ENDBRANCH  18  23
BRANCH  20  43
ATOM     43  O   UNL     1      26.616  21.467  13.025  1.00  0.00    -0.385 OA
ATOM     44  H   UNL     1      27.170  20.870  12.440  1.00  0.00     0.211 HD
ENDBRANCH  20  43
BRANCH  21  45
ATOM     45  O   UNL     1      24.922  22.105  15.010  1.00  0.00    -0.387 OA
ATOM     46  H   UNL     1      24.093  22.210  15.543  1.00  0.00     0.211 HD
ENDBRANCH  21  45
BRANCH  22  47
ATOM     47  O   UNL     1      22.570  21.497  14.315  1.00  0.00    -0.387 OA
ATOM     48  H   UNL     1      23.103  22.252  13.956  1.00  0.00     0.211 HD
ENDBRANCH  22  47
ENDBRANCH  16  17
ENDBRANCH  15  16
ENDBRANCH  10  15
BRANCH  10  49
ATOM     49  C   UNL     1      19.037  19.151  11.185  1.00  0.00     0.364 C 
ATOM     50  O   UNL     1      18.528  20.077  11.838  1.00  0.00    -0.246 OA
BRANCH  49  51
ATOM     51  O   UNL     1      18.176  18.165  10.732  1.00  0.00    -0.477 OA
ATOM     52  H   UNL     1      17.209  18.091  11.059  1.00  0.00     0.296 HD
ENDBRANCH  49  51
ENDBRANCH  10  49
BRANCH  13  53
ATOM     53  O   UNL     1      22.966  18.456   9.177  1.00  0.00    -0.391 OA
ATOM     54  H   UNL     1      23.218  19.279   8.667  1.00  0.00     0.211 HD
ENDBRANCH  13  53
BRANCH  14  55
ATOM     55  N   UNL     1      19.886  18.170   7.398  1.00  0.00    -0.348 N 
ATOM     56  C   UNL     1      19.971  17.575   6.107  1.00  0.00     0.217 C 
ATOM     57  H   UNL     1      18.984  18.007   7.906  1.00  0.00     0.163 HD
ATOM     58  C   UNL     1      18.853  16.791   5.553  1.00  0.00     0.114 C 
ATOM     59  O   UNL     1      21.022  17.740   5.462  1.00  0.00    -0.275 OA
ENDBRANCH  14  55
ENDBRANCH   8   9
BRANCH   8  60
ATOM     60  O   UNL     1      22.025  21.454   7.533  1.00  0.00    -0.388 OA
ATOM     61  H   UNL     1      21.983  21.602   6.575  1.00  0.00     0.211 HD
ENDBRANCH   8  60
ENDBRANCH   7   8
BRANCH   7  62
ATOM     62  O   UNL     1      19.635  23.456   8.820  1.00  0.00    -0.388 OA
ATOM     63  H   UNL     1      18.892  22.972   8.384  1.00  0.00     0.211 HD
ENDBRANCH   7  62
ENDBRANCH   6   7
ENDBRANCH   3   6
ENDBRANCH   1   2
BRANCH   1  64
ATOM     64  C   UNL     1      25.075  24.622  11.599  1.00  0.00     0.294 C 
BRANCH  64  65
ATOM     65  C   UNL     1      24.336  24.644  12.878  1.00  0.00     0.120 A 
ATOM     66  C   UNL     1      24.724  25.344  14.007  1.00  0.00     0.138 A 
ATOM     67  N   UNL     1      23.187  24.024  13.181  1.00  0.00    -0.132 NA
ATOM     68  N   UNL     1      23.784  25.110  14.941  1.00  0.00    -0.252 N 
ATOM     69  N   UNL     1      22.850  24.297  14.410  1.00  0.00    -0.067 NA
BRANCH  68  70
ATOM     70  C   UNL     1      23.709  25.601  16.282  1.00  0.00     0.146 C 
BRANCH  70  71
ATOM     71  C   UNL     1      23.920  24.595  17.358  1.00  0.00     0.024 C 
BRANCH  71  72
ATOM     72  C   UNL     1      22.901  24.565  18.442  1.00  0.00     0.002 C 
BRANCH  72  73
ATOM     73  C   UNL     1      23.433  24.576  19.833  1.00  0.00     0.000 C 
BRANCH  73  74
ATOM     74  C   UNL     1      22.536  23.997  20.872  1.00  0.00     0.000 C 
BRANCH  74  75
ATOM     75  C   UNL     1      22.327  24.984  21.987  1.00  0.00     0.000 C 
BRANCH  75  76
ATOM     76  C   UNL     1      21.042  24.754  22.751  1.00  0.00     0.000 C 
BRANCH  76  77
ATOM     77  C   UNL     1      21.249  24.553  24.216  1.00  0.00     0.001 C 
BRANCH  77  78
ATOM     78  C   UNL     1      22.677  24.624  24.664  1.00  0.00     0.012 C 
BRANCH  78  79
ATOM     79  C   UNL     1      22.702  24.586  26.183  1.00  0.00     0.122 C 
BRANCH  79  80
ATOM     80  C   UNL     1      24.076  24.847  26.645  1.00  0.00     0.303 C 
ATOM     81  O   UNL     1      25.006  24.994  25.826  1.00  0.00    -0.252 OA
BRANCH  80  82
ATOM     82  O   UNL     1      24.380  24.936  27.996  1.00  0.00    -0.481 OA
ATOM     83  H   UNL     1      24.932  24.243  28.468  1.00  0.00     0.296 HD
ENDBRANCH  80  82
ENDBRANCH  79  80
ENDBRANCH  78  79
ENDBRANCH  77  78
ENDBRANCH  76  77
ENDBRANCH  75  76
ENDBRANCH  74  75
ENDBRANCH  73  74
ENDBRANCH  72  73
ENDBRANCH  71  72
ENDBRANCH  70  71
ENDBRANCH  68  70
ENDBRANCH  64  65
ENDBRANCH   1  64
TORSDOF 41
