REMARK VINA RESULT:    -5.661      4.089      9.113
REMARK INTER + INTRA:         -23.059
REMARK INTER:                 -11.566
REMARK INTRA:                 -11.493
REMARK UNBOUND:                -7.304
REMARK SMILES CC(=O)N[C@@H]1[C@@H](O)C[C@](OC[C@H]2O[C@@H](O[C@H]3[C@H](O)[C@@H](O)[C@H](OCCN=[N+]=[N-])O[C@@H]3CO)[C@H](O)[C@@H](O)[C@H]2O)(C(=O)O)O[C@H]1C(O)[C@H](O)CNC(=O)OCc1cn(CCCCCC(=O)O)nn1
REMARK SMILES IDX 47 1 45 2 43 3 42 4 9 5 8 6 41 7 6 8 5 9 10 10 11 11 12 12
REMARK SMILES IDX 14 13 13 14 32 15 34 16 36 17 15 18 16 19 29 20 28 21 21 22
REMARK SMILES IDX 17 23 19 24 30 25 31 26 22 28 23 29 24 30 25 31 26 32 27 33
REMARK SMILES IDX 18 34 20 36 33 38 35 40 37 42 38 44 39 45 40 46 7 48 4 50
REMARK SMILES IDX 2 51 1 53 3 54 44 55 46 57 48 59 49 60 50 62 51 63 52 64
REMARK SMILES IDX 53 65 54 66 65 67 55 68 64 69 56 70 57 71 58 72 59 73 60 74
REMARK SMILES IDX 61 75 62 76 63 77
REMARK H PARENT 31 27 18 35 20 37 33 39 35 41 37 43 40 47 7 49 4 52 44 56
REMARK H PARENT 46 58 48 61 63 78
REMARK Flexibility Score: inf
ROOT
ATOM      1  C   UNL     1      27.066  30.866  30.040  1.00  0.00     0.154 C 
ENDROOT
BRANCH   1   2
ATOM      2  C   UNL     1      27.176  30.005  31.275  1.00  0.00     0.165 C 
BRANCH   2   3
ATOM      3  C   UNL     1      25.850  29.341  31.458  1.00  0.00     0.176 C 
BRANCH   3   4
ATOM      4  C   UNL     1      25.795  27.887  31.139  1.00  0.00     0.178 C 
ATOM      5  C   UNL     1      26.756  26.197  30.000  1.00  0.00     0.272 C 
ATOM      6  C   UNL     1      26.000  25.357  30.979  1.00  0.00     0.113 C 
ATOM      7  O   UNL     1      26.371  27.529  29.931  1.00  0.00    -0.332 OA
ATOM      8  C   UNL     1      24.637  25.797  31.358  1.00  0.00     0.145 C 
ATOM      9  C   UNL     1      24.404  27.293  31.111  1.00  0.00     0.142 C 
BRANCH   5  10
ATOM     10  O   UNL     1      26.829  25.615  28.736  1.00  0.00    -0.338 OA
BRANCH  10  11
ATOM     11  C   UNL     1      26.285  26.303  27.700  1.00  0.00     0.199 C 
BRANCH  11  12
ATOM     12  C   UNL     1      24.874  25.775  27.520  1.00  0.00     0.179 C 
ATOM     13  C   UNL     1      22.672  26.145  27.657  1.00  0.00     0.282 C 
ATOM     14  O   UNL     1      23.919  26.766  27.350  1.00  0.00    -0.341 OA
ATOM     15  C   UNL     1      22.562  24.747  27.243  1.00  0.00     0.202 C 
ATOM     16  C   UNL     1      23.533  24.256  26.206  1.00  0.00     0.179 C 
ATOM     17  C   UNL     1      24.855  24.977  26.230  1.00  0.00     0.177 C 
BRANCH  13  18
ATOM     18  O   UNL     1      21.631  27.017  27.350  1.00  0.00    -0.341 OA
BRANCH  18  19
ATOM     19  C   UNL     1      21.890  27.923  26.391  1.00  0.00     0.184 C 
ATOM     20  C   UNL     1      21.376  29.293  26.716  1.00  0.00     0.178 C 
ATOM     21  O   UNL     1      22.061  30.163  25.843  1.00  0.00    -0.341 OA
ATOM     22  C   UNL     1      21.658  29.987  24.563  1.00  0.00     0.281 C 
ATOM     23  C   UNL     1      21.097  27.570  25.085  1.00  0.00     0.180 C 
ATOM     24  C   UNL     1      20.732  28.847  24.370  1.00  0.00     0.202 C 
BRANCH  20  25
ATOM     25  C   UNL     1      21.686  29.745  28.118  1.00  0.00     0.191 C 
BRANCH  25  26
ATOM     26  O   UNL     1      22.961  29.372  28.486  1.00  0.00    -0.394 OA
ATOM     27  H   UNL     1      22.902  28.472  28.903  1.00  0.00     0.210 HD
ENDBRANCH  25  26
ENDBRANCH  20  25
BRANCH  22  28
ATOM     28  O   UNL     1      22.717  29.926  23.647  1.00  0.00    -0.350 OA
BRANCH  28  29
ATOM     29  C   UNL     1      22.370  30.389  22.403  1.00  0.00     0.169 C 
BRANCH  29  30
ATOM     30  C   UNL     1      23.062  29.553  21.336  1.00  0.00     0.119 C 
BRANCH  30  31
ATOM     31  N   UNL     1      22.781  28.139  21.524  1.00  0.00    -0.092 NA
ATOM     32  N   UNL     1      21.693  27.673  21.139  1.00  0.00     0.001 N 
ATOM     33  N   UNL     1      20.538  27.250  21.214  1.00  0.00    -0.003 NA
ENDBRANCH  30  31
ENDBRANCH  29  30
ENDBRANCH  28  29
ENDBRANCH  22  28
BRANCH  23  34
ATOM     34  O   UNL     1      21.939  26.842  24.245  1.00  0.00    -0.387 OA
ATOM     35  H   UNL     1      21.423  26.570  23.431  1.00  0.00     0.211 HD
ENDBRANCH  23  34
BRANCH  24  36
ATOM     36  O   UNL     1      19.379  29.178  24.508  1.00  0.00    -0.385 OA
ATOM     37  H   UNL     1      19.060  29.772  23.783  1.00  0.00     0.211 HD
ENDBRANCH  24  36
ENDBRANCH  18  19
ENDBRANCH  13  18
BRANCH  15  38
ATOM     38  O   UNL     1      22.717  23.856  28.344  1.00  0.00    -0.385 OA
ATOM     39  H   UNL     1      22.013  23.183  28.337  1.00  0.00     0.211 HD
ENDBRANCH  15  38
BRANCH  16  40
ATOM     40  O   UNL     1      23.030  24.372  24.898  1.00  0.00    -0.387 OA
ATOM     41  H   UNL     1      23.726  24.527  24.235  1.00  0.00     0.211 HD
ENDBRANCH  16  40
BRANCH  17  42
ATOM     42  O   UNL     1      24.878  25.934  25.183  1.00  0.00    -0.387 OA
ATOM     43  H   UNL     1      25.232  25.430  24.384  1.00  0.00     0.211 HD
ENDBRANCH  17  42
ENDBRANCH  11  12
ENDBRANCH  10  11
ENDBRANCH   5  10
BRANCH   5  44
ATOM     44  C   UNL     1      28.166  26.234  30.479  1.00  0.00     0.364 C 
ATOM     45  O   UNL     1      28.949  27.130  30.093  1.00  0.00    -0.246 OA
BRANCH  44  46
ATOM     46  O   UNL     1      28.623  25.280  31.354  1.00  0.00    -0.477 OA
ATOM     47  H   UNL     1      29.418  25.436  31.997  1.00  0.00     0.296 HD
ENDBRANCH  44  46
ENDBRANCH   5  44
BRANCH   8  48
ATOM     48  O   UNL     1      23.598  25.017  30.859  1.00  0.00    -0.391 OA
ATOM     49  H   UNL     1      22.753  25.474  31.068  1.00  0.00     0.211 HD
ENDBRANCH   8  48
BRANCH   9  50
ATOM     50  N   UNL     1      23.494  27.846  32.051  1.00  0.00    -0.348 N 
ATOM     51  C   UNL     1      22.115  27.916  31.736  1.00  0.00     0.217 C 
ATOM     52  H   UNL     1      23.817  28.197  32.963  1.00  0.00     0.163 HD
ATOM     53  C   UNL     1      21.142  28.486  32.703  1.00  0.00     0.114 C 
ATOM     54  O   UNL     1      21.655  27.500  30.633  1.00  0.00    -0.275 OA
ENDBRANCH   9  50
ENDBRANCH   3   4
BRANCH   3  55
ATOM     55  O   UNL     1      24.842  30.005  30.723  1.00  0.00    -0.388 OA
ATOM     56  H   UNL     1      25.056  29.977  29.764  1.00  0.00     0.211 HD
ENDBRANCH   3  55
ENDBRANCH   2   3
BRANCH   2  57
ATOM     57  O   UNL     1      27.464  30.835  32.352  1.00  0.00    -0.388 OA
ATOM     58  H   UNL     1      27.726  31.713  31.978  1.00  0.00     0.211 HD
ENDBRANCH   2  57
ENDBRANCH   1   2
BRANCH   1  59
ATOM     59  N   UNL     1      27.400  30.194  28.824  1.00  0.00    -0.319 N 
ATOM     60  C   UNL     1      26.459  30.236  27.746  1.00  0.00     0.407 C 
ATOM     61  H   UNL     1      28.286  29.682  28.688  1.00  0.00     0.167 HD
ATOM     62  O   UNL     1      25.371  30.851  27.874  1.00  0.00    -0.225 OA
BRANCH  60  63
ATOM     63  O   UNL     1      26.701  29.614  26.543  1.00  0.00    -0.443 OA
BRANCH  63  64
ATOM     64  C   UNL     1      25.746  29.375  25.570  1.00  0.00     0.294 C 
BRANCH  64  65
ATOM     65  C   UNL     1      26.219  29.297  24.182  1.00  0.00     0.120 A 
ATOM     66  C   UNL     1      25.935  28.327  23.256  1.00  0.00     0.138 A 
ATOM     67  N   UNL     1      27.044  30.184  23.583  1.00  0.00    -0.132 NA
ATOM     68  N   UNL     1      26.583  28.640  22.132  1.00  0.00    -0.252 N 
ATOM     69  N   UNL     1      27.238  29.760  22.364  1.00  0.00    -0.067 NA
BRANCH  68  70
ATOM     70  C   UNL     1      26.552  27.881  20.890  1.00  0.00     0.146 C 
BRANCH  70  71
ATOM     71  C   UNL     1      26.948  26.439  21.207  1.00  0.00     0.024 C 
BRANCH  71  72
ATOM     72  C   UNL     1      26.336  25.478  20.231  1.00  0.00     0.002 C 
BRANCH  72  73
ATOM     73  C   UNL     1      24.878  25.789  20.054  1.00  0.00     0.012 C 
BRANCH  73  74
ATOM     74  C   UNL     1      23.998  24.587  20.151  1.00  0.00     0.122 C 
BRANCH  74  75
ATOM     75  C   UNL     1      23.633  24.352  21.576  1.00  0.00     0.303 C 
ATOM     76  O   UNL     1      24.364  23.638  22.298  1.00  0.00    -0.252 OA
BRANCH  75  77
ATOM     77  O   UNL     1      22.486  24.915  22.125  1.00  0.00    -0.481 OA
ATOM     78  H   UNL     1      22.195  25.850  21.834  1.00  0.00     0.296 HD
ENDBRANCH  75  77
ENDBRANCH  74  75
ENDBRANCH  73  74
ENDBRANCH  72  73
ENDBRANCH  71  72
ENDBRANCH  70  71
ENDBRANCH  68  70
ENDBRANCH  64  65
ENDBRANCH  63  64
ENDBRANCH  60  63
ENDBRANCH   1  59
TORSDOF 36
