REMARK VINA RESULT:    -5.074      2.138      3.281
REMARK INTER + INTRA:         -21.126
REMARK INTER:                 -14.090
REMARK INTRA:                  -7.037
REMARK UNBOUND:                -8.339
REMARK SMILES CC(=O)N[C@@H]1[C@@H](O)C[C@](OC[C@H]2O[C@@H](O[C@H]3[C@H](O)[C@@H](O)[C@H](OCCN=[N+]=[N-])O[C@@H]3CO)[C@H](O)[C@@H](O)[C@H]2O)(C(=O)O)O[C@H]1C(O)[C@H](O)CNC(=O)OCc1cn(Cc2ccccc2)nn1
REMARK SMILES IDX 9 1 8 2 6 3 5 4 42 5 41 6 10 7 11 8 12 9 14 10 13 11 32 12
REMARK SMILES IDX 34 13 36 14 15 15 16 16 29 17 28 18 21 19 17 20 19 21 30 22
REMARK SMILES IDX 31 23 22 25 23 26 24 27 25 28 26 29 27 30 18 31 20 33 33 35
REMARK SMILES IDX 35 37 37 39 38 41 39 42 40 43 7 45 43 47 44 48 45 50 46 51
REMARK SMILES IDX 47 53 48 54 49 55 50 57 51 58 52 59 53 60 54 61 64 62 55 63
REMARK SMILES IDX 63 64 56 65 57 66 58 67 62 68 59 69 61 70 60 71 4 72 2 73
REMARK SMILES IDX 1 75 3 76
REMARK H PARENT 31 24 18 32 20 34 33 36 35 38 37 40 40 44 7 46 44 49 46 52
REMARK H PARENT 48 56 4 74
REMARK Flexibility Score: inf
ROOT
ATOM      1  C   UNL     1      15.514  29.937  22.575  1.00  0.00     0.272 C 
ATOM      2  C   UNL     1      14.766  30.034  23.853  1.00  0.00     0.113 C 
ATOM      3  C   UNL     1      15.453  30.984  24.756  1.00  0.00     0.145 C 
ATOM      4  C   UNL     1      16.786  31.519  24.210  1.00  0.00     0.142 C 
ATOM      5  C   UNL     1      17.567  30.451  23.571  1.00  0.00     0.178 C 
ATOM      6  O   UNL     1      16.807  29.480  22.893  1.00  0.00    -0.332 OA
ENDROOT
BRANCH   1   7
ATOM      7  O   UNL     1      15.558  31.081  21.805  1.00  0.00    -0.338 OA
BRANCH   7   8
ATOM      8  C   UNL     1      14.275  31.544  21.566  1.00  0.00     0.199 C 
BRANCH   8   9
ATOM      9  C   UNL     1      14.128  32.145  20.187  1.00  0.00     0.179 C 
ATOM     10  C   UNL     1      15.327  32.324  18.193  1.00  0.00     0.282 C 
ATOM     11  O   UNL     1      15.341  32.401  19.588  1.00  0.00    -0.341 OA
ATOM     12  C   UNL     1      14.091  32.879  17.591  1.00  0.00     0.202 C 
ATOM     13  C   UNL     1      12.895  32.100  18.037  1.00  0.00     0.179 C 
ATOM     14  C   UNL     1      13.198  31.349  19.312  1.00  0.00     0.177 C 
BRANCH  10  15
ATOM     15  O   UNL     1      15.549  31.027  17.761  1.00  0.00    -0.341 OA
BRANCH  15  16
ATOM     16  C   UNL     1      16.892  30.717  17.585  1.00  0.00     0.184 C 
ATOM     17  C   UNL     1      17.090  29.950  16.330  1.00  0.00     0.178 C 
ATOM     18  O   UNL     1      18.462  29.632  16.246  1.00  0.00    -0.341 OA
ATOM     19  C   UNL     1      18.641  28.552  17.135  1.00  0.00     0.281 C 
ATOM     20  C   UNL     1      17.237  29.793  18.764  1.00  0.00     0.180 C 
ATOM     21  C   UNL     1      18.520  29.057  18.565  1.00  0.00     0.202 C 
BRANCH  17  22
ATOM     22  C   UNL     1      16.681  30.743  15.093  1.00  0.00     0.191 C 
BRANCH  22  23
ATOM     23  O   UNL     1      15.287  30.573  14.946  1.00  0.00    -0.394 OA
ATOM     24  H   UNL     1      14.854  30.787  15.806  1.00  0.00     0.210 HD
ENDBRANCH  22  23
ENDBRANCH  17  22
BRANCH  19  25
ATOM     25  O   UNL     1      19.882  28.003  16.932  1.00  0.00    -0.350 OA
BRANCH  25  26
ATOM     26  C   UNL     1      20.862  28.888  17.337  1.00  0.00     0.169 C 
BRANCH  26  27
ATOM     27  C   UNL     1      22.056  28.256  17.987  1.00  0.00     0.119 C 
BRANCH  27  28
ATOM     28  N   UNL     1      21.543  27.146  18.805  1.00  0.00    -0.092 NA
ATOM     29  N   UNL     1      21.352  27.380  19.997  1.00  0.00     0.001 N 
ATOM     30  N   UNL     1      20.909  27.330  21.153  1.00  0.00    -0.003 NA
ENDBRANCH  27  28
ENDBRANCH  26  27
ENDBRANCH  25  26
ENDBRANCH  19  25
BRANCH  20  31
ATOM     31  O   UNL     1      17.383  30.663  19.864  1.00  0.00    -0.387 OA
ATOM     32  H   UNL     1      17.061  31.581  19.659  1.00  0.00     0.211 HD
ENDBRANCH  20  31
BRANCH  21  33
ATOM     33  O   UNL     1      18.550  27.944  19.405  1.00  0.00    -0.385 OA
ATOM     34  H   UNL     1      18.004  27.189  19.058  1.00  0.00     0.211 HD
ENDBRANCH  21  33
ENDBRANCH  15  16
ENDBRANCH  10  15
BRANCH  12  35
ATOM     35  O   UNL     1      13.941  34.253  17.848  1.00  0.00    -0.385 OA
ATOM     36  H   UNL     1      13.263  34.578  17.204  1.00  0.00     0.211 HD
ENDBRANCH  12  35
BRANCH  13  37
ATOM     37  O   UNL     1      12.530  31.218  17.027  1.00  0.00    -0.387 OA
ATOM     38  H   UNL     1      13.077  31.336  16.205  1.00  0.00     0.211 HD
ENDBRANCH  13  37
BRANCH  14  39
ATOM     39  O   UNL     1      13.554  30.042  19.119  1.00  0.00    -0.387 OA
ATOM     40  H   UNL     1      12.978  29.501  18.543  1.00  0.00     0.211 HD
ENDBRANCH  14  39
ENDBRANCH   8   9
ENDBRANCH   7   8
ENDBRANCH   1   7
BRANCH   1  41
ATOM     41  C   UNL     1      14.995  28.833  21.696  1.00  0.00     0.364 C 
ATOM     42  O   UNL     1      15.752  28.293  20.888  1.00  0.00    -0.246 OA
BRANCH  41  43
ATOM     43  O   UNL     1      13.682  28.432  21.800  1.00  0.00    -0.477 OA
ATOM     44  H   UNL     1      12.995  28.943  22.357  1.00  0.00     0.296 HD
ENDBRANCH  41  43
ENDBRANCH   1  41
BRANCH   3  45
ATOM     45  O   UNL     1      14.694  32.127  25.075  1.00  0.00    -0.391 OA
ATOM     46  H   UNL     1      15.131  32.713  25.710  1.00  0.00     0.211 HD
ENDBRANCH   3  45
BRANCH   5  47
ATOM     47  C   UNL     1      18.672  30.791  22.660  1.00  0.00     0.176 C 
BRANCH  47  48
ATOM     48  O   UNL     1      18.653  32.071  22.152  1.00  0.00    -0.388 OA
ATOM     49  H   UNL     1      19.440  32.618  22.369  1.00  0.00     0.211 HD
ENDBRANCH  47  48
BRANCH  47  50
ATOM     50  C   UNL     1      20.071  30.443  23.078  1.00  0.00     0.165 C 
BRANCH  50  51
ATOM     51  O   UNL     1      20.959  30.365  22.049  1.00  0.00    -0.388 OA
ATOM     52  H   UNL     1      21.071  29.470  21.672  1.00  0.00     0.211 HD
ENDBRANCH  50  51
BRANCH  50  53
ATOM     53  C   UNL     1      20.114  29.363  24.118  1.00  0.00     0.154 C 
BRANCH  53  54
ATOM     54  N   UNL     1      21.107  29.557  25.142  1.00  0.00    -0.319 N 
ATOM     55  C   UNL     1      20.827  29.975  26.483  1.00  0.00     0.407 C 
ATOM     56  H   UNL     1      22.143  29.396  24.960  1.00  0.00     0.167 HD
ATOM     57  O   UNL     1      19.643  30.201  26.822  1.00  0.00    -0.225 OA
BRANCH  55  58
ATOM     58  O   UNL     1      21.834  30.137  27.416  1.00  0.00    -0.443 OA
BRANCH  58  59
ATOM     59  C   UNL     1      21.928  29.240  28.496  1.00  0.00     0.294 C 
BRANCH  59  60
ATOM     60  C   UNL     1      22.657  28.012  28.112  1.00  0.00     0.120 A 
ATOM     61  C   UNL     1      22.032  26.839  27.667  1.00  0.00     0.138 A 
ATOM     62  N   UNL     1      23.966  27.735  28.091  1.00  0.00    -0.132 NA
ATOM     63  N   UNL     1      22.981  25.927  27.403  1.00  0.00    -0.248 N 
ATOM     64  N   UNL     1      24.132  26.476  27.661  1.00  0.00    -0.067 NA
BRANCH  63  65
ATOM     65  C   UNL     1      22.738  24.588  26.915  1.00  0.00     0.181 C 
BRANCH  65  66
ATOM     66  C   UNL     1      22.774  24.591  25.431  1.00  0.00    -0.026 A 
ATOM     67  C   UNL     1      23.965  24.587  24.727  1.00  0.00     0.005 A 
ATOM     68  C   UNL     1      21.574  24.597  24.737  1.00  0.00     0.005 A 
ATOM     69  C   UNL     1      23.947  24.590  23.343  1.00  0.00     0.000 A 
ATOM     70  C   UNL     1      21.568  24.600  23.355  1.00  0.00     0.000 A 
ATOM     71  C   UNL     1      22.753  24.596  22.665  1.00  0.00     0.000 A 
ENDBRANCH  65  66
ENDBRANCH  63  65
ENDBRANCH  59  60
ENDBRANCH  58  59
ENDBRANCH  55  58
ENDBRANCH  53  54
ENDBRANCH  50  53
ENDBRANCH  47  50
ENDBRANCH   5  47
BRANCH   4  72
ATOM     72  N   UNL     1      17.443  31.952  25.459  1.00  0.00    -0.348 N 
ATOM     73  C   UNL     1      18.180  33.153  25.569  1.00  0.00     0.217 C 
ATOM     74  H   UNL     1      17.367  31.347  26.306  1.00  0.00     0.163 HD
ATOM     75  C   UNL     1      18.839  33.563  26.846  1.00  0.00     0.114 C 
ATOM     76  O   UNL     1      18.276  33.891  24.558  1.00  0.00    -0.275 OA
ENDBRANCH   4  72
TORSDOF 31
