REMARK VINA RESULT:    -6.536      3.584      7.026
REMARK INTER + INTRA:         -22.186
REMARK INTER:                 -16.443
REMARK INTRA:                  -5.743
REMARK UNBOUND:                -5.144
REMARK SMILES CC(=O)N[C@@H]1[C@@H](O)C[C@](OC[C@H]2O[C@@H](O[C@H]3[C@H](O)[C@@H](O)[C@H](OCCN=[N+]=[N-])O[C@@H]3CO)[C@H](O)[C@@H](O)[C@H]2O)(C(=O)O)O[C@H]1C(O)[C@H](O)CNC(=O)OCc1cn(-c2cccc(C=CC(=O)O)c2)nn1
REMARK SMILES IDX 43 1 42 2 9 3 8 4 41 5 6 6 5 7 10 8 11 9 12 10 14 11 13 12
REMARK SMILES IDX 32 13 34 14 36 15 15 16 16 17 29 18 28 19 21 20 17 21 19 22
REMARK SMILES IDX 30 23 31 24 22 26 23 27 24 28 25 29 26 30 27 31 18 32 20 34
REMARK SMILES IDX 33 36 35 38 37 40 38 42 39 43 40 44 7 46 4 48 2 49 1 51 3 52
REMARK SMILES IDX 44 53 45 55 46 56 47 58 48 59 49 60 50 62 51 63 52 64 53 65
REMARK SMILES IDX 54 66 68 67 55 68 67 69 56 70 66 71 57 72 60 73 58 74 59 75
REMARK SMILES IDX 61 76 62 77 63 78 64 79 65 80
REMARK H PARENT 31 25 18 33 20 35 33 37 35 39 37 41 40 45 7 47 4 50 44 54
REMARK H PARENT 46 57 48 61 65 81
REMARK Flexibility Score: inf
ROOT
ATOM      1  C   UNL     1      20.248  29.042  20.850  1.00  0.00     0.176 C 
ENDROOT
BRANCH   1   2
ATOM      2  C   UNL     1      18.819  29.502  21.053  1.00  0.00     0.178 C 
ATOM      3  C   UNL     1      16.807  29.530  19.824  1.00  0.00     0.272 C 
ATOM      4  C   UNL     1      16.444  30.240  21.215  1.00  0.00     0.113 C 
ATOM      5  O   UNL     1      18.165  29.291  19.872  1.00  0.00    -0.332 OA
ATOM      6  C   UNL     1      17.341  31.424  21.294  1.00  0.00     0.145 C 
ATOM      7  C   UNL     1      18.780  30.962  21.410  1.00  0.00     0.142 C 
BRANCH   3   8
ATOM      8  O   UNL     1      16.554  30.499  18.937  1.00  0.00    -0.338 OA
BRANCH   8   9
ATOM      9  C   UNL     1      16.116  30.345  17.701  1.00  0.00     0.199 C 
BRANCH   9  10
ATOM     10  C   UNL     1      17.096  29.982  16.605  1.00  0.00     0.179 C 
ATOM     11  C   UNL     1      16.661  29.306  14.381  1.00  0.00     0.282 C 
ATOM     12  O   UNL     1      16.471  29.164  15.741  1.00  0.00    -0.341 OA
ATOM     13  C   UNL     1      18.027  29.799  14.111  1.00  0.00     0.202 C 
ATOM     14  C   UNL     1      18.399  31.078  14.796  1.00  0.00     0.179 C 
ATOM     15  C   UNL     1      17.451  31.307  15.944  1.00  0.00     0.177 C 
BRANCH  11  16
ATOM     16  O   UNL     1      15.599  30.052  13.917  1.00  0.00    -0.341 OA
BRANCH  16  17
ATOM     17  C   UNL     1      14.602  29.364  13.318  1.00  0.00     0.184 C 
ATOM     18  C   UNL     1      14.238  29.963  11.994  1.00  0.00     0.178 C 
ATOM     19  O   UNL     1      13.493  28.959  11.331  1.00  0.00    -0.341 OA
ATOM     20  C   UNL     1      12.228  28.853  11.914  1.00  0.00     0.281 C 
ATOM     21  C   UNL     1      13.301  29.382  14.127  1.00  0.00     0.180 C 
ATOM     22  C   UNL     1      12.280  28.555  13.377  1.00  0.00     0.202 C 
BRANCH  18  23
ATOM     23  C   UNL     1      15.389  30.361  11.142  1.00  0.00     0.191 C 
BRANCH  23  24
ATOM     24  O   UNL     1      16.222  29.260  10.954  1.00  0.00    -0.394 OA
ATOM     25  H   UNL     1      17.092  29.551  10.537  1.00  0.00     0.210 HD
ENDBRANCH  23  24
ENDBRANCH  18  23
BRANCH  20  26
ATOM     26  O   UNL     1      11.559  27.818  11.268  1.00  0.00    -0.350 OA
BRANCH  26  27
ATOM     27  C   UNL     1      10.837  28.272  10.167  1.00  0.00     0.169 C 
BRANCH  27  28
ATOM     28  C   UNL     1       9.452  27.670  10.237  1.00  0.00     0.119 C 
BRANCH  28  29
ATOM     29  N   UNL     1       9.146  27.330  11.606  1.00  0.00    -0.092 NA
ATOM     30  N   UNL     1       8.382  28.047  12.277  1.00  0.00     0.001 N 
ATOM     31  N   UNL     1       7.977  28.922  13.058  1.00  0.00    -0.003 NA
ENDBRANCH  28  29
ENDBRANCH  27  28
ENDBRANCH  26  27
ENDBRANCH  20  26
BRANCH  21  32
ATOM     32  O   UNL     1      13.451  28.800  15.380  1.00  0.00    -0.387 OA
ATOM     33  H   UNL     1      12.743  29.202  15.944  1.00  0.00     0.211 HD
ENDBRANCH  21  32
BRANCH  22  34
ATOM     34  O   UNL     1      11.023  28.916  13.916  1.00  0.00    -0.385 OA
ATOM     35  H   UNL     1      11.112  29.408  14.763  1.00  0.00     0.211 HD
ENDBRANCH  22  34
ENDBRANCH  16  17
ENDBRANCH  11  16
BRANCH  13  36
ATOM     36  O   UNL     1      18.968  28.817  14.538  1.00  0.00    -0.385 OA
ATOM     37  H   UNL     1      18.481  28.076  14.996  1.00  0.00     0.211 HD
ENDBRANCH  13  36
BRANCH  14  38
ATOM     38  O   UNL     1      18.451  32.183  13.942  1.00  0.00    -0.387 OA
ATOM     39  H   UNL     1      19.033  32.016  13.158  1.00  0.00     0.211 HD
ENDBRANCH  14  38
BRANCH  15  40
ATOM     40  O   UNL     1      16.318  31.944  15.477  1.00  0.00    -0.387 OA
ATOM     41  H   UNL     1      16.106  32.776  16.004  1.00  0.00     0.211 HD
ENDBRANCH  15  40
ENDBRANCH   9  10
ENDBRANCH   8   9
ENDBRANCH   3   8
BRANCH   3  42
ATOM     42  C   UNL     1      16.055  28.286  19.829  1.00  0.00     0.364 C 
ATOM     43  O   UNL     1      16.346  27.195  19.308  1.00  0.00    -0.246 OA
BRANCH  42  44
ATOM     44  O   UNL     1      14.815  28.283  20.514  1.00  0.00    -0.477 OA
ATOM     45  H   UNL     1      14.833  28.072  21.524  1.00  0.00     0.296 HD
ENDBRANCH  42  44
ENDBRANCH   3  42
BRANCH   6  46
ATOM     46  O   UNL     1      17.191  32.113  20.044  1.00  0.00    -0.391 OA
ATOM     47  H   UNL     1      17.718  31.639  19.343  1.00  0.00     0.211 HD
ENDBRANCH   6  46
BRANCH   7  48
ATOM     48  N   UNL     1      19.444  31.330  22.608  1.00  0.00    -0.348 N 
ATOM     49  C   UNL     1      19.304  30.775  23.884  1.00  0.00     0.217 C 
ATOM     50  H   UNL     1      20.136  32.164  22.565  1.00  0.00     0.163 HD
ATOM     51  C   UNL     1      20.115  31.354  25.028  1.00  0.00     0.114 C 
ATOM     52  O   UNL     1      18.542  29.810  24.161  1.00  0.00    -0.275 OA
ENDBRANCH   7  48
ENDBRANCH   1   2
BRANCH   1  53
ATOM     53  O   UNL     1      20.439  27.834  21.496  1.00  0.00    -0.388 OA
ATOM     54  H   UNL     1      21.301  27.410  21.334  1.00  0.00     0.211 HD
ENDBRANCH   1  53
BRANCH   1  55
ATOM     55  C   UNL     1      20.558  28.786  19.374  1.00  0.00     0.165 C 
BRANCH  55  56
ATOM     56  O   UNL     1      19.947  27.673  18.867  1.00  0.00    -0.388 OA
ATOM     57  H   UNL     1      20.240  27.417  17.962  1.00  0.00     0.211 HD
ENDBRANCH  55  56
BRANCH  55  58
ATOM     58  C   UNL     1      22.033  28.779  19.124  1.00  0.00     0.154 C 
BRANCH  58  59
ATOM     59  N   UNL     1      22.698  27.774  19.873  1.00  0.00    -0.319 N 
ATOM     60  C   UNL     1      22.843  26.446  19.411  1.00  0.00     0.407 C 
ATOM     61  H   UNL     1      23.113  27.991  20.819  1.00  0.00     0.167 HD
ATOM     62  O   UNL     1      22.377  26.091  18.294  1.00  0.00    -0.225 OA
BRANCH  60  63
ATOM     63  O   UNL     1      23.503  25.466  20.150  1.00  0.00    -0.443 OA
BRANCH  63  64
ATOM     64  C   UNL     1      22.710  24.356  20.587  1.00  0.00     0.294 C 
BRANCH  64  65
ATOM     65  C   UNL     1      22.135  24.725  21.894  1.00  0.00     0.121 A 
ATOM     66  C   UNL     1      22.767  24.732  23.134  1.00  0.00     0.144 A 
ATOM     67  N   UNL     1      20.875  25.134  22.118  1.00  0.00    -0.131 NA
ATOM     68  N   UNL     1      21.869  25.147  24.056  1.00  0.00    -0.220 N 
ATOM     69  N   UNL     1      20.742  25.380  23.414  1.00  0.00    -0.062 NA
BRANCH  68  70
ATOM     70  C   UNL     1      22.167  25.289  25.435  1.00  0.00     0.067 A 
ATOM     71  C   UNL     1      21.637  26.363  26.151  1.00  0.00     0.036 A 
ATOM     72  C   UNL     1      22.959  24.401  26.083  1.00  0.00     0.028 A 
ATOM     73  C   UNL     1      21.892  26.541  27.475  1.00  0.00    -0.023 A 
ATOM     74  C   UNL     1      23.249  24.543  27.438  1.00  0.00     0.003 A 
ATOM     75  C   UNL     1      22.704  25.617  28.104  1.00  0.00     0.008 A 
BRANCH  73  76
ATOM     76  C   UNL     1      21.346  27.656  28.219  1.00  0.00     0.015 C 
ATOM     77  C   UNL     1      21.024  28.776  27.624  1.00  0.00     0.094 C 
BRANCH  77  78
ATOM     78  C   UNL     1      20.475  29.878  28.416  1.00  0.00     0.328 C 
ATOM     79  O   UNL     1      19.326  30.296  28.231  1.00  0.00    -0.247 OA
BRANCH  78  80
ATOM     80  O   UNL     1      21.245  30.483  29.406  1.00  0.00    -0.478 OA
ATOM     81  H   UNL     1      21.244  31.505  29.440  1.00  0.00     0.297 HD
ENDBRANCH  78  80
ENDBRANCH  77  78
ENDBRANCH  73  76
ENDBRANCH  68  70
ENDBRANCH  64  65
ENDBRANCH  63  64
ENDBRANCH  60  63
ENDBRANCH  58  59
ENDBRANCH  55  58
ENDBRANCH   1  55
TORSDOF 33
