REMARK VINA RESULT:    -5.342      3.819      8.548
REMARK INTER + INTRA:         -20.750
REMARK INTER:                 -14.683
REMARK INTRA:                  -6.067
REMARK UNBOUND:                -7.600
REMARK SMILES CC(=O)N[C@@H]1[C@@H](O)C[C@](OC[C@H]2O[C@@H](O[C@H]3[C@H](O)[C@@H](O)[C@H](OCCN=[N+]=[N-])O[C@@H]3CO)[C@H](O)[C@@H](O)[C@H]2O)(C(=O)O)O[C@H]1C(O)[C@H](O)CNC(=O)OCc1cn(-c2ccc(Cl)cc2)nn1
REMARK SMILES IDX 9 1 8 2 6 3 5 4 42 5 41 6 10 7 11 8 12 9 14 10 13 11 32 12
REMARK SMILES IDX 34 13 36 14 15 15 16 16 29 17 28 18 21 19 17 20 19 21 30 22
REMARK SMILES IDX 31 23 22 25 23 26 24 27 25 28 26 29 27 30 18 31 20 33 33 35
REMARK SMILES IDX 35 37 37 39 38 41 39 42 40 43 7 45 43 47 44 48 45 50 46 51
REMARK SMILES IDX 47 53 48 54 49 55 50 57 51 58 52 59 53 60 54 61 64 62 55 63
REMARK SMILES IDX 63 64 56 65 57 66 62 67 58 68 61 69 59 70 60 71 4 72 2 73
REMARK SMILES IDX 1 75 3 76
REMARK H PARENT 31 24 18 32 20 34 33 36 35 38 37 40 40 44 7 46 44 49 46 52
REMARK H PARENT 48 56 4 74
REMARK Flexibility Score: inf
ROOT
ATOM      1  C   UNL     1      15.965  29.360  20.943  1.00  0.00     0.272 C 
ATOM      2  C   UNL     1      16.061  28.061  20.256  1.00  0.00     0.113 C 
ATOM      3  C   UNL     1      16.126  28.014  18.784  1.00  0.00     0.145 C 
ATOM      4  C   UNL     1      16.278  29.410  18.219  1.00  0.00     0.142 C 
ATOM      5  C   UNL     1      15.234  30.253  18.981  1.00  0.00     0.178 C 
ATOM      6  O   UNL     1      15.948  30.506  20.192  1.00  0.00    -0.332 OA
ENDROOT
BRANCH   1   7
ATOM      7  O   UNL     1      17.062  29.434  21.848  1.00  0.00    -0.338 OA
BRANCH   7   8
ATOM      8  C   UNL     1      17.814  30.567  21.700  1.00  0.00     0.199 C 
BRANCH   8   9
ATOM      9  C   UNL     1      19.309  30.260  21.690  1.00  0.00     0.179 C 
ATOM     10  C   UNL     1      20.555  28.773  20.359  1.00  0.00     0.282 C 
ATOM     11  O   UNL     1      19.568  28.978  21.324  1.00  0.00    -0.341 OA
ATOM     12  C   UNL     1      20.155  29.485  19.135  1.00  0.00     0.202 C 
ATOM     13  C   UNL     1      20.053  30.976  19.425  1.00  0.00     0.179 C 
ATOM     14  C   UNL     1      20.080  31.284  20.889  1.00  0.00     0.177 C 
BRANCH  10  15
ATOM     15  O   UNL     1      20.649  27.385  20.287  1.00  0.00    -0.341 OA
BRANCH  15  16
ATOM     16  C   UNL     1      21.653  26.800  20.932  1.00  0.00     0.184 C 
ATOM     17  C   UNL     1      22.669  26.173  20.047  1.00  0.00     0.178 C 
ATOM     18  O   UNL     1      23.828  25.862  20.751  1.00  0.00    -0.341 OA
ATOM     19  C   UNL     1      23.672  25.005  21.792  1.00  0.00     0.281 C 
ATOM     20  C   UNL     1      21.225  25.692  21.917  1.00  0.00     0.180 C 
ATOM     21  C   UNL     1      22.253  24.623  22.008  1.00  0.00     0.202 C 
BRANCH  17  22
ATOM     22  C   UNL     1      23.049  26.924  18.810  1.00  0.00     0.191 C 
BRANCH  22  23
ATOM     23  O   UNL     1      22.117  26.762  17.784  1.00  0.00    -0.394 OA
ATOM     24  H   UNL     1      22.352  27.360  17.036  1.00  0.00     0.210 HD
ENDBRANCH  22  23
ENDBRANCH  17  22
BRANCH  19  25
ATOM     25  O   UNL     1      24.143  25.587  22.975  1.00  0.00    -0.350 OA
BRANCH  25  26
ATOM     26  C   UNL     1      24.383  24.634  23.953  1.00  0.00     0.169 C 
BRANCH  26  27
ATOM     27  C   UNL     1      24.022  25.082  25.337  1.00  0.00     0.119 C 
BRANCH  27  28
ATOM     28  N   UNL     1      23.118  26.221  25.194  1.00  0.00    -0.092 NA
ATOM     29  N   UNL     1      23.148  27.044  26.126  1.00  0.00     0.001 N 
ATOM     30  N   UNL     1      23.398  28.042  26.836  1.00  0.00    -0.003 NA
ENDBRANCH  27  28
ENDBRANCH  26  27
ENDBRANCH  25  26
ENDBRANCH  19  25
BRANCH  20  31
ATOM     31  O   UNL     1      21.073  26.300  23.150  1.00  0.00    -0.387 OA
ATOM     32  H   UNL     1      20.134  26.089  23.455  1.00  0.00     0.211 HD
ENDBRANCH  20  31
BRANCH  21  33
ATOM     33  O   UNL     1      21.941  23.504  21.208  1.00  0.00    -0.385 OA
ATOM     34  H   UNL     1      22.091  22.725  21.788  1.00  0.00     0.211 HD
ENDBRANCH  21  33
ENDBRANCH  15  16
ENDBRANCH  10  15
BRANCH  12  35
ATOM     35  O   UNL     1      21.004  29.321  18.039  1.00  0.00    -0.385 OA
ATOM     36  H   UNL     1      20.490  29.365  17.169  1.00  0.00     0.211 HD
ENDBRANCH  12  35
BRANCH  13  37
ATOM     37  O   UNL     1      18.925  31.467  18.773  1.00  0.00    -0.387 OA
ATOM     38  H   UNL     1      19.007  32.375  18.443  1.00  0.00     0.211 HD
ENDBRANCH  13  37
BRANCH  14  39
ATOM     39  O   UNL     1      19.416  32.513  21.125  1.00  0.00    -0.387 OA
ATOM     40  H   UNL     1      20.110  33.189  21.218  1.00  0.00     0.211 HD
ENDBRANCH  14  39
ENDBRANCH   8   9
ENDBRANCH   7   8
ENDBRANCH   1   7
BRANCH   1  41
ATOM     41  C   UNL     1      14.740  29.351  21.820  1.00  0.00     0.364 C 
ATOM     42  O   UNL     1      13.981  28.358  21.884  1.00  0.00    -0.246 OA
BRANCH  41  43
ATOM     43  O   UNL     1      14.444  30.462  22.570  1.00  0.00    -0.477 OA
ATOM     44  H   UNL     1      15.147  31.096  22.944  1.00  0.00     0.296 HD
ENDBRANCH  41  43
ENDBRANCH   1  41
BRANCH   3  45
ATOM     45  O   UNL     1      17.231  27.282  18.349  1.00  0.00    -0.391 OA
ATOM     46  H   UNL     1      17.175  26.389  18.738  1.00  0.00     0.211 HD
ENDBRANCH   3  45
BRANCH   5  47
ATOM     47  C   UNL     1      14.944  31.555  18.327  1.00  0.00     0.176 C 
BRANCH  47  48
ATOM     48  O   UNL     1      14.551  31.298  17.020  1.00  0.00    -0.388 OA
ATOM     49  H   UNL     1      15.294  31.089  16.403  1.00  0.00     0.211 HD
ENDBRANCH  47  48
BRANCH  47  50
ATOM     50  C   UNL     1      14.049  32.520  18.981  1.00  0.00     0.165 C 
BRANCH  50  51
ATOM     51  O   UNL     1      14.665  32.783  20.259  1.00  0.00    -0.388 OA
ATOM     52  H   UNL     1      14.492  33.716  20.526  1.00  0.00     0.211 HD
ENDBRANCH  50  51
BRANCH  50  53
ATOM     53  C   UNL     1      12.713  31.922  19.395  1.00  0.00     0.154 C 
BRANCH  53  54
ATOM     54  N   UNL     1      12.403  32.077  20.789  1.00  0.00    -0.319 N 
ATOM     55  C   UNL     1      11.152  32.637  21.154  1.00  0.00     0.407 C 
ATOM     56  H   UNL     1      13.058  31.800  21.559  1.00  0.00     0.167 HD
ATOM     57  O   UNL     1      10.309  33.018  20.286  1.00  0.00    -0.225 OA
BRANCH  55  58
ATOM     58  O   UNL     1      10.805  32.789  22.483  1.00  0.00    -0.443 OA
BRANCH  58  59
ATOM     59  C   UNL     1      11.666  32.373  23.546  1.00  0.00     0.294 C 
BRANCH  59  60
ATOM     60  C   UNL     1      11.298  31.000  23.999  1.00  0.00     0.121 A 
ATOM     61  C   UNL     1      10.002  30.518  24.116  1.00  0.00     0.144 A 
ATOM     62  N   UNL     1      12.115  30.005  24.367  1.00  0.00    -0.131 NA
ATOM     63  N   UNL     1      10.073  29.252  24.550  1.00  0.00    -0.220 N 
ATOM     64  N   UNL     1      11.337  28.975  24.690  1.00  0.00    -0.062 NA
BRANCH  63  65
ATOM     65  C   UNL     1       8.913  28.450  24.781  1.00  0.00     0.066 A 
ATOM     66  C   UNL     1       7.650  28.979  24.685  1.00  0.00     0.030 A 
ATOM     67  C   UNL     1       9.039  27.128  25.105  1.00  0.00     0.030 A 
ATOM     68  C   UNL     1       6.498  28.221  24.904  1.00  0.00     0.023 A 
ATOM     69  C   UNL     1       7.912  26.351  25.329  1.00  0.00     0.023 A 
ATOM     70  C   UNL     1       6.631  26.897  25.229  1.00  0.00     0.041 A 
ATOM     71  Cl  UNL     1       5.205  25.898  25.518  1.00  0.00    -0.084 Cl
ENDBRANCH  63  65
ENDBRANCH  59  60
ENDBRANCH  58  59
ENDBRANCH  55  58
ENDBRANCH  53  54
ENDBRANCH  50  53
ENDBRANCH  47  50
ENDBRANCH   5  47
BRANCH   4  72
ATOM     72  N   UNL     1      16.138  29.421  16.813  1.00  0.00    -0.348 N 
ATOM     73  C   UNL     1      17.313  29.437  15.980  1.00  0.00     0.217 C 
ATOM     74  H   UNL     1      15.239  29.405  16.304  1.00  0.00     0.163 HD
ATOM     75  C   UNL     1      17.200  29.449  14.493  1.00  0.00     0.114 C 
ATOM     76  O   UNL     1      18.439  29.440  16.539  1.00  0.00    -0.275 OA
ENDBRANCH   4  72
TORSDOF 30
