REMARK VINA RESULT:    -5.687     12.021     16.593
REMARK INTER + INTRA:         -21.534
REMARK INTER:                 -13.063
REMARK INTRA:                  -8.470
REMARK UNBOUND:                -7.203
REMARK SMILES CC(=O)N[C@@H]1[C@@H](O)C[C@](OC[C@H]2O[C@@H](O[C@H]3[C@H](O)[C@@H](O)[C@H](OCCN=[N+]=[N-])O[C@@H]3CO)[C@H](O)[C@@H](O)[C@H]2O)(C(=O)O)O[C@H]1C(O)[C@H](O)CNC(=O)OCc1cn(CC2=CC[C@H]3C[C@@H]2C3(C)C)nn1
REMARK SMILES IDX 9 1 8 2 6 3 5 4 42 5 41 6 10 7 11 8 12 9 14 10 13 11 32 12
REMARK SMILES IDX 34 13 36 14 15 15 16 16 29 17 28 18 21 19 17 20 19 21 30 22
REMARK SMILES IDX 31 23 22 25 23 26 24 27 25 28 26 29 27 30 18 31 20 33 33 35
REMARK SMILES IDX 35 37 37 39 38 41 39 42 40 43 7 45 43 47 44 48 45 50 46 51
REMARK SMILES IDX 47 53 48 54 49 55 50 57 51 58 52 59 53 60 54 61 67 62 55 63
REMARK SMILES IDX 66 64 56 65 57 66 58 67 62 68 59 69 61 70 63 71 60 72 64 73
REMARK SMILES IDX 65 74 4 75 2 76 1 78 3 79
REMARK H PARENT 31 24 18 32 20 34 33 36 35 38 37 40 40 44 7 46 44 49 46 52
REMARK H PARENT 48 56 4 77
REMARK Flexibility Score: inf
ROOT
ATOM      1  C   UNL     1      19.882  20.136  10.832  1.00  0.00     0.272 C 
ATOM      2  C   UNL     1      19.525  21.079  11.934  1.00  0.00     0.113 C 
ATOM      3  C   UNL     1      20.534  22.240  11.985  1.00  0.00     0.145 C 
ATOM      4  C   UNL     1      21.898  21.734  12.287  1.00  0.00     0.142 C 
ATOM      5  C   UNL     1      21.870  20.234  12.073  1.00  0.00     0.178 C 
ATOM      6  O   UNL     1      21.296  19.895  10.901  1.00  0.00    -0.332 OA
ENDROOT
BRANCH   1   7
ATOM      7  O   UNL     1      19.685  20.553   9.591  1.00  0.00    -0.338 OA
BRANCH   7   8
ATOM      8  C   UNL     1      19.692  19.882   8.468  1.00  0.00     0.199 C 
BRANCH   8   9
ATOM      9  C   UNL     1      20.852  19.620   7.604  1.00  0.00     0.179 C 
ATOM     10  C   UNL     1      22.712  18.246   7.559  1.00  0.00     0.282 C 
ATOM     11  O   UNL     1      21.432  18.402   8.075  1.00  0.00    -0.341 OA
ATOM     12  C   UNL     1      22.879  18.593   6.149  1.00  0.00     0.202 C 
ATOM     13  C   UNL     1      21.758  19.209   5.411  1.00  0.00     0.179 C 
ATOM     14  C   UNL     1      20.457  19.198   6.175  1.00  0.00     0.177 C 
BRANCH  10  15
ATOM     15  O   UNL     1      22.997  16.880   7.749  1.00  0.00    -0.341 OA
BRANCH  15  16
ATOM     16  C   UNL     1      23.914  16.663   8.761  1.00  0.00     0.184 C 
ATOM     17  C   UNL     1      24.986  15.720   8.296  1.00  0.00     0.178 C 
ATOM     18  O   UNL     1      25.732  15.161   9.319  1.00  0.00    -0.341 OA
ATOM     19  C   UNL     1      25.553  15.692  10.562  1.00  0.00     0.281 C 
ATOM     20  C   UNL     1      23.163  15.945   9.888  1.00  0.00     0.180 C 
ATOM     21  C   UNL     1      24.114  15.697  11.019  1.00  0.00     0.202 C 
BRANCH  17  22
ATOM     22  C   UNL     1      25.927  16.498   7.369  1.00  0.00     0.191 C 
BRANCH  22  23
ATOM     23  O   UNL     1      25.960  17.815   7.805  1.00  0.00    -0.394 OA
ATOM     24  H   UNL     1      25.644  18.398   7.049  1.00  0.00     0.210 HD
ENDBRANCH  22  23
ENDBRANCH  17  22
BRANCH  19  25
ATOM     25  O   UNL     1      26.057  16.997  10.652  1.00  0.00    -0.350 OA
BRANCH  25  26
ATOM     26  C   UNL     1      27.427  17.007  10.917  1.00  0.00     0.169 C 
BRANCH  26  27
ATOM     27  C   UNL     1      27.865  18.464  10.746  1.00  0.00     0.119 C 
BRANCH  27  28
ATOM     28  N   UNL     1      26.710  19.277  10.429  1.00  0.00    -0.092 NA
ATOM     29  N   UNL     1      26.773  20.488  10.326  1.00  0.00     0.001 N 
ATOM     30  N   UNL     1      26.853  21.722  10.368  1.00  0.00    -0.003 NA
ENDBRANCH  27  28
ENDBRANCH  26  27
ENDBRANCH  25  26
ENDBRANCH  19  25
BRANCH  20  31
ATOM     31  O   UNL     1      22.123  16.766  10.360  1.00  0.00    -0.387 OA
ATOM     32  H   UNL     1      21.570  17.081   9.613  1.00  0.00     0.211 HD
ENDBRANCH  20  31
BRANCH  21  33
ATOM     33  O   UNL     1      23.822  14.527  11.718  1.00  0.00    -0.385 OA
ATOM     34  H   UNL     1      24.407  13.800  11.359  1.00  0.00     0.211 HD
ENDBRANCH  21  33
ENDBRANCH  15  16
ENDBRANCH  10  15
BRANCH  12  35
ATOM     35  O   UNL     1      23.985  19.482   6.061  1.00  0.00    -0.385 OA
ATOM     36  H   UNL     1      23.736  20.321   5.598  1.00  0.00     0.211 HD
ENDBRANCH  12  35
BRANCH  13  37
ATOM     37  O   UNL     1      21.622  18.684   4.121  1.00  0.00    -0.387 OA
ATOM     38  H   UNL     1      22.420  18.916   3.573  1.00  0.00     0.211 HD
ENDBRANCH  13  37
BRANCH  14  39
ATOM     39  O   UNL     1      20.024  17.858   6.249  1.00  0.00    -0.387 OA
ATOM     40  H   UNL     1      19.779  17.531   5.349  1.00  0.00     0.211 HD
ENDBRANCH  14  39
ENDBRANCH   8   9
ENDBRANCH   7   8
ENDBRANCH   1   7
BRANCH   1  41
ATOM     41  C   UNL     1      19.351  18.779  11.126  1.00  0.00     0.364 C 
ATOM     42  O   UNL     1      18.617  18.591  12.159  1.00  0.00    -0.246 OA
BRANCH  41  43
ATOM     43  O   UNL     1      19.599  17.691  10.358  1.00  0.00    -0.477 OA
ATOM     44  H   UNL     1      19.507  17.600   9.360  1.00  0.00     0.296 HD
ENDBRANCH  41  43
ENDBRANCH   1  41
BRANCH   3  45
ATOM     45  O   UNL     1      20.555  22.716  10.666  1.00  0.00    -0.391 OA
ATOM     46  H   UNL     1      21.501  22.853  10.411  1.00  0.00     0.211 HD
ENDBRANCH   3  45
BRANCH   5  47
ATOM     47  C   UNL     1      23.293  19.669  12.072  1.00  0.00     0.176 C 
BRANCH  47  48
ATOM     48  O   UNL     1      23.629  19.211  10.825  1.00  0.00    -0.388 OA
ATOM     49  H   UNL     1      24.377  18.551  10.810  1.00  0.00     0.211 HD
ENDBRANCH  47  48
BRANCH  47  50
ATOM     50  C   UNL     1      23.437  18.594  13.107  1.00  0.00     0.165 C 
BRANCH  50  51
ATOM     51  O   UNL     1      22.727  19.069  14.247  1.00  0.00    -0.388 OA
ATOM     52  H   UNL     1      23.189  19.942  14.452  1.00  0.00     0.211 HD
ENDBRANCH  50  51
BRANCH  50  53
ATOM     53  C   UNL     1      24.855  18.427  13.553  1.00  0.00     0.154 C 
BRANCH  53  54
ATOM     54  N   UNL     1      25.685  19.574  13.376  1.00  0.00    -0.319 N 
ATOM     55  C   UNL     1      26.913  19.682  14.071  1.00  0.00     0.407 C 
ATOM     56  H   UNL     1      25.377  20.333  12.718  1.00  0.00     0.167 HD
ATOM     57  O   UNL     1      27.276  18.782  14.839  1.00  0.00    -0.225 OA
BRANCH  55  58
ATOM     58  O   UNL     1      27.726  20.787  13.905  1.00  0.00    -0.443 OA
BRANCH  58  59
ATOM     59  C   UNL     1      29.109  20.793  13.785  1.00  0.00     0.294 C 
BRANCH  59  60
ATOM     60  C   UNL     1      29.841  21.075  15.054  1.00  0.00     0.120 A 
ATOM     61  C   UNL     1      30.371  20.172  15.945  1.00  0.00     0.138 A 
ATOM     62  N   UNL     1      30.128  22.305  15.562  1.00  0.00    -0.132 NA
ATOM     63  N   UNL     1      30.950  20.845  16.942  1.00  0.00    -0.248 N 
ATOM     64  N   UNL     1      30.790  22.128  16.687  1.00  0.00    -0.067 NA
BRANCH  63  65
ATOM     65  C   UNL     1      31.646  20.276  18.112  1.00  0.00     0.177 C 
BRANCH  65  66
ATOM     66  C   UNL     1      30.573  20.070  19.141  1.00  0.00    -0.049 C 
ATOM     67  C   UNL     1      30.008  18.858  19.312  1.00  0.00    -0.025 C 
ATOM     68  C   UNL     1      30.091  21.155  20.008  1.00  0.00     0.023 C 
ATOM     69  C   UNL     1      28.850  18.729  20.223  1.00  0.00     0.031 C 
ATOM     70  C   UNL     1      29.959  20.563  21.418  1.00  0.00     0.013 C 
ATOM     71  C   UNL     1      28.595  21.207  19.963  1.00  0.00    -0.026 C 
ATOM     72  C   UNL     1      28.604  20.025  20.942  1.00  0.00    -0.000 C 
ATOM     73  C   UNL     1      27.984  22.409  20.641  1.00  0.00     0.012 C 
ATOM     74  C   UNL     1      27.936  20.939  18.652  1.00  0.00     0.012 C 
ENDBRANCH  65  66
ENDBRANCH  63  65
ENDBRANCH  59  60
ENDBRANCH  58  59
ENDBRANCH  55  58
ENDBRANCH  53  54
ENDBRANCH  50  53
ENDBRANCH  47  50
ENDBRANCH   5  47
BRANCH   4  75
ATOM     75  N   UNL     1      22.404  21.979  13.593  1.00  0.00    -0.348 N 
ATOM     76  C   UNL     1      23.689  22.432  13.925  1.00  0.00     0.217 C 
ATOM     77  H   UNL     1      21.727  21.794  14.388  1.00  0.00     0.163 HD
ATOM     78  C   UNL     1      24.089  22.647  15.339  1.00  0.00     0.114 C 
ATOM     79  O   UNL     1      24.473  22.643  12.982  1.00  0.00    -0.275 OA
ENDBRANCH   4  75
TORSDOF 31
