REMARK VINA RESULT:    -6.042      4.973      8.800
REMARK INTER + INTRA:         -23.159
REMARK INTER:                 -15.448
REMARK INTRA:                  -7.711
REMARK UNBOUND:                -7.402
REMARK SMILES CC(=O)N[C@@H]1[C@@H](O)C[C@](OC[C@H]2O[C@@H](O[C@H]3[C@H](O)[C@@H](O)[C@H](OCCN=[N+]=[N-])O[C@@H]3CO)[C@H](O)[C@@H](O)[C@H]2O)(C(=O)O)O[C@H]1C(O)[C@H](O)CNC(=O)OCc1cn(-c2ccc(S(=O)(=O)c3ccc(N)cc3)cc2)nn1
REMARK SMILES IDX 43 1 42 2 9 3 8 4 41 5 6 6 5 7 10 8 11 9 12 10 14 11 13 12
REMARK SMILES IDX 32 13 34 14 36 15 15 16 16 17 29 18 28 19 21 20 17 21 19 22
REMARK SMILES IDX 30 23 31 24 22 26 23 27 24 28 25 29 26 30 27 31 18 32 20 34
REMARK SMILES IDX 33 36 35 38 37 40 38 42 39 43 40 44 7 46 4 48 2 49 1 51 3 52
REMARK SMILES IDX 44 53 45 55 46 56 47 58 48 59 49 60 50 62 51 63 52 64 53 65
REMARK SMILES IDX 54 66 73 67 55 68 72 69 56 70 57 71 71 72 58 73 70 74 59 75
REMARK SMILES IDX 60 76 61 77 62 78 63 79 64 80 69 81 65 82 68 83 66 84 67 85
REMARK H PARENT 31 25 18 33 20 35 33 37 35 39 37 41 40 45 7 47 4 50 44 54
REMARK H PARENT 46 57 48 61 67 86 67 87
REMARK Flexibility Score: inf
ROOT
ATOM      1  C   UNL     1      22.050  25.162  24.278  1.00  0.00     0.176 C 
ENDROOT
BRANCH   1   2
ATOM      2  C   UNL     1      22.109  26.602  24.787  1.00  0.00     0.178 C 
ATOM      3  C   UNL     1      22.244  28.813  24.121  1.00  0.00     0.272 C 
ATOM      4  C   UNL     1      23.273  29.083  25.170  1.00  0.00     0.113 C 
ATOM      5  O   UNL     1      22.265  27.459  23.740  1.00  0.00    -0.332 OA
ATOM      6  C   UNL     1      24.129  27.838  25.340  1.00  0.00     0.145 C 
ATOM      7  C   UNL     1      23.255  26.723  25.804  1.00  0.00     0.142 C 
BRANCH   3   8
ATOM      8  O   UNL     1      22.429  29.505  22.922  1.00  0.00    -0.338 OA
BRANCH   8   9
ATOM      9  C   UNL     1      23.080  30.699  23.005  1.00  0.00     0.199 C 
BRANCH   9  10
ATOM     10  C   UNL     1      22.336  31.736  22.194  1.00  0.00     0.179 C 
ATOM     11  C   UNL     1      20.545  32.062  20.815  1.00  0.00     0.282 C 
ATOM     12  O   UNL     1      21.168  31.143  21.702  1.00  0.00    -0.341 OA
ATOM     13  C   UNL     1      19.975  33.137  21.695  1.00  0.00     0.202 C 
ATOM     14  C   UNL     1      21.112  33.904  22.330  1.00  0.00     0.179 C 
ATOM     15  C   UNL     1      22.040  32.930  23.035  1.00  0.00     0.177 C 
BRANCH  11  16
ATOM     16  O   UNL     1      19.634  31.365  20.066  1.00  0.00    -0.341 OA
BRANCH  16  17
ATOM     17  C   UNL     1      19.272  30.158  20.709  1.00  0.00     0.184 C 
ATOM     18  C   UNL     1      19.232  29.081  19.672  1.00  0.00     0.178 C 
ATOM     19  O   UNL     1      18.070  28.360  19.616  1.00  0.00    -0.341 OA
ATOM     20  C   UNL     1      16.897  29.055  19.554  1.00  0.00     0.281 C 
ATOM     21  C   UNL     1      17.890  30.436  21.287  1.00  0.00     0.180 C 
ATOM     22  C   UNL     1      16.958  30.466  20.092  1.00  0.00     0.202 C 
BRANCH  18  23
ATOM     23  C   UNL     1      20.326  28.074  20.076  1.00  0.00     0.191 C 
BRANCH  23  24
ATOM     24  O   UNL     1      20.266  27.727  21.403  1.00  0.00    -0.394 OA
ATOM     25  H   UNL     1      19.357  27.734  21.792  1.00  0.00     0.210 HD
ENDBRANCH  23  24
ENDBRANCH  18  23
BRANCH  20  26
ATOM     26  O   UNL     1      15.963  28.375  20.327  1.00  0.00    -0.350 OA
BRANCH  26  27
ATOM     27  C   UNL     1      14.657  28.717  20.105  1.00  0.00     0.169 C 
BRANCH  27  28
ATOM     28  C   UNL     1      13.869  28.689  21.372  1.00  0.00     0.119 C 
BRANCH  28  29
ATOM     29  N   UNL     1      14.251  29.837  22.213  1.00  0.00    -0.092 NA
ATOM     30  N   UNL     1      14.666  29.673  23.359  1.00  0.00     0.001 N 
ATOM     31  N   UNL     1      15.472  29.524  24.294  1.00  0.00    -0.003 NA
ENDBRANCH  28  29
ENDBRANCH  27  28
ENDBRANCH  26  27
ENDBRANCH  20  26
BRANCH  21  32
ATOM     32  O   UNL     1      17.511  29.416  22.128  1.00  0.00    -0.387 OA
ATOM     33  H   UNL     1      16.521  29.307  22.122  1.00  0.00     0.211 HD
ENDBRANCH  21  32
BRANCH  22  34
ATOM     34  O   UNL     1      17.329  31.398  19.152  1.00  0.00    -0.385 OA
ATOM     35  H   UNL     1      16.919  32.290  19.306  1.00  0.00     0.211 HD
ENDBRANCH  22  34
ENDBRANCH  16  17
ENDBRANCH  11  16
BRANCH  13  36
ATOM     36  O   UNL     1      19.104  33.982  21.011  1.00  0.00    -0.385 OA
ATOM     37  H   UNL     1      18.289  33.429  20.790  1.00  0.00     0.211 HD
ENDBRANCH  13  36
BRANCH  14  38
ATOM     38  O   UNL     1      20.584  34.720  23.341  1.00  0.00    -0.387 OA
ATOM     39  H   UNL     1      20.080  34.183  23.979  1.00  0.00     0.211 HD
ENDBRANCH  14  38
BRANCH  15  40
ATOM     40  O   UNL     1      21.536  32.579  24.280  1.00  0.00    -0.387 OA
ATOM     41  H   UNL     1      21.780  33.257  24.951  1.00  0.00     0.211 HD
ENDBRANCH  15  40
ENDBRANCH   9  10
ENDBRANCH   8   9
ENDBRANCH   3   8
BRANCH   3  42
ATOM     42  C   UNL     1      20.855  29.114  24.561  1.00  0.00     0.364 C 
ATOM     43  O   UNL     1      19.811  28.752  23.970  1.00  0.00    -0.246 OA
BRANCH  42  44
ATOM     44  O   UNL     1      20.665  29.857  25.714  1.00  0.00    -0.477 OA
ATOM     45  H   UNL     1      21.187  30.730  25.887  1.00  0.00     0.296 HD
ENDBRANCH  42  44
ENDBRANCH   3  42
BRANCH   6  46
ATOM     46  O   UNL     1      24.587  27.512  24.059  1.00  0.00    -0.391 OA
ATOM     47  H   UNL     1      24.688  26.529  23.942  1.00  0.00     0.211 HD
ENDBRANCH   6  46
BRANCH   7  48
ATOM     48  N   UNL     1      22.725  26.861  27.123  1.00  0.00    -0.348 N 
ATOM     49  C   UNL     1      22.726  25.828  28.103  1.00  0.00     0.217 C 
ATOM     50  H   UNL     1      22.307  27.781  27.408  1.00  0.00     0.163 HD
ATOM     51  C   UNL     1      22.145  26.096  29.442  1.00  0.00     0.114 C 
ATOM     52  O   UNL     1      23.218  24.735  27.793  1.00  0.00    -0.275 OA
ENDBRANCH   7  48
ENDBRANCH   1   2
BRANCH   1  53
ATOM     53  O   UNL     1      21.831  24.274  25.319  1.00  0.00    -0.388 OA
ATOM     54  H   UNL     1      22.662  23.743  25.501  1.00  0.00     0.211 HD
ENDBRANCH   1  53
BRANCH   1  55
ATOM     55  C   UNL     1      21.130  24.998  23.131  1.00  0.00     0.165 C 
BRANCH  55  56
ATOM     56  O   UNL     1      20.077  24.137  23.449  1.00  0.00    -0.388 OA
ATOM     57  H   UNL     1      19.822  23.537  22.729  1.00  0.00     0.211 HD
ENDBRANCH  55  56
BRANCH  55  58
ATOM     58  C   UNL     1      21.833  24.366  21.948  1.00  0.00     0.154 C 
BRANCH  58  59
ATOM     59  N   UNL     1      23.035  25.050  21.560  1.00  0.00    -0.319 N 
ATOM     60  C   UNL     1      23.201  25.418  20.202  1.00  0.00     0.407 C 
ATOM     61  H   UNL     1      23.775  25.277  22.243  1.00  0.00     0.167 HD
ATOM     62  O   UNL     1      22.278  25.140  19.382  1.00  0.00    -0.225 OA
BRANCH  60  63
ATOM     63  O   UNL     1      24.307  26.063  19.697  1.00  0.00    -0.443 OA
BRANCH  63  64
ATOM     64  C   UNL     1      25.175  26.873  20.460  1.00  0.00     0.294 C 
BRANCH  64  65
ATOM     65  C   UNL     1      26.473  26.168  20.604  1.00  0.00     0.121 A 
ATOM     66  C   UNL     1      26.767  24.941  21.163  1.00  0.00     0.144 A 
ATOM     67  N   UNL     1      27.681  26.639  20.157  1.00  0.00    -0.131 NA
ATOM     68  N   UNL     1      28.110  24.707  21.042  1.00  0.00    -0.220 N 
ATOM     69  N   UNL     1      28.611  25.752  20.434  1.00  0.00    -0.062 NA
BRANCH  68  70
ATOM     70  C   UNL     1      28.835  23.571  21.462  1.00  0.00     0.066 A 
ATOM     71  C   UNL     1      28.168  22.405  21.851  1.00  0.00     0.030 A 
ATOM     72  C   UNL     1      30.205  23.533  21.518  1.00  0.00     0.030 A 
ATOM     73  C   UNL     1      28.827  21.276  22.267  1.00  0.00     0.023 A 
ATOM     74  C   UNL     1      30.882  22.387  21.941  1.00  0.00     0.023 A 
ATOM     75  C   UNL     1      30.203  21.250  22.319  1.00  0.00     0.072 A 
BRANCH  75  76
ATOM     76  S   UNL     1      31.054  19.813  22.844  1.00  0.00     0.206 S 
ATOM     77  O   UNL     1      32.404  19.777  22.146  1.00  0.00    -0.219 OA
ATOM     78  O   UNL     1      30.283  18.558  22.611  1.00  0.00    -0.219 OA
BRANCH  76  79
ATOM     79  C   UNL     1      31.420  19.971  24.562  1.00  0.00     0.072 A 
ATOM     80  C   UNL     1      31.036  21.088  25.252  1.00  0.00     0.023 A 
ATOM     81  C   UNL     1      32.097  18.977  25.230  1.00  0.00     0.023 A 
ATOM     82  C   UNL     1      31.326  21.200  26.581  1.00  0.00     0.027 A 
ATOM     83  C   UNL     1      32.383  19.104  26.565  1.00  0.00     0.027 A 
ATOM     84  C   UNL     1      32.012  20.208  27.279  1.00  0.00     0.031 A 
BRANCH  84  85
ATOM     85  N   UNL     1      32.294  20.366  28.653  1.00  0.00    -0.399 N 
ATOM     86  H   UNL     1      31.578  20.186  29.370  1.00  0.00     0.156 HD
ATOM     87  H   UNL     1      33.238  20.668  28.949  1.00  0.00     0.156 HD
ENDBRANCH  84  85
ENDBRANCH  76  79
ENDBRANCH  75  76
ENDBRANCH  68  70
ENDBRANCH  64  65
ENDBRANCH  63  64
ENDBRANCH  60  63
ENDBRANCH  58  59
ENDBRANCH  55  58
ENDBRANCH   1  55
TORSDOF 33
