REMARK VINA RESULT:    -7.695      3.703     11.238
REMARK INTER + INTRA:         -24.533
REMARK INTER:                 -16.728
REMARK INTRA:                  -7.806
REMARK UNBOUND:                -5.593
REMARK SMILES CC(=O)N[C@@H]1[C@@H](O)C[C@](OC[C@H]2O[C@@H](O[C@H]3[C@H](O)[C@@H](O)[C@H](OCCN=[N+]=[N-])O[C@@H]3CO)[C@H](O)[C@@H](O)[C@H]2O)(C(=O)O)O[C@H]1C(O)[C@H](O)CNC(=O)OCc1cn(C2c3ccccc3-c3ccccc32)nn1
REMARK SMILES IDX 9 1 8 2 6 3 5 4 42 5 41 6 10 7 11 8 12 9 14 10 13 11 32 12
REMARK SMILES IDX 34 13 36 14 15 15 16 16 29 17 28 18 21 19 17 20 19 21 30 22
REMARK SMILES IDX 31 23 22 25 23 26 24 27 25 28 26 29 27 30 18 31 20 33 33 35
REMARK SMILES IDX 35 37 37 39 38 41 39 42 40 43 7 45 43 47 44 48 45 50 46 51
REMARK SMILES IDX 47 53 48 54 49 55 50 57 51 58 52 59 53 60 54 61 70 62 55 63
REMARK SMILES IDX 69 64 56 65 57 66 68 67 58 68 62 69 63 70 67 71 59 72 61 73
REMARK SMILES IDX 64 74 66 75 60 76 65 77 4 78 2 79 1 81 3 82
REMARK H PARENT 31 24 18 32 20 34 33 36 35 38 37 40 40 44 7 46 44 49 46 52
REMARK H PARENT 48 56 4 80
REMARK Flexibility Score: inf
ROOT
ATOM      1  C   UNL     1      15.718  29.320  20.612  1.00  0.00     0.272 C 
ATOM      2  C   UNL     1      14.373  28.853  20.999  1.00  0.00     0.113 C 
ATOM      3  C   UNL     1      13.607  29.860  21.771  1.00  0.00     0.145 C 
ATOM      4  C   UNL     1      14.462  30.908  22.429  1.00  0.00     0.142 C 
ATOM      5  C   UNL     1      15.799  30.323  22.727  1.00  0.00     0.178 C 
ATOM      6  O   UNL     1      16.489  29.785  21.688  1.00  0.00    -0.332 OA
ENDROOT
BRANCH   1   7
ATOM      7  O   UNL     1      15.702  30.292  19.648  1.00  0.00    -0.338 OA
BRANCH   7   8
ATOM      8  C   UNL     1      16.291  29.987  18.451  1.00  0.00     0.199 C 
BRANCH   8   9
ATOM      9  C   UNL     1      15.672  30.811  17.345  1.00  0.00     0.179 C 
ATOM     10  C   UNL     1      16.581  29.471  15.649  1.00  0.00     0.282 C 
ATOM     11  O   UNL     1      16.473  30.703  16.231  1.00  0.00    -0.341 OA
ATOM     12  C   UNL     1      15.260  28.817  15.518  1.00  0.00     0.202 C 
ATOM     13  C   UNL     1      14.226  29.959  15.557  1.00  0.00     0.179 C 
ATOM     14  C   UNL     1      14.258  30.401  17.037  1.00  0.00     0.177 C 
BRANCH  10  15
ATOM     15  O   UNL     1      17.609  28.740  16.180  1.00  0.00    -0.341 OA
BRANCH  15  16
ATOM     16  C   UNL     1      18.870  29.252  16.041  1.00  0.00     0.184 C 
ATOM     17  C   UNL     1      19.335  29.151  14.637  1.00  0.00     0.178 C 
ATOM     18  O   UNL     1      20.679  28.811  14.521  1.00  0.00    -0.341 OA
ATOM     19  C   UNL     1      21.461  29.302  15.514  1.00  0.00     0.281 C 
ATOM     20  C   UNL     1      19.726  28.435  17.005  1.00  0.00     0.180 C 
ATOM     21  C   UNL     1      21.179  28.491  16.775  1.00  0.00     0.202 C 
BRANCH  17  22
ATOM     22  C   UNL     1      19.139  30.445  13.877  1.00  0.00     0.191 C 
BRANCH  22  23
ATOM     23  O   UNL     1      18.879  31.509  14.774  1.00  0.00    -0.394 OA
ATOM     24  H   UNL     1      19.404  32.318  14.492  1.00  0.00     0.210 HD
ENDBRANCH  22  23
ENDBRANCH  17  22
BRANCH  19  25
ATOM     25  O   UNL     1      21.279  30.629  15.852  1.00  0.00    -0.350 OA
BRANCH  25  26
ATOM     26  C   UNL     1      22.002  31.043  16.934  1.00  0.00     0.169 C 
BRANCH  26  27
ATOM     27  C   UNL     1      21.341  32.014  17.850  1.00  0.00     0.119 C 
BRANCH  27  28
ATOM     28  N   UNL     1      19.897  32.019  17.737  1.00  0.00    -0.092 NA
ATOM     29  N   UNL     1      19.319  33.039  18.132  1.00  0.00     0.001 N 
ATOM     30  N   UNL     1      18.664  33.978  18.598  1.00  0.00    -0.003 NA
ENDBRANCH  27  28
ENDBRANCH  26  27
ENDBRANCH  25  26
ENDBRANCH  19  25
BRANCH  20  31
ATOM     31  O   UNL     1      19.477  28.881  18.330  1.00  0.00    -0.387 OA
ATOM     32  H   UNL     1      18.883  29.673  18.318  1.00  0.00     0.211 HD
ENDBRANCH  20  31
BRANCH  21  33
ATOM     33  O   UNL     1      21.688  27.205  16.546  1.00  0.00    -0.385 OA
ATOM     34  H   UNL     1      22.553  27.050  17.006  1.00  0.00     0.211 HD
ENDBRANCH  21  33
ENDBRANCH  15  16
ENDBRANCH  10  15
BRANCH  12  35
ATOM     35  O   UNL     1      15.063  28.200  14.284  1.00  0.00    -0.385 OA
ATOM     36  H   UNL     1      15.529  27.331  14.292  1.00  0.00     0.211 HD
ENDBRANCH  12  35
BRANCH  13  37
ATOM     37  O   UNL     1      12.954  29.502  15.304  1.00  0.00    -0.387 OA
ATOM     38  H   UNL     1      12.988  28.895  14.525  1.00  0.00     0.211 HD
ENDBRANCH  13  37
BRANCH  14  39
ATOM     39  O   UNL     1      13.939  29.271  17.767  1.00  0.00    -0.387 OA
ATOM     40  H   UNL     1      14.079  28.433  17.262  1.00  0.00     0.211 HD
ENDBRANCH  14  39
ENDBRANCH   8   9
ENDBRANCH   7   8
ENDBRANCH   1   7
BRANCH   1  41
ATOM     41  C   UNL     1      16.556  28.141  20.119  1.00  0.00     0.364 C 
ATOM     42  O   UNL     1      15.989  27.279  19.440  1.00  0.00    -0.246 OA
BRANCH  41  43
ATOM     43  O   UNL     1      17.893  28.033  20.415  1.00  0.00    -0.477 OA
ATOM     44  H   UNL     1      18.582  27.787  19.695  1.00  0.00     0.296 HD
ENDBRANCH  41  43
ENDBRANCH   1  41
BRANCH   3  45
ATOM     45  O   UNL     1      12.586  30.493  21.061  1.00  0.00    -0.391 OA
ATOM     46  H   UNL     1      12.627  30.340  20.106  1.00  0.00     0.211 HD
ENDBRANCH   3  45
BRANCH   5  47
ATOM     47  C   UNL     1      16.664  31.398  23.382  1.00  0.00     0.176 C 
BRANCH  47  48
ATOM     48  O   UNL     1      17.189  32.214  22.413  1.00  0.00    -0.388 OA
ATOM     49  H   UNL     1      16.611  32.225  21.592  1.00  0.00     0.211 HD
ENDBRANCH  47  48
BRANCH  47  50
ATOM     50  C   UNL     1      17.729  30.716  24.187  1.00  0.00     0.165 C 
BRANCH  50  51
ATOM     51  O   UNL     1      17.621  31.105  25.534  1.00  0.00    -0.388 OA
ATOM     52  H   UNL     1      18.441  31.559  25.830  1.00  0.00     0.211 HD
ENDBRANCH  50  51
BRANCH  50  53
ATOM     53  C   UNL     1      19.072  31.287  23.716  1.00  0.00     0.154 C 
BRANCH  53  54
ATOM     54  N   UNL     1      19.616  30.389  22.743  1.00  0.00    -0.319 N 
ATOM     55  C   UNL     1      20.126  30.874  21.521  1.00  0.00     0.407 C 
ATOM     56  H   UNL     1      19.637  29.360  22.940  1.00  0.00     0.167 HD
ATOM     57  O   UNL     1      20.108  32.101  21.246  1.00  0.00    -0.225 OA
BRANCH  55  58
ATOM     58  O   UNL     1      20.669  30.032  20.571  1.00  0.00    -0.443 OA
BRANCH  58  59
ATOM     59  C   UNL     1      21.932  29.403  20.727  1.00  0.00     0.294 C 
BRANCH  59  60
ATOM     60  C   UNL     1      21.680  27.998  21.135  1.00  0.00     0.120 A 
ATOM     61  C   UNL     1      22.610  27.015  21.442  1.00  0.00     0.139 A 
ATOM     62  N   UNL     1      20.482  27.412  21.286  1.00  0.00    -0.132 NA
ATOM     63  N   UNL     1      21.963  25.884  21.766  1.00  0.00    -0.240 N 
ATOM     64  N   UNL     1      20.672  26.159  21.661  1.00  0.00    -0.066 NA
BRANCH  63  65
ATOM     65  C   UNL     1      22.566  24.609  22.157  1.00  0.00     0.170 C 
ATOM     66  C   UNL     1      22.782  24.631  23.606  1.00  0.00    -0.011 A 
ATOM     67  C   UNL     1      23.923  24.487  21.595  1.00  0.00    -0.011 A 
ATOM     68  C   UNL     1      21.901  24.726  24.676  1.00  0.00     0.007 A 
ATOM     69  C   UNL     1      24.116  24.537  23.902  1.00  0.00    -0.012 A 
ATOM     70  C   UNL     1      24.827  24.447  22.629  1.00  0.00    -0.012 A 
ATOM     71  C   UNL     1      24.399  24.409  20.299  1.00  0.00     0.007 A 
ATOM     72  C   UNL     1      22.363  24.724  25.973  1.00  0.00     0.000 A 
ATOM     73  C   UNL     1      24.580  24.536  25.210  1.00  0.00     0.009 A 
ATOM     74  C   UNL     1      26.178  24.332  22.389  1.00  0.00     0.009 A 
ATOM     75  C   UNL     1      25.744  24.294  20.037  1.00  0.00     0.000 A 
ATOM     76  C   UNL     1      23.714  24.629  26.273  1.00  0.00     0.001 A 
ATOM     77  C   UNL     1      26.638  24.255  21.087  1.00  0.00     0.001 A 
ENDBRANCH  63  65
ENDBRANCH  59  60
ENDBRANCH  58  59
ENDBRANCH  55  58
ENDBRANCH  53  54
ENDBRANCH  50  53
ENDBRANCH  47  50
ENDBRANCH   5  47
BRANCH   4  78
ATOM     78  N   UNL     1      13.837  31.186  23.736  1.00  0.00    -0.348 N 
ATOM     79  C   UNL     1      12.950  32.278  23.920  1.00  0.00     0.217 C 
ATOM     80  H   UNL     1      14.068  30.559  24.519  1.00  0.00     0.163 HD
ATOM     81  C   UNL     1      12.323  32.547  25.252  1.00  0.00     0.114 C 
ATOM     82  O   UNL     1      12.704  33.015  22.925  1.00  0.00    -0.275 OA
ENDBRANCH   4  78
TORSDOF 30
