REMARK VINA RESULT:    -6.260     12.845     18.242
REMARK INTER + INTRA:         -21.638
REMARK INTER:                 -15.483
REMARK INTRA:                  -6.155
REMARK UNBOUND:                -5.863
REMARK SMILES CC(=O)N[C@@H]1[C@@H](O)C[C@](OC[C@H]2O[C@@H](O[C@H]3[C@H](O)[C@@H](O)[C@H](OCCN=[N+]=[N-])O[C@@H]3CO)[C@H](O)[C@@H](O)[C@H]2O)(C(=O)O)O[C@H]1C(O)[C@H](O)CNC(=O)OCc1cn(-c2ncccc2C#N)nn1
REMARK SMILES IDX 9 1 8 2 6 3 5 4 42 5 41 6 10 7 11 8 12 9 14 10 13 11 32 12
REMARK SMILES IDX 34 13 36 14 15 15 16 16 29 17 28 18 21 19 17 20 19 21 30 22
REMARK SMILES IDX 31 23 22 25 23 26 24 27 25 28 26 29 27 30 18 31 20 33 33 35
REMARK SMILES IDX 35 37 37 39 38 41 39 42 40 43 7 45 43 47 44 48 45 50 46 51
REMARK SMILES IDX 47 53 48 54 49 55 50 57 51 58 52 59 53 60 54 61 65 62 55 63
REMARK SMILES IDX 64 64 56 65 57 66 61 67 58 68 60 69 59 70 62 71 63 72 4 73
REMARK SMILES IDX 2 74 1 76 3 77
REMARK H PARENT 31 24 18 32 20 34 33 36 35 38 37 40 40 44 7 46 44 49 46 52
REMARK H PARENT 48 56 4 75
REMARK Flexibility Score: inf
ROOT
ATOM      1  C   UNL     1       5.054  24.110  33.761  1.00  0.00     0.272 C 
ATOM      2  C   UNL     1       6.034  23.322  33.001  1.00  0.00     0.113 C 
ATOM      3  C   UNL     1       5.637  21.912  32.802  1.00  0.00     0.145 C 
ATOM      4  C   UNL     1       4.171  21.630  32.750  1.00  0.00     0.142 C 
ATOM      5  C   UNL     1       3.260  22.822  32.817  1.00  0.00     0.178 C 
ATOM      6  O   UNL     1       3.734  23.862  33.464  1.00  0.00    -0.332 OA
ENDROOT
BRANCH   1   7
ATOM      7  O   UNL     1       5.129  25.443  33.816  1.00  0.00    -0.338 OA
BRANCH   7   8
ATOM      8  C   UNL     1       4.629  26.370  34.573  1.00  0.00     0.199 C 
BRANCH   8   9
ATOM      9  C   UNL     1       5.756  27.361  34.883  1.00  0.00     0.179 C 
ATOM     10  C   UNL     1       8.001  27.678  34.843  1.00  0.00     0.282 C 
ATOM     11  O   UNL     1       6.949  26.704  35.013  1.00  0.00    -0.341 OA
ATOM     12  C   UNL     1       8.088  28.069  33.413  1.00  0.00     0.202 C 
ATOM     13  C   UNL     1       6.721  28.509  32.881  1.00  0.00     0.179 C 
ATOM     14  C   UNL     1       5.775  28.568  34.020  1.00  0.00     0.177 C 
BRANCH  10  15
ATOM     15  O   UNL     1       9.170  27.200  35.325  1.00  0.00    -0.341 OA
BRANCH  15  16
ATOM     16  C   UNL     1       9.258  25.841  35.431  1.00  0.00     0.184 C 
ATOM     17  C   UNL     1      10.094  25.466  36.690  1.00  0.00     0.178 C 
ATOM     18  O   UNL     1      11.304  24.928  36.257  1.00  0.00    -0.341 OA
ATOM     19  C   UNL     1      11.951  25.808  35.376  1.00  0.00     0.281 C 
ATOM     20  C   UNL     1       9.881  25.153  34.244  1.00  0.00     0.180 C 
ATOM     21  C   UNL     1      11.299  25.695  34.027  1.00  0.00     0.202 C 
BRANCH  17  22
ATOM     22  C   UNL     1       9.302  24.507  37.519  1.00  0.00     0.191 C 
BRANCH  22  23
ATOM     23  O   UNL     1       9.616  23.169  37.220  1.00  0.00    -0.394 OA
ATOM     24  H   UNL     1       8.878  22.712  36.750  1.00  0.00     0.210 HD
ENDBRANCH  22  23
ENDBRANCH  17  22
BRANCH  19  25
ATOM     25  O   UNL     1      13.279  25.449  35.365  1.00  0.00    -0.350 OA
BRANCH  25  26
ATOM     26  C   UNL     1      14.081  26.420  35.993  1.00  0.00     0.169 C 
BRANCH  26  27
ATOM     27  C   UNL     1      14.777  27.280  34.958  1.00  0.00     0.119 C 
BRANCH  27  28
ATOM     28  N   UNL     1      16.130  26.726  34.808  1.00  0.00    -0.092 NA
ATOM     29  N   UNL     1      16.961  27.485  34.244  1.00  0.00     0.001 N 
ATOM     30  N   UNL     1      17.716  28.001  33.406  1.00  0.00    -0.003 NA
ENDBRANCH  27  28
ENDBRANCH  26  27
ENDBRANCH  25  26
ENDBRANCH  19  25
BRANCH  20  31
ATOM     31  O   UNL     1       9.923  23.785  34.374  1.00  0.00    -0.387 OA
ATOM     32  H   UNL     1      10.517  23.415  35.048  1.00  0.00     0.211 HD
ENDBRANCH  20  31
BRANCH  21  33
ATOM     33  O   UNL     1      11.239  26.918  33.367  1.00  0.00    -0.385 OA
ATOM     34  H   UNL     1      10.274  27.147  33.271  1.00  0.00     0.211 HD
ENDBRANCH  21  33
ENDBRANCH  15  16
ENDBRANCH  10  15
BRANCH  12  35
ATOM     35  O   UNL     1       8.990  29.104  33.237  1.00  0.00    -0.385 OA
ATOM     36  H   UNL     1       8.454  29.935  33.018  1.00  0.00     0.211 HD
ENDBRANCH  12  35
BRANCH  13  37
ATOM     37  O   UNL     1       6.294  27.588  31.895  1.00  0.00    -0.387 OA
ATOM     38  H   UNL     1       6.764  26.715  32.019  1.00  0.00     0.211 HD
ENDBRANCH  13  37
BRANCH  14  39
ATOM     39  O   UNL     1       4.470  28.906  33.649  1.00  0.00    -0.387 OA
ATOM     40  H   UNL     1       4.155  28.299  32.905  1.00  0.00     0.211 HD
ENDBRANCH  14  39
ENDBRANCH   8   9
ENDBRANCH   7   8
ENDBRANCH   1   7
BRANCH   1  41
ATOM     41  C   UNL     1       5.213  23.652  35.211  1.00  0.00     0.364 C 
ATOM     42  O   UNL     1       4.333  23.135  35.878  1.00  0.00    -0.246 OA
BRANCH  41  43
ATOM     43  O   UNL     1       6.459  23.832  35.844  1.00  0.00    -0.477 OA
ATOM     44  H   UNL     1       6.661  23.460  36.759  1.00  0.00     0.296 HD
ENDBRANCH  41  43
ENDBRANCH   1  41
BRANCH   3  45
ATOM     45  O   UNL     1       6.305  21.361  31.692  1.00  0.00    -0.391 OA
ATOM     46  H   UNL     1       5.816  20.492  31.512  1.00  0.00     0.211 HD
ENDBRANCH   3  45
BRANCH   5  47
ATOM     47  C   UNL     1       2.699  23.177  31.411  1.00  0.00     0.176 C 
BRANCH  47  48
ATOM     48  O   UNL     1       3.352  22.293  30.501  1.00  0.00    -0.388 OA
ATOM     49  H   UNL     1       3.038  22.437  29.592  1.00  0.00     0.211 HD
ENDBRANCH  47  48
BRANCH  47  50
ATOM     50  C   UNL     1       2.949  24.515  30.940  1.00  0.00     0.165 C 
BRANCH  50  51
ATOM     51  O   UNL     1       2.527  25.584  31.769  1.00  0.00    -0.388 OA
ATOM     52  H   UNL     1       2.784  26.453  31.327  1.00  0.00     0.211 HD
ENDBRANCH  50  51
BRANCH  50  53
ATOM     53  C   UNL     1       2.337  24.845  29.616  1.00  0.00     0.154 C 
BRANCH  53  54
ATOM     54  N   UNL     1       3.136  24.917  28.457  1.00  0.00    -0.319 N 
ATOM     55  C   UNL     1       3.302  23.993  27.426  1.00  0.00     0.407 C 
ATOM     56  H   UNL     1       3.730  25.825  28.330  1.00  0.00     0.167 HD
ATOM     57  O   UNL     1       2.651  22.921  27.489  1.00  0.00    -0.225 OA
BRANCH  55  58
ATOM     58  O   UNL     1       4.172  24.287  26.358  1.00  0.00    -0.443 OA
BRANCH  58  59
ATOM     59  C   UNL     1       3.921  25.419  25.578  1.00  0.00     0.294 C 
BRANCH  59  60
ATOM     60  C   UNL     1       4.872  26.488  25.815  1.00  0.00     0.121 A 
ATOM     61  C   UNL     1       4.578  27.749  26.175  1.00  0.00     0.146 A 
ATOM     62  N   UNL     1       6.264  26.422  25.649  1.00  0.00    -0.131 NA
ATOM     63  N   UNL     1       5.687  28.473  26.242  1.00  0.00    -0.201 N 
ATOM     64  N   UNL     1       6.630  27.637  25.926  1.00  0.00    -0.060 NA
BRANCH  63  65
ATOM     65  C   UNL     1       5.895  29.815  26.629  1.00  0.00     0.173 A 
ATOM     66  N   UNL     1       6.409  30.630  25.671  1.00  0.00    -0.236 NA
ATOM     67  C   UNL     1       5.727  30.245  27.952  1.00  0.00     0.097 A 
ATOM     68  C   UNL     1       6.792  31.967  26.062  1.00  0.00     0.113 A 
ATOM     69  C   UNL     1       6.122  31.530  28.252  1.00  0.00     0.025 A 
ATOM     70  C   UNL     1       6.631  32.325  27.313  1.00  0.00     0.022 A 
BRANCH  67  71
ATOM     71  C   UNL     1       5.097  29.484  28.983  1.00  0.00     0.103 C 
ATOM     72  N   UNL     1       4.582  28.837  29.866  1.00  0.00    -0.192 NA
ENDBRANCH  67  71
ENDBRANCH  63  65
ENDBRANCH  59  60
ENDBRANCH  58  59
ENDBRANCH  55  58
ENDBRANCH  53  54
ENDBRANCH  50  53
ENDBRANCH  47  50
ENDBRANCH   5  47
BRANCH   4  73
ATOM     73  N   UNL     1       3.939  20.570  33.707  1.00  0.00    -0.348 N 
ATOM     74  C   UNL     1       3.034  19.509  33.615  1.00  0.00     0.217 C 
ATOM     75  H   UNL     1       4.518  20.587  34.623  1.00  0.00     0.163 HD
ATOM     76  C   UNL     1       2.965  18.455  34.704  1.00  0.00     0.114 C 
ATOM     77  O   UNL     1       2.233  19.328  32.671  1.00  0.00    -0.275 OA
ENDBRANCH   4  73
TORSDOF 31
