REMARK VINA RESULT:    -5.380      6.821     12.455
REMARK INTER + INTRA:         -21.803
REMARK INTER:                 -13.296
REMARK INTRA:                  -8.507
REMARK UNBOUND:                -8.561
REMARK SMILES CC(=O)N[C@@H]1[C@@H](O)C[C@](OC[C@H]2O[C@@H](O[C@H]3[C@H](O)[C@@H](O)[C@H](OCCN=[N+]=[N-])O[C@@H]3CO)[C@H](O)[C@@H](O)[C@H]2O)(C(=O)O)O[C@H]1C(O)[C@H](O)CNC(=O)OCc1cn(-c2cnc3ccccc3c2)nn1
REMARK SMILES IDX 9 1 8 2 6 3 5 4 42 5 41 6 10 7 11 8 12 9 14 10 13 11 32 12
REMARK SMILES IDX 34 13 36 14 15 15 16 16 29 17 28 18 21 19 17 20 19 21 30 22
REMARK SMILES IDX 31 23 22 25 23 26 24 27 25 28 26 29 27 30 18 31 20 33 33 35
REMARK SMILES IDX 35 37 37 39 38 41 39 42 40 43 7 45 43 47 44 48 45 50 46 51
REMARK SMILES IDX 47 53 48 54 49 55 50 57 51 58 52 59 53 60 54 61 67 62 55 63
REMARK SMILES IDX 66 64 56 65 57 66 65 67 58 68 64 69 59 70 63 71 60 72 62 73
REMARK SMILES IDX 61 74 4 75 2 76 1 78 3 79
REMARK H PARENT 31 24 18 32 20 34 33 36 35 38 37 40 40 44 7 46 44 49 46 52
REMARK H PARENT 48 56 4 77
REMARK Flexibility Score: inf
ROOT
ATOM      1  C   UNL     1      22.289  25.747  24.820  1.00  0.00     0.272 C 
ATOM      2  C   UNL     1      21.615  24.769  23.927  1.00  0.00     0.113 C 
ATOM      3  C   UNL     1      21.759  25.132  22.462  1.00  0.00     0.145 C 
ATOM      4  C   UNL     1      23.249  25.413  22.263  1.00  0.00     0.142 C 
ATOM      5  C   UNL     1      23.542  26.693  23.060  1.00  0.00     0.178 C 
ATOM      6  O   UNL     1      23.487  26.243  24.396  1.00  0.00    -0.332 OA
ENDROOT
BRANCH   1   7
ATOM      7  O   UNL     1      22.560  25.180  26.084  1.00  0.00    -0.338 OA
BRANCH   7   8
ATOM      8  C   UNL     1      23.882  24.929  26.320  1.00  0.00     0.199 C 
BRANCH   8   9
ATOM      9  C   UNL     1      24.244  25.495  27.676  1.00  0.00     0.179 C 
ATOM     10  C   UNL     1      24.774  27.401  28.841  1.00  0.00     0.282 C 
ATOM     11  O   UNL     1      24.084  26.863  27.767  1.00  0.00    -0.341 OA
ATOM     12  C   UNL     1      24.969  26.414  29.955  1.00  0.00     0.202 C 
ATOM     13  C   UNL     1      23.880  25.409  30.075  1.00  0.00     0.179 C 
ATOM     14  C   UNL     1      23.714  24.675  28.776  1.00  0.00     0.177 C 
BRANCH  10  15
ATOM     15  O   UNL     1      24.151  28.560  29.249  1.00  0.00    -0.341 OA
BRANCH  15  16
ATOM     16  C   UNL     1      23.308  29.095  28.275  1.00  0.00     0.184 C 
ATOM     17  C   UNL     1      23.795  30.418  27.736  1.00  0.00     0.178 C 
ATOM     18  O   UNL     1      22.866  31.410  27.677  1.00  0.00    -0.341 OA
ATOM     19  C   UNL     1      21.626  31.098  27.192  1.00  0.00     0.281 C 
ATOM     20  C   UNL     1      21.869  29.110  28.710  1.00  0.00     0.180 C 
ATOM     21  C   UNL     1      21.038  29.811  27.683  1.00  0.00     0.202 C 
BRANCH  17  22
ATOM     22  C   UNL     1      24.575  30.217  26.436  1.00  0.00     0.191 C 
BRANCH  22  23
ATOM     23  O   UNL     1      24.325  28.974  25.862  1.00  0.00    -0.394 OA
ATOM     24  H   UNL     1      23.443  28.618  26.090  1.00  0.00     0.210 HD
ENDBRANCH  22  23
ENDBRANCH  17  22
BRANCH  19  25
ATOM     25  O   UNL     1      21.535  31.212  25.802  1.00  0.00    -0.350 OA
BRANCH  25  26
ATOM     26  C   UNL     1      20.387  31.860  25.397  1.00  0.00     0.169 C 
BRANCH  26  27
ATOM     27  C   UNL     1      19.459  30.945  24.633  1.00  0.00     0.119 C 
BRANCH  27  28
ATOM     28  N   UNL     1      19.881  30.817  23.253  1.00  0.00    -0.092 NA
ATOM     29  N   UNL     1      20.270  29.750  22.780  1.00  0.00     0.001 N 
ATOM     30  N   UNL     1      20.264  28.652  22.222  1.00  0.00    -0.003 NA
ENDBRANCH  27  28
ENDBRANCH  26  27
ENDBRANCH  25  26
ENDBRANCH  19  25
BRANCH  20  31
ATOM     31  O   UNL     1      21.423  27.772  28.775  1.00  0.00    -0.387 OA
ATOM     32  H   UNL     1      20.581  27.668  28.255  1.00  0.00     0.211 HD
ENDBRANCH  20  31
BRANCH  21  33
ATOM     33  O   UNL     1      19.756  29.995  28.251  1.00  0.00    -0.385 OA
ATOM     34  H   UNL     1      19.519  29.194  28.805  1.00  0.00     0.211 HD
ENDBRANCH  21  33
ENDBRANCH  15  16
ENDBRANCH  10  15
BRANCH  12  35
ATOM     35  O   UNL     1      26.191  25.749  29.903  1.00  0.00    -0.385 OA
ATOM     36  H   UNL     1      26.931  26.356  29.663  1.00  0.00     0.211 HD
ENDBRANCH  12  35
BRANCH  13  37
ATOM     37  O   UNL     1      22.688  26.012  30.486  1.00  0.00    -0.387 OA
ATOM     38  H   UNL     1      22.284  25.491  31.199  1.00  0.00     0.211 HD
ENDBRANCH  13  37
BRANCH  14  39
ATOM     39  O   UNL     1      22.366  24.354  28.659  1.00  0.00    -0.387 OA
ATOM     40  H   UNL     1      22.031  24.414  27.745  1.00  0.00     0.211 HD
ENDBRANCH  14  39
ENDBRANCH   8   9
ENDBRANCH   7   8
ENDBRANCH   1   7
BRANCH   1  41
ATOM     41  C   UNL     1      21.373  26.926  25.004  1.00  0.00     0.364 C 
ATOM     42  O   UNL     1      21.845  28.083  25.253  1.00  0.00    -0.246 OA
BRANCH  41  43
ATOM     43  O   UNL     1      20.002  26.862  24.925  1.00  0.00    -0.477 OA
ATOM     44  H   UNL     1      19.441  27.506  24.346  1.00  0.00     0.296 HD
ENDBRANCH  41  43
ENDBRANCH   1  41
BRANCH   3  45
ATOM     45  O   UNL     1      21.308  24.140  21.626  1.00  0.00    -0.391 OA
ATOM     46  H   UNL     1      21.864  23.345  21.766  1.00  0.00     0.211 HD
ENDBRANCH   3  45
BRANCH   5  47
ATOM     47  C   UNL     1      24.957  27.158  22.854  1.00  0.00     0.176 C 
BRANCH  47  48
ATOM     48  O   UNL     1      25.633  26.992  24.092  1.00  0.00    -0.388 OA
ATOM     49  H   UNL     1      24.996  26.753  24.812  1.00  0.00     0.211 HD
ENDBRANCH  47  48
BRANCH  47  50
ATOM     50  C   UNL     1      25.096  28.635  22.511  1.00  0.00     0.165 C 
BRANCH  50  51
ATOM     51  O   UNL     1      23.859  29.179  23.007  1.00  0.00    -0.388 OA
ATOM     52  H   UNL     1      24.048  30.105  23.286  1.00  0.00     0.211 HD
ENDBRANCH  50  51
BRANCH  50  53
ATOM     53  C   UNL     1      24.969  28.842  21.017  1.00  0.00     0.154 C 
BRANCH  53  54
ATOM     54  N   UNL     1      23.770  29.438  20.560  1.00  0.00    -0.319 N 
ATOM     55  C   UNL     1      22.865  28.837  19.660  1.00  0.00     0.407 C 
ATOM     56  H   UNL     1      23.545  30.416  20.929  1.00  0.00     0.167 HD
ATOM     57  O   UNL     1      23.121  27.704  19.209  1.00  0.00    -0.225 OA
BRANCH  55  58
ATOM     58  O   UNL     1      21.732  29.537  19.315  1.00  0.00    -0.443 OA
BRANCH  58  59
ATOM     59  C   UNL     1      21.080  29.367  18.086  1.00  0.00     0.294 C 
BRANCH  59  60
ATOM     60  C   UNL     1      19.649  28.989  18.316  1.00  0.00     0.121 A 
ATOM     61  C   UNL     1      18.740  29.582  19.127  1.00  0.00     0.144 A 
ATOM     62  N   UNL     1      19.040  27.940  17.715  1.00  0.00    -0.131 NA
ATOM     63  N   UNL     1      17.600  28.877  18.997  1.00  0.00    -0.219 N 
ATOM     64  N   UNL     1      17.794  27.877  18.133  1.00  0.00    -0.062 NA
BRANCH  63  65
ATOM     65  C   UNL     1      16.389  29.172  19.689  1.00  0.00     0.085 A 
ATOM     66  C   UNL     1      15.947  28.338  20.664  1.00  0.00     0.140 A 
ATOM     67  C   UNL     1      15.692  30.320  19.348  1.00  0.00     0.040 A 
ATOM     68  N   UNL     1      14.803  28.636  21.313  1.00  0.00    -0.254 NA
ATOM     69  C   UNL     1      14.537  30.605  20.017  1.00  0.00     0.002 A 
ATOM     70  C   UNL     1      14.123  29.742  20.990  1.00  0.00     0.070 A 
ATOM     71  C   UNL     1      13.824  31.742  19.695  1.00  0.00     0.010 A 
ATOM     72  C   UNL     1      12.941  30.040  21.670  1.00  0.00     0.029 A 
ATOM     73  C   UNL     1      12.654  32.018  20.382  1.00  0.00     0.001 A 
ATOM     74  C   UNL     1      12.206  31.155  21.384  1.00  0.00     0.002 A 
ENDBRANCH  63  65
ENDBRANCH  59  60
ENDBRANCH  58  59
ENDBRANCH  55  58
ENDBRANCH  53  54
ENDBRANCH  50  53
ENDBRANCH  47  50
ENDBRANCH   5  47
BRANCH   4  75
ATOM     75  N   UNL     1      23.606  25.450  20.897  1.00  0.00    -0.348 N 
ATOM     76  C   UNL     1      24.690  24.636  20.397  1.00  0.00     0.217 C 
ATOM     77  H   UNL     1      23.128  26.027  20.175  1.00  0.00     0.163 HD
ATOM     78  C   UNL     1      25.073  24.663  18.985  1.00  0.00     0.114 C 
ATOM     79  O   UNL     1      25.286  23.903  21.243  1.00  0.00    -0.275 OA
ENDBRANCH   4  75
TORSDOF 30
