REMARK VINA RESULT:    -6.212      2.283      4.575
REMARK INTER + INTRA:         -22.432
REMARK INTER:                 -15.771
REMARK INTRA:                  -6.660
REMARK UNBOUND:                -6.052
REMARK SMILES CC(=O)N[C@@H]1[C@@H](O)C[C@](OC[C@H]2O[C@@H](O[C@H]3[C@H](O)[C@@H](O)[C@H](OCCN=[N+]=[N-])O[C@@H]3CO)[C@H](O)[C@@H](O)[C@H]2O)(C(=O)O)O[C@H]1C(O)[C@H](O)CNC(=O)OCc1cn(CC(O)CO)nn1
REMARK SMILES IDX 43 1 42 2 9 3 8 4 41 5 6 6 5 7 10 8 11 9 12 10 14 11 13 12
REMARK SMILES IDX 32 13 34 14 36 15 15 16 16 17 29 18 28 19 21 20 17 21 19 22
REMARK SMILES IDX 30 23 31 24 22 26 23 27 24 28 25 29 26 30 27 31 18 32 20 34
REMARK SMILES IDX 33 36 35 38 37 40 38 42 39 43 40 44 7 46 4 48 2 49 1 51 3 52
REMARK SMILES IDX 44 53 45 55 46 56 47 58 48 59 49 60 50 62 51 63 52 64 53 65
REMARK SMILES IDX 54 66 62 67 55 68 61 69 56 70 57 71 58 72 59 74 60 75
REMARK H PARENT 31 25 18 33 20 35 33 37 35 39 37 41 40 45 7 47 4 50 44 54
REMARK H PARENT 46 57 48 61 58 73 60 76
REMARK Flexibility Score: inf
ROOT
ATOM      1  C   UNL     1       5.628  22.841  32.947  1.00  0.00     0.176 C 
ENDROOT
BRANCH   1   2
ATOM      2  C   UNL     1       4.250  22.510  33.552  1.00  0.00     0.178 C 
ATOM      3  C   UNL     1       3.124  22.227  35.610  1.00  0.00     0.272 C 
ATOM      4  C   UNL     1       2.565  20.912  35.144  1.00  0.00     0.113 C 
ATOM      5  O   UNL     1       4.290  22.510  34.882  1.00  0.00    -0.332 OA
ATOM      6  C   UNL     1       3.167  20.309  33.931  1.00  0.00     0.145 C 
ATOM      7  C   UNL     1       3.760  21.248  32.948  1.00  0.00     0.142 C 
BRANCH   3   8
ATOM      8  O   UNL     1       3.451  22.175  36.884  1.00  0.00    -0.338 OA
BRANCH   8   9
ATOM      9  C   UNL     1       3.623  22.849  37.941  1.00  0.00     0.199 C 
BRANCH   9  10
ATOM     10  C   UNL     1       4.948  23.193  38.539  1.00  0.00     0.179 C 
ATOM     11  C   UNL     1       7.109  23.641  37.937  1.00  0.00     0.282 C 
ATOM     12  O   UNL     1       5.793  23.748  37.502  1.00  0.00    -0.341 OA
ATOM     13  C   UNL     1       7.291  23.602  39.416  1.00  0.00     0.202 C 
ATOM     14  C   UNL     1       6.264  24.348  40.212  1.00  0.00     0.179 C 
ATOM     15  C   UNL     1       4.910  24.365  39.521  1.00  0.00     0.177 C 
BRANCH  11  16
ATOM     16  O   UNL     1       7.969  24.574  37.396  1.00  0.00    -0.341 OA
BRANCH  16  17
ATOM     17  C   UNL     1       9.269  24.109  37.213  1.00  0.00     0.184 C 
ATOM     18  C   UNL     1      10.232  25.248  37.360  1.00  0.00     0.178 C 
ATOM     19  O   UNL     1      10.932  25.532  36.198  1.00  0.00    -0.341 OA
ATOM     20  C   UNL     1      10.082  25.501  35.079  1.00  0.00     0.281 C 
ATOM     21  C   UNL     1       9.365  23.341  35.961  1.00  0.00     0.180 C 
ATOM     22  C   UNL     1       9.901  24.036  34.758  1.00  0.00     0.202 C 
BRANCH  18  23
ATOM     23  C   UNL     1      11.249  24.996  38.455  1.00  0.00     0.191 C 
BRANCH  23  24
ATOM     24  O   UNL     1      11.899  23.781  38.287  1.00  0.00    -0.394 OA
ATOM     25  H   UNL     1      11.721  23.489  37.337  1.00  0.00     0.210 HD
ENDBRANCH  23  24
ENDBRANCH  18  23
BRANCH  20  26
ATOM     26  O   UNL     1      10.757  26.157  34.063  1.00  0.00    -0.350 OA
BRANCH  26  27
ATOM     27  C   UNL     1      10.074  27.241  33.532  1.00  0.00     0.169 C 
BRANCH  27  28
ATOM     28  C   UNL     1       8.802  27.563  34.284  1.00  0.00     0.119 C 
BRANCH  28  29
ATOM     29  N   UNL     1       7.800  28.159  33.442  1.00  0.00    -0.092 NA
ATOM     30  N   UNL     1       6.593  28.148  33.655  1.00  0.00     0.001 N 
ATOM     31  N   UNL     1       5.408  27.979  33.939  1.00  0.00    -0.003 NA
ENDBRANCH  28  29
ENDBRANCH  27  28
ENDBRANCH  26  27
ENDBRANCH  20  26
BRANCH  21  32
ATOM     32  O   UNL     1      10.107  22.146  36.132  1.00  0.00    -0.387 OA
ATOM     33  H   UNL     1      10.302  21.848  35.186  1.00  0.00     0.211 HD
ENDBRANCH  21  32
BRANCH  22  34
ATOM     34  O   UNL     1       9.135  23.846  33.611  1.00  0.00    -0.385 OA
ATOM     35  H   UNL     1       8.242  23.511  33.794  1.00  0.00     0.211 HD
ENDBRANCH  22  34
ENDBRANCH  16  17
ENDBRANCH  11  16
BRANCH  13  36
ATOM     36  O   UNL     1       7.502  22.287  39.891  1.00  0.00    -0.385 OA
ATOM     37  H   UNL     1       8.418  22.131  40.186  1.00  0.00     0.211 HD
ENDBRANCH  13  36
BRANCH  14  38
ATOM     38  O   UNL     1       6.659  25.637  40.562  1.00  0.00    -0.387 OA
ATOM     39  H   UNL     1       6.354  26.269  39.867  1.00  0.00     0.211 HD
ENDBRANCH  14  38
BRANCH  15  40
ATOM     40  O   UNL     1       4.886  25.540  38.721  1.00  0.00    -0.387 OA
ATOM     41  H   UNL     1       5.561  25.482  38.002  1.00  0.00     0.211 HD
ENDBRANCH  15  40
ENDBRANCH   9  10
ENDBRANCH   8   9
ENDBRANCH   3   8
BRANCH   3  42
ATOM     42  C   UNL     1       2.161  23.346  35.346  1.00  0.00     0.364 C 
ATOM     43  O   UNL     1       0.968  23.007  35.072  1.00  0.00    -0.246 OA
BRANCH  42  44
ATOM     44  O   UNL     1       2.503  24.672  35.386  1.00  0.00    -0.477 OA
ATOM     45  H   UNL     1       3.482  24.980  35.406  1.00  0.00     0.296 HD
ENDBRANCH  42  44
ENDBRANCH   3  42
BRANCH   6  46
ATOM     46  O   UNL     1       4.184  19.428  34.368  1.00  0.00    -0.391 OA
ATOM     47  H   UNL     1       3.830  18.844  35.067  1.00  0.00     0.211 HD
ENDBRANCH   6  46
BRANCH   7  48
ATOM     48  N   UNL     1       2.817  21.454  31.852  1.00  0.00    -0.348 N 
ATOM     49  C   UNL     1       3.013  20.879  30.572  1.00  0.00     0.217 C 
ATOM     50  H   UNL     1       1.963  22.035  31.973  1.00  0.00     0.163 HD
ATOM     51  C   UNL     1       2.057  21.087  29.454  1.00  0.00     0.114 C 
ATOM     52  O   UNL     1       4.039  20.174  30.402  1.00  0.00    -0.275 OA
ENDBRANCH   7  48
ENDBRANCH   1   2
BRANCH   1  53
ATOM     53  O   UNL     1       5.758  22.193  31.734  1.00  0.00    -0.388 OA
ATOM     54  H   UNL     1       5.915  22.844  31.006  1.00  0.00     0.211 HD
ENDBRANCH   1  53
BRANCH   1  55
ATOM     55  C   UNL     1       5.756  24.342  32.744  1.00  0.00     0.165 C 
BRANCH  55  56
ATOM     56  O   UNL     1       6.157  24.841  34.008  1.00  0.00    -0.388 OA
ATOM     57  H   UNL     1       5.690  24.341  34.721  1.00  0.00     0.211 HD
ENDBRANCH  55  56
BRANCH  55  58
ATOM     58  C   UNL     1       4.484  25.012  32.356  1.00  0.00     0.154 C 
BRANCH  58  59
ATOM     59  N   UNL     1       4.303  25.057  30.920  1.00  0.00    -0.319 N 
ATOM     60  C   UNL     1       3.067  24.701  30.335  1.00  0.00     0.407 C 
ATOM     61  H   UNL     1       5.079  25.357  30.266  1.00  0.00     0.167 HD
ATOM     62  O   UNL     1       2.090  24.322  31.022  1.00  0.00    -0.225 OA
BRANCH  60  63
ATOM     63  O   UNL     1       2.881  24.760  28.968  1.00  0.00    -0.443 OA
BRANCH  63  64
ATOM     64  C   UNL     1       2.707  25.888  28.184  1.00  0.00     0.294 C 
BRANCH  64  65
ATOM     65  C   UNL     1       3.743  26.119  27.153  1.00  0.00     0.120 A 
ATOM     66  C   UNL     1       4.864  26.880  27.326  1.00  0.00     0.138 A 
ATOM     67  N   UNL     1       3.739  25.625  25.878  1.00  0.00    -0.132 NA
ATOM     68  N   UNL     1       5.523  26.837  26.154  1.00  0.00    -0.249 N 
ATOM     69  N   UNL     1       4.845  26.093  25.314  1.00  0.00    -0.067 NA
BRANCH  68  70
ATOM     70  C   UNL     1       6.770  27.500  25.838  1.00  0.00     0.180 C 
BRANCH  70  71
ATOM     71  C   UNL     1       7.652  26.469  25.119  1.00  0.00     0.161 C 
BRANCH  71  72
ATOM     72  O   UNL     1       7.679  26.814  23.790  1.00  0.00    -0.389 OA
ATOM     73  H   UNL     1       6.796  27.110  23.459  1.00  0.00     0.211 HD
ENDBRANCH  71  72
BRANCH  71  74
ATOM     74  C   UNL     1       9.034  26.473  25.728  1.00  0.00     0.189 C 
BRANCH  74  75
ATOM     75  O   UNL     1       9.915  27.136  24.903  1.00  0.00    -0.394 OA
ATOM     76  H   UNL     1      10.760  27.310  25.393  1.00  0.00     0.210 HD
ENDBRANCH  74  75
ENDBRANCH  71  74
ENDBRANCH  70  71
ENDBRANCH  68  70
ENDBRANCH  64  65
ENDBRANCH  63  64
ENDBRANCH  60  63
ENDBRANCH  58  59
ENDBRANCH  55  58
ENDBRANCH   1  55
TORSDOF 34
