REMARK VINA RESULT:    -4.752      2.236      6.114
REMARK INTER + INTRA:         -22.015
REMARK INTER:                 -14.504
REMARK INTRA:                  -7.511
REMARK UNBOUND:                -9.623
REMARK SMILES CC(=O)N[C@@H]1[C@@H](O)C[C@](OC[C@H]2O[C@@H](O[C@H]3[C@H](O)[C@@H](O)[C@H](OCCN=[N+]=[N-])O[C@@H]3CO)[C@H](O)[C@@H](O)[C@H]2O)(C(=O)O)O[C@H]1C(O)[C@H](O)CNC(=O)OCc1cn(Cc2ccc(C(=O)O)cc2)nn1
REMARK SMILES IDX 43 1 42 2 9 3 8 4 41 5 6 6 5 7 10 8 11 9 12 10 14 11 13 12
REMARK SMILES IDX 32 13 34 14 36 15 15 16 16 17 29 18 28 19 21 20 17 21 19 22
REMARK SMILES IDX 30 23 31 24 22 26 23 27 24 28 25 29 26 30 27 31 18 32 20 34
REMARK SMILES IDX 33 36 35 38 37 40 38 42 39 43 40 44 7 46 4 48 2 49 1 51 3 52
REMARK SMILES IDX 44 53 45 55 46 56 47 58 48 59 49 60 50 62 51 63 52 64 53 65
REMARK SMILES IDX 54 66 67 67 55 68 66 69 56 70 57 71 58 72 65 73 59 74 64 75
REMARK SMILES IDX 60 76 61 77 62 78 63 79
REMARK H PARENT 31 25 18 33 20 35 33 37 35 39 37 41 40 45 7 47 4 50 44 54
REMARK H PARENT 46 57 48 61 63 80
REMARK Flexibility Score: inf
ROOT
ATOM      1  C   UNL     1      19.280  30.292  23.827  1.00  0.00     0.176 C 
ENDROOT
BRANCH   1   2
ATOM      2  C   UNL     1      19.404  30.565  25.342  1.00  0.00     0.178 C 
ATOM      3  C   UNL     1      18.417  32.224  26.710  1.00  0.00     0.272 C 
ATOM      4  C   UNL     1      19.774  32.654  27.101  1.00  0.00     0.113 C 
ATOM      5  O   UNL     1      18.367  31.358  25.648  1.00  0.00    -0.332 OA
ATOM      6  C   UNL     1      20.796  32.495  25.994  1.00  0.00     0.145 C 
ATOM      7  C   UNL     1      20.774  31.050  25.591  1.00  0.00     0.142 C 
BRANCH   3   8
ATOM      8  O   UNL     1      17.635  33.290  26.350  1.00  0.00    -0.338 OA
BRANCH   8   9
ATOM      9  C   UNL     1      17.103  33.353  25.111  1.00  0.00     0.199 C 
BRANCH   9  10
ATOM     10  C   UNL     1      15.766  34.131  25.146  1.00  0.00     0.179 C 
ATOM     11  C   UNL     1      13.596  34.030  24.303  1.00  0.00     0.282 C 
ATOM     12  O   UNL     1      14.909  33.565  24.248  1.00  0.00    -0.341 OA
ATOM     13  C   UNL     1      13.406  35.220  25.174  1.00  0.00     0.202 C 
ATOM     14  C   UNL     1      13.916  34.881  26.558  1.00  0.00     0.179 C 
ATOM     15  C   UNL     1      15.220  34.146  26.550  1.00  0.00     0.177 C 
BRANCH  11  16
ATOM     16  O   UNL     1      12.786  32.973  24.716  1.00  0.00    -0.341 OA
BRANCH  16  17
ATOM     17  C   UNL     1      13.024  31.835  24.001  1.00  0.00     0.184 C 
ATOM     18  C   UNL     1      11.840  31.379  23.231  1.00  0.00     0.178 C 
ATOM     19  O   UNL     1      12.192  30.381  22.310  1.00  0.00    -0.341 OA
ATOM     20  C   UNL     1      13.079  29.465  22.881  1.00  0.00     0.281 C 
ATOM     21  C   UNL     1      13.412  30.752  25.026  1.00  0.00     0.180 C 
ATOM     22  C   UNL     1      13.041  29.433  24.380  1.00  0.00     0.202 C 
BRANCH  18  23
ATOM     23  C   UNL     1      11.231  32.517  22.462  1.00  0.00     0.191 C 
BRANCH  23  24
ATOM     24  O   UNL     1       9.836  32.291  22.482  1.00  0.00    -0.394 OA
ATOM     25  H   UNL     1       9.435  32.570  21.637  1.00  0.00     0.210 HD
ENDBRANCH  23  24
ENDBRANCH  18  23
BRANCH  20  26
ATOM     26  O   UNL     1      14.343  29.699  22.394  1.00  0.00    -0.350 OA
BRANCH  26  27
ATOM     27  C   UNL     1      14.672  28.996  21.258  1.00  0.00     0.169 C 
BRANCH  27  28
ATOM     28  C   UNL     1      14.822  29.811  20.017  1.00  0.00     0.119 C 
BRANCH  28  29
ATOM     29  N   UNL     1      15.761  29.082  19.149  1.00  0.00    -0.092 NA
ATOM     30  N   UNL     1      16.262  29.586  18.149  1.00  0.00     0.001 N 
ATOM     31  N   UNL     1      16.523  30.250  17.152  1.00  0.00    -0.003 NA
ENDBRANCH  28  29
ENDBRANCH  27  28
ENDBRANCH  26  27
ENDBRANCH  20  26
BRANCH  21  32
ATOM     32  O   UNL     1      14.758  30.822  25.311  1.00  0.00    -0.387 OA
ATOM     33  H   UNL     1      15.163  31.686  24.976  1.00  0.00     0.211 HD
ENDBRANCH  21  32
BRANCH  22  34
ATOM     34  O   UNL     1      11.824  29.008  24.861  1.00  0.00    -0.385 OA
ATOM     35  H   UNL     1      11.344  29.703  25.344  1.00  0.00     0.211 HD
ENDBRANCH  22  34
ENDBRANCH  16  17
ENDBRANCH  11  16
BRANCH  13  36
ATOM     36  O   UNL     1      14.077  36.347  24.675  1.00  0.00    -0.385 OA
ATOM     37  H   UNL     1      14.840  35.995  24.141  1.00  0.00     0.211 HD
ENDBRANCH  13  36
BRANCH  14  38
ATOM     38  O   UNL     1      12.976  34.146  27.281  1.00  0.00    -0.387 OA
ATOM     39  H   UNL     1      12.132  34.678  27.316  1.00  0.00     0.211 HD
ENDBRANCH  14  38
BRANCH  15  40
ATOM     40  O   UNL     1      15.102  32.851  27.071  1.00  0.00    -0.387 OA
ATOM     41  H   UNL     1      14.331  32.860  27.697  1.00  0.00     0.211 HD
ENDBRANCH  15  40
ENDBRANCH   9  10
ENDBRANCH   8   9
ENDBRANCH   3   8
BRANCH   3  42
ATOM     42  C   UNL     1      17.804  31.478  27.870  1.00  0.00     0.364 C 
ATOM     43  O   UNL     1      18.333  31.517  29.009  1.00  0.00    -0.246 OA
BRANCH  42  44
ATOM     44  O   UNL     1      16.647  30.730  27.724  1.00  0.00    -0.477 OA
ATOM     45  H   UNL     1      16.186  30.407  28.589  1.00  0.00     0.296 HD
ENDBRANCH  42  44
ENDBRANCH   3  42
BRANCH   6  46
ATOM     46  O   UNL     1      20.458  33.370  24.986  1.00  0.00    -0.391 OA
ATOM     47  H   UNL     1      19.475  33.362  24.849  1.00  0.00     0.211 HD
ENDBRANCH   6  46
BRANCH   7  48
ATOM     48  N   UNL     1      21.379  30.268  26.661  1.00  0.00    -0.348 N 
ATOM     49  C   UNL     1      22.078  29.041  26.385  1.00  0.00     0.217 C 
ATOM     50  H   UNL     1      21.350  30.530  27.669  1.00  0.00     0.163 HD
ATOM     51  C   UNL     1      22.686  28.266  27.512  1.00  0.00     0.114 C 
ATOM     52  O   UNL     1      22.158  28.654  25.208  1.00  0.00    -0.275 OA
ENDBRANCH   7  48
ENDBRANCH   1   2
BRANCH   1  53
ATOM     53  O   UNL     1      19.801  29.102  23.436  1.00  0.00    -0.388 OA
ATOM     54  H   UNL     1      20.598  28.789  23.918  1.00  0.00     0.211 HD
ENDBRANCH   1  53
BRANCH   1  55
ATOM     55  C   UNL     1      17.869  30.525  23.344  1.00  0.00     0.165 C 
BRANCH  55  56
ATOM     56  O   UNL     1      17.074  29.504  23.759  1.00  0.00    -0.388 OA
ATOM     57  H   UNL     1      16.961  28.759  23.137  1.00  0.00     0.211 HD
ENDBRANCH  55  56
BRANCH  55  58
ATOM     58  C   UNL     1      17.872  30.881  21.908  1.00  0.00     0.154 C 
BRANCH  58  59
ATOM     59  N   UNL     1      18.456  29.854  21.090  1.00  0.00    -0.319 N 
ATOM     60  C   UNL     1      19.160  30.097  19.889  1.00  0.00     0.407 C 
ATOM     61  H   UNL     1      18.368  28.841  21.382  1.00  0.00     0.167 HD
ATOM     62  O   UNL     1      19.329  31.242  19.444  1.00  0.00    -0.225 OA
BRANCH  60  63
ATOM     63  O   UNL     1      19.721  29.062  19.113  1.00  0.00    -0.443 OA
BRANCH  63  64
ATOM     64  C   UNL     1      21.065  28.672  19.328  1.00  0.00     0.294 C 
BRANCH  64  65
ATOM     65  C   UNL     1      21.189  27.557  20.284  1.00  0.00     0.120 A 
ATOM     66  C   UNL     1      22.106  26.545  20.332  1.00  0.00     0.138 A 
ATOM     67  N   UNL     1      20.342  27.353  21.311  1.00  0.00    -0.132 NA
ATOM     68  N   UNL     1      21.791  25.754  21.382  1.00  0.00    -0.248 N 
ATOM     69  N   UNL     1      20.719  26.266  21.958  1.00  0.00    -0.067 NA
BRANCH  68  70
ATOM     70  C   UNL     1      22.516  24.572  21.769  1.00  0.00     0.181 C 
BRANCH  70  71
ATOM     71  C   UNL     1      22.792  24.580  23.220  1.00  0.00    -0.026 A 
ATOM     72  C   UNL     1      21.747  24.610  24.118  1.00  0.00     0.006 A 
ATOM     73  C   UNL     1      24.103  24.577  23.686  1.00  0.00     0.006 A 
ATOM     74  C   UNL     1      22.076  24.636  25.462  1.00  0.00     0.016 A 
ATOM     75  C   UNL     1      24.423  24.604  25.025  1.00  0.00     0.016 A 
ATOM     76  C   UNL     1      23.379  24.633  25.919  1.00  0.00     0.059 A 
BRANCH  76  77
ATOM     77  C   UNL     1      23.657  24.667  27.346  1.00  0.00     0.335 C 
ATOM     78  O   UNL     1      24.574  25.373  27.787  1.00  0.00    -0.246 OA
BRANCH  77  79
ATOM     79  O   UNL     1      22.897  23.908  28.208  1.00  0.00    -0.478 OA
ATOM     80  H   UNL     1      22.494  23.014  27.934  1.00  0.00     0.297 HD
ENDBRANCH  77  79
ENDBRANCH  76  77
ENDBRANCH  70  71
ENDBRANCH  68  70
ENDBRANCH  64  65
ENDBRANCH  63  64
ENDBRANCH  60  63
ENDBRANCH  58  59
ENDBRANCH  55  58
ENDBRANCH   1  55
TORSDOF 33
