REMARK VINA RESULT:    -5.932      8.380     12.679
REMARK INTER + INTRA:         -20.812
REMARK INTER:                 -14.966
REMARK INTRA:                  -5.846
REMARK UNBOUND:                -5.863
REMARK SMILES CC(=O)N[C@@H]1[C@@H](O)C[C@](OC[C@H]2O[C@@H](O[C@H]3[C@H](O)[C@@H](O)[C@H](OCCN=[N+]=[N-])O[C@@H]3CO)[C@H](O)[C@@H](O)[C@H]2O)(C(=O)O)O[C@H]1C(O)[C@H](O)CNC(=O)OCc1cn(-c2ncccc2C#N)nn1
REMARK SMILES IDX 9 1 8 2 6 3 5 4 42 5 41 6 10 7 11 8 12 9 14 10 13 11 32 12
REMARK SMILES IDX 34 13 36 14 15 15 16 16 29 17 28 18 21 19 17 20 19 21 30 22
REMARK SMILES IDX 31 23 22 25 23 26 24 27 25 28 26 29 27 30 18 31 20 33 33 35
REMARK SMILES IDX 35 37 37 39 38 41 39 42 40 43 7 45 43 47 44 48 45 50 46 51
REMARK SMILES IDX 47 53 48 54 49 55 50 57 51 58 52 59 53 60 54 61 65 62 55 63
REMARK SMILES IDX 64 64 56 65 57 66 61 67 58 68 60 69 59 70 62 71 63 72 4 73
REMARK SMILES IDX 2 74 1 76 3 77
REMARK H PARENT 31 24 18 32 20 34 33 36 35 38 37 40 40 44 7 46 44 49 46 52
REMARK H PARENT 48 56 4 75
REMARK Flexibility Score: inf
ROOT
ATOM      1  C   UNL     1      28.217  22.259  18.487  1.00  0.00     0.272 C 
ATOM      2  C   UNL     1      29.603  22.498  18.061  1.00  0.00     0.113 C 
ATOM      3  C   UNL     1      30.589  21.623  18.729  1.00  0.00     0.145 C 
ATOM      4  C   UNL     1      30.106  20.277  19.161  1.00  0.00     0.142 C 
ATOM      5  C   UNL     1      28.694  19.925  18.789  1.00  0.00     0.178 C 
ATOM      6  O   UNL     1      27.869  20.940  18.666  1.00  0.00    -0.332 OA
ENDROOT
BRANCH   1   7
ATOM      7  O   UNL     1      27.185  22.776  17.812  1.00  0.00    -0.338 OA
BRANCH   7   8
ATOM      8  C   UNL     1      26.740  23.970  17.571  1.00  0.00     0.199 C 
BRANCH   8   9
ATOM      9  C   UNL     1      25.209  23.901  17.611  1.00  0.00     0.179 C 
ATOM     10  C   UNL     1      23.332  24.921  18.369  1.00  0.00     0.282 C 
ATOM     11  O   UNL     1      24.722  24.651  18.646  1.00  0.00    -0.341 OA
ATOM     12  C   UNL     1      23.230  25.918  17.272  1.00  0.00     0.202 C 
ATOM     13  C   UNL     1      24.049  25.477  16.054  1.00  0.00     0.179 C 
ATOM     14  C   UNL     1      24.545  24.103  16.299  1.00  0.00     0.177 C 
BRANCH  10  15
ATOM     15  O   UNL     1      22.694  25.317  19.493  1.00  0.00    -0.341 OA
BRANCH  15  16
ATOM     16  C   UNL     1      23.487  25.514  20.588  1.00  0.00     0.184 C 
ATOM     17  C   UNL     1      23.427  24.263  21.512  1.00  0.00     0.178 C 
ATOM     18  O   UNL     1      22.737  24.616  22.670  1.00  0.00    -0.341 OA
ATOM     19  C   UNL     1      21.483  25.159  22.353  1.00  0.00     0.281 C 
ATOM     20  C   UNL     1      23.126  26.717  21.421  1.00  0.00     0.180 C 
ATOM     21  C   UNL     1      21.680  26.583  21.912  1.00  0.00     0.202 C 
BRANCH  17  22
ATOM     22  C   UNL     1      24.824  23.809  21.790  1.00  0.00     0.191 C 
BRANCH  22  23
ATOM     23  O   UNL     1      25.779  24.721  21.304  1.00  0.00    -0.394 OA
ATOM     24  H   UNL     1      25.490  25.657  21.426  1.00  0.00     0.210 HD
ENDBRANCH  22  23
ENDBRANCH  17  22
BRANCH  19  25
ATOM     25  O   UNL     1      20.708  25.049  23.485  1.00  0.00    -0.350 OA
BRANCH  25  26
ATOM     26  C   UNL     1      21.495  24.828  24.630  1.00  0.00     0.169 C 
BRANCH  26  27
ATOM     27  C   UNL     1      21.578  26.090  25.464  1.00  0.00     0.119 C 
BRANCH  27  28
ATOM     28  N   UNL     1      22.980  26.526  25.409  1.00  0.00    -0.092 NA
ATOM     29  N   UNL     1      23.807  25.746  25.947  1.00  0.00     0.001 N 
ATOM     30  N   UNL     1      24.611  25.237  26.743  1.00  0.00    -0.003 NA
ENDBRANCH  27  28
ENDBRANCH  26  27
ENDBRANCH  25  26
ENDBRANCH  19  25
BRANCH  20  31
ATOM     31  O   UNL     1      23.964  26.901  22.496  1.00  0.00    -0.387 OA
ATOM     32  H   UNL     1      24.376  26.112  22.884  1.00  0.00     0.211 HD
ENDBRANCH  20  31
BRANCH  21  33
ATOM     33  O   UNL     1      20.802  26.945  20.895  1.00  0.00    -0.385 OA
ATOM     34  H   UNL     1      21.259  27.648  20.357  1.00  0.00     0.211 HD
ENDBRANCH  21  33
ENDBRANCH  15  16
ENDBRANCH  10  15
BRANCH  12  35
ATOM     35  O   UNL     1      21.914  26.095  16.885  1.00  0.00    -0.385 OA
ATOM     36  H   UNL     1      21.637  27.024  17.179  1.00  0.00     0.211 HD
ENDBRANCH  12  35
BRANCH  13  37
ATOM     37  O   UNL     1      25.112  26.390  15.862  1.00  0.00    -0.387 OA
ATOM     38  H   UNL     1      25.972  25.979  16.161  1.00  0.00     0.211 HD
ENDBRANCH  13  37
BRANCH  14  39
ATOM     39  O   UNL     1      25.359  23.608  15.275  1.00  0.00    -0.387 OA
ATOM     40  H   UNL     1      25.697  22.688  15.518  1.00  0.00     0.211 HD
ENDBRANCH  14  39
ENDBRANCH   8   9
ENDBRANCH   7   8
ENDBRANCH   1   7
BRANCH   1  41
ATOM     41  C   UNL     1      28.116  22.875  19.882  1.00  0.00     0.364 C 
ATOM     42  O   UNL     1      27.594  22.338  20.844  1.00  0.00    -0.246 OA
BRANCH  41  43
ATOM     43  O   UNL     1      28.658  24.158  20.095  1.00  0.00    -0.477 OA
ATOM     44  H   UNL     1      28.355  24.758  20.847  1.00  0.00     0.296 HD
ENDBRANCH  41  43
ENDBRANCH   1  41
BRANCH   3  45
ATOM     45  O   UNL     1      31.765  21.525  17.961  1.00  0.00    -0.391 OA
ATOM     46  H   UNL     1      31.580  22.098  17.147  1.00  0.00     0.211 HD
ENDBRANCH   3  45
BRANCH   5  47
ATOM     47  C   UNL     1      28.660  18.956  17.573  1.00  0.00     0.176 C 
BRANCH  47  48
ATOM     48  O   UNL     1      29.877  18.215  17.638  1.00  0.00    -0.388 OA
ATOM     49  H   UNL     1      30.259  18.252  18.531  1.00  0.00     0.211 HD
ENDBRANCH  47  48
BRANCH  47  50
ATOM     50  C   UNL     1      28.615  19.565  16.269  1.00  0.00     0.165 C 
BRANCH  50  51
ATOM     51  O   UNL     1      27.379  20.123  15.857  1.00  0.00    -0.388 OA
ATOM     52  H   UNL     1      26.642  19.474  16.086  1.00  0.00     0.211 HD
ENDBRANCH  50  51
BRANCH  50  53
ATOM     53  C   UNL     1      28.980  18.662  15.135  1.00  0.00     0.154 C 
BRANCH  53  54
ATOM     54  N   UNL     1      28.184  18.617  13.972  1.00  0.00    -0.319 N 
ATOM     55  C   UNL     1      28.403  19.185  12.717  1.00  0.00     0.407 C 
ATOM     56  H   UNL     1      27.246  18.064  14.044  1.00  0.00     0.167 HD
ATOM     57  O   UNL     1      29.462  19.836  12.544  1.00  0.00    -0.225 OA
BRANCH  55  58
ATOM     58  O   UNL     1      27.449  19.008  11.695  1.00  0.00    -0.443 OA
BRANCH  58  59
ATOM     59  C   UNL     1      26.439  18.060  11.876  1.00  0.00     0.294 C 
BRANCH  59  60
ATOM     60  C   UNL     1      25.255  18.612  12.505  1.00  0.00     0.121 A 
ATOM     61  C   UNL     1      24.120  18.975  11.885  1.00  0.00     0.146 A 
ATOM     62  N   UNL     1      25.100  18.928  13.864  1.00  0.00    -0.131 NA
ATOM     63  N   UNL     1      23.270  19.497  12.759  1.00  0.00    -0.201 N 
ATOM     64  N   UNL     1      23.905  19.438  13.891  1.00  0.00    -0.060 NA
BRANCH  63  65
ATOM     65  C   UNL     1      21.946  19.963  12.600  1.00  0.00     0.173 A 
ATOM     66  N   UNL     1      21.003  19.001  12.422  1.00  0.00    -0.236 NA
ATOM     67  C   UNL     1      21.643  21.326  12.483  1.00  0.00     0.097 A 
ATOM     68  C   UNL     1      19.663  19.430  12.093  1.00  0.00     0.113 A 
ATOM     69  C   UNL     1      20.346  21.658  12.160  1.00  0.00     0.025 A 
ATOM     70  C   UNL     1      19.424  20.713  11.980  1.00  0.00     0.022 A 
BRANCH  67  71
ATOM     71  C   UNL     1      22.553  22.391  12.760  1.00  0.00     0.103 C 
ATOM     72  N   UNL     1      23.326  23.286  13.015  1.00  0.00    -0.192 NA
ENDBRANCH  67  71
ENDBRANCH  63  65
ENDBRANCH  59  60
ENDBRANCH  58  59
ENDBRANCH  55  58
ENDBRANCH  53  54
ENDBRANCH  50  53
ENDBRANCH  47  50
ENDBRANCH   5  47
BRANCH   4  73
ATOM     73  N   UNL     1      30.469  20.156  20.556  1.00  0.00    -0.348 N 
ATOM     74  C   UNL     1      30.460  19.007  21.352  1.00  0.00     0.217 C 
ATOM     75  H   UNL     1      30.777  21.058  21.073  1.00  0.00     0.163 HD
ATOM     76  C   UNL     1      30.926  19.063  22.794  1.00  0.00     0.114 C 
ATOM     77  O   UNL     1      30.089  17.874  20.974  1.00  0.00    -0.275 OA
ENDBRANCH   4  73
TORSDOF 31
