REMARK VINA RESULT:    -5.777     13.949     19.345
REMARK INTER + INTRA:         -21.284
REMARK INTER:                 -13.958
REMARK INTRA:                  -7.327
REMARK UNBOUND:                -6.052
REMARK SMILES CC(=O)N[C@@H]1[C@@H](O)C[C@](OC[C@H]2O[C@@H](O[C@H]3[C@H](O)[C@@H](O)[C@H](OCCN=[N+]=[N-])O[C@@H]3CO)[C@H](O)[C@@H](O)[C@H]2O)(C(=O)O)O[C@H]1C(O)[C@H](O)CNC(=O)OCc1cn(CC(O)CO)nn1
REMARK SMILES IDX 43 1 42 2 9 3 8 4 41 5 6 6 5 7 10 8 11 9 12 10 14 11 13 12
REMARK SMILES IDX 32 13 34 14 36 15 15 16 16 17 29 18 28 19 21 20 17 21 19 22
REMARK SMILES IDX 30 23 31 24 22 26 23 27 24 28 25 29 26 30 27 31 18 32 20 34
REMARK SMILES IDX 33 36 35 38 37 40 38 42 39 43 40 44 7 46 4 48 2 49 1 51 3 52
REMARK SMILES IDX 44 53 45 55 46 56 47 58 48 59 49 60 50 62 51 63 52 64 53 65
REMARK SMILES IDX 54 66 62 67 55 68 61 69 56 70 57 71 58 72 59 74 60 75
REMARK H PARENT 31 25 18 33 20 35 33 37 35 39 37 41 40 45 7 47 4 50 44 54
REMARK H PARENT 46 57 48 61 58 73 60 76
REMARK Flexibility Score: inf
ROOT
ATOM      1  C   UNL     1      15.271  31.941  18.673  1.00  0.00     0.176 C 
ENDROOT
BRANCH   1   2
ATOM      2  C   UNL     1      15.730  30.479  18.516  1.00  0.00     0.178 C 
ATOM      3  C   UNL     1      17.456  28.980  19.113  1.00  0.00     0.272 C 
ATOM      4  C   UNL     1      17.601  28.547  17.681  1.00  0.00     0.113 C 
ATOM      5  O   UNL     1      16.880  30.259  19.146  1.00  0.00    -0.332 OA
ATOM      6  C   UNL     1      16.945  29.385  16.649  1.00  0.00     0.145 C 
ATOM      7  C   UNL     1      15.741  30.140  17.073  1.00  0.00     0.142 C 
BRANCH   3   8
ATOM      8  O   UNL     1      18.630  29.054  19.704  1.00  0.00    -0.338 OA
BRANCH   8   9
ATOM      9  C   UNL     1      19.449  29.815  20.297  1.00  0.00     0.199 C 
BRANCH   9  10
ATOM     10  C   UNL     1      20.038  29.564  21.647  1.00  0.00     0.179 C 
ATOM     11  C   UNL     1      21.046  27.913  22.869  1.00  0.00     0.282 C 
ATOM     12  O   UNL     1      20.878  28.387  21.572  1.00  0.00    -0.341 OA
ATOM     13  C   UNL     1      20.905  28.936  23.944  1.00  0.00     0.202 C 
ATOM     14  C   UNL     1      21.302  30.330  23.565  1.00  0.00     0.179 C 
ATOM     15  C   UNL     1      21.064  30.608  22.089  1.00  0.00     0.177 C 
BRANCH  11  16
ATOM     16  O   UNL     1      22.206  27.195  23.071  1.00  0.00    -0.341 OA
BRANCH  16  17
ATOM     17  C   UNL     1      22.003  25.930  23.618  1.00  0.00     0.184 C 
ATOM     18  C   UNL     1      23.252  25.480  24.313  1.00  0.00     0.178 C 
ATOM     19  O   UNL     1      23.827  24.357  23.740  1.00  0.00    -0.341 OA
ATOM     20  C   UNL     1      23.824  24.450  22.338  1.00  0.00     0.281 C 
ATOM     21  C   UNL     1      21.464  25.015  22.600  1.00  0.00     0.180 C 
ATOM     22  C   UNL     1      22.418  24.096  21.918  1.00  0.00     0.202 C 
BRANCH  18  23
ATOM     23  C   UNL     1      23.011  25.173  25.777  1.00  0.00     0.191 C 
BRANCH  23  24
ATOM     24  O   UNL     1      22.111  26.061  26.349  1.00  0.00    -0.394 OA
ATOM     25  H   UNL     1      21.475  26.339  25.615  1.00  0.00     0.210 HD
ENDBRANCH  23  24
ENDBRANCH  18  23
BRANCH  20  26
ATOM     26  O   UNL     1      24.735  23.509  21.886  1.00  0.00    -0.350 OA
BRANCH  26  27
ATOM     27  C   UNL     1      26.007  24.010  21.656  1.00  0.00     0.169 C 
BRANCH  27  28
ATOM     28  C   UNL     1      26.420  23.926  20.203  1.00  0.00     0.119 C 
BRANCH  28  29
ATOM     29  N   UNL     1      26.167  25.146  19.487  1.00  0.00    -0.092 NA
ATOM     30  N   UNL     1      25.071  25.525  19.090  1.00  0.00     0.001 N 
ATOM     31  N   UNL     1      23.935  25.736  18.666  1.00  0.00    -0.003 NA
ENDBRANCH  28  29
ENDBRANCH  27  28
ENDBRANCH  26  27
ENDBRANCH  20  26
BRANCH  21  32
ATOM     32  O   UNL     1      20.401  24.228  23.109  1.00  0.00    -0.387 OA
ATOM     33  H   UNL     1      19.759  24.910  23.488  1.00  0.00     0.211 HD
ENDBRANCH  21  32
BRANCH  22  34
ATOM     34  O   UNL     1      22.279  24.070  20.533  1.00  0.00    -0.385 OA
ATOM     35  H   UNL     1      22.701  23.299  20.117  1.00  0.00     0.211 HD
ENDBRANCH  22  34
ENDBRANCH  16  17
ENDBRANCH  11  16
BRANCH  13  36
ATOM     36  O   UNL     1      19.638  28.878  24.569  1.00  0.00    -0.385 OA
ATOM     37  H   UNL     1      19.677  29.057  25.527  1.00  0.00     0.211 HD
ENDBRANCH  13  36
BRANCH  14  38
ATOM     38  O   UNL     1      22.607  30.655  23.928  1.00  0.00    -0.387 OA
ATOM     39  H   UNL     1      22.887  30.077  24.677  1.00  0.00     0.211 HD
ENDBRANCH  14  38
BRANCH  15  40
ATOM     40  O   UNL     1      22.272  30.272  21.421  1.00  0.00    -0.387 OA
ATOM     41  H   UNL     1      22.728  29.528  21.884  1.00  0.00     0.211 HD
ENDBRANCH  15  40
ENDBRANCH   9  10
ENDBRANCH   8   9
ENDBRANCH   3   8
BRANCH   3  42
ATOM     42  C   UNL     1      16.533  28.065  19.862  1.00  0.00     0.364 C 
ATOM     43  O   UNL     1      16.310  26.933  19.329  1.00  0.00    -0.246 OA
BRANCH  42  44
ATOM     44  O   UNL     1      15.941  28.388  21.054  1.00  0.00    -0.477 OA
ATOM     45  H   UNL     1      16.069  27.817  21.897  1.00  0.00     0.296 HD
ENDBRANCH  42  44
ENDBRANCH   3  42
BRANCH   6  46
ATOM     46  O   UNL     1      17.911  30.315  16.196  1.00  0.00    -0.391 OA
ATOM     47  H   UNL     1      17.571  31.223  16.320  1.00  0.00     0.211 HD
ENDBRANCH   6  46
BRANCH   7  48
ATOM     48  N   UNL     1      14.547  29.423  16.633  1.00  0.00    -0.348 N 
ATOM     49  C   UNL     1      13.766  29.864  15.535  1.00  0.00     0.217 C 
ATOM     50  H   UNL     1      14.224  28.559  17.113  1.00  0.00     0.163 HD
ATOM     51  C   UNL     1      12.550  29.139  15.084  1.00  0.00     0.114 C 
ATOM     52  O   UNL     1      14.137  30.906  14.940  1.00  0.00    -0.275 OA
ENDBRANCH   7  48
ENDBRANCH   1   2
BRANCH   1  53
ATOM     53  O   UNL     1      14.581  32.324  17.539  1.00  0.00    -0.388 OA
ATOM     54  H   UNL     1      15.013  33.106  17.115  1.00  0.00     0.211 HD
ENDBRANCH   1  53
BRANCH   1  55
ATOM     55  C   UNL     1      14.371  32.072  19.891  1.00  0.00     0.165 C 
BRANCH  55  56
ATOM     56  O   UNL     1      15.239  31.908  20.997  1.00  0.00    -0.388 OA
ATOM     57  H   UNL     1      15.943  32.602  20.969  1.00  0.00     0.211 HD
ENDBRANCH  55  56
BRANCH  55  58
ATOM     58  C   UNL     1      13.305  31.034  19.972  1.00  0.00     0.154 C 
BRANCH  58  59
ATOM     59  N   UNL     1      13.430  30.210  21.155  1.00  0.00    -0.319 N 
ATOM     60  C   UNL     1      12.599  30.427  22.279  1.00  0.00     0.407 C 
ATOM     61  H   UNL     1      14.137  29.426  21.221  1.00  0.00     0.167 HD
ATOM     62  O   UNL     1      11.739  31.337  22.304  1.00  0.00    -0.225 OA
BRANCH  60  63
ATOM     63  O   UNL     1      12.698  29.632  23.403  1.00  0.00    -0.443 OA
BRANCH  63  64
ATOM     64  C   UNL     1      13.495  29.835  24.517  1.00  0.00     0.294 C 
BRANCH  64  65
ATOM     65  C   UNL     1      14.935  30.045  24.247  1.00  0.00     0.120 A 
ATOM     66  C   UNL     1      15.590  31.237  24.379  1.00  0.00     0.138 A 
ATOM     67  N   UNL     1      15.824  29.100  23.819  1.00  0.00    -0.132 NA
ATOM     68  N   UNL     1      16.867  30.996  24.028  1.00  0.00    -0.249 N 
ATOM     69  N   UNL     1      16.985  29.732  23.701  1.00  0.00    -0.067 NA
BRANCH  68  70
ATOM     70  C   UNL     1      17.950  31.955  23.995  1.00  0.00     0.180 C 
BRANCH  70  71
ATOM     71  C   UNL     1      18.380  32.190  25.450  1.00  0.00     0.161 C 
BRANCH  71  72
ATOM     72  O   UNL     1      18.580  30.956  26.019  1.00  0.00    -0.389 OA
ATOM     73  H   UNL     1      17.817  30.670  26.579  1.00  0.00     0.211 HD
ENDBRANCH  71  72
BRANCH  71  74
ATOM     74  C   UNL     1      19.633  33.032  25.478  1.00  0.00     0.189 C 
BRANCH  74  75
ATOM     75  O   UNL     1      20.464  32.612  26.492  1.00  0.00    -0.394 OA
ATOM     76  H   UNL     1      20.395  31.627  26.591  1.00  0.00     0.210 HD
ENDBRANCH  74  75
ENDBRANCH  71  74
ENDBRANCH  70  71
ENDBRANCH  68  70
ENDBRANCH  64  65
ENDBRANCH  63  64
ENDBRANCH  60  63
ENDBRANCH  58  59
ENDBRANCH  55  58
ENDBRANCH   1  55
TORSDOF 34
