REMARK VINA RESULT:    -5.709     15.351     19.421
REMARK INTER + INTRA:         -20.649
REMARK INTER:                 -13.387
REMARK INTRA:                  -7.262
REMARK UNBOUND:                -6.597
REMARK SMILES CC(=O)N[C@@H]1[C@@H](O)C[C@](OC[C@H]2O[C@@H](O[C@H]3[C@H](O)[C@@H](O)[C@H](OCCN=[N+]=[N-])O[C@@H]3CO)[C@H](O)[C@@H](O)[C@H]2O)(C(=O)O)O[C@H]1C(O)[C@H](O)CNC(=O)OCc1cn(-c2ccccc2)nn1
REMARK SMILES IDX 9 1 8 2 6 3 5 4 42 5 41 6 10 7 11 8 12 9 14 10 13 11 32 12
REMARK SMILES IDX 34 13 36 14 15 15 16 16 29 17 28 18 21 19 17 20 19 21 30 22
REMARK SMILES IDX 31 23 22 25 23 26 24 27 25 28 26 29 27 30 18 31 20 33 33 35
REMARK SMILES IDX 35 37 37 39 38 41 39 42 40 43 7 45 43 47 44 48 45 50 46 51
REMARK SMILES IDX 47 53 48 54 49 55 50 57 51 58 52 59 53 60 54 61 63 62 55 63
REMARK SMILES IDX 62 64 56 65 57 66 61 67 58 68 60 69 59 70 4 71 2 72 1 74
REMARK SMILES IDX 3 75
REMARK H PARENT 31 24 18 32 20 34 33 36 35 38 37 40 40 44 7 46 44 49 46 52
REMARK H PARENT 48 56 4 73
REMARK Flexibility Score: inf
ROOT
ATOM      1  C   UNL     1       3.654  21.889  32.027  1.00  0.00     0.272 C 
ATOM      2  C   UNL     1       3.090  20.873  31.104  1.00  0.00     0.113 C 
ATOM      3  C   UNL     1       2.800  19.554  31.717  1.00  0.00     0.145 C 
ATOM      4  C   UNL     1       2.177  19.729  33.089  1.00  0.00     0.142 C 
ATOM      5  C   UNL     1       3.168  20.533  33.899  1.00  0.00     0.178 C 
ATOM      6  O   UNL     1       3.150  21.793  33.360  1.00  0.00    -0.332 OA
ENDROOT
BRANCH   1   7
ATOM      7  O   UNL     1       3.369  23.186  31.714  1.00  0.00    -0.338 OA
BRANCH   7   8
ATOM      8  C   UNL     1       2.782  24.043  32.528  1.00  0.00     0.199 C 
BRANCH   8   9
ATOM      9  C   UNL     1       3.452  25.247  33.064  1.00  0.00     0.179 C 
ATOM     10  C   UNL     1       5.186  25.788  34.529  1.00  0.00     0.282 C 
ATOM     11  O   UNL     1       4.330  24.758  34.083  1.00  0.00    -0.341 OA
ATOM     12  C   UNL     1       4.852  27.140  33.991  1.00  0.00     0.202 C 
ATOM     13  C   UNL     1       4.883  27.152  32.478  1.00  0.00     0.179 C 
ATOM     14  C   UNL     1       4.377  25.827  31.987  1.00  0.00     0.177 C 
BRANCH  10  15
ATOM     15  O   UNL     1       6.442  25.465  34.166  1.00  0.00    -0.341 OA
BRANCH  15  16
ATOM     16  C   UNL     1       7.484  25.570  35.011  1.00  0.00     0.184 C 
ATOM     17  C   UNL     1       8.767  26.078  34.395  1.00  0.00     0.178 C 
ATOM     18  O   UNL     1       9.801  25.595  35.221  1.00  0.00    -0.341 OA
ATOM     19  C   UNL     1      10.034  24.274  34.780  1.00  0.00     0.281 C 
ATOM     20  C   UNL     1       7.794  24.264  35.744  1.00  0.00     0.180 C 
ATOM     21  C   UNL     1       8.780  23.440  34.943  1.00  0.00     0.202 C 
BRANCH  17  22
ATOM     22  C   UNL     1       8.860  27.588  34.417  1.00  0.00     0.191 C 
BRANCH  22  23
ATOM     23  O   UNL     1       8.704  28.058  33.110  1.00  0.00    -0.394 OA
ATOM     24  H   UNL     1       9.167  28.945  32.982  1.00  0.00     0.210 HD
ENDBRANCH  22  23
ENDBRANCH  17  22
BRANCH  19  25
ATOM     25  O   UNL     1      11.051  23.675  35.457  1.00  0.00    -0.350 OA
BRANCH  25  26
ATOM     26  C   UNL     1      11.964  24.480  36.082  1.00  0.00     0.169 C 
BRANCH  26  27
ATOM     27  C   UNL     1      12.174  24.197  37.536  1.00  0.00     0.119 C 
BRANCH  27  28
ATOM     28  N   UNL     1      11.076  24.616  38.326  1.00  0.00    -0.092 NA
ATOM     29  N   UNL     1      11.120  24.618  39.570  1.00  0.00     0.001 N 
ATOM     30  N   UNL     1      11.218  24.242  40.749  1.00  0.00    -0.003 NA
ENDBRANCH  27  28
ENDBRANCH  26  27
ENDBRANCH  25  26
ENDBRANCH  19  25
BRANCH  20  31
ATOM     31  O   UNL     1       8.353  24.465  36.998  1.00  0.00    -0.387 OA
ATOM     32  H   UNL     1       7.834  25.118  37.528  1.00  0.00     0.211 HD
ENDBRANCH  20  31
BRANCH  21  33
ATOM     33  O   UNL     1       8.278  23.057  33.716  1.00  0.00    -0.385 OA
ATOM     34  H   UNL     1       8.151  22.086  33.627  1.00  0.00     0.211 HD
ENDBRANCH  21  33
ENDBRANCH  15  16
ENDBRANCH  10  15
BRANCH  12  35
ATOM     35  O   UNL     1       3.710  27.717  34.531  1.00  0.00    -0.385 OA
ATOM     36  H   UNL     1       3.998  28.299  35.281  1.00  0.00     0.211 HD
ENDBRANCH  12  35
BRANCH  13  37
ATOM     37  O   UNL     1       6.192  27.308  32.062  1.00  0.00    -0.387 OA
ATOM     38  H   UNL     1       6.865  26.953  32.695  1.00  0.00     0.211 HD
ENDBRANCH  13  37
BRANCH  14  39
ATOM     39  O   UNL     1       5.434  24.897  31.859  1.00  0.00    -0.387 OA
ATOM     40  H   UNL     1       5.504  24.561  30.941  1.00  0.00     0.211 HD
ENDBRANCH  14  39
ENDBRANCH   8   9
ENDBRANCH   7   8
ENDBRANCH   1   7
BRANCH   1  41
ATOM     41  C   UNL     1       5.098  21.636  32.230  1.00  0.00     0.364 C 
ATOM     42  O   UNL     1       5.703  22.065  33.212  1.00  0.00    -0.246 OA
BRANCH  41  43
ATOM     43  O   UNL     1       5.825  20.886  31.282  1.00  0.00    -0.477 OA
ATOM     44  H   UNL     1       6.111  19.942  31.533  1.00  0.00     0.296 HD
ENDBRANCH  41  43
ENDBRANCH   1  41
BRANCH   3  45
ATOM     45  O   UNL     1       1.974  18.816  30.871  1.00  0.00    -0.391 OA
ATOM     46  H   UNL     1       1.599  18.090  31.398  1.00  0.00     0.211 HD
ENDBRANCH   3  45
BRANCH   5  47
ATOM     47  C   UNL     1       2.708  20.676  35.346  1.00  0.00     0.176 C 
BRANCH  47  48
ATOM     48  O   UNL     1       3.333  19.705  36.083  1.00  0.00    -0.388 OA
ATOM     49  H   UNL     1       3.326  18.812  35.674  1.00  0.00     0.211 HD
ENDBRANCH  47  48
BRANCH  47  50
ATOM     50  C   UNL     1       2.846  22.017  35.934  1.00  0.00     0.165 C 
BRANCH  50  51
ATOM     51  O   UNL     1       4.119  22.510  35.506  1.00  0.00    -0.388 OA
ATOM     52  H   UNL     1       4.016  23.474  35.411  1.00  0.00     0.211 HD
ENDBRANCH  50  51
BRANCH  50  53
ATOM     53  C   UNL     1       2.989  21.964  37.465  1.00  0.00     0.154 C 
BRANCH  53  54
ATOM     54  N   UNL     1       4.338  22.237  37.890  1.00  0.00    -0.319 N 
ATOM     55  C   UNL     1       4.748  23.555  38.296  1.00  0.00     0.407 C 
ATOM     56  H   UNL     1       5.083  21.511  37.930  1.00  0.00     0.167 HD
ATOM     57  O   UNL     1       3.934  24.506  38.304  1.00  0.00    -0.225 OA
BRANCH  55  58
ATOM     58  O   UNL     1       6.050  23.803  38.692  1.00  0.00    -0.443 OA
BRANCH  58  59
ATOM     59  C   UNL     1       6.424  23.776  40.065  1.00  0.00     0.294 C 
BRANCH  59  60
ATOM     60  C   UNL     1       7.570  22.824  40.149  1.00  0.00     0.121 A 
ATOM     61  C   UNL     1       7.967  22.210  41.329  1.00  0.00     0.144 A 
ATOM     62  N   UNL     1       8.408  22.375  39.211  1.00  0.00    -0.131 NA
ATOM     63  N   UNL     1       9.033  21.408  41.073  1.00  0.00    -0.220 N 
ATOM     64  N   UNL     1       9.270  21.532  39.787  1.00  0.00    -0.062 NA
BRANCH  63  65
ATOM     65  C   UNL     1       9.739  20.609  42.008  1.00  0.00     0.066 A 
ATOM     66  C   UNL     1       9.089  19.763  42.876  1.00  0.00     0.028 A 
ATOM     67  C   UNL     1      11.115  20.662  42.058  1.00  0.00     0.028 A 
ATOM     68  C   UNL     1       9.769  18.978  43.783  1.00  0.00     0.002 A 
ATOM     69  C   UNL     1      11.795  19.871  42.971  1.00  0.00     0.002 A 
ATOM     70  C   UNL     1      11.163  19.021  43.847  1.00  0.00     0.000 A 
ENDBRANCH  63  65
ENDBRANCH  59  60
ENDBRANCH  58  59
ENDBRANCH  55  58
ENDBRANCH  53  54
ENDBRANCH  50  53
ENDBRANCH  47  50
ENDBRANCH   5  47
BRANCH   4  71
ATOM     71  N   UNL     1       1.758  18.493  33.647  1.00  0.00    -0.348 N 
ATOM     72  C   UNL     1       0.398  18.105  33.530  1.00  0.00     0.217 C 
ATOM     73  H   UNL     1       2.413  17.849  34.129  1.00  0.00     0.163 HD
ATOM     74  C   UNL     1      -0.069  16.809  34.107  1.00  0.00     0.114 C 
ATOM     75  O   UNL     1      -0.466  18.824  32.941  1.00  0.00    -0.275 OA
ENDBRANCH   4  71
TORSDOF 30
