REMARK VINA RESULT:    -5.233     15.862     21.498
REMARK INTER + INTRA:         -20.189
REMARK INTER:                 -13.829
REMARK INTRA:                  -6.360
REMARK UNBOUND:                -6.390
REMARK SMILES CCOC(=O)Cn1cc(COC(=O)NC[C@@H](O)C(O)[C@@H]2O[C@@](OC[C@H]3O[C@@H](O[C@H]4[C@H](O)[C@@H](O)[C@H](OCCN=[N+]=[N-])O[C@@H]4CO)[C@H](O)[C@@H](O)[C@H]3O)(C(=O)O)C[C@H](O)[C@H]2NC(C)=O)nn1
REMARK SMILES IDX 18 1 20 2 22 3 54 4 21 5 55 6 57 7 23 8 24 9 25 10 27 11
REMARK SMILES IDX 26 12 45 13 47 14 49 15 28 16 29 17 42 18 41 19 34 20 30 21
REMARK SMILES IDX 32 22 43 23 44 24 35 26 36 27 37 28 38 29 39 30 40 31 31 32
REMARK SMILES IDX 33 34 46 36 48 38 50 40 51 42 52 43 53 44 56 46 58 48 59 49
REMARK SMILES IDX 60 51 61 52 19 53 16 55 17 56 15 58 14 59 12 60 13 62 11 63
REMARK SMILES IDX 10 64 9 65 8 66 62 67 7 68 63 69 6 70 4 71 5 72 3 73 2 74
REMARK SMILES IDX 1 75
REMARK H PARENT 44 25 31 33 33 35 46 37 48 39 50 41 53 45 56 47 58 50 19 54
REMARK H PARENT 17 57 14 61
REMARK Flexibility Score: inf
ROOT
ATOM      1  C   UNL     1       7.274  23.529  33.804  1.00  0.00     0.176 C 
ENDROOT
BRANCH   1   2
ATOM      2  C   UNL     1       6.544  24.050  35.010  1.00  0.00     0.178 C 
ATOM      3  C   UNL     1       4.385  24.261  35.885  1.00  0.00     0.272 C 
ATOM      4  C   UNL     1       5.076  25.179  36.834  1.00  0.00     0.113 C 
ATOM      5  O   UNL     1       5.299  23.491  35.133  1.00  0.00    -0.332 OA
ATOM      6  C   UNL     1       6.037  26.121  36.184  1.00  0.00     0.145 C 
ATOM      7  C   UNL     1       6.412  25.552  34.825  1.00  0.00     0.142 C 
BRANCH   3   8
ATOM      8  O   UNL     1       3.497  24.861  35.018  1.00  0.00    -0.338 OA
BRANCH   8   9
ATOM      9  C   UNL     1       3.577  24.559  33.702  1.00  0.00     0.199 C 
BRANCH   9  10
ATOM     10  C   UNL     1       2.149  24.557  33.121  1.00  0.00     0.179 C 
ATOM     11  C   UNL     1       0.938  24.127  31.191  1.00  0.00     0.282 C 
ATOM     12  O   UNL     1       2.156  24.396  31.772  1.00  0.00    -0.341 OA
ATOM     13  C   UNL     1       0.194  22.996  31.833  1.00  0.00     0.202 C 
ATOM     14  C   UNL     1      -0.065  23.396  33.263  1.00  0.00     0.179 C 
ATOM     15  C   UNL     1       1.263  23.632  33.901  1.00  0.00     0.177 C 
BRANCH  11  16
ATOM     16  O   UNL     1       1.029  23.872  29.833  1.00  0.00    -0.341 OA
BRANCH  16  17
ATOM     17  C   UNL     1       2.068  24.491  29.186  1.00  0.00     0.184 C 
ATOM     18  C   UNL     1       1.684  25.815  28.562  1.00  0.00     0.178 C 
ATOM     19  O   UNL     1       1.672  25.744  27.176  1.00  0.00    -0.341 OA
ATOM     20  C   UNL     1       2.964  25.521  26.646  1.00  0.00     0.281 C 
ATOM     21  C   UNL     1       2.596  23.575  28.082  1.00  0.00     0.180 C 
ATOM     22  C   UNL     1       3.646  24.379  27.329  1.00  0.00     0.202 C 
BRANCH  18  23
ATOM     23  C   UNL     1       2.558  26.916  29.105  1.00  0.00     0.191 C 
BRANCH  23  24
ATOM     24  O   UNL     1       3.512  26.402  30.003  1.00  0.00    -0.394 OA
ATOM     25  H   UNL     1       3.337  25.462  30.209  1.00  0.00     0.210 HD
ENDBRANCH  23  24
ENDBRANCH  18  23
BRANCH  20  26
ATOM     26  O   UNL     1       3.704  26.673  26.676  1.00  0.00    -0.350 OA
BRANCH  26  27
ATOM     27  C   UNL     1       4.720  26.851  25.799  1.00  0.00     0.169 C 
BRANCH  27  28
ATOM     28  C   UNL     1       6.050  27.282  26.295  1.00  0.00     0.119 C 
BRANCH  28  29
ATOM     29  N   UNL     1       7.187  26.939  25.512  1.00  0.00    -0.092 NA
ATOM     30  N   UNL     1       7.858  27.814  24.926  1.00  0.00     0.001 N 
ATOM     31  N   UNL     1       8.488  28.837  24.602  1.00  0.00    -0.003 NA
ENDBRANCH  28  29
ENDBRANCH  27  28
ENDBRANCH  26  27
ENDBRANCH  20  26
BRANCH  21  32
ATOM     32  O   UNL     1       3.188  22.450  28.663  1.00  0.00    -0.387 OA
ATOM     33  H   UNL     1       3.808  22.791  29.380  1.00  0.00     0.211 HD
ENDBRANCH  21  32
BRANCH  22  34
ATOM     34  O   UNL     1       4.322  23.536  26.443  1.00  0.00    -0.385 OA
ATOM     35  H   UNL     1       3.726  22.918  25.953  1.00  0.00     0.211 HD
ENDBRANCH  22  34
ENDBRANCH  16  17
ENDBRANCH  11  16
BRANCH  13  36
ATOM     36  O   UNL     1      -1.006  22.812  31.159  1.00  0.00    -0.385 OA
ATOM     37  H   UNL     1      -0.931  22.459  30.259  1.00  0.00     0.211 HD
ENDBRANCH  13  36
BRANCH  14  38
ATOM     38  O   UNL     1      -0.700  22.309  33.904  1.00  0.00    -0.387 OA
ATOM     39  H   UNL     1      -0.373  21.453  33.530  1.00  0.00     0.211 HD
ENDBRANCH  14  38
BRANCH  15  40
ATOM     40  O   UNL     1       1.872  22.369  34.085  1.00  0.00    -0.387 OA
ATOM     41  H   UNL     1       1.934  22.268  35.074  1.00  0.00     0.211 HD
ENDBRANCH  15  40
ENDBRANCH   9  10
ENDBRANCH   8   9
ENDBRANCH   3   8
BRANCH   3  42
ATOM     42  C   UNL     1       3.663  23.248  36.691  1.00  0.00     0.364 C 
ATOM     43  O   UNL     1       4.309  22.350  37.276  1.00  0.00    -0.246 OA
BRANCH  42  44
ATOM     44  O   UNL     1       2.301  23.280  36.801  1.00  0.00    -0.477 OA
ATOM     45  H   UNL     1       1.805  22.823  37.562  1.00  0.00     0.296 HD
ENDBRANCH  42  44
ENDBRANCH   3  42
BRANCH   6  46
ATOM     46  O   UNL     1       5.612  27.425  36.102  1.00  0.00    -0.391 OA
ATOM     47  H   UNL     1       4.625  27.448  36.256  1.00  0.00     0.211 HD
ENDBRANCH   6  46
BRANCH   7  48
ATOM     48  N   UNL     1       7.658  26.137  34.347  1.00  0.00    -0.348 N 
ATOM     49  C   UNL     1       7.707  27.416  33.744  1.00  0.00     0.217 C 
ATOM     50  H   UNL     1       8.534  25.599  34.459  1.00  0.00     0.163 HD
ATOM     51  C   UNL     1       8.976  28.026  33.249  1.00  0.00     0.114 C 
ATOM     52  O   UNL     1       6.627  28.056  33.624  1.00  0.00    -0.275 OA
ENDBRANCH   7  48
ENDBRANCH   1   2
BRANCH   1  53
ATOM     53  O   UNL     1       8.635  23.499  34.032  1.00  0.00    -0.388 OA
ATOM     54  H   UNL     1       8.873  23.396  34.998  1.00  0.00     0.211 HD
ENDBRANCH   1  53
BRANCH   1  55
ATOM     55  C   UNL     1       6.819  22.141  33.388  1.00  0.00     0.165 C 
BRANCH  55  56
ATOM     56  O   UNL     1       7.863  21.307  33.065  1.00  0.00    -0.388 OA
ATOM     57  H   UNL     1       7.861  20.451  33.554  1.00  0.00     0.211 HD
ENDBRANCH  55  56
BRANCH  55  58
ATOM     58  C   UNL     1       5.855  22.279  32.257  1.00  0.00     0.154 C 
BRANCH  58  59
ATOM     59  N   UNL     1       4.564  21.744  32.505  1.00  0.00    -0.319 N 
ATOM     60  C   UNL     1       3.849  20.877  31.635  1.00  0.00     0.407 C 
ATOM     61  H   UNL     1       4.045  21.990  33.419  1.00  0.00     0.167 HD
ATOM     62  O   UNL     1       4.319  20.500  30.549  1.00  0.00    -0.225 OA
BRANCH  60  63
ATOM     63  O   UNL     1       2.572  20.427  32.015  1.00  0.00    -0.443 OA
BRANCH  63  64
ATOM     64  C   UNL     1       2.390  19.152  32.534  1.00  0.00     0.294 C 
BRANCH  64  65
ATOM     65  C   UNL     1       2.876  18.988  33.918  1.00  0.00     0.120 A 
ATOM     66  C   UNL     1       2.769  17.851  34.695  1.00  0.00     0.139 A 
ATOM     67  N   UNL     1       3.496  19.890  34.689  1.00  0.00    -0.132 NA
ATOM     68  N   UNL     1       3.319  18.086  35.910  1.00  0.00    -0.241 N 
ATOM     69  N   UNL     1       3.749  19.329  35.869  1.00  0.00    -0.066 NA
BRANCH  68  70
ATOM     70  C   UNL     1       3.381  17.114  36.994  1.00  0.00     0.268 C 
BRANCH  70  71
ATOM     71  C   UNL     1       4.323  17.664  38.034  1.00  0.00     0.327 C 
ATOM     72  O   UNL     1       5.550  17.453  37.993  1.00  0.00    -0.250 OA
BRANCH  71  73
ATOM     73  O   UNL     1       3.856  18.433  39.085  1.00  0.00    -0.465 OA
BRANCH  73  74
ATOM     74  C   UNL     1       2.505  18.663  39.367  1.00  0.00     0.229 C 
ATOM     75  C   UNL     1       2.056  20.056  39.001  1.00  0.00     0.049 C 
ENDBRANCH  73  74
ENDBRANCH  71  73
ENDBRANCH  70  71
ENDBRANCH  68  70
ENDBRANCH  64  65
ENDBRANCH  63  64
ENDBRANCH  60  63
ENDBRANCH  58  59
ENDBRANCH  55  58
ENDBRANCH   1  55
TORSDOF 33
