REMARK VINA RESULT:    -6.581      2.874      6.322
REMARK INTER + INTRA:         -21.795
REMARK INTER:                 -13.769
REMARK INTRA:                  -8.027
REMARK UNBOUND:                -4.828
REMARK SMILES CC(=O)N[C@@H]1[C@@H](O)C[C@](OC[C@H]2O[C@@H](O[C@H]3[C@H](O)[C@@H](O)[C@H](OCCN=[N+]=[N-])O[C@@H]3CO)[C@H](O)[C@@H](O)[C@H]2O)(C(=O)O)O[C@H]1C(O)[C@H](O)CNC(=O)OCc1cn(CCN2CCCC2)nn1
REMARK SMILES IDX 9 1 8 2 6 3 5 4 42 5 41 6 10 7 11 8 12 9 14 10 13 11 32 12
REMARK SMILES IDX 34 13 36 14 15 15 16 16 29 17 28 18 21 19 17 20 19 21 30 22
REMARK SMILES IDX 31 23 22 25 23 26 24 27 25 28 26 29 27 30 18 31 20 33 33 35
REMARK SMILES IDX 35 37 37 39 38 41 39 42 40 43 7 45 43 47 44 48 45 50 46 51
REMARK SMILES IDX 47 53 48 54 49 55 50 57 51 58 52 59 53 60 54 61 64 62 55 63
REMARK SMILES IDX 63 64 56 65 57 66 58 67 59 68 62 69 60 70 61 71 4 72 2 73
REMARK SMILES IDX 1 75 3 76
REMARK H PARENT 31 24 18 32 20 34 33 36 35 38 37 40 40 44 7 46 44 49 46 52
REMARK H PARENT 48 56 4 74
REMARK Flexibility Score: inf
ROOT
ATOM      1  C   UNL     1      21.037  28.988  24.058  1.00  0.00     0.272 C 
ATOM      2  C   UNL     1      20.700  30.221  24.837  1.00  0.00     0.113 C 
ATOM      3  C   UNL     1      19.404  30.855  24.315  1.00  0.00     0.145 C 
ATOM      4  C   UNL     1      19.727  31.314  22.865  1.00  0.00     0.142 C 
ATOM      5  C   UNL     1      20.232  30.119  22.144  1.00  0.00     0.178 C 
ATOM      6  O   UNL     1      20.184  28.976  22.948  1.00  0.00    -0.332 OA
ENDROOT
BRANCH   1   7
ATOM      7  O   UNL     1      20.674  27.825  24.741  1.00  0.00    -0.338 OA
BRANCH   7   8
ATOM      8  C   UNL     1      21.124  27.664  26.000  1.00  0.00     0.199 C 
BRANCH   8   9
ATOM      9  C   UNL     1      22.141  26.534  26.132  1.00  0.00     0.179 C 
ATOM     10  C   UNL     1      22.884  24.600  25.147  1.00  0.00     0.282 C 
ATOM     11  O   UNL     1      22.354  25.847  24.949  1.00  0.00    -0.341 OA
ATOM     12  C   UNL     1      23.896  24.626  26.242  1.00  0.00     0.202 C 
ATOM     13  C   UNL     1      24.489  26.021  26.336  1.00  0.00     0.179 C 
ATOM     14  C   UNL     1      23.440  27.043  26.725  1.00  0.00     0.177 C 
BRANCH  10  15
ATOM     15  O   UNL     1      23.269  23.938  24.020  1.00  0.00    -0.341 OA
BRANCH  15  16
ATOM     16  C   UNL     1      23.509  24.557  22.869  1.00  0.00     0.184 C 
ATOM     17  C   UNL     1      22.420  24.534  21.817  1.00  0.00     0.178 C 
ATOM     18  O   UNL     1      22.636  25.639  20.987  1.00  0.00    -0.341 OA
ATOM     19  C   UNL     1      23.727  25.271  20.146  1.00  0.00     0.281 C 
ATOM     20  C   UNL     1      24.773  24.144  22.135  1.00  0.00     0.180 C 
ATOM     21  C   UNL     1      24.943  25.187  21.047  1.00  0.00     0.202 C 
BRANCH  17  22
ATOM     22  C   UNL     1      21.031  24.529  22.362  1.00  0.00     0.191 C 
BRANCH  22  23
ATOM     23  O   UNL     1      20.611  25.851  22.482  1.00  0.00    -0.394 OA
ATOM     24  H   UNL     1      20.545  26.102  23.444  1.00  0.00     0.210 HD
ENDBRANCH  22  23
ENDBRANCH  17  22
BRANCH  19  25
ATOM     25  O   UNL     1      23.906  26.320  19.303  1.00  0.00    -0.350 OA
BRANCH  25  26
ATOM     26  C   UNL     1      23.570  26.207  17.998  1.00  0.00     0.169 C 
BRANCH  26  27
ATOM     27  C   UNL     1      23.131  24.875  17.500  1.00  0.00     0.119 C 
BRANCH  27  28
ATOM     28  N   UNL     1      24.091  24.200  16.661  1.00  0.00    -0.092 NA
ATOM     29  N   UNL     1      25.204  23.951  17.101  1.00  0.00     0.001 N 
ATOM     30  N   UNL     1      26.256  23.683  17.691  1.00  0.00    -0.003 NA
ENDBRANCH  27  28
ENDBRANCH  26  27
ENDBRANCH  25  26
ENDBRANCH  19  25
BRANCH  20  31
ATOM     31  O   UNL     1      25.889  24.244  22.952  1.00  0.00    -0.387 OA
ATOM     32  H   UNL     1      26.252  25.147  23.032  1.00  0.00     0.211 HD
ENDBRANCH  20  31
BRANCH  21  33
ATOM     33  O   UNL     1      26.119  25.056  20.348  1.00  0.00    -0.385 OA
ATOM     34  H   UNL     1      26.073  24.581  19.501  1.00  0.00     0.211 HD
ENDBRANCH  21  33
ENDBRANCH  15  16
ENDBRANCH  10  15
BRANCH  12  35
ATOM     35  O   UNL     1      23.359  24.331  27.502  1.00  0.00    -0.385 OA
ATOM     36  H   UNL     1      22.587  24.937  27.700  1.00  0.00     0.211 HD
ENDBRANCH  12  35
BRANCH  13  37
ATOM     37  O   UNL     1      24.989  26.407  25.088  1.00  0.00    -0.387 OA
ATOM     38  H   UNL     1      25.107  25.594  24.501  1.00  0.00     0.211 HD
ENDBRANCH  13  37
BRANCH  14  39
ATOM     39  O   UNL     1      23.831  28.252  26.152  1.00  0.00    -0.387 OA
ATOM     40  H   UNL     1      23.109  28.902  26.396  1.00  0.00     0.211 HD
ENDBRANCH  14  39
ENDBRANCH   8   9
ENDBRANCH   7   8
ENDBRANCH   1   7
BRANCH   1  41
ATOM     41  C   UNL     1      22.452  28.922  23.610  1.00  0.00     0.364 C 
ATOM     42  O   UNL     1      23.178  29.945  23.796  1.00  0.00    -0.246 OA
BRANCH  41  43
ATOM     43  O   UNL     1      23.056  27.851  23.005  1.00  0.00    -0.477 OA
ATOM     44  H   UNL     1      23.516  27.821  22.124  1.00  0.00     0.296 HD
ENDBRANCH  41  43
ENDBRANCH   1  41
BRANCH   3  45
ATOM     45  O   UNL     1      18.396  29.930  24.213  1.00  0.00    -0.391 OA
ATOM     46  H   UNL     1      18.402  29.262  24.950  1.00  0.00     0.211 HD
ENDBRANCH   3  45
BRANCH   5  47
ATOM     47  C   UNL     1      19.331  29.774  20.982  1.00  0.00     0.176 C 
BRANCH  47  48
ATOM     48  O   UNL     1      18.990  30.847  20.180  1.00  0.00    -0.388 OA
ATOM     49  H   UNL     1      19.292  31.727  20.498  1.00  0.00     0.211 HD
ENDBRANCH  47  48
BRANCH  47  50
ATOM     50  C   UNL     1      19.633  28.571  20.177  1.00  0.00     0.165 C 
BRANCH  50  51
ATOM     51  O   UNL     1      20.842  27.957  20.409  1.00  0.00    -0.388 OA
ATOM     52  H   UNL     1      21.641  28.475  20.164  1.00  0.00     0.211 HD
ENDBRANCH  50  51
BRANCH  50  53
ATOM     53  C   UNL     1      19.100  28.537  18.783  1.00  0.00     0.154 C 
BRANCH  53  54
ATOM     54  N   UNL     1      17.801  29.083  18.650  1.00  0.00    -0.319 N 
ATOM     55  C   UNL     1      16.617  28.267  18.598  1.00  0.00     0.407 C 
ATOM     56  H   UNL     1      17.666  30.121  18.588  1.00  0.00     0.167 HD
ATOM     57  O   UNL     1      16.645  27.024  18.668  1.00  0.00    -0.225 OA
BRANCH  55  58
ATOM     58  O   UNL     1      15.362  28.861  18.470  1.00  0.00    -0.443 OA
BRANCH  58  59
ATOM     59  C   UNL     1      14.386  28.702  19.505  1.00  0.00     0.294 C 
BRANCH  59  60
ATOM     60  C   UNL     1      14.878  29.261  20.780  1.00  0.00     0.120 A 
ATOM     61  C   UNL     1      14.470  30.312  21.550  1.00  0.00     0.138 A 
ATOM     62  N   UNL     1      15.943  28.738  21.456  1.00  0.00    -0.132 NA
ATOM     63  N   UNL     1      15.251  30.408  22.626  1.00  0.00    -0.251 N 
ATOM     64  N   UNL     1      16.161  29.416  22.541  1.00  0.00    -0.067 NA
BRANCH  63  65
ATOM     65  C   UNL     1      15.220  31.338  23.710  1.00  0.00     0.161 C 
BRANCH  65  66
ATOM     66  C   UNL     1      13.958  32.108  23.830  1.00  0.00     0.108 C 
BRANCH  66  67
ATOM     67  N   UNL     1      12.848  31.529  24.463  1.00  0.00    -0.301 NA
ATOM     68  C   UNL     1      11.595  31.481  23.822  1.00  0.00     0.084 C 
ATOM     69  C   UNL     1      13.097  30.323  25.194  1.00  0.00     0.084 C 
ATOM     70  C   UNL     1      11.053  30.066  23.965  1.00  0.00     0.017 C 
ATOM     71  C   UNL     1      11.896  29.442  25.039  1.00  0.00     0.017 C 
ENDBRANCH  66  67
ENDBRANCH  65  66
ENDBRANCH  63  65
ENDBRANCH  59  60
ENDBRANCH  58  59
ENDBRANCH  55  58
ENDBRANCH  53  54
ENDBRANCH  50  53
ENDBRANCH  47  50
ENDBRANCH   5  47
BRANCH   4  72
ATOM     72  N   UNL     1      20.683  32.398  22.997  1.00  0.00    -0.348 N 
ATOM     73  C   UNL     1      20.819  33.454  22.051  1.00  0.00     0.217 C 
ATOM     74  H   UNL     1      21.320  32.441  23.813  1.00  0.00     0.163 HD
ATOM     75  C   UNL     1      21.852  34.522  22.284  1.00  0.00     0.114 C 
ATOM     76  O   UNL     1      20.089  33.475  21.058  1.00  0.00    -0.275 OA
ENDBRANCH   4  72
TORSDOF 32
