REMARK VINA RESULT:    -5.882      8.240     11.631
REMARK INTER + INTRA:         -22.025
REMARK INTER:                 -16.722
REMARK INTRA:                  -5.303
REMARK UNBOUND:                -7.546
REMARK SMILES CC(=O)N[C@@H]1[C@@H](O)C[C@](OC[C@H]2O[C@@H](O[C@H]3[C@H](O)[C@@H](O)[C@H](OCCN=[N+]=[N-])O[C@@H]3CO)[C@H](O)[C@@H](O)[C@H]2O)(C(=O)O)O[C@H]1C(O)[C@H](O)CNC(=O)OCc1cn(-c2ccc3[nH]ncc3c2)nn1
REMARK SMILES IDX 9 1 8 2 6 3 5 4 42 5 41 6 10 7 11 8 12 9 14 10 13 11 32 12
REMARK SMILES IDX 34 13 36 14 15 15 16 16 29 17 28 18 21 19 17 20 19 21 30 22
REMARK SMILES IDX 31 23 22 25 23 26 24 27 25 28 26 29 27 30 18 31 20 33 33 35
REMARK SMILES IDX 35 37 37 39 38 41 39 42 40 43 7 45 43 47 44 48 45 50 46 51
REMARK SMILES IDX 47 53 48 54 49 55 50 57 51 58 52 59 53 60 54 61 66 62 55 63
REMARK SMILES IDX 65 64 56 65 57 66 64 67 58 68 63 69 59 70 62 71 60 72 61 73
REMARK SMILES IDX 4 75 2 76 1 78 3 79
REMARK H PARENT 31 24 18 32 20 34 33 36 35 38 37 40 40 44 7 46 44 49 46 52
REMARK H PARENT 48 56 60 74 4 77
REMARK Flexibility Score: inf
ROOT
ATOM      1  C   UNL     1      27.299  20.299  14.882  1.00  0.00     0.272 C 
ATOM      2  C   UNL     1      27.906  19.196  15.670  1.00  0.00     0.113 C 
ATOM      3  C   UNL     1      28.934  19.616  16.690  1.00  0.00     0.145 C 
ATOM      4  C   UNL     1      28.177  20.596  17.625  1.00  0.00     0.142 C 
ATOM      5  C   UNL     1      27.642  21.645  16.729  1.00  0.00     0.178 C 
ATOM      6  O   UNL     1      26.805  21.287  15.730  1.00  0.00    -0.332 OA
ENDROOT
BRANCH   1   7
ATOM      7  O   UNL     1      26.217  19.771  14.145  1.00  0.00    -0.338 OA
BRANCH   7   8
ATOM      8  C   UNL     1      25.122  20.566  14.066  1.00  0.00     0.199 C 
BRANCH   8   9
ATOM      9  C   UNL     1      24.393  20.411  12.712  1.00  0.00     0.179 C 
ATOM     10  C   UNL     1      22.430  21.461  12.072  1.00  0.00     0.282 C 
ATOM     11  O   UNL     1      23.041  20.477  12.868  1.00  0.00    -0.341 OA
ATOM     12  C   UNL     1      22.980  22.773  12.530  1.00  0.00     0.202 C 
ATOM     13  C   UNL     1      24.438  22.822  12.051  1.00  0.00     0.179 C 
ATOM     14  C   UNL     1      24.936  21.437  11.736  1.00  0.00     0.177 C 
BRANCH  10  15
ATOM     15  O   UNL     1      21.055  21.330  12.153  1.00  0.00    -0.341 OA
BRANCH  15  16
ATOM     16  C   UNL     1      20.612  20.449  11.176  1.00  0.00     0.184 C 
ATOM     17  C   UNL     1      19.964  21.101   9.992  1.00  0.00     0.178 C 
ATOM     18  O   UNL     1      19.642  20.198   9.050  1.00  0.00    -0.341 OA
ATOM     19  C   UNL     1      19.540  18.874   9.338  1.00  0.00     0.281 C 
ATOM     20  C   UNL     1      19.485  19.572  11.755  1.00  0.00     0.180 C 
ATOM     21  C   UNL     1      19.189  18.519  10.743  1.00  0.00     0.202 C 
BRANCH  17  22
ATOM     22  C   UNL     1      20.782  22.211   9.366  1.00  0.00     0.191 C 
BRANCH  22  23
ATOM     23  O   UNL     1      20.426  23.457   9.852  1.00  0.00    -0.394 OA
ATOM     24  H   UNL     1      20.963  24.117   9.317  1.00  0.00     0.210 HD
ENDBRANCH  22  23
ENDBRANCH  17  22
BRANCH  19  25
ATOM     25  O   UNL     1      20.718  18.276   8.964  1.00  0.00    -0.350 OA
BRANCH  25  26
ATOM     26  C   UNL     1      20.888  16.978   9.299  1.00  0.00     0.169 C 
BRANCH  26  27
ATOM     27  C   UNL     1      22.291  16.609   9.661  1.00  0.00     0.119 C 
BRANCH  27  28
ATOM     28  N   UNL     1      23.018  17.595  10.403  1.00  0.00    -0.092 NA
ATOM     29  N   UNL     1      24.081  18.065  10.047  1.00  0.00     0.001 N 
ATOM     30  N   UNL     1      25.303  18.281   9.887  1.00  0.00    -0.003 NA
ENDBRANCH  27  28
ENDBRANCH  26  27
ENDBRANCH  25  26
ENDBRANCH  19  25
BRANCH  20  31
ATOM     31  O   UNL     1      19.818  19.054  12.977  1.00  0.00    -0.387 OA
ATOM     32  H   UNL     1      20.130  18.113  12.944  1.00  0.00     0.211 HD
ENDBRANCH  20  31
BRANCH  21  33
ATOM     33  O   UNL     1      17.825  18.197  10.863  1.00  0.00    -0.385 OA
ATOM     34  H   UNL     1      17.258  19.010  10.858  1.00  0.00     0.211 HD
ENDBRANCH  21  33
ENDBRANCH  15  16
ENDBRANCH  10  15
BRANCH  12  35
ATOM     35  O   UNL     1      22.291  23.888  12.127  1.00  0.00    -0.385 OA
ATOM     36  H   UNL     1      21.376  23.936  12.542  1.00  0.00     0.211 HD
ENDBRANCH  12  35
BRANCH  13  37
ATOM     37  O   UNL     1      25.241  23.537  12.914  1.00  0.00    -0.387 OA
ATOM     38  H   UNL     1      26.054  23.814  12.394  1.00  0.00     0.211 HD
ENDBRANCH  13  37
BRANCH  14  39
ATOM     39  O   UNL     1      26.342  21.469  11.912  1.00  0.00    -0.387 OA
ATOM     40  H   UNL     1      26.780  20.674  11.574  1.00  0.00     0.211 HD
ENDBRANCH  14  39
ENDBRANCH   8   9
ENDBRANCH   7   8
ENDBRANCH   1   7
BRANCH   1  41
ATOM     41  C   UNL     1      28.244  20.998  13.970  1.00  0.00     0.364 C 
ATOM     42  O   UNL     1      28.915  20.266  13.169  1.00  0.00    -0.246 OA
BRANCH  41  43
ATOM     43  O   UNL     1      28.480  22.336  13.891  1.00  0.00    -0.477 OA
ATOM     44  H   UNL     1      29.412  22.749  13.926  1.00  0.00     0.296 HD
ENDBRANCH  41  43
ENDBRANCH   1  41
BRANCH   3  45
ATOM     45  O   UNL     1      29.328  18.496  17.396  1.00  0.00    -0.391 OA
ATOM     46  H   UNL     1      29.056  18.548  18.362  1.00  0.00     0.211 HD
ENDBRANCH   3  45
BRANCH   5  47
ATOM     47  C   UNL     1      27.200  22.856  17.495  1.00  0.00     0.176 C 
BRANCH  47  48
ATOM     48  O   UNL     1      28.314  23.763  17.363  1.00  0.00    -0.388 OA
ATOM     49  H   UNL     1      28.918  23.460  16.656  1.00  0.00     0.211 HD
ENDBRANCH  47  48
BRANCH  47  50
ATOM     50  C   UNL     1      26.032  23.610  16.909  1.00  0.00     0.165 C 
BRANCH  50  51
ATOM     51  O   UNL     1      26.474  24.037  15.626  1.00  0.00    -0.388 OA
ATOM     52  H   UNL     1      26.302  23.372  14.937  1.00  0.00     0.211 HD
ENDBRANCH  50  51
BRANCH  50  53
ATOM     53  C   UNL     1      25.576  24.795  17.674  1.00  0.00     0.154 C 
BRANCH  53  54
ATOM     54  N   UNL     1      24.577  24.604  18.665  1.00  0.00    -0.319 N 
ATOM     55  C   UNL     1      23.176  24.566  18.476  1.00  0.00     0.407 C 
ATOM     56  H   UNL     1      24.884  24.469  19.682  1.00  0.00     0.167 HD
ATOM     57  O   UNL     1      22.673  24.689  17.355  1.00  0.00    -0.225 OA
BRANCH  55  58
ATOM     58  O   UNL     1      22.332  24.383  19.569  1.00  0.00    -0.443 OA
BRANCH  58  59
ATOM     59  C   UNL     1      22.173  25.268  20.635  1.00  0.00     0.294 C 
BRANCH  59  60
ATOM     60  C   UNL     1      22.948  24.935  21.839  1.00  0.00     0.121 A 
ATOM     61  C   UNL     1      22.626  25.263  23.137  1.00  0.00     0.144 A 
ATOM     62  N   UNL     1      24.116  24.260  21.875  1.00  0.00    -0.131 NA
ATOM     63  N   UNL     1      23.612  24.771  23.890  1.00  0.00    -0.220 N 
ATOM     64  N   UNL     1      24.496  24.171  23.113  1.00  0.00    -0.062 NA
BRANCH  63  65
ATOM     65  C   UNL     1      23.685  24.886  25.311  1.00  0.00     0.067 A 
ATOM     66  C   UNL     1      22.630  24.507  26.109  1.00  0.00     0.030 A 
ATOM     67  C   UNL     1      24.819  25.386  25.909  1.00  0.00     0.040 A 
ATOM     68  C   UNL     1      22.701  24.622  27.476  1.00  0.00     0.030 A 
ATOM     69  C   UNL     1      24.875  25.495  27.297  1.00  0.00     0.022 A 
ATOM     70  C   UNL     1      23.822  25.118  28.112  1.00  0.00     0.065 A 
ATOM     71  C   UNL     1      25.881  25.954  28.115  1.00  0.00     0.143 A 
ATOM     72  N   UNL     1      24.189  25.346  29.385  1.00  0.00    -0.278 N 
ATOM     73  N   UNL     1      25.406  25.838  29.366  1.00  0.00    -0.183 NA
ATOM     74  H   UNL     1      23.585  25.153  30.221  1.00  0.00     0.190 HD
ENDBRANCH  63  65
ENDBRANCH  59  60
ENDBRANCH  58  59
ENDBRANCH  55  58
ENDBRANCH  53  54
ENDBRANCH  50  53
ENDBRANCH  47  50
ENDBRANCH   5  47
BRANCH   4  75
ATOM     75  N   UNL     1      29.264  21.160  18.432  1.00  0.00    -0.348 N 
ATOM     76  C   UNL     1      29.132  21.189  19.822  1.00  0.00     0.217 C 
ATOM     77  H   UNL     1      30.124  21.539  18.002  1.00  0.00     0.163 HD
ATOM     78  C   UNL     1      30.194  21.754  20.718  1.00  0.00     0.114 C 
ATOM     79  O   UNL     1      28.077  20.718  20.361  1.00  0.00    -0.275 OA
ENDBRANCH   4  75
TORSDOF 30
