REMARK VINA RESULT:    -6.069      2.718      7.575
REMARK INTER + INTRA:         -21.566
REMARK INTER:                 -14.663
REMARK INTRA:                  -6.903
REMARK UNBOUND:                -6.272
REMARK SMILES CC(=O)N[C@@H]1[C@@H](O)C[C@](OC[C@H]2O[C@@H](O[C@H]3[C@H](O)[C@@H](O)[C@H](OCCN=[N+]=[N-])O[C@@H]3CO)[C@H](O)[C@@H](O)[C@H]2O)(C(=O)O)O[C@H]1C(O)[C@H](O)CNC(=O)OCc1cn(Cc2cccc(Br)c2)nn1
REMARK SMILES IDX 9 1 8 2 6 3 5 4 42 5 41 6 10 7 11 8 12 9 14 10 13 11 32 12
REMARK SMILES IDX 34 13 36 14 15 15 16 16 29 17 28 18 21 19 17 20 19 21 30 22
REMARK SMILES IDX 31 23 22 25 23 26 24 27 25 28 26 29 27 30 18 31 20 33 33 35
REMARK SMILES IDX 35 37 37 39 38 41 39 42 40 43 7 45 43 47 44 48 45 50 46 51
REMARK SMILES IDX 47 53 48 54 49 55 50 57 51 58 52 59 53 60 54 61 65 62 55 63
REMARK SMILES IDX 64 64 56 65 57 66 58 67 63 68 59 69 61 70 60 71 62 72 4 73
REMARK SMILES IDX 2 74 1 76 3 77
REMARK H PARENT 31 24 18 32 20 34 33 36 35 38 37 40 40 44 7 46 44 49 46 52
REMARK H PARENT 48 56 4 75
REMARK Flexibility Score: inf
ROOT
ATOM      1  C   UNL     1      13.843  30.896  21.583  1.00  0.00     0.272 C 
ATOM      2  C   UNL     1      13.127  31.934  22.361  1.00  0.00     0.113 C 
ATOM      3  C   UNL     1      13.981  32.721  23.303  1.00  0.00     0.145 C 
ATOM      4  C   UNL     1      15.121  31.913  23.881  1.00  0.00     0.142 C 
ATOM      5  C   UNL     1      15.614  30.842  23.014  1.00  0.00     0.178 C 
ATOM      6  O   UNL     1      15.203  30.852  21.718  1.00  0.00    -0.332 OA
ENDROOT
BRANCH   1   7
ATOM      7  O   UNL     1      13.510  31.048  20.200  1.00  0.00    -0.338 OA
BRANCH   7   8
ATOM      8  C   UNL     1      14.512  31.631  19.479  1.00  0.00     0.199 C 
BRANCH   8   9
ATOM      9  C   UNL     1      14.227  31.515  17.967  1.00  0.00     0.179 C 
ATOM     10  C   UNL     1      15.390  30.804  16.062  1.00  0.00     0.282 C 
ATOM     11  O   UNL     1      15.433  31.323  17.377  1.00  0.00    -0.341 OA
ATOM     12  C   UNL     1      14.037  30.877  15.475  1.00  0.00     0.202 C 
ATOM     13  C   UNL     1      12.977  30.215  16.337  1.00  0.00     0.179 C 
ATOM     14  C   UNL     1      13.376  30.274  17.801  1.00  0.00     0.177 C 
BRANCH  10  15
ATOM     15  O   UNL     1      15.974  29.566  16.176  1.00  0.00    -0.341 OA
BRANCH  15  16
ATOM     16  C   UNL     1      17.244  29.518  16.627  1.00  0.00     0.184 C 
ATOM     17  C   UNL     1      18.146  29.043  15.517  1.00  0.00     0.178 C 
ATOM     18  O   UNL     1      19.469  29.163  15.934  1.00  0.00    -0.341 OA
ATOM     19  C   UNL     1      19.793  28.318  16.997  1.00  0.00     0.281 C 
ATOM     20  C   UNL     1      17.467  28.505  17.745  1.00  0.00     0.180 C 
ATOM     21  C   UNL     1      18.928  28.722  18.167  1.00  0.00     0.202 C 
BRANCH  17  22
ATOM     22  C   UNL     1      17.962  29.917  14.322  1.00  0.00     0.191 C 
BRANCH  22  23
ATOM     23  O   UNL     1      18.606  31.129  14.490  1.00  0.00    -0.394 OA
ATOM     24  H   UNL     1      19.520  30.941  14.825  1.00  0.00     0.210 HD
ENDBRANCH  22  23
ENDBRANCH  17  22
BRANCH  19  25
ATOM     25  O   UNL     1      21.140  28.495  17.232  1.00  0.00    -0.350 OA
BRANCH  25  26
ATOM     26  C   UNL     1      21.563  29.795  17.272  1.00  0.00     0.169 C 
BRANCH  26  27
ATOM     27  C   UNL     1      21.846  30.318  18.662  1.00  0.00     0.119 C 
BRANCH  27  28
ATOM     28  N   UNL     1      22.633  29.314  19.343  1.00  0.00    -0.092 NA
ATOM     29  N   UNL     1      22.236  28.654  20.292  1.00  0.00     0.001 N 
ATOM     30  N   UNL     1      21.699  27.951  21.145  1.00  0.00    -0.003 NA
ENDBRANCH  27  28
ENDBRANCH  26  27
ENDBRANCH  25  26
ENDBRANCH  19  25
BRANCH  20  31
ATOM     31  O   UNL     1      16.686  28.710  18.846  1.00  0.00    -0.387 OA
ATOM     32  H   UNL     1      16.009  29.418  18.756  1.00  0.00     0.211 HD
ENDBRANCH  20  31
BRANCH  21  33
ATOM     33  O   UNL     1      19.131  27.985  19.304  1.00  0.00    -0.385 OA
ATOM     34  H   UNL     1      19.174  28.557  20.136  1.00  0.00     0.211 HD
ENDBRANCH  21  33
ENDBRANCH  15  16
ENDBRANCH  10  15
BRANCH  12  35
ATOM     35  O   UNL     1      13.703  32.250  15.354  1.00  0.00    -0.385 OA
ATOM     36  H   UNL     1      12.874  32.337  14.816  1.00  0.00     0.211 HD
ENDBRANCH  12  35
BRANCH  13  37
ATOM     37  O   UNL     1      12.674  28.925  15.913  1.00  0.00    -0.387 OA
ATOM     38  H   UNL     1      13.367  28.645  15.231  1.00  0.00     0.211 HD
ENDBRANCH  13  37
BRANCH  14  39
ATOM     39  O   UNL     1      14.106  29.187  18.221  1.00  0.00    -0.387 OA
ATOM     40  H   UNL     1      14.374  28.618  17.436  1.00  0.00     0.211 HD
ENDBRANCH  14  39
ENDBRANCH   8   9
ENDBRANCH   7   8
ENDBRANCH   1   7
BRANCH   1  41
ATOM     41  C   UNL     1      13.283  29.556  21.930  1.00  0.00     0.364 C 
ATOM     42  O   UNL     1      12.375  29.477  22.830  1.00  0.00    -0.246 OA
BRANCH  41  43
ATOM     43  O   UNL     1      13.652  28.363  21.372  1.00  0.00    -0.477 OA
ATOM     44  H   UNL     1      13.166  27.515  21.692  1.00  0.00     0.296 HD
ENDBRANCH  41  43
ENDBRANCH   1  41
BRANCH   3  45
ATOM     45  O   UNL     1      14.394  33.920  22.742  1.00  0.00    -0.391 OA
ATOM     46  H   UNL     1      13.657  34.490  22.430  1.00  0.00     0.211 HD
ENDBRANCH   3  45
BRANCH   5  47
ATOM     47  C   UNL     1      17.144  30.703  23.055  1.00  0.00     0.176 C 
BRANCH  47  48
ATOM     48  O   UNL     1      17.387  29.498  23.829  1.00  0.00    -0.388 OA
ATOM     49  H   UNL     1      17.517  28.773  23.167  1.00  0.00     0.211 HD
ENDBRANCH  47  48
BRANCH  47  50
ATOM     50  C   UNL     1      17.792  30.487  21.737  1.00  0.00     0.165 C 
BRANCH  50  51
ATOM     51  O   UNL     1      17.515  29.104  21.423  1.00  0.00    -0.388 OA
ATOM     52  H   UNL     1      16.520  28.977  21.497  1.00  0.00     0.211 HD
ENDBRANCH  50  51
BRANCH  50  53
ATOM     53  C   UNL     1      19.280  30.566  21.668  1.00  0.00     0.154 C 
BRANCH  53  54
ATOM     54  N   UNL     1      19.955  29.984  22.818  1.00  0.00    -0.319 N 
ATOM     55  C   UNL     1      20.970  30.729  23.469  1.00  0.00     0.407 C 
ATOM     56  H   UNL     1      19.713  29.043  23.175  1.00  0.00     0.167 HD
ATOM     57  O   UNL     1      21.283  31.878  23.047  1.00  0.00    -0.225 OA
BRANCH  55  58
ATOM     58  O   UNL     1      21.641  30.219  24.580  1.00  0.00    -0.443 OA
BRANCH  58  59
ATOM     59  C   UNL     1      20.860  29.797  25.708  1.00  0.00     0.294 C 
BRANCH  59  60
ATOM     60  C   UNL     1      21.400  28.504  26.187  1.00  0.00     0.120 A 
ATOM     61  C   UNL     1      21.427  27.295  25.536  1.00  0.00     0.138 A 
ATOM     62  N   UNL     1      21.968  28.317  27.385  1.00  0.00    -0.132 NA
ATOM     63  N   UNL     1      22.015  26.412  26.366  1.00  0.00    -0.248 N 
ATOM     64  N   UNL     1      22.332  27.054  27.481  1.00  0.00    -0.067 NA
BRANCH  63  65
ATOM     65  C   UNL     1      22.245  25.003  26.062  1.00  0.00     0.181 C 
BRANCH  65  66
ATOM     66  C   UNL     1      22.324  24.774  24.596  1.00  0.00    -0.025 A 
ATOM     67  C   UNL     1      21.177  24.688  23.835  1.00  0.00     0.006 A 
ATOM     68  C   UNL     1      23.516  24.633  23.928  1.00  0.00     0.021 A 
ATOM     69  C   UNL     1      21.182  24.474  22.475  1.00  0.00     0.002 A 
ATOM     70  C   UNL     1      23.558  24.418  22.570  1.00  0.00     0.018 A 
ATOM     71  C   UNL     1      22.414  24.334  21.820  1.00  0.00     0.016 A 
ATOM     72  Br  UNL     1      25.217  24.222  21.635  1.00  0.00    -0.051 Br
ENDBRANCH  65  66
ENDBRANCH  63  65
ENDBRANCH  59  60
ENDBRANCH  58  59
ENDBRANCH  55  58
ENDBRANCH  53  54
ENDBRANCH  50  53
ENDBRANCH  47  50
ENDBRANCH   5  47
BRANCH   4  73
ATOM     73  N   UNL     1      14.708  31.366  25.199  1.00  0.00    -0.348 N 
ATOM     74  C   UNL     1      15.511  31.574  26.347  1.00  0.00     0.217 C 
ATOM     75  H   UNL     1      13.817  30.816  25.302  1.00  0.00     0.163 HD
ATOM     76  C   UNL     1      15.114  31.028  27.693  1.00  0.00     0.114 C 
ATOM     77  O   UNL     1      16.578  32.232  26.226  1.00  0.00    -0.275 OA
ENDBRANCH   4  73
TORSDOF 31
