REMARK VINA RESULT:    -5.581     15.343     19.190
REMARK INTER + INTRA:         -22.836
REMARK INTER:                 -14.223
REMARK INTRA:                  -8.612
REMARK UNBOUND:                -7.304
REMARK SMILES CC(=O)N[C@@H]1[C@@H](O)C[C@](OC[C@H]2O[C@@H](O[C@H]3[C@H](O)[C@@H](O)[C@H](OCCN=[N+]=[N-])O[C@@H]3CO)[C@H](O)[C@@H](O)[C@H]2O)(C(=O)O)O[C@H]1C(O)[C@H](O)CNC(=O)OCc1cn(CCCCCC(=O)O)nn1
REMARK SMILES IDX 47 1 45 2 43 3 42 4 9 5 8 6 41 7 6 8 5 9 10 10 11 11 12 12
REMARK SMILES IDX 14 13 13 14 32 15 34 16 36 17 15 18 16 19 29 20 28 21 21 22
REMARK SMILES IDX 17 23 19 24 30 25 31 26 22 28 23 29 24 30 25 31 26 32 27 33
REMARK SMILES IDX 18 34 20 36 33 38 35 40 37 42 38 44 39 45 40 46 7 48 4 50
REMARK SMILES IDX 2 51 1 53 3 54 44 55 46 57 48 59 49 60 50 62 51 63 52 64
REMARK SMILES IDX 53 65 54 66 65 67 55 68 64 69 56 70 57 71 58 72 59 73 60 74
REMARK SMILES IDX 61 75 62 76 63 77
REMARK H PARENT 31 27 18 35 20 37 33 39 35 41 37 43 40 47 7 49 4 52 44 56
REMARK H PARENT 46 58 48 61 63 78
REMARK Flexibility Score: inf
ROOT
ATOM      1  C   UNL     1       0.371  21.030  29.986  1.00  0.00     0.154 C 
ENDROOT
BRANCH   1   2
ATOM      2  C   UNL     1       1.583  20.163  29.743  1.00  0.00     0.165 C 
BRANCH   2   3
ATOM      3  C   UNL     1       2.095  19.750  31.084  1.00  0.00     0.176 C 
BRANCH   3   4
ATOM      4  C   UNL     1       2.422  20.853  32.030  1.00  0.00     0.178 C 
ATOM      5  C   UNL     1       3.313  22.911  32.249  1.00  0.00     0.272 C 
ATOM      6  C   UNL     1       2.535  22.908  33.525  1.00  0.00     0.113 C 
ATOM      7  O   UNL     1       3.466  21.674  31.637  1.00  0.00    -0.332 OA
ATOM      8  C   UNL     1       2.479  21.644  34.295  1.00  0.00     0.145 C 
ATOM      9  C   UNL     1       2.770  20.408  33.434  1.00  0.00     0.142 C 
BRANCH   5  10
ATOM     10  O   UNL     1       4.528  23.585  32.360  1.00  0.00    -0.338 OA
BRANCH  10  11
ATOM     11  C   UNL     1       5.639  22.836  32.580  1.00  0.00     0.199 C 
BRANCH  11  12
ATOM     12  C   UNL     1       6.390  23.495  33.722  1.00  0.00     0.179 C 
ATOM     13  C   UNL     1       8.349  23.947  34.702  1.00  0.00     0.282 C 
ATOM     14  O   UNL     1       7.715  23.781  33.434  1.00  0.00    -0.341 OA
ATOM     15  C   UNL     1       7.521  24.585  35.724  1.00  0.00     0.202 C 
ATOM     16  C   UNL     1       6.321  25.359  35.256  1.00  0.00     0.179 C 
ATOM     17  C   UNL     1       5.736  24.843  33.969  1.00  0.00     0.177 C 
BRANCH  13  18
ATOM     18  O   UNL     1       9.650  24.405  34.514  1.00  0.00    -0.341 OA
BRANCH  18  19
ATOM     19  C   UNL     1      10.295  24.810  35.622  1.00  0.00     0.184 C 
ATOM     20  C   UNL     1      10.956  26.146  35.468  1.00  0.00     0.178 C 
ATOM     21  O   UNL     1      11.218  26.585  36.783  1.00  0.00    -0.341 OA
ATOM     22  C   UNL     1      12.184  25.836  37.364  1.00  0.00     0.281 C 
ATOM     23  C   UNL     1      11.512  23.867  35.915  1.00  0.00     0.180 C 
ATOM     24  C   UNL     1      12.615  24.670  36.558  1.00  0.00     0.202 C 
BRANCH  20  25
ATOM     25  C   UNL     1      10.083  27.190  34.823  1.00  0.00     0.191 C 
BRANCH  25  26
ATOM     26  O   UNL     1       9.872  26.903  33.491  1.00  0.00    -0.394 OA
ATOM     27  H   UNL     1      10.351  27.591  32.957  1.00  0.00     0.210 HD
ENDBRANCH  25  26
ENDBRANCH  20  25
BRANCH  22  28
ATOM     28  O   UNL     1      11.878  25.447  38.674  1.00  0.00    -0.350 OA
BRANCH  28  29
ATOM     29  C   UNL     1      12.876  24.708  39.256  1.00  0.00     0.169 C 
BRANCH  29  30
ATOM     30  C   UNL     1      12.377  24.118  40.568  1.00  0.00     0.119 C 
BRANCH  30  31
ATOM     31  N   UNL     1      10.939  23.905  40.524  1.00  0.00    -0.092 NA
ATOM     32  N   UNL     1      10.494  22.794  40.181  1.00  0.00     0.001 N 
ATOM     33  N   UNL     1       9.992  21.939  39.449  1.00  0.00    -0.003 NA
ENDBRANCH  30  31
ENDBRANCH  29  30
ENDBRANCH  28  29
ENDBRANCH  22  28
BRANCH  23  34
ATOM     34  O   UNL     1      11.106  22.899  36.833  1.00  0.00    -0.387 OA
ATOM     35  H   UNL     1      11.919  22.461  37.219  1.00  0.00     0.211 HD
ENDBRANCH  23  34
BRANCH  24  36
ATOM     36  O   UNL     1      13.672  24.939  35.680  1.00  0.00    -0.385 OA
ATOM     37  H   UNL     1      13.356  25.203  34.780  1.00  0.00     0.211 HD
ENDBRANCH  24  36
ENDBRANCH  18  19
ENDBRANCH  13  18
BRANCH  15  38
ATOM     38  O   UNL     1       7.009  23.636  36.656  1.00  0.00    -0.385 OA
ATOM     39  H   UNL     1       7.336  23.832  37.553  1.00  0.00     0.211 HD
ENDBRANCH  15  38
BRANCH  16  40
ATOM     40  O   UNL     1       6.601  26.722  35.059  1.00  0.00    -0.387 OA
ATOM     41  H   UNL     1       5.824  27.294  35.194  1.00  0.00     0.211 HD
ENDBRANCH  16  40
BRANCH  17  42
ATOM     42  O   UNL     1       6.158  25.678  32.903  1.00  0.00    -0.387 OA
ATOM     43  H   UNL     1       6.908  26.229  33.291  1.00  0.00     0.211 HD
ENDBRANCH  17  42
ENDBRANCH  11  12
ENDBRANCH  10  11
ENDBRANCH   5  10
BRANCH   5  44
ATOM     44  C   UNL     1       2.523  23.719  31.278  1.00  0.00     0.364 C 
ATOM     45  O   UNL     1       1.523  24.370  31.652  1.00  0.00    -0.246 OA
BRANCH  44  46
ATOM     46  O   UNL     1       2.887  23.757  29.955  1.00  0.00    -0.477 OA
ATOM     47  H   UNL     1       2.504  24.443  29.282  1.00  0.00     0.296 HD
ENDBRANCH  44  46
ENDBRANCH   5  44
BRANCH   8  48
ATOM     48  O   UNL     1       3.204  21.634  35.483  1.00  0.00    -0.391 OA
ATOM     49  H   UNL     1       3.720  22.470  35.527  1.00  0.00     0.211 HD
ENDBRANCH   8  48
BRANCH   9  50
ATOM     50  N   UNL     1       2.062  19.265  33.895  1.00  0.00    -0.348 N 
ATOM     51  C   UNL     1       2.646  18.426  34.874  1.00  0.00     0.217 C 
ATOM     52  H   UNL     1       1.127  19.035  33.532  1.00  0.00     0.163 HD
ATOM     53  C   UNL     1       1.926  17.227  35.377  1.00  0.00     0.114 C 
ATOM     54  O   UNL     1       3.792  18.655  35.360  1.00  0.00    -0.275 OA
ENDBRANCH   9  50
ENDBRANCH   3   4
BRANCH   3  55
ATOM     55  O   UNL     1       3.225  18.910  30.961  1.00  0.00    -0.388 OA
ATOM     56  H   UNL     1       4.046  19.428  31.122  1.00  0.00     0.211 HD
ENDBRANCH   3  55
ENDBRANCH   2   3
BRANCH   2  57
ATOM     57  O   UNL     1       2.528  20.926  29.068  1.00  0.00    -0.388 OA
ATOM     58  H   UNL     1       2.749  20.441  28.234  1.00  0.00     0.211 HD
ENDBRANCH   2  57
ENDBRANCH   1   2
BRANCH   1  59
ATOM     59  N   UNL     1       0.444  22.325  29.388  1.00  0.00    -0.319 N 
ATOM     60  C   UNL     1      -0.513  22.660  28.378  1.00  0.00     0.407 C 
ATOM     61  H   UNL     1       1.153  23.027  29.650  1.00  0.00     0.167 HD
ATOM     62  O   UNL     1      -1.392  21.831  28.033  1.00  0.00    -0.225 OA
BRANCH  60  63
ATOM     63  O   UNL     1      -0.511  23.883  27.749  1.00  0.00    -0.443 OA
BRANCH  63  64
ATOM     64  C   UNL     1       0.098  24.147  26.535  1.00  0.00     0.294 C 
BRANCH  64  65
ATOM     65  C   UNL     1       1.560  24.280  26.540  1.00  0.00     0.120 A 
ATOM     66  C   UNL     1       2.310  25.288  25.992  1.00  0.00     0.138 A 
ATOM     67  N   UNL     1       2.425  23.398  27.088  1.00  0.00    -0.132 NA
ATOM     68  N   UNL     1       3.594  25.002  26.214  1.00  0.00    -0.252 N 
ATOM     69  N   UNL     1       3.627  23.862  26.875  1.00  0.00    -0.067 NA
BRANCH  68  70
ATOM     70  C   UNL     1       4.732  25.814  25.806  1.00  0.00     0.146 C 
BRANCH  70  71
ATOM     71  C   UNL     1       4.262  27.263  25.693  1.00  0.00     0.024 C 
BRANCH  71  72
ATOM     72  C   UNL     1       5.084  28.174  26.556  1.00  0.00     0.002 C 
BRANCH  72  73
ATOM     73  C   UNL     1       4.343  28.479  27.826  1.00  0.00     0.012 C 
BRANCH  73  74
ATOM     74  C   UNL     1       5.050  28.007  29.053  1.00  0.00     0.122 C 
BRANCH  74  75
ATOM     75  C   UNL     1       4.421  26.746  29.536  1.00  0.00     0.303 C 
ATOM     76  O   UNL     1       3.232  26.489  29.242  1.00  0.00    -0.252 OA
BRANCH  75  77
ATOM     77  O   UNL     1       5.134  25.839  30.312  1.00  0.00    -0.481 OA
ATOM     78  H   UNL     1       5.743  25.155  29.857  1.00  0.00     0.296 HD
ENDBRANCH  75  77
ENDBRANCH  74  75
ENDBRANCH  73  74
ENDBRANCH  72  73
ENDBRANCH  71  72
ENDBRANCH  70  71
ENDBRANCH  68  70
ENDBRANCH  64  65
ENDBRANCH  63  64
ENDBRANCH  60  63
ENDBRANCH   1  59
TORSDOF 36
