REMARK VINA RESULT:    -5.559      2.927      5.271
REMARK INTER + INTRA:         -21.592
REMARK INTER:                 -16.123
REMARK INTRA:                  -5.470
REMARK UNBOUND:                -7.585
REMARK SMILES COc1ccc(-n2cc(COC(=O)NC[C@@H](O)C(O)[C@@H]3O[C@@](OC[C@H]4O[C@@H](O[C@H]5[C@H](O)[C@@H](O)[C@H](OCCN=[N+]=[N-])O[C@@H]5CO)[C@H](O)[C@@H](O)[C@H]4O)(C(=O)O)C[C@H](O)[C@H]3NC(C)=O)nn2)cc1
REMARK SMILES IDX 22 1 54 2 55 3 57 4 20 5 21 6 23 7 24 8 25 9 27 10 26 11
REMARK SMILES IDX 45 12 47 13 49 14 28 15 29 16 42 17 41 18 34 19 30 20 32 21
REMARK SMILES IDX 43 22 44 23 35 25 36 26 37 27 38 28 39 29 40 30 31 31 33 33
REMARK SMILES IDX 46 35 48 37 50 39 51 41 52 42 53 43 56 45 18 47 19 48 16 50
REMARK SMILES IDX 17 51 15 53 14 54 12 55 13 57 11 58 10 59 9 60 8 61 62 62
REMARK SMILES IDX 7 63 63 64 6 65 5 66 64 67 4 68 65 69 3 70 2 71 1 72 58 73
REMARK SMILES IDX 59 74 60 76 61 77
REMARK H PARENT 44 24 31 32 33 34 46 36 48 38 50 40 53 44 56 46 19 49 17 52
REMARK H PARENT 14 56 58 75
REMARK Flexibility Score: inf
ROOT
ATOM      1  C   UNL     1      24.007  19.308  11.617  1.00  0.00     0.272 C 
ATOM      2  C   UNL     1      23.214  18.507  10.652  1.00  0.00     0.113 C 
ATOM      3  C   UNL     1      22.387  19.250   9.679  1.00  0.00     0.145 C 
ATOM      4  C   UNL     1      22.112  20.652  10.261  1.00  0.00     0.142 C 
ATOM      5  C   UNL     1      21.944  20.487  11.729  1.00  0.00     0.178 C 
ATOM      6  O   UNL     1      23.211  20.268  12.267  1.00  0.00    -0.332 OA
ENDROOT
BRANCH   1   7
ATOM      7  O   UNL     1      25.170  19.826  11.377  1.00  0.00    -0.338 OA
BRANCH   7   8
ATOM      8  C   UNL     1      26.172  20.371  11.958  1.00  0.00     0.199 C 
BRANCH   8   9
ATOM      9  C   UNL     1      26.070  21.466  12.981  1.00  0.00     0.179 C 
ATOM     10  C   UNL     1      26.884  22.380  14.911  1.00  0.00     0.282 C 
ATOM     11  O   UNL     1      27.084  21.449  13.877  1.00  0.00    -0.341 OA
ATOM     12  C   UNL     1      26.776  23.795  14.440  1.00  0.00     0.202 C 
ATOM     13  C   UNL     1      26.455  23.974  13.003  1.00  0.00     0.179 C 
ATOM     14  C   UNL     1      25.824  22.813  12.347  1.00  0.00     0.177 C 
BRANCH  10  15
ATOM     15  O   UNL     1      27.969  22.267  15.775  1.00  0.00    -0.341 OA
BRANCH  15  16
ATOM     16  C   UNL     1      27.657  21.642  16.951  1.00  0.00     0.184 C 
ATOM     17  C   UNL     1      28.024  22.444  18.146  1.00  0.00     0.178 C 
ATOM     18  O   UNL     1      27.775  21.713  19.338  1.00  0.00    -0.341 OA
ATOM     19  C   UNL     1      28.761  20.692  19.360  1.00  0.00     0.281 C 
ATOM     20  C   UNL     1      28.408  20.298  16.988  1.00  0.00     0.180 C 
ATOM     21  C   UNL     1      28.243  19.670  18.346  1.00  0.00     0.202 C 
BRANCH  17  22
ATOM     22  C   UNL     1      27.270  23.747  18.206  1.00  0.00     0.191 C 
BRANCH  22  23
ATOM     23  O   UNL     1      27.955  24.699  17.472  1.00  0.00    -0.394 OA
ATOM     24  H   UNL     1      28.373  24.332  16.662  1.00  0.00     0.210 HD
ENDBRANCH  22  23
ENDBRANCH  17  22
BRANCH  19  25
ATOM     25  O   UNL     1      28.901  20.163  20.595  1.00  0.00    -0.350 OA
BRANCH  25  26
ATOM     26  C   UNL     1      29.929  20.560  21.392  1.00  0.00     0.169 C 
BRANCH  26  27
ATOM     27  C   UNL     1      29.720  20.503  22.867  1.00  0.00     0.119 C 
BRANCH  27  28
ATOM     28  N   UNL     1      30.900  20.336  23.660  1.00  0.00    -0.092 NA
ATOM     29  N   UNL     1      30.917  20.634  24.850  1.00  0.00     0.001 N 
ATOM     30  N   UNL     1      30.829  21.083  25.997  1.00  0.00    -0.003 NA
ENDBRANCH  27  28
ENDBRANCH  26  27
ENDBRANCH  25  26
ENDBRANCH  19  25
BRANCH  20  31
ATOM     31  O   UNL     1      27.922  19.491  15.976  1.00  0.00    -0.387 OA
ATOM     32  H   UNL     1      28.656  18.842  15.742  1.00  0.00     0.211 HD
ENDBRANCH  20  31
BRANCH  21  33
ATOM     33  O   UNL     1      29.019  18.537  18.450  1.00  0.00    -0.385 OA
ATOM     34  H   UNL     1      29.698  18.628  19.165  1.00  0.00     0.211 HD
ENDBRANCH  21  33
ENDBRANCH  15  16
ENDBRANCH  10  15
BRANCH  12  35
ATOM     35  O   UNL     1      25.803  24.506  15.163  1.00  0.00    -0.385 OA
ATOM     36  H   UNL     1      25.958  25.476  15.116  1.00  0.00     0.211 HD
ENDBRANCH  12  35
BRANCH  13  37
ATOM     37  O   UNL     1      27.572  24.466  12.318  1.00  0.00    -0.387 OA
ATOM     38  H   UNL     1      28.292  23.808  12.228  1.00  0.00     0.211 HD
ENDBRANCH  13  37
BRANCH  14  39
ATOM     39  O   UNL     1      26.173  22.817  10.993  1.00  0.00    -0.387 OA
ATOM     40  H   UNL     1      27.083  22.431  10.931  1.00  0.00     0.211 HD
ENDBRANCH  14  39
ENDBRANCH   8   9
ENDBRANCH   7   8
ENDBRANCH   1   7
BRANCH   1  41
ATOM     41  C   UNL     1      24.225  18.298  12.789  1.00  0.00     0.364 C 
ATOM     42  O   UNL     1      24.711  17.186  12.571  1.00  0.00    -0.246 OA
BRANCH  41  43
ATOM     43  O   UNL     1      23.848  18.728  14.036  1.00  0.00    -0.477 OA
ATOM     44  H   UNL     1      24.408  19.411  14.566  1.00  0.00     0.296 HD
ENDBRANCH  41  43
ENDBRANCH   1  41
BRANCH   3  45
ATOM     45  O   UNL     1      22.838  19.301   8.392  1.00  0.00    -0.391 OA
ATOM     46  H   UNL     1      23.813  19.347   8.276  1.00  0.00     0.211 HD
ENDBRANCH   3  45
BRANCH   5  47
ATOM     47  C   UNL     1      21.434  21.766  12.435  1.00  0.00     0.176 C 
BRANCH  47  48
ATOM     48  O   UNL     1      20.120  21.647  12.768  1.00  0.00    -0.388 OA
ATOM     49  H   UNL     1      19.561  21.827  11.977  1.00  0.00     0.211 HD
ENDBRANCH  47  48
BRANCH  47  50
ATOM     50  C   UNL     1      22.413  22.336  13.328  1.00  0.00     0.165 C 
BRANCH  50  51
ATOM     51  O   UNL     1      22.658  21.615  14.529  1.00  0.00    -0.388 OA
ATOM     52  H   UNL     1      21.836  21.693  15.053  1.00  0.00     0.211 HD
ENDBRANCH  50  51
BRANCH  50  53
ATOM     53  C   UNL     1      22.451  23.749  13.736  1.00  0.00     0.154 C 
BRANCH  53  54
ATOM     54  N   UNL     1      22.208  24.086  15.065  1.00  0.00    -0.319 N 
ATOM     55  C   UNL     1      22.610  25.257  15.724  1.00  0.00     0.407 C 
ATOM     56  H   UNL     1      21.654  23.384  15.666  1.00  0.00     0.167 HD
ATOM     57  O   UNL     1      23.237  26.158  15.143  1.00  0.00    -0.225 OA
BRANCH  55  58
ATOM     58  O   UNL     1      22.293  25.421  17.092  1.00  0.00    -0.443 OA
BRANCH  58  59
ATOM     59  C   UNL     1      23.344  25.760  17.961  1.00  0.00     0.294 C 
BRANCH  59  60
ATOM     60  C   UNL     1      23.099  25.172  19.299  1.00  0.00     0.121 A 
ATOM     61  C   UNL     1      23.544  25.581  20.542  1.00  0.00     0.144 A 
ATOM     62  N   UNL     1      22.335  24.083  19.516  1.00  0.00    -0.131 NA
ATOM     63  N   UNL     1      23.040  24.736  21.448  1.00  0.00    -0.220 N 
ATOM     64  N   UNL     1      22.306  23.829  20.796  1.00  0.00    -0.062 NA
BRANCH  63  65
ATOM     65  C   UNL     1      23.162  24.683  22.862  1.00  0.00     0.067 A 
ATOM     66  C   UNL     1      22.100  24.650  23.724  1.00  0.00     0.032 A 
ATOM     67  C   UNL     1      24.438  24.675  23.423  1.00  0.00     0.032 A 
ATOM     68  C   UNL     1      22.290  24.610  25.098  1.00  0.00     0.048 A 
ATOM     69  C   UNL     1      24.627  24.636  24.791  1.00  0.00     0.048 A 
ATOM     70  C   UNL     1      23.555  24.602  25.657  1.00  0.00     0.119 A 
BRANCH  70  71
ATOM     71  O   UNL     1      23.734  24.563  27.054  1.00  0.00    -0.497 OA
ATOM     72  C   UNL     1      22.643  25.030  27.860  1.00  0.00     0.278 C 
ENDBRANCH  70  71
ENDBRANCH  63  65
ENDBRANCH  59  60
ENDBRANCH  58  59
ENDBRANCH  55  58
ENDBRANCH  53  54
ENDBRANCH  50  53
ENDBRANCH  47  50
ENDBRANCH   5  47
BRANCH   4  73
ATOM     73  N   UNL     1      21.035  21.250   9.522  1.00  0.00    -0.348 N 
ATOM     74  C   UNL     1      21.223  22.449   8.787  1.00  0.00     0.217 C 
ATOM     75  H   UNL     1      20.112  20.782   9.500  1.00  0.00     0.163 HD
ATOM     76  C   UNL     1      20.091  23.048   8.032  1.00  0.00     0.114 C 
ATOM     77  O   UNL     1      22.327  23.051   8.739  1.00  0.00    -0.275 OA
ENDBRANCH   4  73
TORSDOF 31
