REMARK VINA RESULT:    -6.364      6.174     13.892
REMARK INTER + INTRA:         -21.869
REMARK INTER:                 -17.508
REMARK INTRA:                  -4.361
REMARK UNBOUND:                -5.460
REMARK SMILES CC(=O)N[C@@H]1[C@@H](O)C[C@](OC[C@H]2O[C@@H](O[C@H]3[C@H](O)[C@@H](O)[C@H](OCCN=[N+]=[N-])O[C@@H]3CO)[C@H](O)[C@@H](O)[C@H]2O)(C(=O)O)O[C@H]1C(O)[C@H](O)CNC(=O)OCc1cn(C(c2ccccc2)c2ccccc2)nn1
REMARK SMILES IDX 9 1 8 2 6 3 5 4 42 5 41 6 10 7 11 8 12 9 14 10 13 11 32 12
REMARK SMILES IDX 34 13 36 14 15 15 16 16 29 17 28 18 21 19 17 20 19 21 30 22
REMARK SMILES IDX 31 23 22 25 23 26 24 27 25 28 26 29 27 30 18 31 20 33 33 35
REMARK SMILES IDX 35 37 37 39 38 41 39 42 40 43 7 45 43 47 44 48 45 50 46 51
REMARK SMILES IDX 47 53 48 54 49 55 50 57 51 58 52 59 53 60 54 61 70 62 55 63
REMARK SMILES IDX 69 64 56 65 57 66 58 67 62 68 59 69 61 70 60 71 63 72 64 73
REMARK SMILES IDX 68 74 65 75 67 76 66 77 4 78 2 79 1 81 3 82
REMARK H PARENT 31 24 18 32 20 34 33 36 35 38 37 40 40 44 7 46 44 49 46 52
REMARK H PARENT 48 56 4 80
REMARK Flexibility Score: inf
ROOT
ATOM      1  C   UNL     1      24.071  25.258  21.891  1.00  0.00     0.272 C 
ATOM      2  C   UNL     1      22.651  24.741  21.575  1.00  0.00     0.113 C 
ATOM      3  C   UNL     1      21.776  24.934  22.745  1.00  0.00     0.145 C 
ATOM      4  C   UNL     1      21.732  26.394  23.119  1.00  0.00     0.142 C 
ATOM      5  C   UNL     1      22.898  27.166  22.621  1.00  0.00     0.178 C 
ATOM      6  O   UNL     1      24.054  26.473  22.460  1.00  0.00    -0.332 OA
ENDROOT
BRANCH   1   7
ATOM      7  O   UNL     1      24.772  25.320  20.676  1.00  0.00    -0.338 OA
BRANCH   7   8
ATOM      8  C   UNL     1      25.809  26.214  20.736  1.00  0.00     0.199 C 
BRANCH   8   9
ATOM      9  C   UNL     1      26.728  26.123  19.519  1.00  0.00     0.179 C 
ATOM     10  C   UNL     1      26.935  23.931  18.602  1.00  0.00     0.282 C 
ATOM     11  O   UNL     1      27.288  24.949  19.412  1.00  0.00    -0.341 OA
ATOM     12  C   UNL     1      25.736  24.146  17.810  1.00  0.00     0.202 C 
ATOM     13  C   UNL     1      25.488  25.557  17.407  1.00  0.00     0.179 C 
ATOM     14  C   UNL     1      26.040  26.624  18.270  1.00  0.00     0.177 C 
BRANCH  10  15
ATOM     15  O   UNL     1      26.881  22.813  19.490  1.00  0.00    -0.341 OA
BRANCH  15  16
ATOM     16  C   UNL     1      28.120  22.446  19.921  1.00  0.00     0.184 C 
ATOM     17  C   UNL     1      28.448  21.041  19.558  1.00  0.00     0.178 C 
ATOM     18  O   UNL     1      29.798  20.774  19.821  1.00  0.00    -0.341 OA
ATOM     19  C   UNL     1      30.003  20.702  21.172  1.00  0.00     0.281 C 
ATOM     20  C   UNL     1      28.232  22.530  21.438  1.00  0.00     0.180 C 
ATOM     21  C   UNL     1      28.974  21.376  21.986  1.00  0.00     0.202 C 
BRANCH  17  22
ATOM     22  C   UNL     1      28.087  20.647  18.140  1.00  0.00     0.191 C 
BRANCH  22  23
ATOM     23  O   UNL     1      28.489  19.334  17.916  1.00  0.00    -0.394 OA
ATOM     24  H   UNL     1      29.448  19.182  18.051  1.00  0.00     0.210 HD
ENDBRANCH  22  23
ENDBRANCH  17  22
BRANCH  19  25
ATOM     25  O   UNL     1      31.305  21.096  21.523  1.00  0.00    -0.350 OA
BRANCH  25  26
ATOM     26  C   UNL     1      32.117  20.088  21.954  1.00  0.00     0.169 C 
BRANCH  26  27
ATOM     27  C   UNL     1      32.499  20.329  23.396  1.00  0.00     0.119 C 
BRANCH  27  28
ATOM     28  N   UNL     1      31.460  19.871  24.315  1.00  0.00    -0.092 NA
ATOM     29  N   UNL     1      31.035  20.572  25.224  1.00  0.00     0.001 N 
ATOM     30  N   UNL     1      30.924  21.205  26.282  1.00  0.00    -0.003 NA
ENDBRANCH  27  28
ENDBRANCH  26  27
ENDBRANCH  25  26
ENDBRANCH  19  25
BRANCH  20  31
ATOM     31  O   UNL     1      28.786  23.776  21.737  1.00  0.00    -0.387 OA
ATOM     32  H   UNL     1      28.102  24.499  21.702  1.00  0.00     0.211 HD
ENDBRANCH  20  31
BRANCH  21  33
ATOM     33  O   UNL     1      28.015  20.419  22.429  1.00  0.00    -0.385 OA
ATOM     34  H   UNL     1      27.226  20.957  22.720  1.00  0.00     0.211 HD
ENDBRANCH  21  33
ENDBRANCH  15  16
ENDBRANCH  10  15
BRANCH  12  35
ATOM     35  O   UNL     1      25.721  23.404  16.601  1.00  0.00    -0.385 OA
ATOM     36  H   UNL     1      25.326  22.529  16.835  1.00  0.00     0.211 HD
ENDBRANCH  12  35
BRANCH  13  37
ATOM     37  O   UNL     1      24.101  25.801  17.230  1.00  0.00    -0.387 OA
ATOM     38  H   UNL     1      23.978  26.691  16.809  1.00  0.00     0.211 HD
ENDBRANCH  13  37
BRANCH  14  39
ATOM     39  O   UNL     1      24.991  27.444  18.720  1.00  0.00    -0.387 OA
ATOM     40  H   UNL     1      25.306  28.131  19.353  1.00  0.00     0.211 HD
ENDBRANCH  14  39
ENDBRANCH   8   9
ENDBRANCH   7   8
ENDBRANCH   1   7
BRANCH   1  41
ATOM     41  C   UNL     1      24.675  24.232  22.741  1.00  0.00     0.364 C 
ATOM     42  O   UNL     1      24.960  23.106  22.289  1.00  0.00    -0.246 OA
BRANCH  41  43
ATOM     43  O   UNL     1      24.963  24.453  24.091  1.00  0.00    -0.477 OA
ATOM     44  H   UNL     1      24.259  24.315  24.801  1.00  0.00     0.296 HD
ENDBRANCH  41  43
ENDBRANCH   1  41
BRANCH   3  45
ATOM     45  O   UNL     1      20.484  24.503  22.373  1.00  0.00    -0.391 OA
ATOM     46  H   UNL     1      20.218  24.897  21.505  1.00  0.00     0.211 HD
ENDBRANCH   3  45
BRANCH   5  47
ATOM     47  C   UNL     1      22.664  28.052  21.431  1.00  0.00     0.176 C 
BRANCH  47  48
ATOM     48  O   UNL     1      22.218  29.288  21.946  1.00  0.00    -0.388 OA
ATOM     49  H   UNL     1      21.285  29.474  21.742  1.00  0.00     0.211 HD
ENDBRANCH  47  48
BRANCH  47  50
ATOM     50  C   UNL     1      21.659  27.578  20.445  1.00  0.00     0.165 C 
BRANCH  50  51
ATOM     51  O   UNL     1      22.339  26.815  19.503  1.00  0.00    -0.388 OA
ATOM     52  H   UNL     1      23.179  27.239  19.192  1.00  0.00     0.211 HD
ENDBRANCH  50  51
BRANCH  50  53
ATOM     53  C   UNL     1      20.864  28.632  19.756  1.00  0.00     0.154 C 
BRANCH  53  54
ATOM     54  N   UNL     1      19.665  29.051  20.408  1.00  0.00    -0.319 N 
ATOM     55  C   UNL     1      18.347  28.719  20.079  1.00  0.00     0.407 C 
ATOM     56  H   UNL     1      19.778  29.698  21.254  1.00  0.00     0.167 HD
ATOM     57  O   UNL     1      18.111  27.989  19.109  1.00  0.00    -0.225 OA
BRANCH  55  58
ATOM     58  O   UNL     1      17.273  29.196  20.826  1.00  0.00    -0.443 OA
BRANCH  58  59
ATOM     59  C   UNL     1      17.376  30.464  21.493  1.00  0.00     0.294 C 
BRANCH  59  60
ATOM     60  C   UNL     1      16.573  30.404  22.740  1.00  0.00     0.120 A 
ATOM     61  C   UNL     1      15.666  31.359  23.099  1.00  0.00     0.139 A 
ATOM     62  N   UNL     1      16.615  29.441  23.656  1.00  0.00    -0.132 NA
ATOM     63  N   UNL     1      15.152  30.947  24.271  1.00  0.00    -0.240 N 
ATOM     64  N   UNL     1      15.734  29.786  24.595  1.00  0.00    -0.066 NA
BRANCH  63  65
ATOM     65  C   UNL     1      14.139  31.566  25.099  1.00  0.00     0.169 C 
BRANCH  65  66
ATOM     66  C   UNL     1      14.532  31.389  26.503  1.00  0.00    -0.019 A 
ATOM     67  C   UNL     1      15.863  31.277  26.851  1.00  0.00     0.006 A 
ATOM     68  C   UNL     1      13.618  31.309  27.532  1.00  0.00     0.006 A 
ATOM     69  C   UNL     1      16.255  31.093  28.170  1.00  0.00     0.000 A 
ATOM     70  C   UNL     1      14.000  31.125  28.858  1.00  0.00     0.000 A 
ATOM     71  C   UNL     1      15.337  31.015  29.187  1.00  0.00     0.000 A 
ENDBRANCH  65  66
BRANCH  65  72
ATOM     72  C   UNL     1      12.800  31.046  24.756  1.00  0.00    -0.019 A 
ATOM     73  C   UNL     1      11.828  31.981  24.417  1.00  0.00     0.006 A 
ATOM     74  C   UNL     1      12.445  29.729  24.773  1.00  0.00     0.006 A 
ATOM     75  C   UNL     1      10.554  31.581  24.111  1.00  0.00     0.000 A 
ATOM     76  C   UNL     1      11.161  29.318  24.464  1.00  0.00     0.000 A 
ATOM     77  C   UNL     1      10.207  30.245  24.132  1.00  0.00     0.000 A 
ENDBRANCH  65  72
ENDBRANCH  63  65
ENDBRANCH  59  60
ENDBRANCH  58  59
ENDBRANCH  55  58
ENDBRANCH  53  54
ENDBRANCH  50  53
ENDBRANCH  47  50
ENDBRANCH   5  47
BRANCH   4  78
ATOM     78  N   UNL     1      21.718  26.403  24.595  1.00  0.00    -0.348 N 
ATOM     79  C   UNL     1      20.926  27.319  25.341  1.00  0.00     0.217 C 
ATOM     80  H   UNL     1      22.297  25.725  25.150  1.00  0.00     0.163 HD
ATOM     81  C   UNL     1      20.931  27.301  26.844  1.00  0.00     0.114 C 
ATOM     82  O   UNL     1      20.204  28.164  24.772  1.00  0.00    -0.275 OA
ENDBRANCH   4  78
TORSDOF 32
