REMARK VINA RESULT:    -6.180      3.878     10.368
REMARK INTER + INTRA:         -23.790
REMARK INTER:                 -14.292
REMARK INTRA:                  -9.499
REMARK UNBOUND:                -7.494
REMARK SMILES CC(=O)N[C@@H]1[C@@H](O)C[C@](OC[C@H]2O[C@@H](O[C@H]3[C@H](O)[C@@H](O)[C@H](OCCN=[N+]=[N-])O[C@@H]3CO)[C@H](O)[C@@H](O)[C@H]2O)(C(=O)O)O[C@H]1C(O)[C@H](O)CNC(=O)OCc1cn(C(C)CC(=O)c2ccccc2)nn1
REMARK SMILES IDX 43 1 42 2 9 3 8 4 41 5 6 6 5 7 10 8 11 9 12 10 14 11 13 12
REMARK SMILES IDX 32 13 34 14 36 15 15 16 16 17 29 18 28 19 21 20 17 21 19 22
REMARK SMILES IDX 30 23 31 24 22 26 23 27 24 28 25 29 26 30 27 31 18 32 20 34
REMARK SMILES IDX 33 36 35 38 37 40 38 42 39 43 40 44 7 46 4 48 2 49 1 51 3 52
REMARK SMILES IDX 44 53 45 55 46 56 47 58 48 59 49 60 50 62 51 63 52 64 53 65
REMARK SMILES IDX 54 66 68 67 55 68 67 69 56 70 57 71 58 72 59 73 60 74 61 75
REMARK SMILES IDX 62 76 66 77 63 78 65 79 64 80
REMARK H PARENT 31 25 18 33 20 35 33 37 35 39 37 41 40 45 7 47 4 50 44 54
REMARK H PARENT 46 57 48 61
REMARK Flexibility Score: inf
ROOT
ATOM      1  C   UNL     1      14.233  33.433  21.192  1.00  0.00     0.176 C 
ENDROOT
BRANCH   1   2
ATOM      2  C   UNL     1      12.818  33.792  21.308  1.00  0.00     0.178 C 
ATOM      3  C   UNL     1      11.405  32.367  22.549  1.00  0.00     0.272 C 
ATOM      4  C   UNL     1      10.210  32.657  21.705  1.00  0.00     0.113 C 
ATOM      5  O   UNL     1      12.194  33.573  22.473  1.00  0.00    -0.332 OA
ATOM      6  C   UNL     1      10.579  33.466  20.477  1.00  0.00     0.145 C 
ATOM      7  C   UNL     1      12.001  33.272  20.104  1.00  0.00     0.142 C 
BRANCH   3   8
ATOM      8  O   UNL     1      12.206  31.370  22.312  1.00  0.00    -0.338 OA
BRANCH   8   9
ATOM      9  C   UNL     1      12.403  30.159  22.695  1.00  0.00     0.199 C 
BRANCH   9  10
ATOM     10  C   UNL     1      13.705  29.474  22.959  1.00  0.00     0.179 C 
ATOM     11  C   UNL     1      15.882  29.574  22.036  1.00  0.00     0.282 C 
ATOM     12  O   UNL     1      14.552  29.752  21.962  1.00  0.00    -0.341 OA
ATOM     13  C   UNL     1      16.455  30.221  23.253  1.00  0.00     0.202 C 
ATOM     14  C   UNL     1      15.649  30.020  24.455  1.00  0.00     0.179 C 
ATOM     15  C   UNL     1      14.246  29.531  24.332  1.00  0.00     0.177 C 
BRANCH  11  16
ATOM     16  O   UNL     1      16.400  30.178  20.858  1.00  0.00    -0.341 OA
BRANCH  16  17
ATOM     17  C   UNL     1      16.977  29.213  20.069  1.00  0.00     0.184 C 
ATOM     18  C   UNL     1      17.752  29.821  18.937  1.00  0.00     0.178 C 
ATOM     19  O   UNL     1      16.928  30.497  18.051  1.00  0.00    -0.341 OA
ATOM     20  C   UNL     1      15.881  29.807  17.525  1.00  0.00     0.281 C 
ATOM     21  C   UNL     1      15.857  28.323  19.491  1.00  0.00     0.180 C 
ATOM     22  C   UNL     1      15.035  29.064  18.501  1.00  0.00     0.202 C 
BRANCH  18  23
ATOM     23  C   UNL     1      18.610  28.790  18.231  1.00  0.00     0.191 C 
BRANCH  23  24
ATOM     24  O   UNL     1      19.336  28.003  19.116  1.00  0.00    -0.394 OA
ATOM     25  H   UNL     1      18.965  27.080  19.109  1.00  0.00     0.210 HD
ENDBRANCH  23  24
ENDBRANCH  18  23
BRANCH  20  26
ATOM     26  O   UNL     1      16.189  29.021  16.443  1.00  0.00    -0.350 OA
BRANCH  26  27
ATOM     27  C   UNL     1      16.178  29.658  15.232  1.00  0.00     0.169 C 
BRANCH  27  28
ATOM     28  C   UNL     1      15.297  28.976  14.220  1.00  0.00     0.119 C 
BRANCH  28  29
ATOM     29  N   UNL     1      13.912  29.221  14.577  1.00  0.00    -0.092 NA
ATOM     30  N   UNL     1      13.044  28.432  14.212  1.00  0.00     0.001 N 
ATOM     31  N   UNL     1      12.222  27.535  14.016  1.00  0.00    -0.003 NA
ENDBRANCH  28  29
ENDBRANCH  27  28
ENDBRANCH  26  27
ENDBRANCH  20  26
BRANCH  21  32
ATOM     32  O   UNL     1      16.379  27.133  19.000  1.00  0.00    -0.387 OA
ATOM     33  H   UNL     1      16.553  26.472  19.713  1.00  0.00     0.211 HD
ENDBRANCH  21  32
BRANCH  22  34
ATOM     34  O   UNL     1      14.066  29.863  19.109  1.00  0.00    -0.385 OA
ATOM     35  H   UNL     1      13.538  29.251  19.682  1.00  0.00     0.211 HD
ENDBRANCH  22  34
ENDBRANCH  16  17
ENDBRANCH  11  16
BRANCH  13  36
ATOM     36  O   UNL     1      17.762  29.708  23.499  1.00  0.00    -0.385 OA
ATOM     37  H   UNL     1      17.780  29.527  24.476  1.00  0.00     0.211 HD
ENDBRANCH  13  36
BRANCH  14  38
ATOM     38  O   UNL     1      15.663  31.239  25.193  1.00  0.00    -0.387 OA
ATOM     39  H   UNL     1      15.062  31.910  24.793  1.00  0.00     0.211 HD
ENDBRANCH  14  38
BRANCH  15  40
ATOM     40  O   UNL     1      13.474  30.203  25.258  1.00  0.00    -0.387 OA
ATOM     41  H   UNL     1      13.513  29.923  26.176  1.00  0.00     0.211 HD
ENDBRANCH  15  40
ENDBRANCH   9  10
ENDBRANCH   8   9
ENDBRANCH   3   8
BRANCH   3  42
ATOM     42  C   UNL     1      10.940  32.398  24.004  1.00  0.00     0.364 C 
ATOM     43  O   UNL     1       9.758  32.155  24.274  1.00  0.00    -0.246 OA
BRANCH  42  44
ATOM     44  O   UNL     1      11.823  32.690  25.019  1.00  0.00    -0.477 OA
ATOM     45  H   UNL     1      12.750  32.286  24.960  1.00  0.00     0.296 HD
ENDBRANCH  42  44
ENDBRANCH   3  42
BRANCH   6  46
ATOM     46  O   UNL     1       9.698  33.229  19.429  1.00  0.00    -0.391 OA
ATOM     47  H   UNL     1      10.005  33.784  18.637  1.00  0.00     0.211 HD
ENDBRANCH   6  46
BRANCH   7  48
ATOM     48  N   UNL     1      12.353  34.127  18.974  1.00  0.00    -0.348 N 
ATOM     49  C   UNL     1      12.924  33.628  17.772  1.00  0.00     0.217 C 
ATOM     50  H   UNL     1      12.179  35.145  19.047  1.00  0.00     0.163 HD
ATOM     51  C   UNL     1      13.278  34.489  16.643  1.00  0.00     0.114 C 
ATOM     52  O   UNL     1      13.142  32.371  17.674  1.00  0.00    -0.275 OA
ENDBRANCH   7  48
ENDBRANCH   1   2
BRANCH   1  53
ATOM     53  O   UNL     1      14.479  32.272  20.419  1.00  0.00    -0.388 OA
ATOM     54  H   UNL     1      13.704  32.196  19.782  1.00  0.00     0.211 HD
ENDBRANCH   1  53
BRANCH   1  55
ATOM     55  C   UNL     1      15.019  33.251  22.473  1.00  0.00     0.165 C 
BRANCH  55  56
ATOM     56  O   UNL     1      14.317  33.479  23.611  1.00  0.00    -0.388 OA
ATOM     57  H   UNL     1      14.434  34.416  23.896  1.00  0.00     0.211 HD
ENDBRANCH  55  56
BRANCH  55  58
ATOM     58  C   UNL     1      16.208  34.220  22.387  1.00  0.00     0.154 C 
BRANCH  58  59
ATOM     59  N   UNL     1      17.393  33.615  22.954  1.00  0.00    -0.319 N 
ATOM     60  C   UNL     1      18.422  32.971  22.231  1.00  0.00     0.407 C 
ATOM     61  H   UNL     1      17.550  33.643  24.009  1.00  0.00     0.167 HD
ATOM     62  O   UNL     1      18.396  32.919  20.986  1.00  0.00    -0.225 OA
BRANCH  60  63
ATOM     63  O   UNL     1      19.510  32.364  22.890  1.00  0.00    -0.443 OA
BRANCH  63  64
ATOM     64  C   UNL     1      20.683  32.039  22.114  1.00  0.00     0.294 C 
BRANCH  64  65
ATOM     65  C   UNL     1      20.729  30.531  22.161  1.00  0.00     0.120 A 
ATOM     66  C   UNL     1      21.751  29.820  22.819  1.00  0.00     0.138 A 
ATOM     67  N   UNL     1      19.952  29.612  21.621  1.00  0.00    -0.132 NA
ATOM     68  N   UNL     1      21.546  28.506  22.641  1.00  0.00    -0.249 N 
ATOM     69  N   UNL     1      20.458  28.397  21.920  1.00  0.00    -0.067 NA
BRANCH  68  70
ATOM     70  C   UNL     1      22.434  27.468  23.168  1.00  0.00     0.114 C 
ATOM     71  C   UNL     1      23.329  28.076  24.202  1.00  0.00     0.034 C 
BRANCH  70  72
ATOM     72  C   UNL     1      21.649  26.276  23.610  1.00  0.00     0.108 C 
BRANCH  72  73
ATOM     73  C   UNL     1      21.092  26.571  24.957  1.00  0.00     0.164 C 
ATOM     74  O   UNL     1      20.092  27.278  25.099  1.00  0.00    -0.294 OA
BRANCH  73  75
ATOM     75  C   UNL     1      21.782  25.984  26.116  1.00  0.00     0.018 A 
ATOM     76  C   UNL     1      22.473  24.830  26.046  1.00  0.00     0.012 A 
ATOM     77  C   UNL     1      21.697  26.691  27.326  1.00  0.00     0.012 A 
ATOM     78  C   UNL     1      23.120  24.322  27.186  1.00  0.00     0.001 A 
ATOM     79  C   UNL     1      22.331  26.181  28.421  1.00  0.00     0.001 A 
ATOM     80  C   UNL     1      23.041  25.011  28.374  1.00  0.00     0.000 A 
ENDBRANCH  73  75
ENDBRANCH  72  73
ENDBRANCH  70  72
ENDBRANCH  68  70
ENDBRANCH  64  65
ENDBRANCH  63  64
ENDBRANCH  60  63
ENDBRANCH  58  59
ENDBRANCH  55  58
ENDBRANCH   1  55
TORSDOF 33
