REMARK VINA RESULT:    -6.023      4.819     11.446
REMARK INTER + INTRA:         -21.449
REMARK INTER:                 -12.179
REMARK INTRA:                  -9.271
REMARK UNBOUND:                -6.272
REMARK SMILES CC(=O)N[C@@H]1[C@@H](O)C[C@](OC[C@H]2O[C@@H](O[C@H]3[C@H](O)[C@@H](O)[C@H](OCCN=[N+]=[N-])O[C@@H]3CO)[C@H](O)[C@@H](O)[C@H]2O)(C(=O)O)O[C@H]1C(O)[C@H](O)CNC(=O)OCc1cn(Cc2cccc(Br)c2)nn1
REMARK SMILES IDX 9 1 8 2 6 3 5 4 42 5 41 6 10 7 11 8 12 9 14 10 13 11 32 12
REMARK SMILES IDX 34 13 36 14 15 15 16 16 29 17 28 18 21 19 17 20 19 21 30 22
REMARK SMILES IDX 31 23 22 25 23 26 24 27 25 28 26 29 27 30 18 31 20 33 33 35
REMARK SMILES IDX 35 37 37 39 38 41 39 42 40 43 7 45 43 47 44 48 45 50 46 51
REMARK SMILES IDX 47 53 48 54 49 55 50 57 51 58 52 59 53 60 54 61 65 62 55 63
REMARK SMILES IDX 64 64 56 65 57 66 58 67 63 68 59 69 61 70 60 71 62 72 4 73
REMARK SMILES IDX 2 74 1 76 3 77
REMARK H PARENT 31 24 18 32 20 34 33 36 35 38 37 40 40 44 7 46 44 49 46 52
REMARK H PARENT 48 56 4 75
REMARK Flexibility Score: inf
ROOT
ATOM      1  C   UNL     1      20.454  30.194  24.860  1.00  0.00     0.272 C 
ATOM      2  C   UNL     1      21.150  31.075  23.893  1.00  0.00     0.113 C 
ATOM      3  C   UNL     1      20.352  32.244  23.413  1.00  0.00     0.145 C 
ATOM      4  C   UNL     1      18.871  31.952  23.326  1.00  0.00     0.142 C 
ATOM      5  C   UNL     1      18.386  30.953  24.280  1.00  0.00     0.178 C 
ATOM      6  O   UNL     1      19.223  30.604  25.293  1.00  0.00    -0.332 OA
ENDROOT
BRANCH   1   7
ATOM      7  O   UNL     1      21.308  29.986  25.988  1.00  0.00    -0.338 OA
BRANCH   7   8
ATOM      8  C   UNL     1      20.742  30.401  27.159  1.00  0.00     0.199 C 
BRANCH   8   9
ATOM      9  C   UNL     1      20.746  29.259  28.197  1.00  0.00     0.179 C 
ATOM     10  C   UNL     1      21.577  27.073  28.324  1.00  0.00     0.282 C 
ATOM     11  O   UNL     1      21.126  28.146  27.521  1.00  0.00    -0.341 OA
ATOM     12  C   UNL     1      21.241  27.260  29.750  1.00  0.00     0.202 C 
ATOM     13  C   UNL     1      21.735  28.582  30.311  1.00  0.00     0.179 C 
ATOM     14  C   UNL     1      21.806  29.626  29.212  1.00  0.00     0.177 C 
BRANCH  10  15
ATOM     15  O   UNL     1      22.904  26.944  27.991  1.00  0.00    -0.341 OA
BRANCH  15  16
ATOM     16  C   UNL     1      23.192  26.589  26.723  1.00  0.00     0.184 C 
ATOM     17  C   UNL     1      23.906  25.262  26.730  1.00  0.00     0.178 C 
ATOM     18  O   UNL     1      24.044  24.821  25.416  1.00  0.00    -0.341 OA
ATOM     19  C   UNL     1      24.879  25.633  24.645  1.00  0.00     0.281 C 
ATOM     20  C   UNL     1      24.166  27.530  26.021  1.00  0.00     0.180 C 
ATOM     21  C   UNL     1      24.238  26.999  24.582  1.00  0.00     0.202 C 
BRANCH  17  22
ATOM     22  C   UNL     1      23.081  24.260  27.464  1.00  0.00     0.191 C 
BRANCH  22  23
ATOM     23  O   UNL     1      23.441  24.203  28.799  1.00  0.00    -0.394 OA
ATOM     24  H   UNL     1      23.977  25.013  29.001  1.00  0.00     0.210 HD
ENDBRANCH  22  23
ENDBRANCH  17  22
BRANCH  19  25
ATOM     25  O   UNL     1      24.976  25.022  23.413  1.00  0.00    -0.350 OA
BRANCH  25  26
ATOM     26  C   UNL     1      23.898  24.265  23.046  1.00  0.00     0.169 C 
BRANCH  26  27
ATOM     27  C   UNL     1      23.244  24.693  21.752  1.00  0.00     0.119 C 
BRANCH  27  28
ATOM     28  N   UNL     1      21.821  24.490  21.905  1.00  0.00    -0.092 NA
ATOM     29  N   UNL     1      21.195  24.744  22.923  1.00  0.00     0.001 N 
ATOM     30  N   UNL     1      20.637  25.158  23.937  1.00  0.00    -0.003 NA
ENDBRANCH  27  28
ENDBRANCH  26  27
ENDBRANCH  25  26
ENDBRANCH  19  25
BRANCH  20  31
ATOM     31  O   UNL     1      23.741  28.826  25.961  1.00  0.00    -0.387 OA
ATOM     32  H   UNL     1      24.290  29.473  26.457  1.00  0.00     0.211 HD
ENDBRANCH  20  31
BRANCH  21  33
ATOM     33  O   UNL     1      24.938  27.920  23.849  1.00  0.00    -0.385 OA
ATOM     34  H   UNL     1      25.916  27.683  23.759  1.00  0.00     0.211 HD
ENDBRANCH  21  33
ENDBRANCH  15  16
ENDBRANCH  10  15
BRANCH  12  35
ATOM     35  O   UNL     1      19.826  27.247  29.854  1.00  0.00    -0.385 OA
ATOM     36  H   UNL     1      19.436  27.094  28.955  1.00  0.00     0.211 HD
ENDBRANCH  12  35
BRANCH  13  37
ATOM     37  O   UNL     1      22.932  28.450  31.008  1.00  0.00    -0.387 OA
ATOM     38  H   UNL     1      22.770  27.851  31.807  1.00  0.00     0.211 HD
ENDBRANCH  13  37
BRANCH  14  39
ATOM     39  O   UNL     1      23.022  29.677  28.571  1.00  0.00    -0.387 OA
ATOM     40  H   UNL     1      22.898  29.619  27.575  1.00  0.00     0.211 HD
ENDBRANCH  14  39
ENDBRANCH   8   9
ENDBRANCH   7   8
ENDBRANCH   1   7
BRANCH   1  41
ATOM     41  C   UNL     1      20.323  28.830  24.267  1.00  0.00     0.364 C 
ATOM     42  O   UNL     1      20.504  28.681  23.007  1.00  0.00    -0.246 OA
BRANCH  41  43
ATOM     43  O   UNL     1      20.017  27.684  24.948  1.00  0.00    -0.477 OA
ATOM     44  H   UNL     1      20.370  26.795  24.571  1.00  0.00     0.296 HD
ENDBRANCH  41  43
ENDBRANCH   1  41
BRANCH   3  45
ATOM     45  O   UNL     1      20.637  33.393  24.136  1.00  0.00    -0.391 OA
ATOM     46  H   UNL     1      19.852  33.803  24.561  1.00  0.00     0.211 HD
ENDBRANCH   3  45
BRANCH   5  47
ATOM     47  C   UNL     1      17.011  31.312  24.867  1.00  0.00     0.176 C 
BRANCH  47  48
ATOM     48  O   UNL     1      16.658  32.574  24.239  1.00  0.00    -0.388 OA
ATOM     49  H   UNL     1      16.908  33.278  24.889  1.00  0.00     0.211 HD
ENDBRANCH  47  48
BRANCH  47  50
ATOM     50  C   UNL     1      15.918  30.364  24.534  1.00  0.00     0.165 C 
BRANCH  50  51
ATOM     51  O   UNL     1      16.558  29.346  23.732  1.00  0.00    -0.388 OA
ATOM     52  H   UNL     1      17.188  28.846  24.334  1.00  0.00     0.211 HD
ENDBRANCH  50  51
BRANCH  50  53
ATOM     53  C   UNL     1      14.812  30.850  23.659  1.00  0.00     0.154 C 
BRANCH  53  54
ATOM     54  N   UNL     1      15.069  30.681  22.237  1.00  0.00    -0.319 N 
ATOM     55  C   UNL     1      14.096  30.034  21.435  1.00  0.00     0.407 C 
ATOM     56  H   UNL     1      15.941  31.021  21.796  1.00  0.00     0.167 HD
ATOM     57  O   UNL     1      13.026  29.608  21.955  1.00  0.00    -0.225 OA
BRANCH  55  58
ATOM     58  O   UNL     1      14.292  29.855  20.066  1.00  0.00    -0.443 OA
BRANCH  58  59
ATOM     59  C   UNL     1      14.781  28.585  19.612  1.00  0.00     0.294 C 
BRANCH  59  60
ATOM     60  C   UNL     1      16.261  28.607  19.683  1.00  0.00     0.120 A 
ATOM     61  C   UNL     1      17.167  28.581  18.652  1.00  0.00     0.138 A 
ATOM     62  N   UNL     1      16.964  28.658  20.822  1.00  0.00    -0.132 NA
ATOM     63  N   UNL     1      18.395  28.617  19.204  1.00  0.00    -0.248 N 
ATOM     64  N   UNL     1      18.246  28.662  20.519  1.00  0.00    -0.067 NA
BRANCH  63  65
ATOM     65  C   UNL     1      19.649  28.607  18.456  1.00  0.00     0.181 C 
BRANCH  65  66
ATOM     66  C   UNL     1      20.175  29.984  18.266  1.00  0.00    -0.025 A 
ATOM     67  C   UNL     1      19.915  30.681  17.104  1.00  0.00     0.006 A 
ATOM     68  C   UNL     1      20.935  30.627  19.211  1.00  0.00     0.021 A 
ATOM     69  C   UNL     1      20.375  31.956  16.866  1.00  0.00     0.002 A 
ATOM     70  C   UNL     1      21.411  31.902  19.006  1.00  0.00     0.018 A 
ATOM     71  C   UNL     1      21.149  32.589  17.849  1.00  0.00     0.016 A 
ATOM     72  Br  UNL     1      22.470  32.803  20.322  1.00  0.00    -0.051 Br
ENDBRANCH  65  66
ENDBRANCH  63  65
ENDBRANCH  59  60
ENDBRANCH  58  59
ENDBRANCH  55  58
ENDBRANCH  53  54
ENDBRANCH  50  53
ENDBRANCH  47  50
ENDBRANCH   5  47
BRANCH   4  73
ATOM     73  N   UNL     1      18.538  31.545  21.937  1.00  0.00    -0.348 N 
ATOM     74  C   UNL     1      17.891  32.449  21.058  1.00  0.00     0.217 C 
ATOM     75  H   UNL     1      18.774  30.584  21.582  1.00  0.00     0.163 HD
ATOM     76  C   UNL     1      17.543  32.060  19.647  1.00  0.00     0.114 C 
ATOM     77  O   UNL     1      17.608  33.602  21.481  1.00  0.00    -0.275 OA
ENDBRANCH   4  73
TORSDOF 31
