REMARK VINA RESULT:    -6.736      3.996      8.119
REMARK INTER + INTRA:         -23.394
REMARK INTER:                 -16.746
REMARK INTRA:                  -6.648
REMARK UNBOUND:                -5.634
REMARK SMILES CC(=O)N[C@@H]1[C@@H](O)C[C@](OC[C@H]2O[C@@H](O[C@H]3[C@H](O)[C@@H](O)[C@H](OCCN=[N+]=[N-])O[C@@H]3CO)[C@H](O)[C@@H](O)[C@H]2O)(C(=O)O)O[C@H]1C(O)[C@H](O)CNC(=O)OCc1cn(Cc2ccccc2OC(C)=O)nn1
REMARK SMILES IDX 43 1 42 2 9 3 8 4 41 5 6 6 5 7 10 8 11 9 12 10 14 11 13 12
REMARK SMILES IDX 32 13 34 14 36 15 15 16 16 17 29 18 28 19 21 20 17 21 19 22
REMARK SMILES IDX 30 23 31 24 22 26 23 27 24 28 25 29 26 30 27 31 18 32 20 34
REMARK SMILES IDX 33 36 35 38 37 40 38 42 39 43 40 44 7 46 4 48 2 49 1 51 3 52
REMARK SMILES IDX 44 53 45 55 46 56 47 58 48 59 49 60 50 62 51 63 52 64 53 65
REMARK SMILES IDX 54 66 68 67 55 68 67 69 56 70 57 71 62 72 58 73 61 74 59 75
REMARK SMILES IDX 60 76 63 77 64 78 66 79 65 80
REMARK H PARENT 31 25 18 33 20 35 33 37 35 39 37 41 40 45 7 47 4 50 44 54
REMARK H PARENT 46 57 48 61
REMARK Flexibility Score: inf
ROOT
ATOM      1  C   UNL     1      16.641  28.803  19.970  1.00  0.00     0.176 C 
ENDROOT
BRANCH   1   2
ATOM      2  C   UNL     1      17.224  29.906  20.840  1.00  0.00     0.178 C 
ATOM      3  C   UNL     1      19.193  30.494  21.942  1.00  0.00     0.272 C 
ATOM      4  C   UNL     1      18.185  31.423  22.611  1.00  0.00     0.113 C 
ATOM      5  O   UNL     1      18.478  29.498  21.236  1.00  0.00    -0.332 OA
ATOM      6  C   UNL     1      17.096  30.528  23.178  1.00  0.00     0.145 C 
ATOM      7  C   UNL     1      16.288  30.027  22.044  1.00  0.00     0.142 C 
BRANCH   3   8
ATOM      8  O   UNL     1      19.982  29.826  22.830  1.00  0.00    -0.338 OA
BRANCH   8   9
ATOM      9  C   UNL     1      21.313  29.723  22.575  1.00  0.00     0.199 C 
BRANCH   9  10
ATOM     10  C   UNL     1      21.768  28.325  23.028  1.00  0.00     0.179 C 
ATOM     11  C   UNL     1      21.395  26.752  24.662  1.00  0.00     0.282 C 
ATOM     12  O   UNL     1      20.943  27.999  24.109  1.00  0.00    -0.341 OA
ATOM     13  C   UNL     1      20.952  25.717  23.689  1.00  0.00     0.202 C 
ATOM     14  C   UNL     1      21.776  25.950  22.410  1.00  0.00     0.179 C 
ATOM     15  C   UNL     1      21.635  27.347  21.906  1.00  0.00     0.177 C 
BRANCH  11  16
ATOM     16  O   UNL     1      20.842  26.729  25.919  1.00  0.00    -0.341 OA
BRANCH  16  17
ATOM     17  C   UNL     1      21.819  26.932  26.911  1.00  0.00     0.184 C 
ATOM     18  C   UNL     1      22.028  25.765  27.802  1.00  0.00     0.178 C 
ATOM     19  O   UNL     1      22.086  26.112  29.155  1.00  0.00    -0.341 OA
ATOM     20  C   UNL     1      22.902  27.202  29.428  1.00  0.00     0.281 C 
ATOM     21  C   UNL     1      21.233  28.039  27.865  1.00  0.00     0.180 C 
ATOM     22  C   UNL     1      22.395  28.459  28.722  1.00  0.00     0.202 C 
BRANCH  18  23
ATOM     23  C   UNL     1      23.132  24.829  27.418  1.00  0.00     0.191 C 
BRANCH  23  24
ATOM     24  O   UNL     1      23.106  23.724  28.255  1.00  0.00    -0.394 OA
ATOM     25  H   UNL     1      22.832  23.985  29.159  1.00  0.00     0.210 HD
ENDBRANCH  23  24
ENDBRANCH  18  23
BRANCH  20  26
ATOM     26  O   UNL     1      24.171  26.987  29.023  1.00  0.00    -0.350 OA
BRANCH  26  27
ATOM     27  C   UNL     1      25.115  26.546  29.874  1.00  0.00     0.169 C 
BRANCH  27  28
ATOM     28  C   UNL     1      26.546  26.682  29.495  1.00  0.00     0.119 C 
BRANCH  28  29
ATOM     29  N   UNL     1      27.269  25.487  29.769  1.00  0.00    -0.092 NA
ATOM     30  N   UNL     1      27.775  25.253  30.844  1.00  0.00     0.001 N 
ATOM     31  N   UNL     1      28.010  25.013  32.032  1.00  0.00    -0.003 NA
ENDBRANCH  28  29
ENDBRANCH  27  28
ENDBRANCH  26  27
ENDBRANCH  20  26
BRANCH  21  32
ATOM     32  O   UNL     1      20.695  29.052  27.110  1.00  0.00    -0.387 OA
ATOM     33  H   UNL     1      19.714  28.874  26.945  1.00  0.00     0.211 HD
ENDBRANCH  21  32
BRANCH  22  34
ATOM     34  O   UNL     1      22.073  29.476  29.593  1.00  0.00    -0.385 OA
ATOM     35  H   UNL     1      21.293  29.964  29.200  1.00  0.00     0.211 HD
ENDBRANCH  22  34
ENDBRANCH  16  17
ENDBRANCH  11  16
BRANCH  13  36
ATOM     36  O   UNL     1      21.254  24.422  24.076  1.00  0.00    -0.385 OA
ATOM     37  H   UNL     1      20.708  24.078  24.813  1.00  0.00     0.211 HD
ENDBRANCH  13  36
BRANCH  14  38
ATOM     38  O   UNL     1      21.436  25.000  21.445  1.00  0.00    -0.387 OA
ATOM     39  H   UNL     1      22.237  24.410  21.342  1.00  0.00     0.211 HD
ENDBRANCH  14  38
BRANCH  15  40
ATOM     40  O   UNL     1      20.415  27.449  21.242  1.00  0.00    -0.387 OA
ATOM     41  H   UNL     1      20.485  27.849  20.355  1.00  0.00     0.211 HD
ENDBRANCH  15  40
ENDBRANCH   9  10
ENDBRANCH   8   9
ENDBRANCH   3   8
BRANCH   3  42
ATOM     42  C   UNL     1      19.931  31.329  20.969  1.00  0.00     0.364 C 
ATOM     43  O   UNL     1      20.094  32.537  21.124  1.00  0.00    -0.246 OA
BRANCH  42  44
ATOM     44  O   UNL     1      20.460  30.716  19.831  1.00  0.00    -0.477 OA
ATOM     45  H   UNL     1      20.976  29.826  19.891  1.00  0.00     0.296 HD
ENDBRANCH  42  44
ENDBRANCH   3  42
BRANCH   6  46
ATOM     46  O   UNL     1      17.761  29.441  23.754  1.00  0.00    -0.391 OA
ATOM     47  H   UNL     1      17.390  28.566  23.491  1.00  0.00     0.211 HD
ENDBRANCH   6  46
BRANCH   7  48
ATOM     48  N   UNL     1      15.126  30.734  21.699  1.00  0.00    -0.348 N 
ATOM     49  C   UNL     1      13.804  30.235  21.873  1.00  0.00     0.217 C 
ATOM     50  H   UNL     1      15.244  31.701  21.283  1.00  0.00     0.163 HD
ATOM     51  C   UNL     1      12.609  31.007  21.500  1.00  0.00     0.114 C 
ATOM     52  O   UNL     1      13.699  29.103  22.363  1.00  0.00    -0.275 OA
ENDBRANCH   7  48
ENDBRANCH   1   2
BRANCH   1  53
ATOM     53  O   UNL     1      15.905  27.987  20.809  1.00  0.00    -0.388 OA
ATOM     54  H   UNL     1      16.364  27.727  21.636  1.00  0.00     0.211 HD
ENDBRANCH   1  53
BRANCH   1  55
ATOM     55  C   UNL     1      15.908  29.306  18.772  1.00  0.00     0.165 C 
BRANCH  55  56
ATOM     56  O   UNL     1      14.633  28.734  18.782  1.00  0.00    -0.388 OA
ATOM     57  H   UNL     1      14.635  27.837  19.150  1.00  0.00     0.211 HD
ENDBRANCH  55  56
BRANCH  55  58
ATOM     58  C   UNL     1      16.623  29.012  17.475  1.00  0.00     0.154 C 
BRANCH  58  59
ATOM     59  N   UNL     1      17.764  28.167  17.603  1.00  0.00    -0.319 N 
ATOM     60  C   UNL     1      19.107  28.615  17.509  1.00  0.00     0.407 C 
ATOM     61  H   UNL     1      17.622  27.135  17.781  1.00  0.00     0.167 HD
ATOM     62  O   UNL     1      19.302  29.837  17.295  1.00  0.00    -0.225 OA
BRANCH  60  63
ATOM     63  O   UNL     1      20.198  27.789  17.636  1.00  0.00    -0.443 OA
BRANCH  63  64
ATOM     64  C   UNL     1      21.538  28.261  17.509  1.00  0.00     0.294 C 
BRANCH  64  65
ATOM     65  C   UNL     1      22.483  27.404  18.239  1.00  0.00     0.120 A 
ATOM     66  C   UNL     1      23.770  27.773  18.554  1.00  0.00     0.138 A 
ATOM     67  N   UNL     1      22.325  26.170  18.731  1.00  0.00    -0.132 NA
ATOM     68  N   UNL     1      24.355  26.774  19.217  1.00  0.00    -0.248 N 
ATOM     69  N   UNL     1      23.433  25.798  19.309  1.00  0.00    -0.067 NA
BRANCH  68  70
ATOM     70  C   UNL     1      25.699  26.666  19.753  1.00  0.00     0.185 C 
BRANCH  70  71
ATOM     71  C   UNL     1      26.267  25.332  19.536  1.00  0.00     0.016 A 
ATOM     72  C   UNL     1      26.710  24.563  20.557  1.00  0.00     0.135 A 
ATOM     73  C   UNL     1      26.318  24.874  18.217  1.00  0.00     0.009 A 
ATOM     74  C   UNL     1      27.224  23.297  20.273  1.00  0.00     0.047 A 
ATOM     75  C   UNL     1      26.826  23.629  17.950  1.00  0.00     0.001 A 
ATOM     76  C   UNL     1      27.282  22.831  18.974  1.00  0.00     0.004 A 
BRANCH  72  77
ATOM     77  O   UNL     1      26.682  24.972  21.874  1.00  0.00    -0.426 OA
BRANCH  77  78
ATOM     78  C   UNL     1      25.518  24.725  22.611  1.00  0.00     0.308 C 
ATOM     79  O   UNL     1      25.273  25.443  23.604  1.00  0.00    -0.252 OA
ATOM     80  C   UNL     1      24.616  23.642  22.210  1.00  0.00     0.139 C 
ENDBRANCH  77  78
ENDBRANCH  72  77
ENDBRANCH  70  71
ENDBRANCH  68  70
ENDBRANCH  64  65
ENDBRANCH  63  64
ENDBRANCH  60  63
ENDBRANCH  58  59
ENDBRANCH  55  58
ENDBRANCH   1  55
TORSDOF 33
