REMARK VINA RESULT:    -5.901     12.009     17.742
REMARK INTER + INTRA:         -21.691
REMARK INTER:                 -13.480
REMARK INTRA:                  -8.211
REMARK UNBOUND:                -6.131
REMARK SMILES COCC(C(N)=O)n1cc(COC(=O)NC[C@@H](O)C(O)[C@@H]2O[C@@](OC[C@H]3O[C@@H](O[C@H]4[C@H](O)[C@@H](O)[C@H](OCCN=[N+]=[N-])O[C@@H]4CO)[C@H](O)[C@@H](O)[C@H]3O)(C(=O)O)C[C@H](O)[C@H]2NC(C)=O)nn1
REMARK SMILES IDX 23 1 55 2 56 3 58 4 21 5 22 6 24 7 25 8 26 9 28 10 27 11
REMARK SMILES IDX 46 12 48 13 50 14 29 15 30 16 43 17 42 18 35 19 31 20 33 21
REMARK SMILES IDX 44 22 45 23 36 25 37 26 38 27 39 28 40 29 41 30 32 31 34 33
REMARK SMILES IDX 47 35 49 37 51 39 52 41 53 42 54 43 57 45 19 47 20 48 17 50
REMARK SMILES IDX 18 51 16 53 15 54 13 55 14 57 12 58 11 59 10 60 9 61 63 62
REMARK SMILES IDX 8 63 64 64 4 65 3 66 2 67 1 68 5 69 7 70 6 71 59 74 60 75
REMARK SMILES IDX 61 77 62 78
REMARK H PARENT 45 24 32 32 34 34 47 36 49 38 51 40 54 44 57 46 20 49 18 52
REMARK H PARENT 15 56 6 72 6 73 59 76
REMARK Flexibility Score: inf
ROOT
ATOM      1  C   UNL     1       1.613  21.932  28.004  1.00  0.00     0.272 C 
ATOM      2  C   UNL     1       2.050  22.484  26.702  1.00  0.00     0.113 C 
ATOM      3  C   UNL     1       2.874  23.718  26.731  1.00  0.00     0.145 C 
ATOM      4  C   UNL     1       2.389  24.641  27.817  1.00  0.00     0.142 C 
ATOM      5  C   UNL     1       0.995  24.175  28.208  1.00  0.00     0.178 C 
ATOM      6  O   UNL     1       1.077  22.942  28.801  1.00  0.00    -0.332 OA
ENDROOT
BRANCH   1   7
ATOM      7  O   UNL     1       2.548  21.275  28.755  1.00  0.00    -0.338 OA
BRANCH   7   8
ATOM      8  C   UNL     1       2.750  21.687  30.030  1.00  0.00     0.199 C 
BRANCH   8   9
ATOM      9  C   UNL     1       3.414  20.608  30.897  1.00  0.00     0.179 C 
ATOM     10  C   UNL     1       4.135  21.631  32.854  1.00  0.00     0.282 C 
ATOM     11  O   UNL     1       4.465  21.107  31.612  1.00  0.00    -0.341 OA
ATOM     12  C   UNL     1       3.361  20.686  33.705  1.00  0.00     0.202 C 
ATOM     13  C   UNL     1       2.118  20.204  33.032  1.00  0.00     0.179 C 
ATOM     14  C   UNL     1       2.434  19.776  31.644  1.00  0.00     0.177 C 
BRANCH  10  15
ATOM     15  O   UNL     1       3.512  22.863  32.762  1.00  0.00    -0.341 OA
BRANCH  15  16
ATOM     16  C   UNL     1       4.120  23.791  33.605  1.00  0.00     0.184 C 
ATOM     17  C   UNL     1       3.208  24.786  34.217  1.00  0.00     0.178 C 
ATOM     18  O   UNL     1       3.843  25.547  35.168  1.00  0.00    -0.341 OA
ATOM     19  C   UNL     1       5.198  25.772  34.921  1.00  0.00     0.281 C 
ATOM     20  C   UNL     1       5.100  24.575  32.715  1.00  0.00     0.180 C 
ATOM     21  C   UNL     1       5.475  25.830  33.427  1.00  0.00     0.202 C 
BRANCH  17  22
ATOM     22  C   UNL     1       1.978  24.196  34.881  1.00  0.00     0.191 C 
BRANCH  22  23
ATOM     23  O   UNL     1       1.060  23.800  33.910  1.00  0.00    -0.394 OA
ATOM     24  H   UNL     1       1.499  23.548  33.064  1.00  0.00     0.210 HD
ENDBRANCH  22  23
ENDBRANCH  17  22
BRANCH  19  25
ATOM     25  O   UNL     1       5.940  24.850  35.571  1.00  0.00    -0.350 OA
BRANCH  25  26
ATOM     26  C   UNL     1       6.901  25.224  36.445  1.00  0.00     0.169 C 
BRANCH  26  27
ATOM     27  C   UNL     1       7.798  24.172  36.997  1.00  0.00     0.119 C 
BRANCH  27  28
ATOM     28  N   UNL     1       8.975  23.964  36.215  1.00  0.00    -0.092 NA
ATOM     29  N   UNL     1       8.888  23.517  35.075  1.00  0.00     0.001 N 
ATOM     30  N   UNL     1       8.862  23.540  33.833  1.00  0.00    -0.003 NA
ENDBRANCH  27  28
ENDBRANCH  26  27
ENDBRANCH  25  26
ENDBRANCH  19  25
BRANCH  20  31
ATOM     31  O   UNL     1       6.215  23.785  32.443  1.00  0.00    -0.387 OA
ATOM     32  H   UNL     1       6.812  23.874  33.221  1.00  0.00     0.211 HD
ENDBRANCH  20  31
BRANCH  21  33
ATOM     33  O   UNL     1       4.739  26.928  32.933  1.00  0.00    -0.385 OA
ATOM     34  H   UNL     1       5.193  27.775  33.213  1.00  0.00     0.211 HD
ENDBRANCH  21  33
ENDBRANCH  15  16
ENDBRANCH  10  15
BRANCH  12  35
ATOM     35  O   UNL     1       4.176  19.556  33.905  1.00  0.00    -0.385 OA
ATOM     36  H   UNL     1       3.671  18.834  34.336  1.00  0.00     0.211 HD
ENDBRANCH  12  35
BRANCH  13  37
ATOM     37  O   UNL     1       1.066  21.115  33.125  1.00  0.00    -0.387 OA
ATOM     38  H   UNL     1       1.456  21.959  33.479  1.00  0.00     0.211 HD
ENDBRANCH  13  37
BRANCH  14  39
ATOM     39  O   UNL     1       1.272  19.660  30.880  1.00  0.00    -0.387 OA
ATOM     40  H   UNL     1       0.987  18.710  30.815  1.00  0.00     0.211 HD
ENDBRANCH  14  39
ENDBRANCH   8   9
ENDBRANCH   7   8
ENDBRANCH   1   7
BRANCH   1  41
ATOM     41  C   UNL     1       0.443  21.024  27.726  1.00  0.00     0.364 C 
ATOM     42  O   UNL     1      -0.247  20.550  28.648  1.00  0.00    -0.246 OA
BRANCH  41  43
ATOM     43  O   UNL     1       0.147  20.722  26.422  1.00  0.00    -0.477 OA
ATOM     44  H   UNL     1      -0.622  20.127  26.157  1.00  0.00     0.296 HD
ENDBRANCH  41  43
ENDBRANCH   1  41
BRANCH   3  45
ATOM     45  O   UNL     1       4.244  23.486  26.808  1.00  0.00    -0.391 OA
ATOM     46  H   UNL     1       4.686  24.231  27.288  1.00  0.00     0.211 HD
ENDBRANCH   3  45
BRANCH   5  47
ATOM     47  C   UNL     1       0.382  25.165  29.179  1.00  0.00     0.176 C 
BRANCH  47  48
ATOM     48  O   UNL     1      -0.974  25.076  29.258  1.00  0.00    -0.388 OA
ATOM     49  H   UNL     1      -1.476  25.869  29.488  1.00  0.00     0.211 HD
ENDBRANCH  47  48
BRANCH  47  50
ATOM     50  C   UNL     1       1.000  25.005  30.541  1.00  0.00     0.165 C 
BRANCH  50  51
ATOM     51  O   UNL     1       0.090  24.227  31.300  1.00  0.00    -0.388 OA
ATOM     52  H   UNL     1       0.528  23.956  32.152  1.00  0.00     0.211 HD
ENDBRANCH  50  51
BRANCH  50  53
ATOM     53  C   UNL     1       1.186  26.279  31.294  1.00  0.00     0.154 C 
BRANCH  53  54
ATOM     54  N   UNL     1       2.488  26.857  31.234  1.00  0.00    -0.319 N 
ATOM     55  C   UNL     1       2.839  27.877  30.309  1.00  0.00     0.407 C 
ATOM     56  H   UNL     1       3.252  26.537  31.889  1.00  0.00     0.167 HD
ATOM     57  O   UNL     1       1.985  28.291  29.510  1.00  0.00    -0.225 OA
BRANCH  55  58
ATOM     58  O   UNL     1       4.123  28.430  30.271  1.00  0.00    -0.443 OA
BRANCH  58  59
ATOM     59  C   UNL     1       4.628  29.088  29.147  1.00  0.00     0.294 C 
BRANCH  59  60
ATOM     60  C   UNL     1       5.087  28.206  28.067  1.00  0.00     0.120 A 
ATOM     61  C   UNL     1       5.603  28.648  26.875  1.00  0.00     0.139 A 
ATOM     62  N   UNL     1       5.075  26.868  28.076  1.00  0.00    -0.132 NA
ATOM     63  N   UNL     1       5.898  27.551  26.174  1.00  0.00    -0.237 N 
ATOM     64  N   UNL     1       5.575  26.486  26.912  1.00  0.00    -0.066 NA
BRANCH  63  65
ATOM     65  C   UNL     1       6.472  27.536  24.842  1.00  0.00     0.223 C 
BRANCH  65  66
ATOM     66  C   UNL     1       6.861  28.931  24.476  1.00  0.00     0.197 C 
BRANCH  66  67
ATOM     67  O   UNL     1       8.207  29.148  24.633  1.00  0.00    -0.382 OA
ATOM     68  C   UNL     1       8.536  30.460  24.418  1.00  0.00     0.195 C 
ENDBRANCH  66  67
ENDBRANCH  65  66
BRANCH  65  69
ATOM     69  C   UNL     1       7.681  26.649  24.911  1.00  0.00     0.244 C 
ATOM     70  O   UNL     1       8.031  26.033  23.885  1.00  0.00    -0.273 OA
ATOM     71  N   UNL     1       8.384  26.540  26.137  1.00  0.00    -0.368 N 
ATOM     72  H   UNL     1       8.356  25.711  26.752  1.00  0.00     0.159 HD
ATOM     73  H   UNL     1       8.964  27.355  26.433  1.00  0.00     0.159 HD
ENDBRANCH  65  69
ENDBRANCH  63  65
ENDBRANCH  59  60
ENDBRANCH  58  59
ENDBRANCH  55  58
ENDBRANCH  53  54
ENDBRANCH  50  53
ENDBRANCH  47  50
ENDBRANCH   5  47
BRANCH   4  74
ATOM     74  N   UNL     1       2.390  26.031  27.368  1.00  0.00    -0.348 N 
ATOM     75  C   UNL     1       1.901  26.445  26.099  1.00  0.00     0.217 C 
ATOM     76  H   UNL     1       2.760  26.790  27.993  1.00  0.00     0.163 HD
ATOM     77  C   UNL     1       1.890  27.839  25.627  1.00  0.00     0.114 C 
ATOM     78  O   UNL     1       1.443  25.533  25.330  1.00  0.00    -0.275 OA
ENDBRANCH   4  74
TORSDOF 33
