REMARK VINA RESULT:    -6.982      2.730      5.529
REMARK INTER + INTRA:         -23.463
REMARK INTER:                 -14.899
REMARK INTRA:                  -8.565
REMARK UNBOUND:                -5.460
REMARK SMILES CC(=O)N[C@@H]1[C@@H](O)C[C@](OC[C@H]2O[C@@H](O[C@H]3[C@H](O)[C@@H](O)[C@H](OCCN=[N+]=[N-])O[C@@H]3CO)[C@H](O)[C@@H](O)[C@H]2O)(C(=O)O)O[C@H]1C(O)[C@H](O)CNC(=O)OCc1cn(C(c2ccccc2)c2ccccc2)nn1
REMARK SMILES IDX 9 1 8 2 6 3 5 4 42 5 41 6 10 7 11 8 12 9 14 10 13 11 32 12
REMARK SMILES IDX 34 13 36 14 15 15 16 16 29 17 28 18 21 19 17 20 19 21 30 22
REMARK SMILES IDX 31 23 22 25 23 26 24 27 25 28 26 29 27 30 18 31 20 33 33 35
REMARK SMILES IDX 35 37 37 39 38 41 39 42 40 43 7 45 43 47 44 48 45 50 46 51
REMARK SMILES IDX 47 53 48 54 49 55 50 57 51 58 52 59 53 60 54 61 70 62 55 63
REMARK SMILES IDX 69 64 56 65 57 66 58 67 62 68 59 69 61 70 60 71 63 72 64 73
REMARK SMILES IDX 68 74 65 75 67 76 66 77 4 78 2 79 1 81 3 82
REMARK H PARENT 31 24 18 32 20 34 33 36 35 38 37 40 40 44 7 46 44 49 46 52
REMARK H PARENT 48 56 4 80
REMARK Flexibility Score: inf
ROOT
ATOM      1  C   UNL     1      20.326  30.947  15.527  1.00  0.00     0.272 C 
ATOM      2  C   UNL     1      21.723  30.722  14.911  1.00  0.00     0.113 C 
ATOM      3  C   UNL     1      22.764  31.187  15.845  1.00  0.00     0.145 C 
ATOM      4  C   UNL     1      22.644  30.450  17.156  1.00  0.00     0.142 C 
ATOM      5  C   UNL     1      21.295  29.874  17.388  1.00  0.00     0.178 C 
ATOM      6  O   UNL     1      20.257  30.519  16.797  1.00  0.00    -0.332 OA
ENDROOT
BRANCH   1   7
ATOM      7  O   UNL     1      19.404  30.236  14.743  1.00  0.00    -0.338 OA
BRANCH   7   8
ATOM      8  C   UNL     1      18.117  30.441  15.166  1.00  0.00     0.199 C 
BRANCH   8   9
ATOM      9  C   UNL     1      17.341  29.134  15.322  1.00  0.00     0.179 C 
ATOM     10  C   UNL     1      16.500  28.745  17.521  1.00  0.00     0.282 C 
ATOM     11  O   UNL     1      17.417  28.659  16.536  1.00  0.00    -0.341 OA
ATOM     12  C   UNL     1      15.318  29.531  17.211  1.00  0.00     0.202 C 
ATOM     13  C   UNL     1      14.897  29.507  15.783  1.00  0.00     0.179 C 
ATOM     14  C   UNL     1      15.941  29.255  14.765  1.00  0.00     0.177 C 
BRANCH  10  15
ATOM     15  O   UNL     1      17.263  29.214  18.635  1.00  0.00    -0.341 OA
BRANCH  15  16
ATOM     16  C   UNL     1      16.484  29.862  19.545  1.00  0.00     0.184 C 
ATOM     17  C   UNL     1      17.115  31.119  20.030  1.00  0.00     0.178 C 
ATOM     18  O   UNL     1      16.200  31.860  20.790  1.00  0.00    -0.341 OA
ATOM     19  C   UNL     1      15.990  31.245  21.994  1.00  0.00     0.281 C 
ATOM     20  C   UNL     1      16.240  29.005  20.782  1.00  0.00     0.180 C 
ATOM     21  C   UNL     1      16.328  29.810  22.018  1.00  0.00     0.202 C 
BRANCH  17  22
ATOM     22  C   UNL     1      17.739  31.978  18.949  1.00  0.00     0.191 C 
BRANCH  22  23
ATOM     23  O   UNL     1      19.123  31.849  19.008  1.00  0.00    -0.394 OA
ATOM     24  H   UNL     1      19.441  31.295  19.751  1.00  0.00     0.210 HD
ENDBRANCH  22  23
ENDBRANCH  17  22
BRANCH  19  25
ATOM     25  O   UNL     1      14.700  31.500  22.490  1.00  0.00    -0.350 OA
BRANCH  25  26
ATOM     26  C   UNL     1      13.878  32.180  21.640  1.00  0.00     0.169 C 
BRANCH  26  27
ATOM     27  C   UNL     1      12.916  31.215  20.987  1.00  0.00     0.119 C 
BRANCH  27  28
ATOM     28  N   UNL     1      13.057  31.211  19.533  1.00  0.00    -0.092 NA
ATOM     29  N   UNL     1      13.208  32.241  18.888  1.00  0.00     0.001 N 
ATOM     30  N   UNL     1      13.016  33.323  18.318  1.00  0.00    -0.003 NA
ENDBRANCH  27  28
ENDBRANCH  26  27
ENDBRANCH  25  26
ENDBRANCH  19  25
BRANCH  20  31
ATOM     31  O   UNL     1      15.018  28.357  20.592  1.00  0.00    -0.387 OA
ATOM     32  H   UNL     1      14.482  28.788  19.873  1.00  0.00     0.211 HD
ENDBRANCH  20  31
BRANCH  21  33
ATOM     33  O   UNL     1      17.639  29.638  22.550  1.00  0.00    -0.385 OA
ATOM     34  H   UNL     1      17.527  29.699  23.540  1.00  0.00     0.211 HD
ENDBRANCH  21  33
ENDBRANCH  15  16
ENDBRANCH  10  15
BRANCH  12  35
ATOM     35  O   UNL     1      14.171  29.133  17.945  1.00  0.00    -0.385 OA
ATOM     36  H   UNL     1      13.602  28.648  17.300  1.00  0.00     0.211 HD
ENDBRANCH  12  35
BRANCH  13  37
ATOM     37  O   UNL     1      14.213  30.700  15.433  1.00  0.00    -0.387 OA
ATOM     38  H   UNL     1      13.250  30.598  15.649  1.00  0.00     0.211 HD
ENDBRANCH  13  37
BRANCH  14  39
ATOM     39  O   UNL     1      15.982  30.335  13.869  1.00  0.00    -0.387 OA
ATOM     40  H   UNL     1      16.603  31.040  14.170  1.00  0.00     0.211 HD
ENDBRANCH  14  39
ENDBRANCH   8   9
ENDBRANCH   7   8
ENDBRANCH   1   7
BRANCH   1  41
ATOM     41  C   UNL     1      20.069  32.381  15.389  1.00  0.00     0.364 C 
ATOM     42  O   UNL     1      19.837  33.092  16.386  1.00  0.00    -0.246 OA
BRANCH  41  43
ATOM     43  O   UNL     1      20.067  33.024  14.149  1.00  0.00    -0.477 OA
ATOM     44  H   UNL     1      19.499  33.843  13.989  1.00  0.00     0.296 HD
ENDBRANCH  41  43
ENDBRANCH   1  41
BRANCH   3  45
ATOM     45  O   UNL     1      24.013  30.896  15.254  1.00  0.00    -0.391 OA
ATOM     46  H   UNL     1      23.924  30.176  14.582  1.00  0.00     0.211 HD
ENDBRANCH   3  45
BRANCH   5  47
ATOM     47  C   UNL     1      21.152  28.391  17.196  1.00  0.00     0.176 C 
BRANCH  47  48
ATOM     48  O   UNL     1      19.874  28.056  17.691  1.00  0.00    -0.388 OA
ATOM     49  H   UNL     1      19.175  28.664  17.393  1.00  0.00     0.211 HD
ENDBRANCH  47  48
BRANCH  47  50
ATOM     50  C   UNL     1      22.150  27.538  17.890  1.00  0.00     0.165 C 
BRANCH  50  51
ATOM     51  O   UNL     1      22.246  26.352  17.171  1.00  0.00    -0.388 OA
ATOM     52  H   UNL     1      21.704  26.357  16.340  1.00  0.00     0.211 HD
ENDBRANCH  50  51
BRANCH  50  53
ATOM     53  C   UNL     1      21.874  27.233  19.322  1.00  0.00     0.154 C 
BRANCH  53  54
ATOM     54  N   UNL     1      21.646  28.353  20.177  1.00  0.00    -0.319 N 
ATOM     55  C   UNL     1      20.471  28.693  20.854  1.00  0.00     0.407 C 
ATOM     56  H   UNL     1      22.471  29.021  20.324  1.00  0.00     0.167 HD
ATOM     57  O   UNL     1      19.458  27.993  20.736  1.00  0.00    -0.225 OA
BRANCH  55  58
ATOM     58  O   UNL     1      20.407  29.818  21.672  1.00  0.00    -0.443 OA
BRANCH  58  59
ATOM     59  C   UNL     1      21.229  29.892  22.848  1.00  0.00     0.294 C 
BRANCH  59  60
ATOM     60  C   UNL     1      21.033  28.647  23.634  1.00  0.00     0.120 A 
ATOM     61  C   UNL     1      21.904  27.596  23.609  1.00  0.00     0.139 A 
ATOM     62  N   UNL     1      20.019  28.386  24.453  1.00  0.00    -0.132 NA
ATOM     63  N   UNL     1      21.385  26.678  24.443  1.00  0.00    -0.240 N 
ATOM     64  N   UNL     1      20.247  27.169  24.947  1.00  0.00    -0.066 NA
BRANCH  63  65
ATOM     65  C   UNL     1      21.898  25.375  24.810  1.00  0.00     0.169 C 
BRANCH  65  66
ATOM     66  C   UNL     1      22.494  25.481  26.147  1.00  0.00    -0.019 A 
ATOM     67  C   UNL     1      23.159  26.629  26.530  1.00  0.00     0.006 A 
ATOM     68  C   UNL     1      22.443  24.462  27.073  1.00  0.00     0.006 A 
ATOM     69  C   UNL     1      23.744  26.745  27.784  1.00  0.00     0.000 A 
ATOM     70  C   UNL     1      23.026  24.567  28.333  1.00  0.00     0.000 A 
ATOM     71  C   UNL     1      23.687  25.723  28.699  1.00  0.00     0.000 A 
ENDBRANCH  65  66
BRANCH  65  72
ATOM     72  C   UNL     1      22.803  24.861  23.762  1.00  0.00    -0.019 A 
ATOM     73  C   UNL     1      22.235  24.558  22.530  1.00  0.00     0.006 A 
ATOM     74  C   UNL     1      24.139  24.639  23.924  1.00  0.00     0.006 A 
ATOM     75  C   UNL     1      23.003  24.053  21.514  1.00  0.00     0.000 A 
ATOM     76  C   UNL     1      24.921  24.130  22.903  1.00  0.00     0.000 A 
ATOM     77  C   UNL     1      24.354  23.833  21.690  1.00  0.00     0.000 A 
ENDBRANCH  65  72
ENDBRANCH  63  65
ENDBRANCH  59  60
ENDBRANCH  58  59
ENDBRANCH  55  58
ENDBRANCH  53  54
ENDBRANCH  50  53
ENDBRANCH  47  50
ENDBRANCH   5  47
BRANCH   4  78
ATOM     78  N   UNL     1      22.940  31.466  18.185  1.00  0.00    -0.348 N 
ATOM     79  C   UNL     1      23.672  31.160  19.365  1.00  0.00     0.217 C 
ATOM     80  H   UNL     1      22.616  32.460  18.079  1.00  0.00     0.163 HD
ATOM     81  C   UNL     1      23.960  32.217  20.394  1.00  0.00     0.114 C 
ATOM     82  O   UNL     1      24.099  30.006  19.582  1.00  0.00    -0.275 OA
ENDBRANCH   4  78
TORSDOF 32
