REMARK VINA RESULT:    -5.461      3.298      8.601
REMARK INTER + INTRA:         -23.394
REMARK INTER:                 -14.378
REMARK INTRA:                  -9.016
REMARK UNBOUND:                -8.356
REMARK SMILES CC(=O)N[C@@H]1[C@@H](O)C[C@](OC[C@H]2O[C@@H](O[C@H]3[C@H](O)[C@@H](O)[C@H](OCCN=[N+]=[N-])O[C@@H]3CO)[C@H](O)[C@@H](O)[C@H]2O)(C(=O)O)O[C@H]1C(O)[C@H](O)CNC(=O)OCc1cn([C@@H](CCC(=O)O)C(=O)O)nn1
REMARK SMILES IDX 43 1 42 2 9 3 8 4 41 5 6 6 5 7 10 8 11 9 12 10 14 11 13 12
REMARK SMILES IDX 32 13 34 14 36 15 15 16 16 17 29 18 28 19 21 20 17 21 19 22
REMARK SMILES IDX 30 23 31 24 22 26 23 27 24 28 25 29 26 30 27 31 18 32 20 34
REMARK SMILES IDX 33 36 35 38 37 40 38 42 39 43 40 44 7 46 4 48 2 49 1 51 3 52
REMARK SMILES IDX 44 53 45 55 46 56 47 58 48 59 49 60 50 62 51 63 52 64 53 65
REMARK SMILES IDX 54 66 66 67 55 68 65 69 56 70 57 71 58 72 59 73 60 74 61 75
REMARK SMILES IDX 62 77 63 78 64 79
REMARK H PARENT 31 25 18 33 20 35 33 37 35 39 37 41 40 45 7 47 4 50 44 54
REMARK H PARENT 46 57 48 61 61 76 64 80
REMARK Flexibility Score: inf
ROOT
ATOM      1  C   UNL     1      22.376  27.848  23.332  1.00  0.00     0.176 C 
ENDROOT
BRANCH   1   2
ATOM      2  C   UNL     1      22.881  26.409  23.224  1.00  0.00     0.178 C 
ATOM      3  C   UNL     1      23.453  24.992  21.433  1.00  0.00     0.272 C 
ATOM      4  C   UNL     1      22.449  23.962  21.763  1.00  0.00     0.113 C 
ATOM      5  O   UNL     1      22.872  26.211  21.843  1.00  0.00    -0.332 OA
ATOM      6  C   UNL     1      21.439  24.449  22.767  1.00  0.00     0.145 C 
ATOM      7  C   UNL     1      21.918  25.408  23.796  1.00  0.00     0.142 C 
BRANCH   3   8
ATOM      8  O   UNL     1      23.640  25.105  20.070  1.00  0.00    -0.338 OA
BRANCH   8   9
ATOM      9  C   UNL     1      23.561  26.213  19.380  1.00  0.00     0.199 C 
BRANCH   9  10
ATOM     10  C   UNL     1      22.416  26.558  18.468  1.00  0.00     0.179 C 
ATOM     11  C   UNL     1      21.144  28.498  18.226  1.00  0.00     0.282 C 
ATOM     12  O   UNL     1      21.553  27.459  19.021  1.00  0.00    -0.341 OA
ATOM     13  C   UNL     1      22.366  29.278  17.790  1.00  0.00     0.202 C 
ATOM     14  C   UNL     1      23.210  28.400  16.923  1.00  0.00     0.179 C 
ATOM     15  C   UNL     1      22.927  26.949  17.087  1.00  0.00     0.177 C 
BRANCH  11  16
ATOM     16  O   UNL     1      20.329  29.341  18.984  1.00  0.00    -0.341 OA
BRANCH  16  17
ATOM     17  C   UNL     1      19.085  28.843  19.276  1.00  0.00     0.184 C 
ATOM     18  C   UNL     1      18.061  29.228  18.211  1.00  0.00     0.178 C 
ATOM     19  O   UNL     1      17.058  29.993  18.801  1.00  0.00    -0.341 OA
ATOM     20  C   UNL     1      17.579  31.265  19.170  1.00  0.00     0.281 C 
ATOM     21  C   UNL     1      18.637  29.485  20.574  1.00  0.00     0.180 C 
ATOM     22  C   UNL     1      18.527  31.000  20.299  1.00  0.00     0.202 C 
BRANCH  18  23
ATOM     23  C   UNL     1      17.407  27.971  17.665  1.00  0.00     0.191 C 
BRANCH  23  24
ATOM     24  O   UNL     1      16.740  27.264  18.648  1.00  0.00    -0.394 OA
ATOM     25  H   UNL     1      17.199  27.323  19.526  1.00  0.00     0.210 HD
ENDBRANCH  23  24
ENDBRANCH  18  23
BRANCH  20  26
ATOM     26  O   UNL     1      16.511  32.067  19.454  1.00  0.00    -0.350 OA
BRANCH  26  27
ATOM     27  C   UNL     1      16.279  32.301  20.780  1.00  0.00     0.169 C 
BRANCH  27  28
ATOM     28  C   UNL     1      15.786  33.700  21.086  1.00  0.00     0.119 C 
BRANCH  28  29
ATOM     29  N   UNL     1      14.440  33.703  21.624  1.00  0.00    -0.092 NA
ATOM     30  N   UNL     1      13.429  33.593  20.938  1.00  0.00     0.001 N 
ATOM     31  N   UNL     1      12.511  33.296  20.204  1.00  0.00    -0.003 NA
ENDBRANCH  28  29
ENDBRANCH  27  28
ENDBRANCH  26  27
ENDBRANCH  20  26
BRANCH  21  32
ATOM     32  O   UNL     1      17.424  28.985  21.030  1.00  0.00    -0.387 OA
ATOM     33  H   UNL     1      16.633  29.455  20.617  1.00  0.00     0.211 HD
ENDBRANCH  21  32
BRANCH  22  34
ATOM     34  O   UNL     1      19.820  31.351  19.838  1.00  0.00    -0.385 OA
ATOM     35  H   UNL     1      20.261  30.516  19.537  1.00  0.00     0.211 HD
ENDBRANCH  22  34
ENDBRANCH  16  17
ENDBRANCH  11  16
BRANCH  13  36
ATOM     36  O   UNL     1      21.990  30.434  17.104  1.00  0.00    -0.385 OA
ATOM     37  H   UNL     1      22.230  30.267  16.137  1.00  0.00     0.211 HD
ENDBRANCH  13  36
BRANCH  14  38
ATOM     38  O   UNL     1      24.576  28.651  17.086  1.00  0.00    -0.387 OA
ATOM     39  H   UNL     1      24.690  29.456  17.671  1.00  0.00     0.211 HD
ENDBRANCH  14  38
BRANCH  15  40
ATOM     40  O   UNL     1      24.129  26.277  16.857  1.00  0.00    -0.387 OA
ATOM     41  H   UNL     1      24.876  26.722  17.317  1.00  0.00     0.211 HD
ENDBRANCH  15  40
ENDBRANCH   9  10
ENDBRANCH   8   9
ENDBRANCH   3   8
BRANCH   3  42
ATOM     42  C   UNL     1      24.772  24.895  22.044  1.00  0.00     0.364 C 
ATOM     43  O   UNL     1      24.994  23.909  22.838  1.00  0.00    -0.246 OA
BRANCH  42  44
ATOM     44  O   UNL     1      25.857  25.737  21.893  1.00  0.00    -0.477 OA
ATOM     45  H   UNL     1      26.411  26.033  22.663  1.00  0.00     0.296 HD
ENDBRANCH  42  44
ENDBRANCH   3  42
BRANCH   6  46
ATOM     46  O   UNL     1      20.437  25.140  22.028  1.00  0.00    -0.391 OA
ATOM     47  H   UNL     1      19.669  24.545  21.833  1.00  0.00     0.211 HD
ENDBRANCH   6  46
BRANCH   7  48
ATOM     48  N   UNL     1      22.335  24.654  24.926  1.00  0.00    -0.348 N 
ATOM     49  C   UNL     1      22.332  25.144  26.255  1.00  0.00     0.217 C 
ATOM     50  H   UNL     1      22.651  23.669  24.833  1.00  0.00     0.163 HD
ATOM     51  C   UNL     1      22.792  24.290  27.407  1.00  0.00     0.114 C 
ATOM     52  O   UNL     1      21.951  26.286  26.499  1.00  0.00    -0.275 OA
ENDBRANCH   7  48
ENDBRANCH   1   2
BRANCH   1  53
ATOM     53  O   UNL     1      20.992  27.841  23.459  1.00  0.00    -0.388 OA
ATOM     54  H   UNL     1      20.630  26.960  23.173  1.00  0.00     0.211 HD
ENDBRANCH   1  53
BRANCH   1  55
ATOM     55  C   UNL     1      22.810  28.785  22.305  1.00  0.00     0.165 C 
BRANCH  55  56
ATOM     56  O   UNL     1      24.195  28.551  22.047  1.00  0.00    -0.388 OA
ATOM     57  H   UNL     1      24.711  29.138  22.648  1.00  0.00     0.211 HD
ENDBRANCH  55  56
BRANCH  55  58
ATOM     58  C   UNL     1      22.719  30.253  22.597  1.00  0.00     0.154 C 
BRANCH  58  59
ATOM     59  N   UNL     1      21.367  30.758  22.575  1.00  0.00    -0.319 N 
ATOM     60  C   UNL     1      20.580  30.964  23.747  1.00  0.00     0.407 C 
ATOM     61  H   UNL     1      20.927  30.975  21.667  1.00  0.00     0.167 HD
ATOM     62  O   UNL     1      21.033  30.714  24.863  1.00  0.00    -0.225 OA
BRANCH  60  63
ATOM     63  O   UNL     1      19.305  31.447  23.592  1.00  0.00    -0.443 OA
BRANCH  63  64
ATOM     64  C   UNL     1      18.358  31.489  24.619  1.00  0.00     0.294 C 
BRANCH  64  65
ATOM     65  C   UNL     1      17.112  30.816  24.177  1.00  0.00     0.120 A 
ATOM     66  C   UNL     1      15.840  31.332  24.047  1.00  0.00     0.139 A 
ATOM     67  N   UNL     1      17.006  29.505  23.830  1.00  0.00    -0.132 NA
ATOM     68  N   UNL     1      15.003  30.339  23.629  1.00  0.00    -0.238 N 
ATOM     69  N   UNL     1      15.756  29.244  23.510  1.00  0.00    -0.066 NA
BRANCH  68  70
ATOM     70  C   UNL     1      13.618  30.461  23.353  1.00  0.00     0.219 C 
BRANCH  70  71
ATOM     71  C   UNL     1      13.004  29.617  22.298  1.00  0.00     0.051 C 
BRANCH  71  72
ATOM     72  C   UNL     1      13.283  29.894  20.879  1.00  0.00     0.125 C 
BRANCH  72  73
ATOM     73  C   UNL     1      14.153  29.011  20.131  1.00  0.00     0.303 C 
ATOM     74  O   UNL     1      14.907  28.118  20.555  1.00  0.00    -0.252 OA
BRANCH  73  75
ATOM     75  O   UNL     1      14.193  29.138  18.706  1.00  0.00    -0.481 OA
ATOM     76  H   UNL     1      14.814  28.542  18.182  1.00  0.00     0.296 HD
ENDBRANCH  73  75
ENDBRANCH  72  73
ENDBRANCH  71  72
ENDBRANCH  70  71
BRANCH  70  77
ATOM     77  C   UNL     1      12.860  30.243  24.625  1.00  0.00     0.328 C 
ATOM     78  O   UNL     1      12.655  31.190  25.408  1.00  0.00    -0.250 OA
BRANCH  77  79
ATOM     79  O   UNL     1      12.364  29.001  24.976  1.00  0.00    -0.480 OA
ATOM     80  H   UNL     1      12.846  28.138  24.717  1.00  0.00     0.296 HD
ENDBRANCH  77  79
ENDBRANCH  70  77
ENDBRANCH  68  70
ENDBRANCH  64  65
ENDBRANCH  63  64
ENDBRANCH  60  63
ENDBRANCH  58  59
ENDBRANCH  55  58
ENDBRANCH   1  55
TORSDOF 36
