REMARK VINA RESULT:    -7.187      1.171      2.778
REMARK INTER + INTRA:         -26.736
REMARK INTER:                 -16.263
REMARK INTRA:                 -10.473
REMARK UNBOUND:                -7.995
REMARK SMILES CC(=O)N[C@@H]1[C@@H](O)C[C@](OC[C@H]2O[C@@H](O[C@H]3[C@H](O)[C@@H](O)[C@H](OCCN=[N+]=[N-])O[C@@H]3CO)[C@H](O)[C@@H](O)[C@H]2O)(C(=O)O)O[C@H]1C(O)[C@H](O)CNC(=O)OCc1cn(-c2ccc(-c3c4ccc(=O)cc-4oc4cc(O)ccc34)c(C(=O)[O-])c2)nn1
REMARK SMILES IDX 9 1 8 2 6 3 5 4 42 5 41 6 10 7 11 8 12 9 14 10 13 11 32 12
REMARK SMILES IDX 34 13 36 14 15 15 16 16 29 17 28 18 21 19 17 20 19 21 30 22
REMARK SMILES IDX 31 23 22 25 23 26 24 27 25 28 26 29 27 30 18 31 20 33 33 35
REMARK SMILES IDX 35 37 37 39 38 41 39 42 40 43 7 45 43 47 44 48 45 50 46 51
REMARK SMILES IDX 47 53 48 54 49 55 50 57 51 58 52 59 53 60 54 61 82 62 55 63
REMARK SMILES IDX 81 64 56 65 80 66 57 67 76 68 58 69 59 70 77 71 78 72 79 73
REMARK SMILES IDX 60 74 75 75 61 76 74 77 69 78 67 79 62 80 73 81 70 82 68 83
REMARK SMILES IDX 66 84 63 85 71 86 64 87 65 88 72 89 4 91 2 92 1 94 3 95
REMARK H PARENT 31 24 18 32 20 34 33 36 35 38 37 40 40 44 7 46 44 49 46 52
REMARK H PARENT 48 56 72 90 4 93
REMARK Flexibility Score: inf
ROOT
ATOM      1  C   UNL     1      20.493  30.806  23.259  1.00  0.00     0.272 C 
ATOM      2  C   UNL     1      19.210  31.034  24.018  1.00  0.00     0.113 C 
ATOM      3  C   UNL     1      17.985  30.619  23.252  1.00  0.00     0.145 C 
ATOM      4  C   UNL     1      18.375  30.464  21.803  1.00  0.00     0.142 C 
ATOM      5  C   UNL     1      19.239  31.649  21.461  1.00  0.00     0.178 C 
ATOM      6  O   UNL     1      20.483  31.491  22.019  1.00  0.00    -0.332 OA
ENDROOT
BRANCH   1   7
ATOM      7  O   UNL     1      20.844  29.502  23.053  1.00  0.00    -0.338 OA
BRANCH   7   8
ATOM      8  C   UNL     1      20.984  28.767  24.176  1.00  0.00     0.199 C 
BRANCH   8   9
ATOM      9  C   UNL     1      21.065  27.264  23.868  1.00  0.00     0.179 C 
ATOM     10  C   UNL     1      21.345  25.785  22.122  1.00  0.00     0.282 C 
ATOM     11  O   UNL     1      20.862  26.984  22.567  1.00  0.00    -0.341 OA
ATOM     12  C   UNL     1      21.428  24.716  23.140  1.00  0.00     0.202 C 
ATOM     13  C   UNL     1      22.135  25.155  24.401  1.00  0.00     0.179 C 
ATOM     14  C   UNL     1      22.313  26.665  24.400  1.00  0.00     0.177 C 
BRANCH  10  15
ATOM     15  O   UNL     1      22.508  26.062  21.404  1.00  0.00    -0.341 OA
BRANCH  15  16
ATOM     16  C   UNL     1      22.282  26.636  20.196  1.00  0.00     0.184 C 
ATOM     17  C   UNL     1      22.937  25.896  19.070  1.00  0.00     0.178 C 
ATOM     18  O   UNL     1      22.343  26.248  17.850  1.00  0.00    -0.341 OA
ATOM     19  C   UNL     1      22.123  27.618  17.772  1.00  0.00     0.281 C 
ATOM     20  C   UNL     1      22.848  28.064  20.096  1.00  0.00     0.180 C 
ATOM     21  C   UNL     1      23.051  28.398  18.633  1.00  0.00     0.202 C 
BRANCH  17  22
ATOM     22  C   UNL     1      22.788  24.418  19.260  1.00  0.00     0.191 C 
BRANCH  22  23
ATOM     23  O   UNL     1      22.366  23.851  18.056  1.00  0.00    -0.394 OA
ATOM     24  H   UNL     1      22.439  22.877  18.159  1.00  0.00     0.210 HD
ENDBRANCH  22  23
ENDBRANCH  17  22
BRANCH  19  25
ATOM     25  O   UNL     1      20.804  27.929  18.022  1.00  0.00    -0.350 OA
BRANCH  25  26
ATOM     26  C   UNL     1      20.184  28.645  17.005  1.00  0.00     0.169 C 
BRANCH  26  27
ATOM     27  C   UNL     1      18.715  28.266  17.048  1.00  0.00     0.119 C 
BRANCH  27  28
ATOM     28  N   UNL     1      17.950  28.967  16.053  1.00  0.00    -0.092 NA
ATOM     29  N   UNL     1      18.413  29.067  14.909  1.00  0.00     0.001 N 
ATOM     30  N   UNL     1      18.556  29.065  13.686  1.00  0.00    -0.003 NA
ENDBRANCH  27  28
ENDBRANCH  26  27
ENDBRANCH  25  26
ENDBRANCH  19  25
BRANCH  20  31
ATOM     31  O   UNL     1      21.858  28.911  20.586  1.00  0.00    -0.387 OA
ATOM     32  H   UNL     1      21.253  29.257  19.895  1.00  0.00     0.211 HD
ENDBRANCH  20  31
BRANCH  21  33
ATOM     33  O   UNL     1      24.383  28.288  18.229  1.00  0.00    -0.385 OA
ATOM     34  H   UNL     1      24.756  27.520  18.763  1.00  0.00     0.211 HD
ENDBRANCH  21  33
ENDBRANCH  15  16
ENDBRANCH  10  15
BRANCH  12  35
ATOM     35  O   UNL     1      20.132  24.244  23.471  1.00  0.00    -0.385 OA
ATOM     36  H   UNL     1      19.459  24.814  22.991  1.00  0.00     0.211 HD
ENDBRANCH  12  35
BRANCH  13  37
ATOM     37  O   UNL     1      23.323  24.474  24.607  1.00  0.00    -0.387 OA
ATOM     38  H   UNL     1      23.134  23.712  25.203  1.00  0.00     0.211 HD
ENDBRANCH  13  37
BRANCH  14  39
ATOM     39  O   UNL     1      23.456  26.955  23.668  1.00  0.00    -0.387 OA
ATOM     40  H   UNL     1      23.163  27.595  22.955  1.00  0.00     0.211 HD
ENDBRANCH  14  39
ENDBRANCH   8   9
ENDBRANCH   7   8
ENDBRANCH   1   7
BRANCH   1  41
ATOM     41  C   UNL     1      21.541  31.571  24.045  1.00  0.00     0.364 C 
ATOM     42  O   UNL     1      21.319  32.114  25.142  1.00  0.00    -0.246 OA
BRANCH  41  43
ATOM     43  O   UNL     1      22.833  31.692  23.541  1.00  0.00    -0.477 OA
ATOM     44  H   UNL     1      23.141  32.545  23.096  1.00  0.00     0.296 HD
ENDBRANCH  41  43
ENDBRANCH   1  41
BRANCH   3  45
ATOM     45  O   UNL     1      17.451  29.480  23.821  1.00  0.00    -0.391 OA
ATOM     46  H   UNL     1      17.552  29.560  24.802  1.00  0.00     0.211 HD
ENDBRANCH   3  45
BRANCH   5  47
ATOM     47  C   UNL     1      19.461  31.732  19.947  1.00  0.00     0.176 C 
BRANCH  47  48
ATOM     48  O   UNL     1      19.956  30.477  19.518  1.00  0.00    -0.388 OA
ATOM     49  H   UNL     1      20.662  30.138  20.090  1.00  0.00     0.211 HD
ENDBRANCH  47  48
BRANCH  47  50
ATOM     50  C   UNL     1      20.527  32.725  19.617  1.00  0.00     0.165 C 
BRANCH  50  51
ATOM     51  O   UNL     1      20.057  33.629  18.663  1.00  0.00    -0.388 OA
ATOM     52  H   UNL     1      20.634  34.435  18.682  1.00  0.00     0.211 HD
ENDBRANCH  50  51
BRANCH  50  53
ATOM     53  C   UNL     1      21.840  32.152  19.213  1.00  0.00     0.154 C 
BRANCH  53  54
ATOM     54  N   UNL     1      22.703  31.911  20.346  1.00  0.00    -0.319 N 
ATOM     55  C   UNL     1      24.062  31.530  20.249  1.00  0.00     0.407 C 
ATOM     56  H   UNL     1      22.345  32.014  21.345  1.00  0.00     0.167 HD
ATOM     57  O   UNL     1      24.589  31.383  19.130  1.00  0.00    -0.225 OA
BRANCH  55  58
ATOM     58  O   UNL     1      24.862  31.304  21.363  1.00  0.00    -0.443 OA
BRANCH  58  59
ATOM     59  C   UNL     1      26.227  30.886  21.251  1.00  0.00     0.294 C 
BRANCH  59  60
ATOM     60  C   UNL     1      26.233  29.433  21.554  1.00  0.00     0.121 A 
ATOM     61  C   UNL     1      26.696  28.425  20.754  1.00  0.00     0.144 A 
ATOM     62  N   UNL     1      25.779  28.826  22.688  1.00  0.00    -0.131 NA
ATOM     63  N   UNL     1      26.526  27.245  21.386  1.00  0.00    -0.220 N 
ATOM     64  N   UNL     1      25.966  27.526  22.560  1.00  0.00    -0.062 NA
BRANCH  63  65
ATOM     65  C   UNL     1      26.888  25.971  20.876  1.00  0.00     0.067 A 
ATOM     66  C   UNL     1      28.137  25.717  20.362  1.00  0.00     0.039 A 
ATOM     67  C   UNL     1      25.958  24.961  20.902  1.00  0.00     0.029 A 
ATOM     68  C   UNL     1      28.440  24.463  19.884  1.00  0.00     0.007 A 
ATOM     69  C   UNL     1      26.264  23.705  20.422  1.00  0.00     0.012 A 
ATOM     70  C   UNL     1      27.508  23.428  19.903  1.00  0.00    -0.008 A 
BRANCH  68  71
ATOM     71  C   UNL     1      29.761  24.158  19.330  1.00  0.00     0.072 C 
ATOM     72  O   UNL     1      30.028  24.326  18.116  1.00  0.00    -0.545 OA
ATOM     73  O   UNL     1      30.741  23.672  20.161  1.00  0.00    -0.545 OA
ENDBRANCH  68  71
BRANCH  70  74
ATOM     74  C   UNL     1      27.841  22.108  19.398  1.00  0.00     0.004 A 
ATOM     75  C   UNL     1      28.328  21.167  20.270  1.00  0.00     0.026 A 
ATOM     76  C   UNL     1      27.687  21.771  18.078  1.00  0.00     0.026 A 
ATOM     77  C   UNL     1      28.515  21.416  21.610  1.00  0.00     0.016 A 
ATOM     78  C   UNL     1      28.645  19.909  19.770  1.00  0.00     0.139 A 
ATOM     79  C   UNL     1      28.039  20.419  17.594  1.00  0.00     0.139 A 
ATOM     80  C   UNL     1      27.206  22.658  17.149  1.00  0.00     0.016 A 
ATOM     81  C   UNL     1      29.007  20.460  22.480  1.00  0.00     0.047 A 
ATOM     82  C   UNL     1      29.133  18.965  20.640  1.00  0.00     0.093 A 
ATOM     83  O   UNL     1      28.495  19.593  18.499  1.00  0.00    -0.456 OA
ATOM     84  C   UNL     1      27.883  20.086  16.272  1.00  0.00     0.099 A 
ATOM     85  C   UNL     1      27.055  22.308  15.818  1.00  0.00     0.053 A 
ATOM     86  C   UNL     1      29.323  19.211  21.993  1.00  0.00     0.119 A 
ATOM     87  C   UNL     1      27.395  21.033  15.403  1.00  0.00     0.182 A 
ATOM     88  O   UNL     1      27.234  20.776  14.180  1.00  0.00    -0.290 OA
BRANCH  86  89
ATOM     89  O   UNL     1      29.815  18.258  22.872  1.00  0.00    -0.508 OA
ATOM     90  H   UNL     1      29.617  17.287  22.647  1.00  0.00     0.293 HD
ENDBRANCH  86  89
ENDBRANCH  70  74
ENDBRANCH  63  65
ENDBRANCH  59  60
ENDBRANCH  58  59
ENDBRANCH  55  58
ENDBRANCH  53  54
ENDBRANCH  50  53
ENDBRANCH  47  50
ENDBRANCH   5  47
BRANCH   4  91
ATOM     91  N   UNL     1      17.228  30.354  20.928  1.00  0.00    -0.348 N 
ATOM     92  C   UNL     1      17.000  29.132  20.265  1.00  0.00     0.217 C 
ATOM     93  H   UNL     1      16.558  31.136  20.761  1.00  0.00     0.163 HD
ATOM     94  C   UNL     1      15.858  28.907  19.344  1.00  0.00     0.114 C 
ATOM     95  O   UNL     1      17.785  28.134  20.426  1.00  0.00    -0.275 OA
ENDBRANCH   4  91
TORSDOF 33
