REMARK VINA RESULT:    -6.340      8.300     13.360
REMARK INTER + INTRA:         -20.623
REMARK INTER:                 -13.906
REMARK INTRA:                  -6.717
REMARK UNBOUND:                -5.017
REMARK SMILES CC(=O)N[C@@H]1[C@@H](O)C[C@](OC[C@H]2O[C@@H](O[C@H]3[C@H](O)[C@@H](O)[C@H](OCCN=[N+]=[N-])O[C@@H]3CO)[C@H](O)[C@@H](O)[C@H]2O)(C(=O)O)O[C@H]1C(O)[C@H](O)CNC(=O)OCc1cn(C2CCCCC2)nn1
REMARK SMILES IDX 9 1 8 2 6 3 5 4 42 5 41 6 10 7 11 8 12 9 14 10 13 11 32 12
REMARK SMILES IDX 34 13 36 14 15 15 16 16 29 17 28 18 21 19 17 20 19 21 30 22
REMARK SMILES IDX 31 23 22 25 23 26 24 27 25 28 26 29 27 30 18 31 20 33 33 35
REMARK SMILES IDX 35 37 37 39 38 41 39 42 40 43 7 45 43 47 44 48 45 50 46 51
REMARK SMILES IDX 47 53 48 54 49 55 50 57 51 58 52 59 53 60 54 61 63 62 55 63
REMARK SMILES IDX 62 64 56 65 57 66 61 67 58 68 60 69 59 70 4 71 2 72 1 74
REMARK SMILES IDX 3 75
REMARK H PARENT 31 24 18 32 20 34 33 36 35 38 37 40 40 44 7 46 44 49 46 52
REMARK H PARENT 48 56 4 73
REMARK Flexibility Score: inf
ROOT
ATOM      1  C   UNL     1      19.990  19.127   9.931  1.00  0.00     0.272 C 
ATOM      2  C   UNL     1      19.521  18.567   8.537  1.00  0.00     0.113 C 
ATOM      3  C   UNL     1      20.261  19.276   7.445  1.00  0.00     0.145 C 
ATOM      4  C   UNL     1      20.080  20.767   7.548  1.00  0.00     0.142 C 
ATOM      5  C   UNL     1      20.067  21.271   8.949  1.00  0.00     0.178 C 
ATOM      6  O   UNL     1      19.875  20.465   9.973  1.00  0.00    -0.332 OA
ENDROOT
BRANCH   1   7
ATOM      7  O   UNL     1      21.238  18.692  10.024  1.00  0.00    -0.338 OA
BRANCH   7   8
ATOM      8  C   UNL     1      21.798  17.582  10.368  1.00  0.00     0.199 C 
BRANCH   8   9
ATOM      9  C   UNL     1      23.192  17.188   9.909  1.00  0.00     0.179 C 
ATOM     10  C   UNL     1      25.148  18.036  10.887  1.00  0.00     0.282 C 
ATOM     11  O   UNL     1      24.086  18.205  10.005  1.00  0.00    -0.341 OA
ATOM     12  C   UNL     1      25.852  16.768  10.581  1.00  0.00     0.202 C 
ATOM     13  C   UNL     1      24.938  15.572  10.471  1.00  0.00     0.179 C 
ATOM     14  C   UNL     1      23.544  15.976  10.765  1.00  0.00     0.177 C 
BRANCH  10  15
ATOM     15  O   UNL     1      24.684  18.256  12.132  1.00  0.00    -0.341 OA
BRANCH  15  16
ATOM     16  C   UNL     1      25.048  19.370  12.815  1.00  0.00     0.184 C 
ATOM     17  C   UNL     1      23.831  20.264  12.929  1.00  0.00     0.178 C 
ATOM     18  O   UNL     1      24.010  21.285  13.843  1.00  0.00    -0.341 OA
ATOM     19  C   UNL     1      25.315  21.657  14.034  1.00  0.00     0.281 C 
ATOM     20  C   UNL     1      26.087  20.213  12.108  1.00  0.00     0.180 C 
ATOM     21  C   UNL     1      26.119  21.561  12.790  1.00  0.00     0.202 C 
BRANCH  17  22
ATOM     22  C   UNL     1      22.547  19.512  13.133  1.00  0.00     0.191 C 
BRANCH  22  23
ATOM     23  O   UNL     1      21.512  20.308  12.642  1.00  0.00    -0.394 OA
ATOM     24  H   UNL     1      21.659  20.575  11.704  1.00  0.00     0.210 HD
ENDBRANCH  22  23
ENDBRANCH  17  22
BRANCH  19  25
ATOM     25  O   UNL     1      25.817  21.020  15.138  1.00  0.00    -0.350 OA
BRANCH  25  26
ATOM     26  C   UNL     1      27.030  21.518  15.586  1.00  0.00     0.169 C 
BRANCH  26  27
ATOM     27  C   UNL     1      28.023  20.453  15.967  1.00  0.00     0.119 C 
BRANCH  27  28
ATOM     28  N   UNL     1      27.618  19.211  15.340  1.00  0.00    -0.092 NA
ATOM     29  N   UNL     1      28.530  18.503  14.893  1.00  0.00     0.001 N 
ATOM     30  N   UNL     1      29.219  18.003  13.986  1.00  0.00    -0.003 NA
ENDBRANCH  27  28
ENDBRANCH  26  27
ENDBRANCH  25  26
ENDBRANCH  19  25
BRANCH  20  31
ATOM     31  O   UNL     1      27.352  19.679  12.144  1.00  0.00    -0.387 OA
ATOM     32  H   UNL     1      27.913  19.947  11.374  1.00  0.00     0.211 HD
ENDBRANCH  20  31
BRANCH  21  33
ATOM     33  O   UNL     1      25.553  22.475  11.867  1.00  0.00    -0.385 OA
ATOM     34  H   UNL     1      24.838  22.039  11.342  1.00  0.00     0.211 HD
ENDBRANCH  21  33
ENDBRANCH  15  16
ENDBRANCH  10  15
BRANCH  12  35
ATOM     35  O   UNL     1      26.422  16.939   9.292  1.00  0.00    -0.385 OA
ATOM     36  H   UNL     1      26.314  17.861   8.970  1.00  0.00     0.211 HD
ENDBRANCH  12  35
BRANCH  13  37
ATOM     37  O   UNL     1      25.338  14.548  11.352  1.00  0.00    -0.387 OA
ATOM     38  H   UNL     1      26.282  14.371  11.212  1.00  0.00     0.211 HD
ENDBRANCH  13  37
BRANCH  14  39
ATOM     39  O   UNL     1      23.201  16.113  12.082  1.00  0.00    -0.387 OA
ATOM     40  H   UNL     1      22.289  15.755  12.203  1.00  0.00     0.211 HD
ENDBRANCH  14  39
ENDBRANCH   8   9
ENDBRANCH   7   8
ENDBRANCH   1   7
BRANCH   1  41
ATOM     41  C   UNL     1      18.961  18.560  10.871  1.00  0.00     0.364 C 
ATOM     42  O   UNL     1      19.003  18.656  12.092  1.00  0.00    -0.246 OA
BRANCH  41  43
ATOM     43  O   UNL     1      17.855  17.862  10.346  1.00  0.00    -0.477 OA
ATOM     44  H   UNL     1      17.028  18.361  10.059  1.00  0.00     0.296 HD
ENDBRANCH  41  43
ENDBRANCH   1  41
BRANCH   3  45
ATOM     45  O   UNL     1      21.601  18.910   7.413  1.00  0.00    -0.391 OA
ATOM     46  H   UNL     1      22.096  19.529   8.023  1.00  0.00     0.211 HD
ENDBRANCH   3  45
BRANCH   5  47
ATOM     47  C   UNL     1      21.379  22.064   9.236  1.00  0.00     0.176 C 
BRANCH  47  48
ATOM     48  O   UNL     1      21.795  22.683   8.041  1.00  0.00    -0.388 OA
ATOM     49  H   UNL     1      21.208  22.457   7.293  1.00  0.00     0.211 HD
ENDBRANCH  47  48
BRANCH  47  50
ATOM     50  C   UNL     1      21.200  23.045  10.344  1.00  0.00     0.165 C 
BRANCH  50  51
ATOM     51  O   UNL     1      20.227  23.973   9.903  1.00  0.00    -0.388 OA
ATOM     52  H   UNL     1      20.398  24.869  10.254  1.00  0.00     0.211 HD
ENDBRANCH  50  51
BRANCH  50  53
ATOM     53  C   UNL     1      22.389  23.836  10.742  1.00  0.00     0.154 C 
BRANCH  53  54
ATOM     54  N   UNL     1      22.802  23.702  12.114  1.00  0.00    -0.319 N 
ATOM     55  C   UNL     1      23.163  24.807  12.931  1.00  0.00     0.407 C 
ATOM     56  H   UNL     1      22.836  22.758  12.538  1.00  0.00     0.167 HD
ATOM     57  O   UNL     1      23.132  25.971  12.462  1.00  0.00    -0.225 OA
BRANCH  55  58
ATOM     58  O   UNL     1      23.553  24.650  14.232  1.00  0.00    -0.443 OA
BRANCH  58  59
ATOM     59  C   UNL     1      22.718  24.610  15.364  1.00  0.00     0.294 C 
BRANCH  59  60
ATOM     60  C   UNL     1      23.559  24.511  16.576  1.00  0.00     0.120 A 
ATOM     61  C   UNL     1      23.091  24.787  17.829  1.00  0.00     0.138 A 
ATOM     62  N   UNL     1      24.846  24.168  16.701  1.00  0.00    -0.132 NA
ATOM     63  N   UNL     1      24.103  24.608  18.709  1.00  0.00    -0.249 N 
ATOM     64  N   UNL     1      25.160  24.231  17.992  1.00  0.00    -0.067 NA
BRANCH  63  65
ATOM     65  C   UNL     1      24.031  24.798  20.144  1.00  0.00     0.109 C 
ATOM     66  C   UNL     1      22.685  24.219  20.570  1.00  0.00     0.027 C 
ATOM     67  C   UNL     1      24.043  26.272  20.482  1.00  0.00     0.027 C 
ATOM     68  C   UNL     1      22.571  24.300  22.093  1.00  0.00     0.002 C 
ATOM     69  C   UNL     1      22.891  26.672  21.381  1.00  0.00     0.002 C 
ATOM     70  C   UNL     1      22.764  25.716  22.528  1.00  0.00     0.000 C 
ENDBRANCH  63  65
ENDBRANCH  59  60
ENDBRANCH  58  59
ENDBRANCH  55  58
ENDBRANCH  53  54
ENDBRANCH  50  53
ENDBRANCH  47  50
ENDBRANCH   5  47
BRANCH   4  71
ATOM     71  N   UNL     1      18.978  21.231   6.747  1.00  0.00    -0.348 N 
ATOM     72  C   UNL     1      19.008  22.374   5.931  1.00  0.00     0.217 C 
ATOM     73  H   UNL     1      18.045  20.704   6.734  1.00  0.00     0.163 HD
ATOM     74  C   UNL     1      17.822  22.793   5.108  1.00  0.00     0.114 C 
ATOM     75  O   UNL     1      20.009  23.085   5.854  1.00  0.00    -0.275 OA
ENDBRANCH   4  71
TORSDOF 30
