REMARK VINA RESULT:    -5.914     14.731     21.088
REMARK INTER + INTRA:         -23.393
REMARK INTER:                 -14.421
REMARK INTRA:                  -8.972
REMARK UNBOUND:                -6.934
REMARK SMILES CCOCCc1c(-c2ccccc2)nc(N)nc1-n1cc(COC(=O)NC[C@@H](O)C(O)[C@@H]2O[C@@](OC[C@H]3O[C@@H](O[C@H]4[C@H](O)[C@@H](O)[C@H](OCCN=[N+]=[N-])O[C@@H]4CO)[C@H](O)[C@@H](O)[C@H]3O)(C(=O)O)C[C@H](O)[C@H]2NC(C)=O)nn1
REMARK SMILES IDX 30 1 32 2 34 3 66 4 33 5 67 6 69 7 35 8 36 9 37 10 39 11
REMARK SMILES IDX 38 12 57 13 59 14 61 15 40 16 41 17 54 18 53 19 46 20 42 21
REMARK SMILES IDX 44 22 55 23 56 24 47 26 48 27 49 28 50 29 51 30 52 31 43 32
REMARK SMILES IDX 45 34 58 36 60 38 62 40 63 42 64 43 65 44 68 46 70 48 71 49
REMARK SMILES IDX 72 51 73 52 31 53 28 55 29 56 27 58 26 59 24 60 25 62 23 63
REMARK SMILES IDX 22 64 21 65 20 66 74 67 19 68 75 69 18 70 17 71 6 72 15 73
REMARK SMILES IDX 7 74 14 75 5 76 4 77 3 78 2 79 1 80 16 81 8 84 9 85 13 86
REMARK SMILES IDX 10 87 12 88 11 89
REMARK H PARENT 56 25 43 33 45 35 58 37 60 39 62 41 65 45 68 47 70 50 31 54
REMARK H PARENT 29 57 26 61 16 82 16 83
REMARK Flexibility Score: inf
ROOT
ATOM      1  C   UNL     1      22.724  31.514  24.749  1.00  0.00     0.176 C 
ENDROOT
BRANCH   1   2
ATOM      2  C   UNL     1      23.886  30.839  24.085  1.00  0.00     0.178 C 
ATOM      3  C   UNL     1      24.261  28.783  23.031  1.00  0.00     0.272 C 
ATOM      4  C   UNL     1      25.648  29.401  22.836  1.00  0.00     0.113 C 
ATOM      5  O   UNL     1      23.345  29.671  23.467  1.00  0.00    -0.332 OA
ATOM      6  C   UNL     1      26.178  30.026  24.090  1.00  0.00     0.145 C 
ATOM      7  C   UNL     1      24.990  30.371  24.969  1.00  0.00     0.142 C 
BRANCH   3   8
ATOM      8  O   UNL     1      24.425  27.671  23.827  1.00  0.00    -0.338 OA
BRANCH   8   9
ATOM      9  C   UNL     1      25.167  26.652  23.291  1.00  0.00     0.199 C 
BRANCH   9  10
ATOM     10  C   UNL     1      24.494  25.298  23.457  1.00  0.00     0.179 C 
ATOM     11  C   UNL     1      22.527  24.586  24.492  1.00  0.00     0.282 C 
ATOM     12  O   UNL     1      23.641  25.376  24.520  1.00  0.00    -0.341 OA
ATOM     13  C   UNL     1      21.758  24.973  23.222  1.00  0.00     0.202 C 
ATOM     14  C   UNL     1      22.578  24.354  22.091  1.00  0.00     0.179 C 
ATOM     15  C   UNL     1      24.028  24.665  22.210  1.00  0.00     0.177 C 
BRANCH  11  16
ATOM     16  O   UNL     1      21.784  24.773  25.634  1.00  0.00    -0.341 OA
BRANCH  16  17
ATOM     17  C   UNL     1      22.239  25.839  26.393  1.00  0.00     0.184 C 
ATOM     18  C   UNL     1      22.474  25.437  27.809  1.00  0.00     0.178 C 
ATOM     19  O   UNL     1      21.625  25.948  28.740  1.00  0.00    -0.341 OA
ATOM     20  C   UNL     1      21.288  27.263  28.673  1.00  0.00     0.281 C 
ATOM     21  C   UNL     1      21.357  27.041  26.241  1.00  0.00     0.180 C 
ATOM     22  C   UNL     1      21.585  27.978  27.397  1.00  0.00     0.202 C 
BRANCH  18  23
ATOM     23  C   UNL     1      23.941  25.599  28.207  1.00  0.00     0.191 C 
BRANCH  23  24
ATOM     24  O   UNL     1      24.785  25.029  27.271  1.00  0.00    -0.394 OA
ATOM     25  H   UNL     1      24.320  25.060  26.397  1.00  0.00     0.210 HD
ENDBRANCH  23  24
ENDBRANCH  18  23
BRANCH  20  26
ATOM     26  O   UNL     1      21.927  27.919  29.720  1.00  0.00    -0.350 OA
BRANCH  26  27
ATOM     27  C   UNL     1      21.236  27.897  30.906  1.00  0.00     0.169 C 
BRANCH  27  28
ATOM     28  C   UNL     1      19.890  28.579  30.850  1.00  0.00     0.119 C 
BRANCH  28  29
ATOM     29  N   UNL     1      18.961  27.858  31.719  1.00  0.00    -0.092 NA
ATOM     30  N   UNL     1      19.093  27.862  32.949  1.00  0.00     0.001 N 
ATOM     31  N   UNL     1      19.429  27.854  34.132  1.00  0.00    -0.003 NA
ENDBRANCH  28  29
ENDBRANCH  27  28
ENDBRANCH  26  27
ENDBRANCH  20  26
BRANCH  21  32
ATOM     32  O   UNL     1      21.612  27.743  25.059  1.00  0.00    -0.387 OA
ATOM     33  H   UNL     1      22.563  28.031  25.000  1.00  0.00     0.211 HD
ENDBRANCH  21  32
BRANCH  22  34
ATOM     34  O   UNL     1      20.688  29.036  27.264  1.00  0.00    -0.385 OA
ATOM     35  H   UNL     1      20.931  29.645  26.522  1.00  0.00     0.211 HD
ENDBRANCH  22  34
ENDBRANCH  16  17
ENDBRANCH  11  16
BRANCH  13  36
ATOM     36  O   UNL     1      20.480  24.471  23.202  1.00  0.00    -0.385 OA
ATOM     37  H   UNL     1      20.229  24.132  22.299  1.00  0.00     0.211 HD
ENDBRANCH  13  36
BRANCH  14  38
ATOM     38  O   UNL     1      22.032  24.570  20.846  1.00  0.00    -0.387 OA
ATOM     39  H   UNL     1      21.591  25.470  20.783  1.00  0.00     0.211 HD
ENDBRANCH  14  38
BRANCH  15  40
ATOM     40  O   UNL     1      24.372  25.497  21.123  1.00  0.00    -0.387 OA
ATOM     41  H   UNL     1      25.252  25.918  21.303  1.00  0.00     0.211 HD
ENDBRANCH  15  40
ENDBRANCH   9  10
ENDBRANCH   8   9
ENDBRANCH   3   8
BRANCH   3  42
ATOM     42  C   UNL     1      23.884  28.346  21.650  1.00  0.00     0.364 C 
ATOM     43  O   UNL     1      24.794  28.523  20.765  1.00  0.00    -0.246 OA
BRANCH  42  44
ATOM     44  O   UNL     1      22.689  27.792  21.289  1.00  0.00    -0.477 OA
ATOM     45  H   UNL     1      22.252  27.105  21.898  1.00  0.00     0.296 HD
ENDBRANCH  42  44
ENDBRANCH   3  42
BRANCH   6  46
ATOM     46  O   UNL     1      27.015  29.078  24.698  1.00  0.00    -0.391 OA
ATOM     47  H   UNL     1      26.542  28.558  25.377  1.00  0.00     0.211 HD
ENDBRANCH   6  46
BRANCH   7  48
ATOM     48  N   UNL     1      25.366  31.230  26.049  1.00  0.00    -0.348 N 
ATOM     49  C   UNL     1      25.222  30.888  27.418  1.00  0.00     0.217 C 
ATOM     50  H   UNL     1      25.784  32.151  25.792  1.00  0.00     0.163 HD
ATOM     51  C   UNL     1      25.647  31.854  28.451  1.00  0.00     0.114 C 
ATOM     52  O   UNL     1      24.743  29.779  27.738  1.00  0.00    -0.275 OA
ENDBRANCH   7  48
ENDBRANCH   1   2
BRANCH   1  53
ATOM     53  O   UNL     1      21.786  30.461  25.024  1.00  0.00    -0.388 OA
ATOM     54  H   UNL     1      21.107  30.527  24.321  1.00  0.00     0.211 HD
ENDBRANCH   1  53
BRANCH   1  55
ATOM     55  C   UNL     1      21.985  32.554  24.009  1.00  0.00     0.165 C 
BRANCH  55  56
ATOM     56  O   UNL     1      21.430  33.400  25.013  1.00  0.00    -0.388 OA
ATOM     57  H   UNL     1      20.539  33.675  24.718  1.00  0.00     0.211 HD
ENDBRANCH  55  56
BRANCH  55  58
ATOM     58  C   UNL     1      20.901  32.128  23.111  1.00  0.00     0.154 C 
BRANCH  58  59
ATOM     59  N   UNL     1      21.226  31.132  22.165  1.00  0.00    -0.319 N 
ATOM     60  C   UNL     1      21.709  31.351  20.862  1.00  0.00     0.407 C 
ATOM     61  H   UNL     1      21.114  30.076  22.400  1.00  0.00     0.167 HD
ATOM     62  O   UNL     1      21.901  32.498  20.402  1.00  0.00    -0.225 OA
BRANCH  60  63
ATOM     63  O   UNL     1      22.012  30.300  19.990  1.00  0.00    -0.443 OA
BRANCH  63  64
ATOM     64  C   UNL     1      21.192  29.982  18.886  1.00  0.00     0.294 C 
BRANCH  64  65
ATOM     65  C   UNL     1      19.883  29.435  19.318  1.00  0.00     0.121 A 
ATOM     66  C   UNL     1      18.641  29.933  19.026  1.00  0.00     0.146 A 
ATOM     67  N   UNL     1      19.655  28.355  20.100  1.00  0.00    -0.131 NA
ATOM     68  N   UNL     1      17.677  29.148  19.639  1.00  0.00    -0.202 N 
ATOM     69  N   UNL     1      18.351  28.228  20.261  1.00  0.00    -0.060 NA
BRANCH  68  70
ATOM     70  C   UNL     1      16.322  29.494  19.490  1.00  0.00     0.164 A 
ATOM     71  N   UNL     1      15.771  29.434  18.252  1.00  0.00    -0.193 NA
ATOM     72  C   UNL     1      15.468  29.825  20.552  1.00  0.00     0.026 A 
ATOM     73  C   UNL     1      14.480  29.667  18.008  1.00  0.00     0.222 A 
ATOM     74  C   UNL     1      14.146  30.062  20.327  1.00  0.00     0.081 A 
ATOM     75  N   UNL     1      13.685  29.975  19.034  1.00  0.00    -0.213 NA
BRANCH  72  76
ATOM     76  C   UNL     1      16.115  30.003  21.857  1.00  0.00     0.070 C 
BRANCH  76  77
ATOM     77  C   UNL     1      16.434  31.442  22.202  1.00  0.00     0.165 C 
BRANCH  77  78
ATOM     78  O   UNL     1      16.408  31.784  23.520  1.00  0.00    -0.381 OA
BRANCH  78  79
ATOM     79  C   UNL     1      15.195  31.912  24.127  1.00  0.00     0.156 C 
ATOM     80  C   UNL     1      15.015  30.864  25.239  1.00  0.00     0.035 C 
ENDBRANCH  78  79
ENDBRANCH  77  78
ENDBRANCH  76  77
ENDBRANCH  72  76
BRANCH  73  81
ATOM     81  N   UNL     1      13.946  29.593  16.682  1.00  0.00    -0.368 N 
ATOM     82  H   UNL     1      13.142  30.193  16.407  1.00  0.00     0.159 HD
ATOM     83  H   UNL     1      14.327  28.961  15.959  1.00  0.00     0.159 HD
ENDBRANCH  73  81
BRANCH  74  84
ATOM     84  C   UNL     1      13.196  30.384  21.368  1.00  0.00     0.001 A 
ATOM     85  C   UNL     1      12.915  29.405  22.319  1.00  0.00     0.010 A 
ATOM     86  C   UNL     1      12.587  31.622  21.464  1.00  0.00     0.010 A 
ATOM     87  C   UNL     1      12.034  29.647  23.366  1.00  0.00     0.001 A 
ATOM     88  C   UNL     1      11.719  31.840  22.507  1.00  0.00     0.001 A 
ATOM     89  C   UNL     1      11.437  30.883  23.449  1.00  0.00     0.000 A 
ENDBRANCH  74  84
ENDBRANCH  68  70
ENDBRANCH  64  65
ENDBRANCH  63  64
ENDBRANCH  60  63
ENDBRANCH  58  59
ENDBRANCH  55  58
ENDBRANCH   1  55
TORSDOF 36
