REMARK VINA RESULT:    -5.121      3.990     10.263
REMARK INTER + INTRA:         -22.975
REMARK INTER:                 -16.532
REMARK INTRA:                  -6.444
REMARK UNBOUND:                -9.623
REMARK SMILES CC(=O)N[C@@H]1[C@@H](O)C[C@](OC[C@H]2O[C@@H](O[C@H]3[C@H](O)[C@@H](O)[C@H](OCCN=[N+]=[N-])O[C@@H]3CO)[C@H](O)[C@@H](O)[C@H]2O)(C(=O)O)O[C@H]1C(O)[C@H](O)CNC(=O)OCc1cn(Cc2ccc(C(=O)O)cc2)nn1
REMARK SMILES IDX 43 1 42 2 9 3 8 4 41 5 6 6 5 7 10 8 11 9 12 10 14 11 13 12
REMARK SMILES IDX 32 13 34 14 36 15 15 16 16 17 29 18 28 19 21 20 17 21 19 22
REMARK SMILES IDX 30 23 31 24 22 26 23 27 24 28 25 29 26 30 27 31 18 32 20 34
REMARK SMILES IDX 33 36 35 38 37 40 38 42 39 43 40 44 7 46 4 48 2 49 1 51 3 52
REMARK SMILES IDX 44 53 45 55 46 56 47 58 48 59 49 60 50 62 51 63 52 64 53 65
REMARK SMILES IDX 54 66 67 67 55 68 66 69 56 70 57 71 58 72 65 73 59 74 64 75
REMARK SMILES IDX 60 76 61 77 62 78 63 79
REMARK H PARENT 31 25 18 33 20 35 33 37 35 39 37 41 40 45 7 47 4 50 44 54
REMARK H PARENT 46 57 48 61 63 80
REMARK Flexibility Score: inf
ROOT
ATOM      1  C   UNL     1      25.237  27.609  22.213  1.00  0.00     0.176 C 
ENDROOT
BRANCH   1   2
ATOM      2  C   UNL     1      24.208  26.578  21.701  1.00  0.00     0.178 C 
ATOM      3  C   UNL     1      23.202  24.721  22.770  1.00  0.00     0.272 C 
ATOM      4  C   UNL     1      23.744  23.861  21.700  1.00  0.00     0.113 C 
ATOM      5  O   UNL     1      23.709  25.995  22.802  1.00  0.00    -0.332 OA
ATOM      6  C   UNL     1      25.082  24.332  21.170  1.00  0.00     0.145 C 
ATOM      7  C   UNL     1      24.886  25.741  20.695  1.00  0.00     0.142 C 
BRANCH   3   8
ATOM      8  O   UNL     1      23.452  24.198  24.012  1.00  0.00    -0.338 OA
BRANCH   8   9
ATOM      9  C   UNL     1      24.430  24.718  24.783  1.00  0.00     0.199 C 
BRANCH   9  10
ATOM     10  C   UNL     1      23.938  24.858  26.243  1.00  0.00     0.179 C 
ATOM     11  C   UNL     1      24.589  25.765  28.288  1.00  0.00     0.282 C 
ATOM     12  O   UNL     1      24.944  25.394  26.993  1.00  0.00    -0.341 OA
ATOM     13  C   UNL     1      23.238  25.307  28.706  1.00  0.00     0.202 C 
ATOM     14  C   UNL     1      22.230  25.824  27.702  1.00  0.00     0.179 C 
ATOM     15  C   UNL     1      22.676  25.680  26.281  1.00  0.00     0.177 C 
BRANCH  11  16
ATOM     16  O   UNL     1      24.698  27.152  28.380  1.00  0.00    -0.341 OA
BRANCH  16  17
ATOM     17  C   UNL     1      25.986  27.553  28.585  1.00  0.00     0.184 C 
ATOM     18  C   UNL     1      26.153  28.348  29.827  1.00  0.00     0.178 C 
ATOM     19  O   UNL     1      27.511  28.509  30.143  1.00  0.00    -0.341 OA
ATOM     20  C   UNL     1      28.260  28.791  28.999  1.00  0.00     0.281 C 
ATOM     21  C   UNL     1      26.369  28.421  27.371  1.00  0.00     0.180 C 
ATOM     22  C   UNL     1      27.455  29.353  27.866  1.00  0.00     0.202 C 
BRANCH  18  23
ATOM     23  C   UNL     1      25.489  27.668  30.990  1.00  0.00     0.191 C 
BRANCH  23  24
ATOM     24  O   UNL     1      24.155  28.138  30.998  1.00  0.00    -0.394 OA
ATOM     25  H   UNL     1      23.560  27.474  30.600  1.00  0.00     0.210 HD
ENDBRANCH  23  24
ENDBRANCH  18  23
BRANCH  20  26
ATOM     26  O   UNL     1      28.964  27.667  28.635  1.00  0.00    -0.350 OA
BRANCH  26  27
ATOM     27  C   UNL     1      29.553  26.983  29.674  1.00  0.00     0.169 C 
BRANCH  27  28
ATOM     28  C   UNL     1      29.489  25.495  29.582  1.00  0.00     0.119 C 
BRANCH  28  29
ATOM     29  N   UNL     1      28.158  25.101  30.073  1.00  0.00    -0.092 NA
ATOM     30  N   UNL     1      27.862  25.120  31.262  1.00  0.00     0.001 N 
ATOM     31  N   UNL     1      27.848  25.100  32.488  1.00  0.00    -0.003 NA
ENDBRANCH  28  29
ENDBRANCH  27  28
ENDBRANCH  26  27
ENDBRANCH  20  26
BRANCH  21  32
ATOM     32  O   UNL     1      26.809  27.627  26.334  1.00  0.00    -0.387 OA
ATOM     33  H   UNL     1      27.629  27.095  26.596  1.00  0.00     0.211 HD
ENDBRANCH  21  32
BRANCH  22  34
ATOM     34  O   UNL     1      26.909  30.578  28.173  1.00  0.00    -0.385 OA
ATOM     35  H   UNL     1      27.581  31.270  28.302  1.00  0.00     0.211 HD
ENDBRANCH  22  34
ENDBRANCH  16  17
ENDBRANCH  11  16
BRANCH  13  36
ATOM     36  O   UNL     1      23.162  23.908  28.789  1.00  0.00    -0.385 OA
ATOM     37  H   UNL     1      23.093  23.583  27.850  1.00  0.00     0.211 HD
ENDBRANCH  13  36
BRANCH  14  38
ATOM     38  O   UNL     1      21.904  27.158  27.951  1.00  0.00    -0.387 OA
ATOM     39  H   UNL     1      22.321  27.714  27.234  1.00  0.00     0.211 HD
ENDBRANCH  14  38
BRANCH  15  40
ATOM     40  O   UNL     1      22.849  26.920  25.651  1.00  0.00    -0.387 OA
ATOM     41  H   UNL     1      23.729  27.272  25.944  1.00  0.00     0.211 HD
ENDBRANCH  15  40
ENDBRANCH   9  10
ENDBRANCH   8   9
ENDBRANCH   3   8
BRANCH   3  42
ATOM     42  C   UNL     1      21.719  24.881  22.544  1.00  0.00     0.364 C 
ATOM     43  O   UNL     1      20.903  24.687  23.480  1.00  0.00    -0.246 OA
BRANCH  42  44
ATOM     44  O   UNL     1      21.206  25.246  21.310  1.00  0.00    -0.477 OA
ATOM     45  H   UNL     1      20.964  24.482  20.660  1.00  0.00     0.296 HD
ENDBRANCH  42  44
ENDBRANCH   3  42
BRANCH   6  46
ATOM     46  O   UNL     1      26.002  24.200  22.187  1.00  0.00    -0.391 OA
ATOM     47  H   UNL     1      26.787  23.683  21.867  1.00  0.00     0.211 HD
ENDBRANCH   6  46
BRANCH   7  48
ATOM     48  N   UNL     1      24.088  25.705  19.476  1.00  0.00    -0.348 N 
ATOM     49  C   UNL     1      24.247  26.699  18.449  1.00  0.00     0.217 C 
ATOM     50  H   UNL     1      23.367  24.981  19.268  1.00  0.00     0.163 HD
ATOM     51  C   UNL     1      23.408  26.627  17.212  1.00  0.00     0.114 C 
ATOM     52  O   UNL     1      25.085  27.600  18.619  1.00  0.00    -0.275 OA
ENDBRANCH   7  48
ENDBRANCH   1   2
BRANCH   1  53
ATOM     53  O   UNL     1      26.305  27.777  21.393  1.00  0.00    -0.388 OA
ATOM     54  H   UNL     1      27.194  27.670  21.797  1.00  0.00     0.211 HD
ENDBRANCH   1  53
BRANCH   1  55
ATOM     55  C   UNL     1      24.564  28.903  22.606  1.00  0.00     0.165 C 
BRANCH  55  56
ATOM     56  O   UNL     1      24.012  28.768  23.840  1.00  0.00    -0.388 OA
ATOM     57  H   UNL     1      24.175  29.496  24.471  1.00  0.00     0.211 HD
ENDBRANCH  55  56
BRANCH  55  58
ATOM     58  C   UNL     1      23.715  29.394  21.499  1.00  0.00     0.154 C 
BRANCH  58  59
ATOM     59  N   UNL     1      22.351  29.598  21.903  1.00  0.00    -0.319 N 
ATOM     60  C   UNL     1      21.248  28.901  21.362  1.00  0.00     0.407 C 
ATOM     61  H   UNL     1      22.131  30.312  22.652  1.00  0.00     0.167 HD
ATOM     62  O   UNL     1      21.380  28.040  20.479  1.00  0.00    -0.225 OA
BRANCH  60  63
ATOM     63  O   UNL     1      19.923  29.128  21.786  1.00  0.00    -0.443 OA
BRANCH  63  64
ATOM     64  C   UNL     1      19.099  30.026  21.066  1.00  0.00     0.294 C 
BRANCH  64  65
ATOM     65  C   UNL     1      17.872  29.390  20.555  1.00  0.00     0.120 A 
ATOM     66  C   UNL     1      16.675  29.952  20.207  1.00  0.00     0.138 A 
ATOM     67  N   UNL     1      17.740  28.064  20.363  1.00  0.00    -0.132 NA
ATOM     68  N   UNL     1      15.851  28.954  19.816  1.00  0.00    -0.248 N 
ATOM     69  N   UNL     1      16.521  27.821  19.920  1.00  0.00    -0.067 NA
BRANCH  68  70
ATOM     70  C   UNL     1      14.492  29.133  19.375  1.00  0.00     0.181 C 
BRANCH  70  71
ATOM     71  C   UNL     1      13.671  29.734  20.446  1.00  0.00    -0.026 A 
ATOM     72  C   UNL     1      13.164  31.006  20.292  1.00  0.00     0.006 A 
ATOM     73  C   UNL     1      13.423  29.029  21.621  1.00  0.00     0.006 A 
ATOM     74  C   UNL     1      12.419  31.516  21.341  1.00  0.00     0.016 A 
ATOM     75  C   UNL     1      12.682  29.543  22.661  1.00  0.00     0.016 A 
ATOM     76  C   UNL     1      12.177  30.813  22.504  1.00  0.00     0.059 A 
BRANCH  76  77
ATOM     77  C   UNL     1      11.390  31.409  23.572  1.00  0.00     0.335 C 
ATOM     78  O   UNL     1      11.673  32.536  24.002  1.00  0.00    -0.246 OA
BRANCH  77  79
ATOM     79  O   UNL     1      10.329  30.715  24.108  1.00  0.00    -0.478 OA
ATOM     80  H   UNL     1      10.444  30.044  24.865  1.00  0.00     0.297 HD
ENDBRANCH  77  79
ENDBRANCH  76  77
ENDBRANCH  70  71
ENDBRANCH  68  70
ENDBRANCH  64  65
ENDBRANCH  63  64
ENDBRANCH  60  63
ENDBRANCH  58  59
ENDBRANCH  55  58
ENDBRANCH   1  55
TORSDOF 33
