REMARK VINA RESULT:    -5.196      4.535     10.204
REMARK INTER + INTRA:         -21.520
REMARK INTER:                 -13.461
REMARK INTRA:                  -8.059
REMARK UNBOUND:                -8.275
REMARK SMILES CC(=O)N[C@@H]1[C@@H](O)C[C@](OC[C@H]2O[C@@H](O[C@H]3[C@H](O)[C@@H](O)[C@H](OCCN=[N+]=[N-])O[C@@H]3CO)[C@H](O)[C@@H](O)[C@H]2O)(C(=O)O)O[C@H]1C(O)[C@H](O)CNC(=O)OCc1cn(C(C)(C)C(=O)O)nn1
REMARK SMILES IDX 9 1 8 2 6 3 5 4 42 5 41 6 10 7 11 8 12 9 14 10 13 11 32 12
REMARK SMILES IDX 34 13 36 14 15 15 16 16 29 17 28 18 21 19 17 20 19 21 30 22
REMARK SMILES IDX 31 23 22 25 23 26 24 27 25 28 26 29 27 30 18 31 20 33 33 35
REMARK SMILES IDX 35 37 37 39 38 41 39 42 40 43 7 45 43 47 44 48 45 50 46 51
REMARK SMILES IDX 47 53 48 54 49 55 50 57 51 58 52 59 53 60 54 61 63 62 55 63
REMARK SMILES IDX 62 64 56 65 57 66 58 67 59 68 60 69 61 70 4 72 2 73 1 75
REMARK SMILES IDX 3 76
REMARK H PARENT 31 24 18 32 20 34 33 36 35 38 37 40 40 44 7 46 44 49 46 52
REMARK H PARENT 48 56 61 71 4 74
REMARK Flexibility Score: inf
ROOT
ATOM      1  C   UNL     1      20.092  28.665  20.860  1.00  0.00     0.272 C 
ATOM      2  C   UNL     1      20.957  29.260  19.827  1.00  0.00     0.113 C 
ATOM      3  C   UNL     1      21.734  28.274  19.001  1.00  0.00     0.145 C 
ATOM      4  C   UNL     1      21.955  27.013  19.779  1.00  0.00     0.142 C 
ATOM      5  C   UNL     1      22.000  27.445  21.257  1.00  0.00     0.178 C 
ATOM      6  O   UNL     1      20.701  27.680  21.645  1.00  0.00    -0.332 OA
ENDROOT
BRANCH   1   7
ATOM      7  O   UNL     1      18.916  28.157  20.401  1.00  0.00    -0.338 OA
BRANCH   7   8
ATOM      8  C   UNL     1      17.990  29.013  19.894  1.00  0.00     0.199 C 
BRANCH   8   9
ATOM      9  C   UNL     1      16.650  28.846  20.577  1.00  0.00     0.179 C 
ATOM     10  C   UNL     1      14.942  30.093  21.500  1.00  0.00     0.282 C 
ATOM     11  O   UNL     1      16.085  30.118  20.621  1.00  0.00    -0.341 OA
ATOM     12  C   UNL     1      13.899  29.312  20.795  1.00  0.00     0.202 C 
ATOM     13  C   UNL     1      14.445  28.623  19.545  1.00  0.00     0.179 C 
ATOM     14  C   UNL     1      15.759  27.917  19.841  1.00  0.00     0.177 C 
BRANCH  10  15
ATOM     15  O   UNL     1      14.712  31.411  21.756  1.00  0.00    -0.341 OA
BRANCH  15  16
ATOM     16  C   UNL     1      14.607  31.741  23.096  1.00  0.00     0.184 C 
ATOM     17  C   UNL     1      14.920  33.193  23.284  1.00  0.00     0.178 C 
ATOM     18  O   UNL     1      15.304  33.469  24.605  1.00  0.00    -0.341 OA
ATOM     19  C   UNL     1      16.577  33.003  24.900  1.00  0.00     0.281 C 
ATOM     20  C   UNL     1      15.619  30.947  23.922  1.00  0.00     0.180 C 
ATOM     21  C   UNL     1      16.879  31.756  24.098  1.00  0.00     0.202 C 
BRANCH  17  22
ATOM     22  C   UNL     1      13.677  34.071  23.058  1.00  0.00     0.191 C 
BRANCH  22  23
ATOM     23  O   UNL     1      12.623  33.227  22.774  1.00  0.00    -0.394 OA
ATOM     24  H   UNL     1      12.945  32.280  22.855  1.00  0.00     0.210 HD
ENDBRANCH  22  23
ENDBRANCH  17  22
BRANCH  19  25
ATOM     25  O   UNL     1      16.587  32.738  26.269  1.00  0.00    -0.350 OA
BRANCH  25  26
ATOM     26  C   UNL     1      17.834  32.614  26.824  1.00  0.00     0.169 C 
BRANCH  26  27
ATOM     27  C   UNL     1      17.756  31.415  27.780  1.00  0.00     0.119 C 
BRANCH  27  28
ATOM     28  N   UNL     1      16.433  30.838  27.823  1.00  0.00    -0.092 NA
ATOM     29  N   UNL     1      15.957  30.545  28.931  1.00  0.00     0.001 N 
ATOM     30  N   UNL     1      15.612  30.046  29.993  1.00  0.00    -0.003 NA
ENDBRANCH  27  28
ENDBRANCH  26  27
ENDBRANCH  25  26
ENDBRANCH  19  25
BRANCH  20  31
ATOM     31  O   UNL     1      15.090  30.702  25.185  1.00  0.00    -0.387 OA
ATOM     32  H   UNL     1      14.886  31.529  25.688  1.00  0.00     0.211 HD
ENDBRANCH  20  31
BRANCH  21  33
ATOM     33  O   UNL     1      17.377  32.060  22.837  1.00  0.00    -0.385 OA
ATOM     34  H   UNL     1      16.676  32.279  22.178  1.00  0.00     0.211 HD
ENDBRANCH  21  33
ENDBRANCH  15  16
ENDBRANCH  10  15
BRANCH  12  35
ATOM     35  O   UNL     1      13.499  28.250  21.636  1.00  0.00    -0.385 OA
ATOM     36  H   UNL     1      13.797  27.377  21.338  1.00  0.00     0.211 HD
ENDBRANCH  12  35
BRANCH  13  37
ATOM     37  O   UNL     1      14.575  29.531  18.512  1.00  0.00    -0.387 OA
ATOM     38  H   UNL     1      14.727  29.061  17.652  1.00  0.00     0.211 HD
ENDBRANCH  13  37
BRANCH  14  39
ATOM     39  O   UNL     1      16.305  27.555  18.620  1.00  0.00    -0.387 OA
ATOM     40  H   UNL     1      16.398  28.386  18.072  1.00  0.00     0.211 HD
ENDBRANCH  14  39
ENDBRANCH   8   9
ENDBRANCH   7   8
ENDBRANCH   1   7
BRANCH   1  41
ATOM     41  C   UNL     1      19.809  29.774  21.880  1.00  0.00     0.364 C 
ATOM     42  O   UNL     1      19.279  29.499  22.978  1.00  0.00    -0.246 OA
BRANCH  41  43
ATOM     43  O   UNL     1      20.129  31.091  21.610  1.00  0.00    -0.477 OA
ATOM     44  H   UNL     1      20.309  31.449  20.686  1.00  0.00     0.296 HD
ENDBRANCH  41  43
ENDBRANCH   1  41
BRANCH   3  45
ATOM     45  O   UNL     1      21.023  27.981  17.856  1.00  0.00    -0.391 OA
ATOM     46  H   UNL     1      20.386  28.701  17.609  1.00  0.00     0.211 HD
ENDBRANCH   3  45
BRANCH   5  47
ATOM     47  C   UNL     1      22.635  26.391  22.119  1.00  0.00     0.176 C 
BRANCH  47  48
ATOM     48  O   UNL     1      23.675  26.956  22.853  1.00  0.00    -0.388 OA
ATOM     49  H   UNL     1      24.501  26.390  22.791  1.00  0.00     0.211 HD
ENDBRANCH  47  48
BRANCH  47  50
ATOM     50  C   UNL     1      21.619  25.842  23.094  1.00  0.00     0.165 C 
BRANCH  50  51
ATOM     51  O   UNL     1      21.271  26.805  24.051  1.00  0.00    -0.388 OA
ATOM     52  H   UNL     1      20.293  26.802  24.145  1.00  0.00     0.211 HD
ENDBRANCH  50  51
BRANCH  50  53
ATOM     53  C   UNL     1      22.103  24.611  23.813  1.00  0.00     0.154 C 
BRANCH  53  54
ATOM     54  N   UNL     1      21.742  24.637  25.210  1.00  0.00    -0.319 N 
ATOM     55  C   UNL     1      22.722  24.606  26.231  1.00  0.00     0.407 C 
ATOM     56  H   UNL     1      20.741  24.680  25.488  1.00  0.00     0.167 HD
ATOM     57  O   UNL     1      23.952  24.555  25.976  1.00  0.00    -0.225 OA
BRANCH  55  58
ATOM     58  O   UNL     1      22.358  24.627  27.585  1.00  0.00    -0.443 OA
BRANCH  58  59
ATOM     59  C   UNL     1      22.612  25.812  28.347  1.00  0.00     0.294 C 
BRANCH  59  60
ATOM     60  C   UNL     1      22.143  27.006  27.644  1.00  0.00     0.120 A 
ATOM     61  C   UNL     1      22.854  28.158  27.428  1.00  0.00     0.139 A 
ATOM     62  N   UNL     1      20.939  27.179  27.094  1.00  0.00    -0.132 NA
ATOM     63  N   UNL     1      22.068  29.016  26.748  1.00  0.00    -0.235 N 
ATOM     64  N   UNL     1      20.909  28.374  26.567  1.00  0.00    -0.066 NA
BRANCH  63  65
ATOM     65  C   UNL     1      22.355  30.357  26.284  1.00  0.00     0.155 C 
ATOM     66  C   UNL     1      23.798  30.693  26.517  1.00  0.00     0.049 C 
ATOM     67  C   UNL     1      21.506  31.380  27.031  1.00  0.00     0.049 C 
BRANCH  65  68
ATOM     68  C   UNL     1      21.988  30.430  24.851  1.00  0.00     0.331 C 
ATOM     69  O   UNL     1      21.454  31.460  24.413  1.00  0.00    -0.250 OA
BRANCH  68  70
ATOM     70  O   UNL     1      22.251  29.344  24.035  1.00  0.00    -0.479 OA
ATOM     71  H   UNL     1      22.033  28.391  24.303  1.00  0.00     0.296 HD
ENDBRANCH  68  70
ENDBRANCH  65  68
ENDBRANCH  63  65
ENDBRANCH  59  60
ENDBRANCH  58  59
ENDBRANCH  55  58
ENDBRANCH  53  54
ENDBRANCH  50  53
ENDBRANCH  47  50
ENDBRANCH   5  47
BRANCH   4  72
ATOM     72  N   UNL     1      23.231  26.405  19.506  1.00  0.00    -0.348 N 
ATOM     73  C   UNL     1      23.397  25.190  18.783  1.00  0.00     0.217 C 
ATOM     74  H   UNL     1      24.087  26.881  19.853  1.00  0.00     0.163 HD
ATOM     75  C   UNL     1      24.761  24.625  18.543  1.00  0.00     0.114 C 
ATOM     76  O   UNL     1      22.380  24.591  18.344  1.00  0.00    -0.275 OA
ENDBRANCH   4  72
TORSDOF 32
