REMARK VINA RESULT:    -5.740      4.559      8.711
REMARK INTER + INTRA:         -21.570
REMARK INTER:                 -11.774
REMARK INTRA:                  -9.796
REMARK UNBOUND:                -6.938
REMARK SMILES CC(=O)N[C@@H]1[C@@H](O)C[C@](OC[C@H]2O[C@@H](O[C@H]3[C@H](O)[C@@H](O)[C@H](OCCN=[N+]=[N-])O[C@@H]3CO)[C@H](O)[C@@H](O)[C@H]2O)(C(=O)O)O[C@H]1C(O)[C@H](O)CNC(=O)OCc1cn(Cc2cc(Br)cc(Br)c2O)nn1
REMARK SMILES IDX 9 1 8 2 6 3 5 4 42 5 41 6 10 7 11 8 12 9 14 10 13 11 32 12
REMARK SMILES IDX 34 13 36 14 15 15 16 16 29 17 28 18 21 19 17 20 19 21 30 22
REMARK SMILES IDX 31 23 22 25 23 26 24 27 25 28 26 29 27 30 18 31 20 33 33 35
REMARK SMILES IDX 35 37 37 39 38 41 39 42 40 43 7 45 43 47 44 48 45 50 46 51
REMARK SMILES IDX 47 53 48 54 49 55 50 57 51 58 52 59 53 60 54 61 67 62 55 63
REMARK SMILES IDX 66 64 56 65 57 66 58 67 64 68 59 69 62 70 60 71 61 72 63 73
REMARK SMILES IDX 65 74 4 76 2 77 1 79 3 80
REMARK H PARENT 31 24 18 32 20 34 33 36 35 38 37 40 40 44 7 46 44 49 46 52
REMARK H PARENT 48 56 65 75 4 78
REMARK Flexibility Score: inf
ROOT
ATOM      1  C   UNL     1      23.217  25.771  25.460  1.00  0.00     0.272 C 
ATOM      2  C   UNL     1      22.511  24.821  26.543  1.00  0.00     0.113 C 
ATOM      3  C   UNL     1      23.426  24.578  27.673  1.00  0.00     0.145 C 
ATOM      4  C   UNL     1      23.880  25.885  28.268  1.00  0.00     0.142 C 
ATOM      5  C   UNL     1      23.744  27.081  27.375  1.00  0.00     0.178 C 
ATOM      6  O   UNL     1      23.496  26.938  26.078  1.00  0.00    -0.332 OA
ENDROOT
BRANCH   1   7
ATOM      7  O   UNL     1      22.192  25.913  24.588  1.00  0.00    -0.338 OA
BRANCH   7   8
ATOM      8  C   UNL     1      22.273  26.350  23.346  1.00  0.00     0.199 C 
BRANCH   8   9
ATOM      9  C   UNL     1      21.403  25.810  22.265  1.00  0.00     0.179 C 
ATOM     10  C   UNL     1      21.191  27.761  21.010  1.00  0.00     0.282 C 
ATOM     11  O   UNL     1      20.609  26.741  21.689  1.00  0.00    -0.341 OA
ATOM     12  C   UNL     1      22.325  27.310  20.149  1.00  0.00     0.202 C 
ATOM     13  C   UNL     1      22.273  25.822  19.935  1.00  0.00     0.179 C 
ATOM     14  C   UNL     1      22.211  25.043  21.215  1.00  0.00     0.177 C 
BRANCH  10  15
ATOM     15  O   UNL     1      21.527  28.816  21.873  1.00  0.00    -0.341 OA
BRANCH  15  16
ATOM     16  C   UNL     1      20.489  29.678  22.145  1.00  0.00     0.184 C 
ATOM     17  C   UNL     1      20.884  31.117  21.907  1.00  0.00     0.178 C 
ATOM     18  O   UNL     1      19.997  32.035  22.393  1.00  0.00    -0.341 OA
ATOM     19  C   UNL     1      18.750  31.553  22.750  1.00  0.00     0.281 C 
ATOM     20  C   UNL     1      20.104  29.636  23.628  1.00  0.00     0.180 C 
ATOM     21  C   UNL     1      18.817  30.417  23.734  1.00  0.00     0.202 C 
BRANCH  17  22
ATOM     22  C   UNL     1      21.191  31.404  20.452  1.00  0.00     0.191 C 
BRANCH  22  23
ATOM     23  O   UNL     1      22.415  30.889  20.082  1.00  0.00    -0.394 OA
ATOM     24  H   UNL     1      22.978  31.630  19.756  1.00  0.00     0.210 HD
ENDBRANCH  22  23
ENDBRANCH  17  22
BRANCH  19  25
ATOM     25  O   UNL     1      18.050  31.227  21.600  1.00  0.00    -0.350 OA
BRANCH  25  26
ATOM     26  C   UNL     1      16.979  30.423  21.883  1.00  0.00     0.169 C 
BRANCH  26  27
ATOM     27  C   UNL     1      16.591  29.452  20.821  1.00  0.00     0.119 C 
BRANCH  27  28
ATOM     28  N   UNL     1      15.647  28.455  21.284  1.00  0.00    -0.092 NA
ATOM     29  N   UNL     1      14.506  28.726  21.603  1.00  0.00     0.001 N 
ATOM     30  N   UNL     1      13.284  28.794  21.706  1.00  0.00    -0.003 NA
ENDBRANCH  27  28
ENDBRANCH  26  27
ENDBRANCH  25  26
ENDBRANCH  19  25
BRANCH  20  31
ATOM     31  O   UNL     1      20.015  28.369  24.137  1.00  0.00    -0.387 OA
ATOM     32  H   UNL     1      20.966  28.055  24.271  1.00  0.00     0.211 HD
ENDBRANCH  20  31
BRANCH  21  33
ATOM     33  O   UNL     1      18.620  30.908  25.020  1.00  0.00    -0.385 OA
ATOM     34  H   UNL     1      17.711  31.238  25.127  1.00  0.00     0.211 HD
ENDBRANCH  21  33
ENDBRANCH  15  16
ENDBRANCH  10  15
BRANCH  12  35
ATOM     35  O   UNL     1      22.209  27.981  18.907  1.00  0.00    -0.385 OA
ATOM     36  H   UNL     1      23.087  27.864  18.475  1.00  0.00     0.211 HD
ENDBRANCH  12  35
BRANCH  13  37
ATOM     37  O   UNL     1      23.317  25.374  19.125  1.00  0.00    -0.387 OA
ATOM     38  H   UNL     1      23.957  24.925  19.733  1.00  0.00     0.211 HD
ENDBRANCH  13  37
BRANCH  14  39
ATOM     39  O   UNL     1      23.491  24.827  21.693  1.00  0.00    -0.387 OA
ATOM     40  H   UNL     1      23.612  25.253  22.584  1.00  0.00     0.211 HD
ENDBRANCH  14  39
ENDBRANCH   8   9
ENDBRANCH   7   8
ENDBRANCH   1   7
BRANCH   1  41
ATOM     41  C   UNL     1      24.393  25.030  25.017  1.00  0.00     0.364 C 
ATOM     42  O   UNL     1      24.276  23.925  24.366  1.00  0.00    -0.246 OA
BRANCH  41  43
ATOM     43  O   UNL     1      25.689  25.420  25.232  1.00  0.00    -0.477 OA
ATOM     44  H   UNL     1      26.462  24.873  24.884  1.00  0.00     0.296 HD
ENDBRANCH  41  43
ENDBRANCH   1  41
BRANCH   3  45
ATOM     45  O   UNL     1      22.765  23.782  28.625  1.00  0.00    -0.391 OA
ATOM     46  H   UNL     1      22.614  24.303  29.447  1.00  0.00     0.211 HD
ENDBRANCH   3  45
BRANCH   5  47
ATOM     47  C   UNL     1      22.845  28.079  28.080  1.00  0.00     0.176 C 
BRANCH  47  48
ATOM     48  O   UNL     1      23.071  29.371  27.542  1.00  0.00    -0.388 OA
ATOM     49  H   UNL     1      23.681  29.328  26.779  1.00  0.00     0.211 HD
ENDBRANCH  47  48
BRANCH  47  50
ATOM     50  C   UNL     1      21.412  27.743  28.119  1.00  0.00     0.165 C 
BRANCH  50  51
ATOM     51  O   UNL     1      20.814  27.818  26.880  1.00  0.00    -0.388 OA
ATOM     52  H   UNL     1      19.995  28.373  26.869  1.00  0.00     0.211 HD
ENDBRANCH  50  51
BRANCH  50  53
ATOM     53  C   UNL     1      20.564  28.401  29.152  1.00  0.00     0.154 C 
BRANCH  53  54
ATOM     54  N   UNL     1      20.070  29.698  28.844  1.00  0.00    -0.319 N 
ATOM     55  C   UNL     1      20.721  30.820  29.461  1.00  0.00     0.407 C 
ATOM     56  H   UNL     1      19.264  29.889  28.228  1.00  0.00     0.167 HD
ATOM     57  O   UNL     1      21.706  30.605  30.248  1.00  0.00    -0.225 OA
BRANCH  55  58
ATOM     58  O   UNL     1      20.290  32.090  29.201  1.00  0.00    -0.443 OA
BRANCH  58  59
ATOM     59  C   UNL     1      21.105  33.065  28.604  1.00  0.00     0.294 C 
BRANCH  59  60
ATOM     60  C   UNL     1      21.663  32.566  27.326  1.00  0.00     0.120 A 
ATOM     61  C   UNL     1      22.820  32.946  26.658  1.00  0.00     0.138 A 
ATOM     62  N   UNL     1      21.134  31.608  26.548  1.00  0.00    -0.132 NA
ATOM     63  N   UNL     1      22.958  32.235  25.530  1.00  0.00    -0.248 N 
ATOM     64  N   UNL     1      21.901  31.419  25.493  1.00  0.00    -0.067 NA
BRANCH  63  65
ATOM     65  C   UNL     1      24.010  32.286  24.508  1.00  0.00     0.185 C 
BRANCH  65  66
ATOM     66  C   UNL     1      24.805  31.042  24.628  1.00  0.00     0.018 A 
ATOM     67  C   UNL     1      25.531  30.824  25.782  1.00  0.00     0.025 A 
ATOM     68  C   UNL     1      24.848  30.086  23.619  1.00  0.00     0.134 A 
ATOM     69  C   UNL     1      26.296  29.682  25.962  1.00  0.00     0.019 A 
ATOM     70  C   UNL     1      25.603  28.934  23.769  1.00  0.00     0.061 A 
ATOM     71  Br  UNL     1      27.280  29.424  27.571  1.00  0.00    -0.051 Br
ATOM     72  C   UNL     1      26.321  28.752  24.951  1.00  0.00     0.035 A 
ATOM     73  Br  UNL     1      25.643  27.650  22.385  1.00  0.00    -0.047 Br
BRANCH  68  74
ATOM     74  O   UNL     1      24.102  30.365  22.491  1.00  0.00    -0.506 OA
ATOM     75  H   UNL     1      24.547  30.351  21.588  1.00  0.00     0.293 HD
ENDBRANCH  68  74
ENDBRANCH  65  66
ENDBRANCH  63  65
ENDBRANCH  59  60
ENDBRANCH  58  59
ENDBRANCH  55  58
ENDBRANCH  53  54
ENDBRANCH  50  53
ENDBRANCH  47  50
ENDBRANCH   5  47
BRANCH   4  76
ATOM     76  N   UNL     1      25.195  25.725  28.852  1.00  0.00    -0.348 N 
ATOM     77  C   UNL     1      25.305  25.470  30.242  1.00  0.00     0.217 C 
ATOM     78  H   UNL     1      26.079  25.793  28.295  1.00  0.00     0.163 HD
ATOM     79  C   UNL     1      26.665  25.304  30.845  1.00  0.00     0.114 C 
ATOM     80  O   UNL     1      24.252  25.382  30.960  1.00  0.00    -0.275 OA
ENDBRANCH   4  76
TORSDOF 32
