REMARK VINA RESULT:    -8.677      2.417      7.917
REMARK INTER + INTRA:         -20.657
REMARK INTER:                 -12.600
REMARK INTRA:                  -8.056
REMARK UNBOUND:                 2.731
REMARK SMILES CC(=O)N[C@@H]1[C@@H](O)C[C@](OC[C@H]2O[C@@H](O[C@H]3[C@H](O)[C@@H](O)[C@H](OCCN=[N+]=[N-])O[C@@H]3CO)[C@H](O)[C@@H](O)[C@H]2O)(C(=O)O)O[C@H]1C(O)[C@H](O)CNC(=O)OCc1cn(C2CCc3ccccc3NC2=O)nn1
REMARK SMILES IDX 43 1 42 2 9 3 8 4 41 5 6 6 5 7 10 8 11 9 12 10 14 11 13 12
REMARK SMILES IDX 32 13 34 14 36 15 15 16 16 17 29 18 28 19 21 20 17 21 19 22
REMARK SMILES IDX 30 23 31 24 22 26 23 27 24 28 25 29 26 30 27 31 18 32 20 34
REMARK SMILES IDX 33 36 35 38 37 40 38 42 39 43 40 44 7 46 4 48 2 49 1 51 3 52
REMARK SMILES IDX 44 53 45 55 46 56 47 58 48 59 49 60 50 62 51 63 52 64 53 65
REMARK SMILES IDX 54 66 69 67 55 68 68 69 56 70 57 71 66 73 65 74 67 75 64 77
REMARK SMILES IDX 59 78 63 79 60 80 62 81 61 82 58 83
REMARK H PARENT 31 25 18 33 20 35 33 37 35 39 37 41 40 45 7 47 4 50 44 54
REMARK H PARENT 46 57 48 61 65 76
REMARK Flexibility Score: 90.00
ROOT
ATOM      1  C   UNL     1      22.909  28.941  20.975  1.00  0.00     0.176 C 
ENDROOT
BRANCH   1   2
ATOM      2  C   UNL     1      22.608  29.081  22.481  1.00  0.00     0.178 C 
ATOM      3  C   UNL     1      20.828  30.428  23.320  1.00  0.00     0.272 C 
ATOM      4  C   UNL     1      21.795  31.364  23.922  1.00  0.00     0.113 C 
ATOM      5  O   UNL     1      21.330  29.250  22.763  1.00  0.00    -0.332 OA
ATOM      6  C   UNL     1      23.086  31.423  23.177  1.00  0.00     0.145 C 
ATOM      7  C   UNL     1      23.627  30.003  23.092  1.00  0.00     0.142 C 
BRANCH   3   8
ATOM      8  O   UNL     1      20.012  30.943  22.375  1.00  0.00    -0.338 OA
BRANCH   8   9
ATOM      9  C   UNL     1      19.738  30.382  21.209  1.00  0.00     0.199 C 
BRANCH   9  10
ATOM     10  C   UNL     1      18.434  29.865  20.784  1.00  0.00     0.179 C 
ATOM     11  C   UNL     1      16.278  29.674  21.601  1.00  0.00     0.282 C 
ATOM     12  O   UNL     1      17.493  30.340  21.759  1.00  0.00    -0.341 OA
ATOM     13  C   UNL     1      16.067  28.999  20.304  1.00  0.00     0.202 C 
ATOM     14  C   UNL     1      16.725  29.592  19.106  1.00  0.00     0.179 C 
ATOM     15  C   UNL     1      17.873  30.485  19.505  1.00  0.00     0.177 C 
BRANCH  11  16
ATOM     16  O   UNL     1      15.241  30.558  21.969  1.00  0.00    -0.341 OA
BRANCH  16  17
ATOM     17  C   UNL     1      14.917  30.462  23.296  1.00  0.00     0.184 C 
ATOM     18  C   UNL     1      13.460  30.659  23.624  1.00  0.00     0.178 C 
ATOM     19  O   UNL     1      13.333  30.377  24.986  1.00  0.00    -0.341 OA
ATOM     20  C   UNL     1      13.794  31.423  25.770  1.00  0.00     0.281 C 
ATOM     21  C   UNL     1      15.688  31.477  24.127  1.00  0.00     0.180 C 
ATOM     22  C   UNL     1      14.854  32.239  25.092  1.00  0.00     0.202 C 
BRANCH  18  23
ATOM     23  C   UNL     1      12.576  29.668  22.893  1.00  0.00     0.191 C 
BRANCH  23  24
ATOM     24  O   UNL     1      12.648  29.830  21.511  1.00  0.00    -0.394 OA
ATOM     25  H   UNL     1      11.805  30.133  21.113  1.00  0.00     0.210 HD
ENDBRANCH  23  24
ENDBRANCH  18  23
BRANCH  20  26
ATOM     26  O   UNL     1      14.216  30.910  26.983  1.00  0.00    -0.350 OA
BRANCH  26  27
ATOM     27  C   UNL     1      13.890  31.744  28.038  1.00  0.00     0.169 C 
BRANCH  27  28
ATOM     28  C   UNL     1      14.766  31.614  29.241  1.00  0.00     0.119 C 
BRANCH  28  29
ATOM     29  N   UNL     1      16.042  32.257  28.973  1.00  0.00    -0.092 NA
ATOM     30  N   UNL     1      17.021  31.619  28.544  1.00  0.00     0.001 N 
ATOM     31  N   UNL     1      17.692  31.003  27.704  1.00  0.00    -0.003 NA
ENDBRANCH  28  29
ENDBRANCH  27  28
ENDBRANCH  26  27
ENDBRANCH  20  26
BRANCH  21  32
ATOM     32  O   UNL     1      16.814  30.894  24.728  1.00  0.00    -0.387 OA
ATOM     33  H   UNL     1      17.514  31.590  24.825  1.00  0.00     0.211 HD
ENDBRANCH  21  32
BRANCH  22  34
ATOM     34  O   UNL     1      14.258  33.381  24.509  1.00  0.00    -0.385 OA
ATOM     35  H   UNL     1      14.246  33.335  23.534  1.00  0.00     0.211 HD
ENDBRANCH  22  34
ENDBRANCH  16  17
ENDBRANCH  11  16
BRANCH  13  36
ATOM     36  O   UNL     1      16.314  27.629  20.436  1.00  0.00    -0.385 OA
ATOM     37  H   UNL     1      16.320  27.204  19.539  1.00  0.00     0.211 HD
ENDBRANCH  13  36
BRANCH  14  38
ATOM     38  O   UNL     1      15.830  30.224  18.245  1.00  0.00    -0.387 OA
ATOM     39  H   UNL     1      16.136  30.009  17.325  1.00  0.00     0.211 HD
ENDBRANCH  14  38
BRANCH  15  40
ATOM     40  O   UNL     1      17.388  31.783  19.800  1.00  0.00    -0.387 OA
ATOM     41  H   UNL     1      17.422  31.861  20.778  1.00  0.00     0.211 HD
ENDBRANCH  15  40
ENDBRANCH   9  10
ENDBRANCH   8   9
ENDBRANCH   3   8
BRANCH   3  42
ATOM     42  C   UNL     1      20.032  29.856  24.473  1.00  0.00     0.364 C 
ATOM     43  O   UNL     1      19.690  28.697  24.504  1.00  0.00    -0.246 OA
BRANCH  42  44
ATOM     44  O   UNL     1      19.673  30.685  25.541  1.00  0.00    -0.477 OA
ATOM     45  H   UNL     1      19.065  31.479  25.427  1.00  0.00     0.296 HD
ENDBRANCH  42  44
ENDBRANCH   3  42
BRANCH   6  46
ATOM     46  O   UNL     1      22.803  31.904  21.887  1.00  0.00    -0.391 OA
ATOM     47  H   UNL     1      22.202  31.326  21.388  1.00  0.00     0.211 HD
ENDBRANCH   6  46
BRANCH   7  48
ATOM     48  N   UNL     1      24.089  29.626  24.386  1.00  0.00    -0.348 N 
ATOM     49  C   UNL     1      25.371  29.032  24.554  1.00  0.00     0.217 C 
ATOM     50  H   UNL     1      23.500  29.772  25.239  1.00  0.00     0.163 HD
ATOM     51  C   UNL     1      25.897  28.619  25.884  1.00  0.00     0.114 C 
ATOM     52  O   UNL     1      26.062  28.860  23.544  1.00  0.00    -0.275 OA
ENDBRANCH   7  48
ENDBRANCH   1   2
BRANCH   1  53
ATOM     53  O   UNL     1      24.255  28.601  20.802  1.00  0.00    -0.388 OA
ATOM     54  H   UNL     1      24.411  27.997  20.043  1.00  0.00     0.211 HD
ENDBRANCH   1  53
BRANCH   1  55
ATOM     55  C   UNL     1      22.080  27.906  20.305  1.00  0.00     0.165 C 
BRANCH  55  56
ATOM     56  O   UNL     1      21.790  26.791  21.082  1.00  0.00    -0.388 OA
ATOM     57  H   UNL     1      22.086  25.988  20.576  1.00  0.00     0.211 HD
ENDBRANCH  55  56
BRANCH  55  58
ATOM     58  C   UNL     1      22.572  27.418  18.982  1.00  0.00     0.154 C 
BRANCH  58  59
ATOM     59  N   UNL     1      23.661  26.491  19.031  1.00  0.00    -0.319 N 
ATOM     60  C   UNL     1      23.511  25.085  19.037  1.00  0.00     0.407 C 
ATOM     61  H   UNL     1      24.628  26.873  19.065  1.00  0.00     0.167 HD
ATOM     62  O   UNL     1      22.374  24.555  18.998  1.00  0.00    -0.225 OA
BRANCH  60  63
ATOM     63  O   UNL     1      24.633  24.292  19.086  1.00  0.00    -0.443 OA
BRANCH  63  64
ATOM     64  C   UNL     1      25.495  24.238  20.169  1.00  0.00     0.294 C 
BRANCH  64  65
ATOM     65  C   UNL     1      24.859  24.788  21.368  1.00  0.00     0.120 A 
ATOM     66  C   UNL     1      24.071  24.106  22.263  1.00  0.00     0.139 A 
ATOM     67  N   UNL     1      24.906  26.059  21.837  1.00  0.00    -0.132 NA
ATOM     68  N   UNL     1      23.663  24.955  23.239  1.00  0.00    -0.240 N 
ATOM     69  N   UNL     1      24.188  26.127  22.946  1.00  0.00    -0.066 NA
BRANCH  68  70
ATOM     70  C   UNL     1      22.808  24.628  24.392  1.00  0.00     0.198 C 
BRANCH  70  71
ATOM     71  C   UNL     1      23.703  24.565  25.572  1.00  0.00     0.042 CG0
ATOM     72  G   UNL     1      23.058  24.613  26.913  1.00  0.00     0.000 G0
ENDBRANCH  70  71
BRANCH  70  73
ATOM     73  C   UNL     1      21.763  25.656  24.418  1.00  0.00     0.249 C 
ATOM     74  N   UNL     1      21.651  26.828  25.210  1.00  0.00    -0.324 N 
ATOM     75  O   UNL     1      20.817  25.467  23.606  1.00  0.00    -0.272 OA
ATOM     76  H   UNL     1      21.067  27.618  24.859  1.00  0.00     0.170 HD
BRANCH  74  77
ATOM     77  C   UNL     1      22.302  27.001  26.487  1.00  0.00     0.044 A 
ATOM     78  C   UNL     1      22.938  26.054  27.282  1.00  0.00    -0.024 A 
ATOM     79  C   UNL     1      22.245  28.310  26.913  1.00  0.00     0.026 A 
ATOM     80  C   UNL     1      23.514  26.391  28.484  1.00  0.00     0.006 A 
ATOM     81  C   UNL     1      22.816  28.676  28.117  1.00  0.00     0.002 A 
ATOM     82  C   UNL     1      23.449  27.700  28.894  1.00  0.00     0.000 A 
BRANCH  78  83
ATOM     83  C   UNL     1      23.053  24.615  26.910  1.00  0.00     0.040 CG0
ATOM     84  G   UNL     1      23.700  24.565  25.570  1.00  0.00     0.000 G0
ENDBRANCH  78  83
ENDBRANCH  74  77
ENDBRANCH  70  73
ENDBRANCH  68  70
ENDBRANCH  64  65
ENDBRANCH  63  64
ENDBRANCH  60  63
ENDBRANCH  58  59
ENDBRANCH  55  58
ENDBRANCH   1  55
TORSDOF 30
