REMARK VINA RESULT:    -5.959     15.114     19.332
REMARK INTER + INTRA:         -20.710
REMARK INTER:                 -13.159
REMARK INTRA:                  -7.551
REMARK UNBOUND:                -6.043
REMARK SMILES CC(=O)N[C@@H]1[C@@H](O)C[C@](OC[C@H]2O[C@@H](O[C@H]3[C@H](O)[C@@H](O)[C@H](OCCN=[N+]=[N-])O[C@@H]3CO)[C@H](O)[C@@H](O)[C@H]2O)(C(=O)O)O[C@H]1C(O)[C@H](O)CNC(=O)OCc1cn(-c2ccccc2I)nn1
REMARK SMILES IDX 9 1 8 2 6 3 5 4 42 5 41 6 10 7 11 8 12 9 14 10 13 11 32 12
REMARK SMILES IDX 34 13 36 14 15 15 16 16 29 17 28 18 21 19 17 20 19 21 30 22
REMARK SMILES IDX 31 23 22 25 23 26 24 27 25 28 26 29 27 30 18 31 20 33 33 35
REMARK SMILES IDX 35 37 37 39 38 41 39 42 40 43 7 45 43 47 44 48 45 50 46 51
REMARK SMILES IDX 47 53 48 54 49 55 50 57 51 58 52 59 53 60 54 61 64 62 55 63
REMARK SMILES IDX 63 64 56 65 57 66 61 67 58 68 60 69 62 70 59 71 4 72 2 73
REMARK SMILES IDX 1 75 3 76
REMARK H PARENT 31 24 18 32 20 34 33 36 35 38 37 40 40 44 7 46 44 49 46 52
REMARK H PARENT 48 56 4 74
REMARK Flexibility Score: inf
ROOT
ATOM      1  C   UNL     1       1.025  23.456  26.862  1.00  0.00     0.272 C 
ATOM      2  C   UNL     1      -0.412  23.073  27.076  1.00  0.00     0.113 C 
ATOM      3  C   UNL     1      -0.857  23.365  28.519  1.00  0.00     0.145 C 
ATOM      4  C   UNL     1       0.009  22.417  29.398  1.00  0.00     0.142 C 
ATOM      5  C   UNL     1       1.452  22.601  29.016  1.00  0.00     0.178 C 
ATOM      6  O   UNL     1       1.535  23.719  28.178  1.00  0.00    -0.332 OA
ENDROOT
BRANCH   1   7
ATOM      7  O   UNL     1       1.288  24.612  26.198  1.00  0.00    -0.338 OA
BRANCH   7   8
ATOM      8  C   UNL     1       1.705  25.747  26.673  1.00  0.00     0.199 C 
BRANCH   8   9
ATOM      9  C   UNL     1       2.798  26.506  26.032  1.00  0.00     0.179 C 
ATOM     10  C   UNL     1       4.114  27.527  27.596  1.00  0.00     0.282 C 
ATOM     11  O   UNL     1       3.191  27.674  26.596  1.00  0.00    -0.341 OA
ATOM     12  C   UNL     1       5.492  27.231  27.019  1.00  0.00     0.202 C 
ATOM     13  C   UNL     1       5.292  26.448  25.700  1.00  0.00     0.179 C 
ATOM     14  C   UNL     1       4.050  25.594  25.861  1.00  0.00     0.177 C 
BRANCH  10  15
ATOM     15  O   UNL     1       3.765  26.817  28.700  1.00  0.00    -0.341 OA
BRANCH  15  16
ATOM     16  C   UNL     1       3.810  27.496  29.896  1.00  0.00     0.184 C 
ATOM     17  C   UNL     1       3.918  28.994  29.796  1.00  0.00     0.178 C 
ATOM     18  O   UNL     1       4.482  29.517  30.957  1.00  0.00    -0.341 OA
ATOM     19  C   UNL     1       4.232  28.749  32.100  1.00  0.00     0.281 C 
ATOM     20  C   UNL     1       5.141  27.092  30.567  1.00  0.00     0.180 C 
ATOM     21  C   UNL     1       4.936  27.418  32.041  1.00  0.00     0.202 C 
BRANCH  17  22
ATOM     22  C   UNL     1       2.659  29.696  29.401  1.00  0.00     0.191 C 
BRANCH  22  23
ATOM     23  O   UNL     1       1.603  28.815  29.660  1.00  0.00    -0.394 OA
ATOM     24  H   UNL     1       1.382  28.348  28.809  1.00  0.00     0.210 HD
ENDBRANCH  22  23
ENDBRANCH  17  22
BRANCH  19  25
ATOM     25  O   UNL     1       2.909  28.670  32.408  1.00  0.00    -0.350 OA
BRANCH  25  26
ATOM     26  C   UNL     1       2.677  28.614  33.747  1.00  0.00     0.169 C 
BRANCH  26  27
ATOM     27  C   UNL     1       1.365  28.049  34.191  1.00  0.00     0.119 C 
BRANCH  27  28
ATOM     28  N   UNL     1       0.827  26.982  33.396  1.00  0.00    -0.092 NA
ATOM     29  N   UNL     1       1.400  25.880  33.483  1.00  0.00     0.001 N 
ATOM     30  N   UNL     1       1.849  24.740  33.359  1.00  0.00    -0.003 NA
ENDBRANCH  27  28
ENDBRANCH  26  27
ENDBRANCH  25  26
ENDBRANCH  19  25
BRANCH  20  31
ATOM     31  O   UNL     1       5.398  25.748  30.377  1.00  0.00    -0.387 OA
ATOM     32  H   UNL     1       5.841  25.419  31.204  1.00  0.00     0.211 HD
ENDBRANCH  20  31
BRANCH  21  33
ATOM     33  O   UNL     1       6.148  27.404  32.729  1.00  0.00    -0.385 OA
ATOM     34  H   UNL     1       6.003  27.861  33.621  1.00  0.00     0.211 HD
ENDBRANCH  21  33
ENDBRANCH  15  16
ENDBRANCH  10  15
BRANCH  12  35
ATOM     35  O   UNL     1       6.187  28.379  26.663  1.00  0.00    -0.385 OA
ATOM     36  H   UNL     1       6.149  28.989  27.446  1.00  0.00     0.211 HD
ENDBRANCH  12  35
BRANCH  13  37
ATOM     37  O   UNL     1       6.375  25.716  25.329  1.00  0.00    -0.387 OA
ATOM     38  H   UNL     1       6.525  25.630  24.338  1.00  0.00     0.211 HD
ENDBRANCH  13  37
BRANCH  14  39
ATOM     39  O   UNL     1       4.152  24.869  27.037  1.00  0.00    -0.387 OA
ATOM     40  H   UNL     1       5.061  25.018  27.446  1.00  0.00     0.211 HD
ENDBRANCH  14  39
ENDBRANCH   8   9
ENDBRANCH   7   8
ENDBRANCH   1   7
BRANCH   1  41
ATOM     41  C   UNL     1       1.776  22.311  26.315  1.00  0.00     0.364 C 
ATOM     42  O   UNL     1       1.266  21.269  25.869  1.00  0.00    -0.246 OA
BRANCH  41  43
ATOM     43  O   UNL     1       3.187  22.337  26.269  1.00  0.00    -0.477 OA
ATOM     44  H   UNL     1       3.654  23.035  25.672  1.00  0.00     0.296 HD
ENDBRANCH  41  43
ENDBRANCH   1  41
BRANCH   3  45
ATOM     45  O   UNL     1      -0.656  24.680  28.876  1.00  0.00    -0.391 OA
ATOM     46  H   UNL     1      -0.546  24.760  29.853  1.00  0.00     0.211 HD
ENDBRANCH   3  45
BRANCH   5  47
ATOM     47  C   UNL     1       2.258  23.052  30.264  1.00  0.00     0.176 C 
BRANCH  47  48
ATOM     48  O   UNL     1       3.047  24.178  29.810  1.00  0.00    -0.388 OA
ATOM     49  H   UNL     1       3.652  23.794  29.105  1.00  0.00     0.211 HD
ENDBRANCH  47  48
BRANCH  47  50
ATOM     50  C   UNL     1       3.317  22.057  30.634  1.00  0.00     0.165 C 
BRANCH  50  51
ATOM     51  O   UNL     1       2.803  20.747  30.446  1.00  0.00    -0.388 OA
ATOM     52  H   UNL     1       3.003  20.175  31.229  1.00  0.00     0.211 HD
ENDBRANCH  50  51
BRANCH  50  53
ATOM     53  C   UNL     1       3.922  22.130  31.969  1.00  0.00     0.154 C 
BRANCH  53  54
ATOM     54  N   UNL     1       4.726  23.309  32.234  1.00  0.00    -0.319 N 
ATOM     55  C   UNL     1       5.092  23.607  33.581  1.00  0.00     0.407 C 
ATOM     56  H   UNL     1       5.060  23.964  31.499  1.00  0.00     0.167 HD
ATOM     57  O   UNL     1       4.695  22.836  34.515  1.00  0.00    -0.225 OA
BRANCH  55  58
ATOM     58  O   UNL     1       5.858  24.686  33.972  1.00  0.00    -0.443 OA
BRANCH  58  59
ATOM     59  C   UNL     1       6.567  24.675  35.203  1.00  0.00     0.294 C 
BRANCH  59  60
ATOM     60  C   UNL     1       8.040  24.705  34.887  1.00  0.00     0.121 A 
ATOM     61  C   UNL     1       9.029  25.430  35.511  1.00  0.00     0.144 A 
ATOM     62  N   UNL     1       8.644  24.010  33.908  1.00  0.00    -0.131 NA
ATOM     63  N   UNL     1      10.171  25.124  34.866  1.00  0.00    -0.219 N 
ATOM     64  N   UNL     1       9.931  24.263  33.896  1.00  0.00    -0.062 NA
BRANCH  63  65
ATOM     65  C   UNL     1      11.468  25.638  35.148  1.00  0.00     0.080 A 
ATOM     66  C   UNL     1      12.367  24.914  35.923  1.00  0.00     0.029 A 
ATOM     67  C   UNL     1      11.865  26.864  34.669  1.00  0.00     0.039 A 
ATOM     68  C   UNL     1      13.629  25.461  36.179  1.00  0.00     0.002 A 
ATOM     69  C   UNL     1      13.133  27.397  34.936  1.00  0.00     0.017 A 
ATOM     70  I   UNL     1      10.519  27.990  33.489  1.00  0.00    -0.042 I 
ATOM     71  C   UNL     1      14.025  26.687  35.699  1.00  0.00     0.001 A 
ENDBRANCH  63  65
ENDBRANCH  59  60
ENDBRANCH  58  59
ENDBRANCH  55  58
ENDBRANCH  53  54
ENDBRANCH  50  53
ENDBRANCH  47  50
ENDBRANCH   5  47
BRANCH   4  72
ATOM     72  N   UNL     1      -0.532  21.121  29.208  1.00  0.00    -0.348 N 
ATOM     73  C   UNL     1      -0.532  20.115  30.239  1.00  0.00     0.217 C 
ATOM     74  H   UNL     1      -0.963  20.814  28.318  1.00  0.00     0.163 HD
ATOM     75  C   UNL     1      -1.092  18.764  30.051  1.00  0.00     0.114 C 
ATOM     76  O   UNL     1      -0.016  20.450  31.339  1.00  0.00    -0.275 OA
ENDBRANCH   4  72
TORSDOF 30
