REMARK VINA RESULT:    -5.444      6.397     11.207
REMARK INTER + INTRA:         -23.348
REMARK INTER:                 -17.514
REMARK INTRA:                  -5.835
REMARK UNBOUND:                -8.356
REMARK SMILES CC(=O)N[C@@H]1[C@@H](O)C[C@](OC[C@H]2O[C@@H](O[C@H]3[C@H](O)[C@@H](O)[C@H](OCCN=[N+]=[N-])O[C@@H]3CO)[C@H](O)[C@@H](O)[C@H]2O)(C(=O)O)O[C@H]1C(O)[C@H](O)CNC(=O)OCc1cn([C@@H](CCC(=O)O)C(=O)O)nn1
REMARK SMILES IDX 43 1 42 2 9 3 8 4 41 5 6 6 5 7 10 8 11 9 12 10 14 11 13 12
REMARK SMILES IDX 32 13 34 14 36 15 15 16 16 17 29 18 28 19 21 20 17 21 19 22
REMARK SMILES IDX 30 23 31 24 22 26 23 27 24 28 25 29 26 30 27 31 18 32 20 34
REMARK SMILES IDX 33 36 35 38 37 40 38 42 39 43 40 44 7 46 4 48 2 49 1 51 3 52
REMARK SMILES IDX 44 53 45 55 46 56 47 58 48 59 49 60 50 62 51 63 52 64 53 65
REMARK SMILES IDX 54 66 66 67 55 68 65 69 56 70 57 71 58 72 59 73 60 74 61 75
REMARK SMILES IDX 62 77 63 78 64 79
REMARK H PARENT 31 25 18 33 20 35 33 37 35 39 37 41 40 45 7 47 4 50 44 54
REMARK H PARENT 46 57 48 61 61 76 64 80
REMARK Flexibility Score: inf
ROOT
ATOM      1  C   UNL     1      23.187  27.747  23.102  1.00  0.00     0.176 C 
ENDROOT
BRANCH   1   2
ATOM      2  C   UNL     1      23.340  26.226  23.063  1.00  0.00     0.178 C 
ATOM      3  C   UNL     1      23.509  24.629  21.341  1.00  0.00     0.272 C 
ATOM      4  C   UNL     1      22.304  23.880  21.747  1.00  0.00     0.113 C 
ATOM      5  O   UNL     1      23.241  25.968  21.696  1.00  0.00    -0.332 OA
ATOM      6  C   UNL     1      21.467  24.638  22.742  1.00  0.00     0.145 C 
ATOM      7  C   UNL     1      22.189  25.507  23.708  1.00  0.00     0.142 C 
BRANCH   3   8
ATOM      8  O   UNL     1      23.674  24.629  19.971  1.00  0.00    -0.338 OA
BRANCH   8   9
ATOM      9  C   UNL     1      23.663  25.686  19.202  1.00  0.00     0.199 C 
BRANCH   9  10
ATOM     10  C   UNL     1      24.340  25.760  17.862  1.00  0.00     0.179 C 
ATOM     11  C   UNL     1      24.035  24.548  15.892  1.00  0.00     0.282 C 
ATOM     12  O   UNL     1      24.374  24.556  17.220  1.00  0.00    -0.341 OA
ATOM     13  C   UNL     1      22.623  25.074  15.754  1.00  0.00     0.202 C 
ATOM     14  C   UNL     1      22.602  26.507  16.179  1.00  0.00     0.179 C 
ATOM     15  C   UNL     1      23.760  26.895  17.027  1.00  0.00     0.177 C 
BRANCH  11  16
ATOM     16  O   UNL     1      24.062  23.228  15.436  1.00  0.00    -0.341 OA
BRANCH  16  17
ATOM     17  C   UNL     1      25.095  22.924  14.586  1.00  0.00     0.184 C 
ATOM     18  C   UNL     1      24.774  23.318  13.147  1.00  0.00     0.178 C 
ATOM     19  O   UNL     1      24.788  22.176  12.350  1.00  0.00    -0.341 OA
ATOM     20  C   UNL     1      23.676  21.350  12.674  1.00  0.00     0.281 C 
ATOM     21  C   UNL     1      25.265  21.418  14.606  1.00  0.00     0.180 C 
ATOM     22  C   UNL     1      23.955  20.821  14.049  1.00  0.00     0.202 C 
BRANCH  18  23
ATOM     23  C   UNL     1      25.858  24.246  12.626  1.00  0.00     0.191 C 
BRANCH  23  24
ATOM     24  O   UNL     1      26.878  23.553  12.002  1.00  0.00    -0.394 OA
ATOM     25  H   UNL     1      27.761  23.736  12.417  1.00  0.00     0.210 HD
ENDBRANCH  23  24
ENDBRANCH  18  23
BRANCH  20  26
ATOM     26  O   UNL     1      23.565  20.421  11.681  1.00  0.00    -0.350 OA
BRANCH  26  27
ATOM     27  C   UNL     1      22.445  20.513  10.903  1.00  0.00     0.169 C 
BRANCH  27  28
ATOM     28  C   UNL     1      21.150  20.261  11.648  1.00  0.00     0.119 C 
BRANCH  28  29
ATOM     29  N   UNL     1      20.175  19.564  10.833  1.00  0.00    -0.092 NA
ATOM     30  N   UNL     1      19.194  18.984  11.286  1.00  0.00     0.001 N 
ATOM     31  N   UNL     1      18.168  18.601  11.807  1.00  0.00    -0.003 NA
ENDBRANCH  28  29
ENDBRANCH  27  28
ENDBRANCH  26  27
ENDBRANCH  20  26
BRANCH  21  32
ATOM     32  O   UNL     1      26.352  20.990  13.854  1.00  0.00    -0.387 OA
ATOM     33  H   UNL     1      26.166  20.130  13.363  1.00  0.00     0.211 HD
ENDBRANCH  21  32
BRANCH  22  34
ATOM     34  O   UNL     1      22.956  21.352  14.901  1.00  0.00    -0.385 OA
ATOM     35  H   UNL     1      22.971  22.337  14.794  1.00  0.00     0.211 HD
ENDBRANCH  22  34
ENDBRANCH  16  17
ENDBRANCH  11  16
BRANCH  13  36
ATOM     36  O   UNL     1      22.178  24.943  14.437  1.00  0.00    -0.385 OA
ATOM     37  H   UNL     1      22.618  24.107  14.082  1.00  0.00     0.211 HD
ENDBRANCH  13  36
BRANCH  14  38
ATOM     38  O   UNL     1      21.402  26.857  16.804  1.00  0.00    -0.387 OA
ATOM     39  H   UNL     1      20.924  27.529  16.234  1.00  0.00     0.211 HD
ENDBRANCH  14  38
BRANCH  15  40
ATOM     40  O   UNL     1      23.306  27.890  17.896  1.00  0.00    -0.387 OA
ATOM     41  H   UNL     1      23.654  27.749  18.805  1.00  0.00     0.211 HD
ENDBRANCH  15  40
ENDBRANCH   9  10
ENDBRANCH   8   9
ENDBRANCH   3   8
BRANCH   3  42
ATOM     42  C   UNL     1      24.788  24.255  21.931  1.00  0.00     0.364 C 
ATOM     43  O   UNL     1      25.859  24.635  21.331  1.00  0.00    -0.246 OA
BRANCH  42  44
ATOM     44  O   UNL     1      25.029  23.525  23.079  1.00  0.00    -0.477 OA
ATOM     45  H   UNL     1      24.307  23.284  23.717  1.00  0.00     0.296 HD
ENDBRANCH  42  44
ENDBRANCH   3  42
BRANCH   6  46
ATOM     46  O   UNL     1      20.631  25.507  21.986  1.00  0.00    -0.391 OA
ATOM     47  H   UNL     1      20.418  26.327  22.499  1.00  0.00     0.211 HD
ENDBRANCH   6  46
BRANCH   7  48
ATOM     48  N   UNL     1      22.454  24.732  24.869  1.00  0.00    -0.348 N 
ATOM     49  C   UNL     1      22.447  25.248  26.189  1.00  0.00     0.217 C 
ATOM     50  H   UNL     1      22.651  23.715  24.807  1.00  0.00     0.163 HD
ATOM     51  C   UNL     1      22.742  24.369  27.375  1.00  0.00     0.114 C 
ATOM     52  O   UNL     1      22.198  26.434  26.394  1.00  0.00    -0.275 OA
ENDBRANCH   7  48
ENDBRANCH   1   2
BRANCH   1  53
ATOM     53  O   UNL     1      21.913  28.069  23.556  1.00  0.00    -0.388 OA
ATOM     54  H   UNL     1      21.263  27.378  23.260  1.00  0.00     0.211 HD
ENDBRANCH   1  53
BRANCH   1  55
ATOM     55  C   UNL     1      23.519  28.480  21.888  1.00  0.00     0.165 C 
BRANCH  55  56
ATOM     56  O   UNL     1      24.724  29.208  22.125  1.00  0.00    -0.388 OA
ATOM     57  H   UNL     1      24.844  29.275  23.101  1.00  0.00     0.211 HD
ENDBRANCH  55  56
BRANCH  55  58
ATOM     58  C   UNL     1      22.546  29.506  21.389  1.00  0.00     0.154 C 
BRANCH  58  59
ATOM     59  N   UNL     1      21.746  29.043  20.280  1.00  0.00    -0.319 N 
ATOM     60  C   UNL     1      20.480  28.402  20.430  1.00  0.00     0.407 C 
ATOM     61  H   UNL     1      22.101  29.166  19.319  1.00  0.00     0.167 HD
ATOM     62  O   UNL     1      19.999  28.210  21.546  1.00  0.00    -0.225 OA
BRANCH  60  63
ATOM     63  O   UNL     1      19.818  28.006  19.296  1.00  0.00    -0.443 OA
BRANCH  63  64
ATOM     64  C   UNL     1      18.790  28.740  18.697  1.00  0.00     0.294 C 
BRANCH  64  65
ATOM     65  C   UNL     1      17.607  28.762  19.591  1.00  0.00     0.120 A 
ATOM     66  C   UNL     1      17.024  29.829  20.241  1.00  0.00     0.139 A 
ATOM     67  N   UNL     1      16.874  27.675  19.955  1.00  0.00    -0.132 NA
ATOM     68  N   UNL     1      15.966  29.373  20.974  1.00  0.00    -0.238 N 
ATOM     69  N   UNL     1      15.913  28.056  20.769  1.00  0.00    -0.066 NA
BRANCH  68  70
ATOM     70  C   UNL     1      15.090  30.154  21.767  1.00  0.00     0.219 C 
BRANCH  70  71
ATOM     71  C   UNL     1      13.663  30.275  21.380  1.00  0.00     0.051 C 
BRANCH  71  72
ATOM     72  C   UNL     1      13.253  31.280  20.386  1.00  0.00     0.125 C 
BRANCH  72  73
ATOM     73  C   UNL     1      13.323  30.968  18.974  1.00  0.00     0.303 C 
ATOM     74  O   UNL     1      13.946  30.051  18.410  1.00  0.00    -0.252 OA
BRANCH  73  75
ATOM     75  O   UNL     1      12.598  31.791  18.055  1.00  0.00    -0.481 OA
ATOM     76  H   UNL     1      13.112  32.370  17.410  1.00  0.00     0.296 HD
ENDBRANCH  73  75
ENDBRANCH  72  73
ENDBRANCH  71  72
ENDBRANCH  70  71
BRANCH  70  77
ATOM     77  C   UNL     1      15.149  29.649  23.176  1.00  0.00     0.328 C 
ATOM     78  O   UNL     1      14.112  29.566  23.861  1.00  0.00    -0.250 OA
BRANCH  77  79
ATOM     79  O   UNL     1      16.339  29.262  23.763  1.00  0.00    -0.480 OA
ATOM     80  H   UNL     1      17.242  29.582  23.409  1.00  0.00     0.296 HD
ENDBRANCH  77  79
ENDBRANCH  70  77
ENDBRANCH  68  70
ENDBRANCH  64  65
ENDBRANCH  63  64
ENDBRANCH  60  63
ENDBRANCH  58  59
ENDBRANCH  55  58
ENDBRANCH   1  55
TORSDOF 36
