REMARK VINA RESULT:    -8.652      0.000      0.000
REMARK INTER + INTRA:         -21.256
REMARK INTER:                 -15.155
REMARK INTRA:                  -6.101
REMARK UNBOUND:                 3.076
REMARK SMILES CC(=O)N[C@@H]1[C@@H](O)C[C@](OC[C@H]2O[C@@H](O[C@H]3[C@H](O)[C@@H](O)[C@H](OCCN=[N+]=[N-])O[C@@H]3CO)[C@H](O)[C@@H](O)[C@H]2O)(C(=O)O)O[C@H]1C(O)[C@H](O)CNC(=O)OCc1cn(C2CC(O)C=C[C@@H](O)C2)nn1
REMARK SMILES IDX 43 1 42 2 9 3 8 4 41 5 6 6 5 7 10 8 11 9 12 10 14 11 13 12
REMARK SMILES IDX 32 13 34 14 36 15 15 16 16 17 29 18 28 19 21 20 17 21 19 22
REMARK SMILES IDX 30 23 31 24 22 26 23 27 24 28 25 29 26 30 27 31 18 32 20 34
REMARK SMILES IDX 33 36 35 38 37 40 38 42 39 43 40 44 7 46 4 48 2 49 1 51 3 52
REMARK SMILES IDX 44 53 45 55 46 56 47 58 48 59 49 60 50 62 51 63 52 64 53 65
REMARK SMILES IDX 54 66 66 67 55 68 65 69 56 70 57 71 58 72 59 74 64 76 62 77
REMARK SMILES IDX 61 78 60 79 63 81
REMARK H PARENT 31 25 18 33 20 35 33 37 35 39 37 41 40 45 7 47 4 50 44 54
REMARK H PARENT 46 57 48 61 59 75 63 82
REMARK Flexibility Score: 90.00
ROOT
ATOM      1  C   UNL     1      17.086  31.763  21.063  1.00  0.00     0.176 C 
ENDROOT
BRANCH   1   2
ATOM      2  C   UNL     1      16.146  30.571  21.116  1.00  0.00     0.178 C 
ATOM      3  C   UNL     1      14.944  29.279  19.559  1.00  0.00     0.272 C 
ATOM      4  C   UNL     1      14.052  28.752  20.622  1.00  0.00     0.113 C 
ATOM      5  O   UNL     1      15.660  30.392  19.789  1.00  0.00    -0.332 OA
ATOM      6  C   UNL     1      14.370  29.219  21.996  1.00  0.00     0.145 C 
ATOM      7  C   UNL     1      14.945  30.670  21.953  1.00  0.00     0.142 C 
BRANCH   3   8
ATOM      8  O   UNL     1      14.191  29.382  18.372  1.00  0.00    -0.338 OA
BRANCH   8   9
ATOM      9  C   UNL     1      13.758  30.641  18.074  1.00  0.00     0.199 C 
BRANCH   9  10
ATOM     10  C   UNL     1      14.119  31.017  16.637  1.00  0.00     0.179 C 
ATOM     11  C   UNL     1      15.386  29.953  15.025  1.00  0.00     0.282 C 
ATOM     12  O   UNL     1      15.306  30.427  16.335  1.00  0.00    -0.341 OA
ATOM     13  C   UNL     1      14.361  28.835  14.965  1.00  0.00     0.202 C 
ATOM     14  C   UNL     1      13.008  29.511  14.945  1.00  0.00     0.179 C 
ATOM     15  C   UNL     1      12.984  30.804  15.696  1.00  0.00     0.177 C 
BRANCH  11  16
ATOM     16  O   UNL     1      16.673  29.542  14.775  1.00  0.00    -0.341 OA
BRANCH  16  17
ATOM     17  C   UNL     1      17.563  30.283  15.557  1.00  0.00     0.184 C 
ATOM     18  C   UNL     1      18.057  31.482  14.788  1.00  0.00     0.178 C 
ATOM     19  O   UNL     1      18.994  31.201  13.827  1.00  0.00    -0.341 OA
ATOM     20  C   UNL     1      19.434  29.879  13.830  1.00  0.00     0.281 C 
ATOM     21  C   UNL     1      18.686  29.449  16.110  1.00  0.00     0.180 C 
ATOM     22  C   UNL     1      19.904  29.495  15.228  1.00  0.00     0.202 C 
BRANCH  18  23
ATOM     23  C   UNL     1      18.589  32.548  15.737  1.00  0.00     0.191 C 
BRANCH  23  24
ATOM     24  O   UNL     1      17.901  32.571  16.935  1.00  0.00    -0.394 OA
ATOM     25  H   UNL     1      17.993  33.411  17.414  1.00  0.00     0.210 HD
ENDBRANCH  23  24
ENDBRANCH  18  23
BRANCH  20  26
ATOM     26  O   UNL     1      20.497  29.826  12.934  1.00  0.00    -0.350 OA
BRANCH  26  27
ATOM     27  C   UNL     1      21.061  31.093  12.839  1.00  0.00     0.169 C 
BRANCH  27  28
ATOM     28  C   UNL     1      22.578  31.026  12.857  1.00  0.00     0.119 C 
BRANCH  28  29
ATOM     29  N   UNL     1      23.083  31.132  14.210  1.00  0.00    -0.092 NA
ATOM     30  N   UNL     1      23.378  30.094  14.824  1.00  0.00     0.001 N 
ATOM     31  N   UNL     1      23.537  28.987  15.358  1.00  0.00    -0.003 NA
ENDBRANCH  28  29
ENDBRANCH  27  28
ENDBRANCH  26  27
ENDBRANCH  20  26
BRANCH  21  32
ATOM     32  O   UNL     1      19.017  29.875  17.396  1.00  0.00    -0.387 OA
ATOM     33  H   UNL     1      19.546  30.709  17.384  1.00  0.00     0.211 HD
ENDBRANCH  21  32
BRANCH  22  34
ATOM     34  O   UNL     1      20.536  28.258  15.181  1.00  0.00    -0.385 OA
ATOM     35  H   UNL     1      21.459  28.347  14.827  1.00  0.00     0.211 HD
ENDBRANCH  22  34
ENDBRANCH  16  17
ENDBRANCH  11  16
BRANCH  13  36
ATOM     36  O   UNL     1      14.494  28.003  13.886  1.00  0.00    -0.385 OA
ATOM     37  H   UNL     1      14.974  28.375  13.129  1.00  0.00     0.211 HD
ENDBRANCH  13  36
BRANCH  14  38
ATOM     38  O   UNL     1      12.090  28.583  15.434  1.00  0.00    -0.387 OA
ATOM     39  H   UNL     1      11.364  28.416  14.770  1.00  0.00     0.211 HD
ENDBRANCH  14  38
BRANCH  15  40
ATOM     40  O   UNL     1      11.799  30.897  16.454  1.00  0.00    -0.387 OA
ATOM     41  H   UNL     1      11.195  31.587  16.144  1.00  0.00     0.211 HD
ENDBRANCH  15  40
ENDBRANCH   9  10
ENDBRANCH   8   9
ENDBRANCH   3   8
BRANCH   3  42
ATOM     42  C   UNL     1      15.948  28.180  19.284  1.00  0.00     0.364 C 
ATOM     43  O   UNL     1      16.310  27.359  20.168  1.00  0.00    -0.246 OA
BRANCH  42  44
ATOM     44  O   UNL     1      16.472  28.097  18.004  1.00  0.00    -0.477 OA
ATOM     45  H   UNL     1      16.019  27.533  17.285  1.00  0.00     0.296 HD
ENDBRANCH  42  44
ENDBRANCH   3  42
BRANCH   6  46
ATOM     46  O   UNL     1      13.273  29.172  22.819  1.00  0.00    -0.391 OA
ATOM     47  H   UNL     1      12.454  29.083  22.288  1.00  0.00     0.211 HD
ENDBRANCH   6  46
BRANCH   7  48
ATOM     48  N   UNL     1      15.000  31.172  23.271  1.00  0.00    -0.348 N 
ATOM     49  C   UNL     1      13.993  32.052  23.742  1.00  0.00     0.217 C 
ATOM     50  H   UNL     1      15.752  30.886  23.925  1.00  0.00     0.163 HD
ATOM     51  C   UNL     1      14.030  32.593  25.126  1.00  0.00     0.114 C 
ATOM     52  O   UNL     1      13.053  32.382  22.981  1.00  0.00    -0.275 OA
ENDBRANCH   7  48
ENDBRANCH   1   2
BRANCH   1  53
ATOM     53  O   UNL     1      16.801  32.260  19.715  1.00  0.00    -0.388 OA
ATOM     54  H   UNL     1      17.456  31.815  19.092  1.00  0.00     0.211 HD
ENDBRANCH   1  53
BRANCH   1  55
ATOM     55  C   UNL     1      18.537  31.398  20.938  1.00  0.00     0.165 C 
BRANCH  55  56
ATOM     56  O   UNL     1      19.031  31.643  19.680  1.00  0.00    -0.388 OA
ATOM     57  H   UNL     1      19.604  30.927  19.326  1.00  0.00     0.211 HD
ENDBRANCH  55  56
BRANCH  55  58
ATOM     58  C   UNL     1      18.745  29.910  21.202  1.00  0.00     0.154 C 
BRANCH  58  59
ATOM     59  N   UNL     1      20.087  29.464  21.008  1.00  0.00    -0.319 N 
ATOM     60  C   UNL     1      20.445  28.483  20.042  1.00  0.00     0.407 C 
ATOM     61  H   UNL     1      20.868  29.872  21.604  1.00  0.00     0.167 HD
ATOM     62  O   UNL     1      19.507  28.003  19.343  1.00  0.00    -0.225 OA
BRANCH  60  63
ATOM     63  O   UNL     1      21.757  28.093  19.898  1.00  0.00    -0.443 OA
BRANCH  63  64
ATOM     64  C   UNL     1      22.136  26.734  20.094  1.00  0.00     0.294 C 
BRANCH  64  65
ATOM     65  C   UNL     1      21.813  26.370  21.492  1.00  0.00     0.120 A 
ATOM     66  C   UNL     1      22.442  26.771  22.642  1.00  0.00     0.138 A 
ATOM     67  N   UNL     1      20.817  25.552  21.873  1.00  0.00    -0.132 NA
ATOM     68  N   UNL     1      21.806  26.179  23.683  1.00  0.00    -0.249 N 
ATOM     69  N   UNL     1      20.829  25.450  23.185  1.00  0.00    -0.067 NA
BRANCH  68  70
ATOM     70  C   UNL     1      22.142  26.317  25.107  1.00  0.00     0.115 C 
BRANCH  70  71
ATOM     71  C   UNL     1      21.051  27.078  25.782  1.00  0.00     0.063 C 
BRANCH  71  72
ATOM     72  C   UNL     1      21.629  27.793  27.008  1.00  0.00     0.139 CG0
ATOM     73  G   UNL     1      21.864  26.805  28.073  1.00  0.00     0.000 G0
BRANCH  72  74
ATOM     74  O   UNL     1      20.757  28.795  27.427  1.00  0.00    -0.389 OA
ATOM     75  H   UNL     1      19.972  28.355  27.862  1.00  0.00     0.211 HD
ENDBRANCH  72  74
ENDBRANCH  71  72
ENDBRANCH  70  71
BRANCH  70  76
ATOM     76  C   UNL     1      22.297  24.948  25.693  1.00  0.00     0.063 C 
BRANCH  76  77
ATOM     77  C   UNL     1      23.266  25.085  26.873  1.00  0.00     0.139 C 
BRANCH  77  78
ATOM     78  C   UNL     1      22.543  25.638  28.050  1.00  0.00     0.002 C 
ATOM     79  C   UNL     1      21.867  26.778  28.086  1.00  0.00     0.002 CG0
ATOM     80  G   UNL     1      21.646  27.775  27.026  1.00  0.00     0.000 G0
ENDBRANCH  77  78
BRANCH  77  81
ATOM     81  O   UNL     1      23.878  23.878  27.175  1.00  0.00    -0.389 OA
ATOM     82  H   UNL     1      24.096  23.889  28.149  1.00  0.00     0.211 HD
ENDBRANCH  77  81
ENDBRANCH  76  77
ENDBRANCH  70  76
ENDBRANCH  68  70
ENDBRANCH  64  65
ENDBRANCH  63  64
ENDBRANCH  60  63
ENDBRANCH  58  59
ENDBRANCH  55  58
ENDBRANCH   1  55
TORSDOF 32
