REMARK VINA RESULT:    -6.575      4.110     10.369
REMARK INTER + INTRA:         -22.055
REMARK INTER:                 -15.818
REMARK INTRA:                  -6.237
REMARK UNBOUND:                -5.485
REMARK SMILES CC(=O)N[C@@H]1[C@@H](O)C[C@](OC[C@H]2O[C@@H](O[C@H]3[C@H](O)[C@@H](O)[C@H](OCCN=[N+]=[N-])O[C@@H]3CO)[C@H](O)[C@@H](O)[C@H]2O)(C(=O)O)O[C@H]1C(O)[C@H](O)CNC(=O)OCc1cn(Cc2ccc(Br)cc2)nn1
REMARK SMILES IDX 9 1 8 2 6 3 5 4 42 5 41 6 10 7 11 8 12 9 14 10 13 11 32 12
REMARK SMILES IDX 34 13 36 14 15 15 16 16 29 17 28 18 21 19 17 20 19 21 30 22
REMARK SMILES IDX 31 23 22 25 23 26 24 27 25 28 26 29 27 30 18 31 20 33 33 35
REMARK SMILES IDX 35 37 37 39 38 41 39 42 40 43 7 45 43 47 44 48 45 50 46 51
REMARK SMILES IDX 47 53 48 54 49 55 50 57 51 58 52 59 53 60 54 61 65 62 55 63
REMARK SMILES IDX 64 64 56 65 57 66 58 67 63 68 59 69 62 70 60 71 61 72 4 73
REMARK SMILES IDX 2 74 1 76 3 77
REMARK H PARENT 31 24 18 32 20 34 33 36 35 38 37 40 40 44 7 46 44 49 46 52
REMARK H PARENT 48 56 4 75
REMARK Flexibility Score: inf
ROOT
ATOM      1  C   UNL     1      14.653  29.433  20.270  1.00  0.00     0.272 C 
ATOM      2  C   UNL     1      13.763  28.680  21.191  1.00  0.00     0.113 C 
ATOM      3  C   UNL     1      13.520  29.221  22.544  1.00  0.00     0.145 C 
ATOM      4  C   UNL     1      14.591  30.241  23.014  1.00  0.00     0.142 C 
ATOM      5  C   UNL     1      15.820  29.773  22.285  1.00  0.00     0.178 C 
ATOM      6  O   UNL     1      15.586  30.229  20.957  1.00  0.00    -0.332 OA
ENDROOT
BRANCH   1   7
ATOM      7  O   UNL     1      14.169  30.014  19.178  1.00  0.00    -0.338 OA
BRANCH   7   8
ATOM      8  C   UNL     1      13.986  31.204  18.747  1.00  0.00     0.199 C 
BRANCH   8   9
ATOM      9  C   UNL     1      14.753  31.601  17.508  1.00  0.00     0.179 C 
ATOM     10  C   UNL     1      16.698  31.377  16.361  1.00  0.00     0.282 C 
ATOM     11  O   UNL     1      16.067  31.215  17.544  1.00  0.00    -0.341 OA
ATOM     12  C   UNL     1      15.981  32.212  15.316  1.00  0.00     0.202 C 
ATOM     13  C   UNL     1      14.546  31.767  15.134  1.00  0.00     0.179 C 
ATOM     14  C   UNL     1      14.125  30.886  16.301  1.00  0.00     0.177 C 
BRANCH  10  15
ATOM     15  O   UNL     1      17.167  30.272  15.733  1.00  0.00    -0.341 OA
BRANCH  15  16
ATOM     16  C   UNL     1      18.276  29.613  16.093  1.00  0.00     0.184 C 
ATOM     17  C   UNL     1      19.014  30.130  17.285  1.00  0.00     0.178 C 
ATOM     18  O   UNL     1      20.268  30.601  17.005  1.00  0.00    -0.341 OA
ATOM     19  C   UNL     1      21.135  29.652  16.483  1.00  0.00     0.281 C 
ATOM     20  C   UNL     1      19.229  29.553  14.918  1.00  0.00     0.180 C 
ATOM     21  C   UNL     1      20.484  28.851  15.373  1.00  0.00     0.202 C 
BRANCH  17  22
ATOM     22  C   UNL     1      19.035  29.067  18.359  1.00  0.00     0.191 C 
BRANCH  22  23
ATOM     23  O   UNL     1      18.539  27.839  17.875  1.00  0.00    -0.394 OA
ATOM     24  H   UNL     1      19.025  27.087  18.257  1.00  0.00     0.210 HD
ENDBRANCH  22  23
ENDBRANCH  17  22
BRANCH  19  25
ATOM     25  O   UNL     1      21.705  28.821  17.432  1.00  0.00    -0.350 OA
BRANCH  25  26
ATOM     26  C   UNL     1      22.818  28.133  17.026  1.00  0.00     0.169 C 
BRANCH  26  27
ATOM     27  C   UNL     1      22.908  26.738  17.571  1.00  0.00     0.119 C 
BRANCH  27  28
ATOM     28  N   UNL     1      22.240  25.807  16.671  1.00  0.00    -0.092 NA
ATOM     29  N   UNL     1      22.587  25.733  15.494  1.00  0.00     0.001 N 
ATOM     30  N   UNL     1      22.685  25.712  14.246  1.00  0.00    -0.003 NA
ENDBRANCH  27  28
ENDBRANCH  26  27
ENDBRANCH  25  26
ENDBRANCH  19  25
BRANCH  20  31
ATOM     31  O   UNL     1      18.622  28.725  13.952  1.00  0.00    -0.387 OA
ATOM     32  H   UNL     1      18.373  27.852  14.366  1.00  0.00     0.211 HD
ENDBRANCH  20  31
BRANCH  21  33
ATOM     33  O   UNL     1      21.363  28.610  14.323  1.00  0.00    -0.385 OA
ATOM     34  H   UNL     1      21.232  29.335  13.660  1.00  0.00     0.211 HD
ENDBRANCH  21  33
ENDBRANCH  15  16
ENDBRANCH  10  15
BRANCH  12  35
ATOM     35  O   UNL     1      16.006  33.571  15.577  1.00  0.00    -0.385 OA
ATOM     36  H   UNL     1      15.972  33.808  16.533  1.00  0.00     0.211 HD
ENDBRANCH  12  35
BRANCH  13  37
ATOM     37  O   UNL     1      14.323  31.123  13.924  1.00  0.00    -0.387 OA
ATOM     38  H   UNL     1      13.419  31.383  13.620  1.00  0.00     0.211 HD
ENDBRANCH  13  37
BRANCH  14  39
ATOM     39  O   UNL     1      14.733  29.627  16.238  1.00  0.00    -0.387 OA
ATOM     40  H   UNL     1      14.287  29.013  16.854  1.00  0.00     0.211 HD
ENDBRANCH  14  39
ENDBRANCH   8   9
ENDBRANCH   7   8
ENDBRANCH   1   7
BRANCH   1  41
ATOM     41  C   UNL     1      15.576  28.363  19.660  1.00  0.00     0.364 C 
ATOM     42  O   UNL     1      16.156  27.598  20.428  1.00  0.00    -0.246 OA
BRANCH  41  43
ATOM     43  O   UNL     1      15.768  28.235  18.310  1.00  0.00    -0.477 OA
ATOM     44  H   UNL     1      14.972  27.975  17.707  1.00  0.00     0.296 HD
ENDBRANCH  41  43
ENDBRANCH   1  41
BRANCH   3  45
ATOM     45  O   UNL     1      12.243  29.693  22.801  1.00  0.00    -0.391 OA
ATOM     46  H   UNL     1      12.200  30.636  22.533  1.00  0.00     0.211 HD
ENDBRANCH   3  45
BRANCH   5  47
ATOM     47  C   UNL     1      17.135  30.273  22.753  1.00  0.00     0.176 C 
BRANCH  47  48
ATOM     48  O   UNL     1      17.458  29.850  24.000  1.00  0.00    -0.388 OA
ATOM     49  H   UNL     1      16.950  30.286  24.693  1.00  0.00     0.211 HD
ENDBRANCH  47  48
BRANCH  47  50
ATOM     50  C   UNL     1      18.267  30.333  21.816  1.00  0.00     0.165 C 
BRANCH  50  51
ATOM     51  O   UNL     1      18.626  29.069  21.320  1.00  0.00    -0.388 OA
ATOM     52  H   UNL     1      18.112  28.769  20.557  1.00  0.00     0.211 HD
ENDBRANCH  50  51
BRANCH  50  53
ATOM     53  C   UNL     1      19.458  31.140  22.143  1.00  0.00     0.154 C 
BRANCH  53  54
ATOM     54  N   UNL     1      20.706  30.669  21.568  1.00  0.00    -0.319 N 
ATOM     55  C   UNL     1      21.726  30.091  22.368  1.00  0.00     0.407 C 
ATOM     56  H   UNL     1      20.915  30.728  20.540  1.00  0.00     0.167 HD
ATOM     57  O   UNL     1      21.552  29.964  23.622  1.00  0.00    -0.225 OA
BRANCH  55  58
ATOM     58  O   UNL     1      22.941  29.643  21.858  1.00  0.00    -0.443 OA
BRANCH  58  59
ATOM     59  C   UNL     1      22.983  28.471  21.021  1.00  0.00     0.294 C 
BRANCH  59  60
ATOM     60  C   UNL     1      22.207  27.354  21.582  1.00  0.00     0.120 A 
ATOM     61  C   UNL     1      22.600  26.565  22.645  1.00  0.00     0.138 A 
ATOM     62  N   UNL     1      21.018  26.899  21.183  1.00  0.00    -0.132 NA
ATOM     63  N   UNL     1      21.641  25.657  22.860  1.00  0.00    -0.248 N 
ATOM     64  N   UNL     1      20.702  25.883  21.964  1.00  0.00    -0.067 NA
BRANCH  63  65
ATOM     65  C   UNL     1      21.585  24.625  23.876  1.00  0.00     0.181 C 
BRANCH  65  66
ATOM     66  C   UNL     1      22.430  24.905  25.059  1.00  0.00    -0.026 A 
ATOM     67  C   UNL     1      21.862  25.626  26.113  1.00  0.00     0.007 A 
ATOM     68  C   UNL     1      23.725  24.492  25.197  1.00  0.00     0.007 A 
ATOM     69  C   UNL     1      22.605  25.902  27.249  1.00  0.00     0.016 A 
ATOM     70  C   UNL     1      24.485  24.763  26.336  1.00  0.00     0.016 A 
ATOM     71  C   UNL     1      23.915  25.470  27.360  1.00  0.00     0.017 A 
ATOM     72  Br  UNL     1      24.915  25.869  28.954  1.00  0.00    -0.051 Br
ENDBRANCH  65  66
ENDBRANCH  63  65
ENDBRANCH  59  60
ENDBRANCH  58  59
ENDBRANCH  55  58
ENDBRANCH  53  54
ENDBRANCH  50  53
ENDBRANCH  47  50
ENDBRANCH   5  47
BRANCH   4  73
ATOM     73  N   UNL     1      14.643  30.256  24.430  1.00  0.00    -0.348 N 
ATOM     74  C   UNL     1      13.931  31.234  25.167  1.00  0.00     0.217 C 
ATOM     75  H   UNL     1      15.189  29.543  24.943  1.00  0.00     0.163 HD
ATOM     76  C   UNL     1      13.908  31.340  26.628  1.00  0.00     0.114 C 
ATOM     77  O   UNL     1      13.248  32.099  24.512  1.00  0.00    -0.275 OA
ENDBRANCH   4  73
TORSDOF 31
