REMARK VINA RESULT:    -5.730      4.583      9.362
REMARK INTER + INTRA:         -24.909
REMARK INTER:                 -14.512
REMARK INTRA:                 -10.397
REMARK UNBOUND:                -8.963
REMARK SMILES CC(=O)N[C@@H]1[C@@H](O)C[C@](OC[C@H]2O[C@@H](O[C@H]3[C@H](O)[C@@H](O)[C@H](OCCN=[N+]=[N-])O[C@@H]3CO)[C@H](O)[C@@H](O)[C@H]2O)(C(=O)O)O[C@H]1C(O)[C@H](O)CNC(=O)OCc1cn(C[C@@H](C(=O)O)C(c2ccccc2)c2ccccc2)nn1
REMARK SMILES IDX 43 1 42 2 9 3 8 4 41 5 6 6 5 7 10 8 11 9 12 10 14 11 13 12
REMARK SMILES IDX 32 13 34 14 36 15 15 16 16 17 29 18 28 19 21 20 17 21 19 22
REMARK SMILES IDX 30 23 31 24 22 26 23 27 24 28 25 29 26 30 27 31 18 32 20 34
REMARK SMILES IDX 33 36 35 38 37 40 38 42 39 43 40 44 7 46 4 48 2 49 1 51 3 52
REMARK SMILES IDX 44 53 45 55 46 56 47 58 48 59 49 60 50 62 51 63 52 64 53 65
REMARK SMILES IDX 54 66 75 67 55 68 74 69 56 70 57 71 58 72 59 73 60 74 61 76
REMARK SMILES IDX 62 77 63 78 67 79 64 80 66 81 65 82 68 83 69 84 73 85 70 86
REMARK SMILES IDX 72 87 71 88
REMARK H PARENT 31 25 18 33 20 35 33 37 35 39 37 41 40 45 7 47 4 50 44 54
REMARK H PARENT 46 57 48 61 60 75
REMARK Flexibility Score: inf
ROOT
ATOM      1  C   UNL     1      12.871  32.611  20.365  1.00  0.00     0.176 C 
ENDROOT
BRANCH   1   2
ATOM      2  C   UNL     1      13.070  31.219  21.003  1.00  0.00     0.178 C 
ATOM      3  C   UNL     1      13.552  29.967  22.885  1.00  0.00     0.272 C 
ATOM      4  C   UNL     1      13.160  28.903  21.806  1.00  0.00     0.113 C 
ATOM      5  O   UNL     1      13.461  31.239  22.291  1.00  0.00    -0.332 OA
ATOM      6  C   UNL     1      13.982  29.033  20.570  1.00  0.00     0.145 C 
ATOM      7  C   UNL     1      13.954  30.438  20.060  1.00  0.00     0.142 C 
BRANCH   3   8
ATOM      8  O   UNL     1      14.698  29.632  23.376  1.00  0.00    -0.338 OA
BRANCH   8   9
ATOM      9  C   UNL     1      15.488  29.912  24.337  1.00  0.00     0.199 C 
BRANCH   9  10
ATOM     10  C   UNL     1      16.863  30.507  24.187  1.00  0.00     0.179 C 
ATOM     11  C   UNL     1      18.576  30.252  22.566  1.00  0.00     0.282 C 
ATOM     12  O   UNL     1      17.630  29.738  23.367  1.00  0.00    -0.341 OA
ATOM     13  C   UNL     1      18.921  31.688  22.648  1.00  0.00     0.202 C 
ATOM     14  C   UNL     1      18.012  32.523  23.503  1.00  0.00     0.179 C 
ATOM     15  C   UNL     1      16.671  31.861  23.467  1.00  0.00     0.177 C 
BRANCH  11  16
ATOM     16  O   UNL     1      18.092  30.033  21.242  1.00  0.00    -0.341 OA
BRANCH  16  17
ATOM     17  C   UNL     1      18.759  29.044  20.575  1.00  0.00     0.184 C 
ATOM     18  C   UNL     1      20.229  29.350  20.603  1.00  0.00     0.178 C 
ATOM     19  O   UNL     1      20.621  30.194  19.570  1.00  0.00    -0.341 OA
ATOM     20  C   UNL     1      19.596  31.037  19.117  1.00  0.00     0.281 C 
ATOM     21  C   UNL     1      18.340  28.943  19.115  1.00  0.00     0.180 C 
ATOM     22  C   UNL     1      18.508  30.284  18.429  1.00  0.00     0.202 C 
BRANCH  18  23
ATOM     23  C   UNL     1      21.114  28.136  20.604  1.00  0.00     0.191 C 
BRANCH  23  24
ATOM     24  O   UNL     1      20.506  27.021  21.146  1.00  0.00    -0.394 OA
ATOM     25  H   UNL     1      21.233  26.349  21.316  1.00  0.00     0.210 HD
ENDBRANCH  23  24
ENDBRANCH  18  23
BRANCH  20  26
ATOM     26  O   UNL     1      20.138  31.928  18.220  1.00  0.00    -0.350 OA
BRANCH  26  27
ATOM     27  C   UNL     1      20.170  33.237  18.589  1.00  0.00     0.169 C 
BRANCH  27  28
ATOM     28  C   UNL     1      19.486  34.170  17.643  1.00  0.00     0.119 C 
BRANCH  28  29
ATOM     29  N   UNL     1      18.038  33.929  17.806  1.00  0.00    -0.092 NA
ATOM     30  N   UNL     1      17.592  33.992  18.955  1.00  0.00     0.001 N 
ATOM     31  N   UNL     1      17.158  33.908  20.102  1.00  0.00    -0.003 NA
ENDBRANCH  28  29
ENDBRANCH  27  28
ENDBRANCH  26  27
ENDBRANCH  20  26
BRANCH  21  32
ATOM     32  O   UNL     1      19.210  28.047  18.501  1.00  0.00    -0.387 OA
ATOM     33  H   UNL     1      20.013  27.859  19.039  1.00  0.00     0.211 HD
ENDBRANCH  21  32
BRANCH  22  34
ATOM     34  O   UNL     1      17.327  31.011  18.504  1.00  0.00    -0.385 OA
ATOM     35  H   UNL     1      16.664  30.434  19.001  1.00  0.00     0.211 HD
ENDBRANCH  22  34
ENDBRANCH  16  17
ENDBRANCH  11  16
BRANCH  13  36
ATOM     36  O   UNL     1      20.217  31.849  23.194  1.00  0.00    -0.385 OA
ATOM     37  H   UNL     1      20.653  30.958  23.315  1.00  0.00     0.211 HD
ENDBRANCH  13  36
BRANCH  14  38
ATOM     38  O   UNL     1      17.942  33.810  23.008  1.00  0.00    -0.387 OA
ATOM     39  H   UNL     1      17.526  34.397  23.692  1.00  0.00     0.211 HD
ENDBRANCH  14  38
BRANCH  15  40
ATOM     40  O   UNL     1      16.300  31.668  22.144  1.00  0.00    -0.387 OA
ATOM     41  H   UNL     1      16.250  32.546  21.712  1.00  0.00     0.211 HD
ENDBRANCH  15  40
ENDBRANCH   9  10
ENDBRANCH   8   9
ENDBRANCH   3   8
BRANCH   3  42
ATOM     42  C   UNL     1      12.404  29.903  23.812  1.00  0.00     0.364 C 
ATOM     43  O   UNL     1      12.063  30.808  24.601  1.00  0.00    -0.246 OA
BRANCH  42  44
ATOM     44  O   UNL     1      11.603  28.741  23.837  1.00  0.00    -0.477 OA
ATOM     45  H   UNL     1      11.461  28.304  24.723  1.00  0.00     0.296 HD
ENDBRANCH  42  44
ENDBRANCH   3  42
BRANCH   6  46
ATOM     46  O   UNL     1      15.299  28.590  20.757  1.00  0.00    -0.391 OA
ATOM     47  H   UNL     1      15.460  27.718  20.327  1.00  0.00     0.211 HD
ENDBRANCH   6  46
BRANCH   7  48
ATOM     48  N   UNL     1      13.341  30.457  18.751  1.00  0.00    -0.348 N 
ATOM     49  C   UNL     1      14.023  29.967  17.610  1.00  0.00     0.217 C 
ATOM     50  H   UNL     1      12.361  30.848  18.658  1.00  0.00     0.163 HD
ATOM     51  C   UNL     1      13.390  29.984  16.247  1.00  0.00     0.114 C 
ATOM     52  O   UNL     1      15.184  29.515  17.782  1.00  0.00    -0.275 OA
ENDBRANCH   7  48
ENDBRANCH   1   2
BRANCH   1  53
ATOM     53  O   UNL     1      14.074  33.218  20.128  1.00  0.00    -0.388 OA
ATOM     54  H   UNL     1      14.780  32.610  19.811  1.00  0.00     0.211 HD
ENDBRANCH   1  53
BRANCH   1  55
ATOM     55  C   UNL     1      12.023  33.463  21.225  1.00  0.00     0.165 C 
BRANCH  55  56
ATOM     56  O   UNL     1      11.212  32.728  22.115  1.00  0.00    -0.388 OA
ATOM     57  H   UNL     1      10.714  32.085  21.519  1.00  0.00     0.211 HD
ENDBRANCH  55  56
BRANCH  55  58
ATOM     58  C   UNL     1      11.227  34.572  20.647  1.00  0.00     0.154 C 
BRANCH  58  59
ATOM     59  N   UNL     1      10.210  35.127  21.462  1.00  0.00    -0.319 N 
ATOM     60  C   UNL     1       8.819  35.057  21.238  1.00  0.00     0.407 C 
ATOM     61  H   UNL     1      10.528  35.662  22.361  1.00  0.00     0.167 HD
ATOM     62  O   UNL     1       8.321  34.513  20.236  1.00  0.00    -0.225 OA
BRANCH  60  63
ATOM     63  O   UNL     1       7.982  35.614  22.181  1.00  0.00    -0.443 OA
BRANCH  63  64
ATOM     64  C   UNL     1       8.154  35.408  23.539  1.00  0.00     0.294 C 
BRANCH  64  65
ATOM     65  C   UNL     1       8.255  33.997  23.939  1.00  0.00     0.120 A 
ATOM     66  C   UNL     1       7.258  33.083  24.185  1.00  0.00     0.138 A 
ATOM     67  N   UNL     1       9.416  33.313  24.185  1.00  0.00    -0.132 NA
ATOM     68  N   UNL     1       7.803  31.920  24.557  1.00  0.00    -0.251 N 
ATOM     69  N   UNL     1       9.112  32.089  24.549  1.00  0.00    -0.067 NA
BRANCH  68  70
ATOM     70  C   UNL     1       7.119  30.663  24.916  1.00  0.00     0.162 C 
BRANCH  70  71
ATOM     71  C   UNL     1       7.206  29.697  23.780  1.00  0.00     0.132 C 
BRANCH  71  72
ATOM     72  C   UNL     1       7.941  28.461  24.187  1.00  0.00     0.309 C 
ATOM     73  O   UNL     1       8.958  28.484  24.899  1.00  0.00    -0.252 OA
BRANCH  72  74
ATOM     74  O   UNL     1       7.481  27.228  23.761  1.00  0.00    -0.481 OA
ATOM     75  H   UNL     1       6.848  26.691  24.361  1.00  0.00     0.296 HD
ENDBRANCH  72  74
ENDBRANCH  71  72
BRANCH  71  76
ATOM     76  C   UNL     1       5.970  29.403  23.015  1.00  0.00     0.065 C 
BRANCH  76  77
ATOM     77  C   UNL     1       4.688  29.553  23.705  1.00  0.00    -0.040 A 
ATOM     78  C   UNL     1       4.196  28.542  24.545  1.00  0.00     0.004 A 
ATOM     79  C   UNL     1       3.866  30.676  23.582  1.00  0.00     0.004 A 
ATOM     80  C   UNL     1       3.009  28.635  25.200  1.00  0.00     0.000 A 
ATOM     81  C   UNL     1       2.668  30.759  24.249  1.00  0.00     0.000 A 
ATOM     82  C   UNL     1       2.226  29.738  25.066  1.00  0.00     0.000 A 
ENDBRANCH  76  77
BRANCH  76  83
ATOM     83  C   UNL     1       5.994  29.919  21.620  1.00  0.00    -0.040 A 
ATOM     84  C   UNL     1       5.515  29.077  20.639  1.00  0.00     0.004 A 
ATOM     85  C   UNL     1       6.453  31.168  21.299  1.00  0.00     0.004 A 
ATOM     86  C   UNL     1       5.488  29.471  19.331  1.00  0.00     0.000 A 
ATOM     87  C   UNL     1       6.420  31.556  19.963  1.00  0.00     0.000 A 
ATOM     88  C   UNL     1       5.943  30.720  18.978  1.00  0.00     0.000 A 
ENDBRANCH  76  83
ENDBRANCH  71  76
ENDBRANCH  70  71
ENDBRANCH  68  70
ENDBRANCH  64  65
ENDBRANCH  63  64
ENDBRANCH  60  63
ENDBRANCH  58  59
ENDBRANCH  55  58
ENDBRANCH   1  55
TORSDOF 36
