REMARK VINA RESULT:    -5.705      3.820      6.583
REMARK INTER + INTRA:         -21.962
REMARK INTER:                 -13.709
REMARK INTRA:                  -8.253
REMARK UNBOUND:                -7.585
REMARK SMILES COc1ccc(-n2cc(COC(=O)NC[C@@H](O)C(O)[C@@H]3O[C@@](OC[C@H]4O[C@@H](O[C@H]5[C@H](O)[C@@H](O)[C@H](OCCN=[N+]=[N-])O[C@@H]5CO)[C@H](O)[C@@H](O)[C@H]4O)(C(=O)O)C[C@H](O)[C@H]3NC(C)=O)nn2)cc1
REMARK SMILES IDX 22 1 54 2 55 3 57 4 20 5 21 6 23 7 24 8 25 9 27 10 26 11
REMARK SMILES IDX 45 12 47 13 49 14 28 15 29 16 42 17 41 18 34 19 30 20 32 21
REMARK SMILES IDX 43 22 44 23 35 25 36 26 37 27 38 28 39 29 40 30 31 31 33 33
REMARK SMILES IDX 46 35 48 37 50 39 51 41 52 42 53 43 56 45 18 47 19 48 16 50
REMARK SMILES IDX 17 51 15 53 14 54 12 55 13 57 11 58 10 59 9 60 8 61 62 62
REMARK SMILES IDX 7 63 63 64 6 65 5 66 64 67 4 68 65 69 3 70 2 71 1 72 58 73
REMARK SMILES IDX 59 74 60 76 61 77
REMARK H PARENT 44 24 31 32 33 34 46 36 48 38 50 40 53 44 56 46 19 49 17 52
REMARK H PARENT 14 56 58 75
REMARK Flexibility Score: inf
ROOT
ATOM      1  C   UNL     1      19.981  19.380  10.929  1.00  0.00     0.272 C 
ATOM      2  C   UNL     1      19.592  18.690   9.675  1.00  0.00     0.113 C 
ATOM      3  C   UNL     1      20.447  18.912   8.490  1.00  0.00     0.145 C 
ATOM      4  C   UNL     1      21.206  20.239   8.692  1.00  0.00     0.142 C 
ATOM      5  C   UNL     1      20.276  21.169   9.388  1.00  0.00     0.178 C 
ATOM      6  O   UNL     1      20.196  20.754  10.716  1.00  0.00    -0.332 OA
ENDROOT
BRANCH   1   7
ATOM      7  O   UNL     1      20.862  18.948  11.774  1.00  0.00    -0.338 OA
BRANCH   7   8
ATOM      8  C   UNL     1      21.416  19.237  12.892  1.00  0.00     0.199 C 
BRANCH   8   9
ATOM      9  C   UNL     1      22.839  18.913  13.245  1.00  0.00     0.179 C 
ATOM     10  C   UNL     1      24.751  17.786  12.698  1.00  0.00     0.282 C 
ATOM     11  O   UNL     1      23.478  18.211  12.281  1.00  0.00    -0.341 OA
ATOM     12  C   UNL     1      25.671  18.905  13.069  1.00  0.00     0.202 C 
ATOM     13  C   UNL     1      25.021  20.204  13.369  1.00  0.00     0.179 C 
ATOM     14  C   UNL     1      23.593  20.127  13.732  1.00  0.00     0.177 C 
BRANCH  10  15
ATOM     15  O   UNL     1      25.306  17.068  11.643  1.00  0.00    -0.341 OA
BRANCH  15  16
ATOM     16  C   UNL     1      24.557  17.127  10.500  1.00  0.00     0.184 C 
ATOM     17  C   UNL     1      24.270  15.788   9.927  1.00  0.00     0.178 C 
ATOM     18  O   UNL     1      23.580  15.906   8.692  1.00  0.00    -0.341 OA
ATOM     19  C   UNL     1      24.541  16.413   7.778  1.00  0.00     0.281 C 
ATOM     20  C   UNL     1      25.331  17.968   9.469  1.00  0.00     0.180 C 
ATOM     21  C   UNL     1      24.631  17.898   8.138  1.00  0.00     0.202 C 
BRANCH  17  22
ATOM     22  C   UNL     1      23.453  14.935  10.863  1.00  0.00     0.191 C 
BRANCH  22  23
ATOM     23  O   UNL     1      24.296  14.349  11.791  1.00  0.00    -0.394 OA
ATOM     24  H   UNL     1      24.051  13.419  11.999  1.00  0.00     0.210 HD
ENDBRANCH  22  23
ENDBRANCH  17  22
BRANCH  19  25
ATOM     25  O   UNL     1      24.158  16.220   6.497  1.00  0.00    -0.350 OA
BRANCH  25  26
ATOM     26  C   UNL     1      23.271  15.234   6.194  1.00  0.00     0.169 C 
BRANCH  26  27
ATOM     27  C   UNL     1      21.933  15.645   5.677  1.00  0.00     0.119 C 
BRANCH  27  28
ATOM     28  N   UNL     1      20.807  15.229   6.456  1.00  0.00    -0.092 NA
ATOM     29  N   UNL     1      20.919  14.384   7.338  1.00  0.00     0.001 N 
ATOM     30  N   UNL     1      21.149  13.445   8.107  1.00  0.00    -0.003 NA
ENDBRANCH  27  28
ENDBRANCH  26  27
ENDBRANCH  25  26
ENDBRANCH  19  25
BRANCH  20  31
ATOM     31  O   UNL     1      25.429  19.265   9.939  1.00  0.00    -0.387 OA
ATOM     32  H   UNL     1      25.664  19.204  10.917  1.00  0.00     0.211 HD
ENDBRANCH  20  31
BRANCH  21  33
ATOM     33  O   UNL     1      25.378  18.525   7.167  1.00  0.00    -0.385 OA
ATOM     34  H   UNL     1      25.262  19.507   7.198  1.00  0.00     0.211 HD
ENDBRANCH  21  33
ENDBRANCH  15  16
ENDBRANCH  10  15
BRANCH  12  35
ATOM     35  O   UNL     1      26.455  18.578  14.189  1.00  0.00    -0.385 OA
ATOM     36  H   UNL     1      26.232  19.144  14.961  1.00  0.00     0.211 HD
ENDBRANCH  12  35
BRANCH  13  37
ATOM     37  O   UNL     1      25.289  21.124  12.349  1.00  0.00    -0.387 OA
ATOM     38  H   UNL     1      24.575  21.782  12.223  1.00  0.00     0.211 HD
ENDBRANCH  13  37
BRANCH  14  39
ATOM     39  O   UNL     1      22.965  21.313  13.344  1.00  0.00    -0.387 OA
ATOM     40  H   UNL     1      22.571  21.149  12.451  1.00  0.00     0.211 HD
ENDBRANCH  14  39
ENDBRANCH   8   9
ENDBRANCH   7   8
ENDBRANCH   1   7
BRANCH   1  41
ATOM     41  C   UNL     1      18.631  19.435  11.712  1.00  0.00     0.364 C 
ATOM     42  O   UNL     1      18.227  20.500  12.184  1.00  0.00    -0.246 OA
BRANCH  41  43
ATOM     43  O   UNL     1      17.952  18.248  11.831  1.00  0.00    -0.477 OA
ATOM     44  H   UNL     1      17.618  17.904  12.743  1.00  0.00     0.296 HD
ENDBRANCH  41  43
ENDBRANCH   1  41
BRANCH   3  45
ATOM     45  O   UNL     1      21.274  17.891   8.122  1.00  0.00    -0.391 OA
ATOM     46  H   UNL     1      21.786  17.466   8.846  1.00  0.00     0.211 HD
ENDBRANCH   3  45
BRANCH   5  47
ATOM     47  C   UNL     1      20.805  22.621   9.462  1.00  0.00     0.176 C 
BRANCH  47  48
ATOM     48  O   UNL     1      19.828  23.511   9.137  1.00  0.00    -0.388 OA
ATOM     49  H   UNL     1      20.185  24.428   9.190  1.00  0.00     0.211 HD
ENDBRANCH  47  48
BRANCH  47  50
ATOM     50  C   UNL     1      21.707  22.829  10.567  1.00  0.00     0.165 C 
BRANCH  50  51
ATOM     51  O   UNL     1      21.106  22.963  11.849  1.00  0.00    -0.388 OA
ATOM     52  H   UNL     1      21.648  22.413  12.449  1.00  0.00     0.211 HD
ENDBRANCH  50  51
BRANCH  50  53
ATOM     53  C   UNL     1      22.809  23.805  10.576  1.00  0.00     0.154 C 
BRANCH  53  54
ATOM     54  N   UNL     1      23.951  23.542  11.328  1.00  0.00    -0.319 N 
ATOM     55  C   UNL     1      24.473  24.327  12.368  1.00  0.00     0.407 C 
ATOM     56  H   UNL     1      24.505  22.647  11.102  1.00  0.00     0.167 HD
ATOM     57  O   UNL     1      23.921  25.373  12.745  1.00  0.00    -0.225 OA
BRANCH  55  58
ATOM     58  O   UNL     1      25.663  23.915  13.010  1.00  0.00    -0.443 OA
BRANCH  58  59
ATOM     59  C   UNL     1      25.709  24.023  14.411  1.00  0.00     0.294 C 
BRANCH  59  60
ATOM     60  C   UNL     1      26.565  22.949  14.969  1.00  0.00     0.121 A 
ATOM     61  C   UNL     1      26.645  22.460  16.259  1.00  0.00     0.144 A 
ATOM     62  N   UNL     1      27.443  22.230  14.242  1.00  0.00    -0.131 NA
ATOM     63  N   UNL     1      27.554  21.478  16.262  1.00  0.00    -0.220 N 
ATOM     64  N   UNL     1      28.028  21.358  15.018  1.00  0.00    -0.062 NA
BRANCH  63  65
ATOM     65  C   UNL     1      28.027  20.632  17.299  1.00  0.00     0.067 A 
ATOM     66  C   UNL     1      28.556  19.387  17.093  1.00  0.00     0.032 A 
ATOM     67  C   UNL     1      27.945  21.078  18.616  1.00  0.00     0.032 A 
ATOM     68  C   UNL     1      28.991  18.606  18.154  1.00  0.00     0.048 A 
ATOM     69  C   UNL     1      28.377  20.301  19.673  1.00  0.00     0.048 A 
ATOM     70  C   UNL     1      28.910  19.047  19.463  1.00  0.00     0.119 A 
BRANCH  70  71
ATOM     71  O   UNL     1      29.353  18.243  20.531  1.00  0.00    -0.497 OA
ATOM     72  C   UNL     1      30.145  18.885  21.541  1.00  0.00     0.278 C 
ENDBRANCH  70  71
ENDBRANCH  63  65
ENDBRANCH  59  60
ENDBRANCH  58  59
ENDBRANCH  55  58
ENDBRANCH  53  54
ENDBRANCH  50  53
ENDBRANCH  47  50
ENDBRANCH   5  47
BRANCH   4  73
ATOM     73  N   UNL     1      21.751  20.650   7.429  1.00  0.00    -0.348 N 
ATOM     74  C   UNL     1      23.094  21.094   7.316  1.00  0.00     0.217 C 
ATOM     75  H   UNL     1      21.164  20.594   6.579  1.00  0.00     0.163 HD
ATOM     76  C   UNL     1      23.634  21.516   5.997  1.00  0.00     0.114 C 
ATOM     77  O   UNL     1      23.877  21.153   8.301  1.00  0.00    -0.275 OA
ENDBRANCH   4  73
TORSDOF 31
