REMARK VINA RESULT:    -6.429      3.340      8.509
REMARK INTER + INTRA:         -22.422
REMARK INTER:                 -14.673
REMARK INTRA:                  -7.749
REMARK UNBOUND:                -6.033
REMARK SMILES CC(=O)N[C@@H]1[C@@H](O)C[C@](OC[C@H]2O[C@@H](O[C@H]3[C@H](O)[C@@H](O)[C@H](OCCN=[N+]=[N-])O[C@@H]3CO)[C@H](O)[C@@H](O)[C@H]2O)(C(=O)O)O[C@H]1C(O)[C@H](O)CNC(=O)OCc1cn(-c2cccc(S(N)(=O)=O)c2)nn1
REMARK SMILES IDX 9 1 8 2 6 3 5 4 42 5 41 6 10 7 11 8 12 9 14 10 13 11 32 12
REMARK SMILES IDX 34 13 36 14 15 15 16 16 29 17 28 18 21 19 17 20 19 21 30 22
REMARK SMILES IDX 31 23 22 25 23 26 24 27 25 28 26 29 27 30 18 31 20 33 33 35
REMARK SMILES IDX 35 37 37 39 38 41 39 42 40 43 7 45 43 47 44 48 45 50 46 51
REMARK SMILES IDX 47 53 48 54 49 55 50 57 51 58 52 59 53 60 54 61 67 62 55 63
REMARK SMILES IDX 66 64 56 65 65 66 57 67 60 68 58 69 59 70 61 71 63 72 64 73
REMARK SMILES IDX 62 74 4 77 2 78 1 80 3 81
REMARK H PARENT 31 24 18 32 20 34 33 36 35 38 37 40 40 44 7 46 44 49 46 52
REMARK H PARENT 48 56 62 75 62 76 4 79
REMARK Flexibility Score: inf
ROOT
ATOM      1  C   UNL     1       9.928  23.812  36.093  1.00  0.00     0.272 C 
ATOM      2  C   UNL     1       9.956  24.933  37.150  1.00  0.00     0.113 C 
ATOM      3  C   UNL     1      11.364  25.396  37.291  1.00  0.00     0.145 C 
ATOM      4  C   UNL     1      11.895  25.892  35.993  1.00  0.00     0.142 C 
ATOM      5  C   UNL     1      11.333  25.175  34.817  1.00  0.00     0.178 C 
ATOM      6  O   UNL     1      10.313  24.316  34.925  1.00  0.00    -0.332 OA
ENDROOT
BRANCH   1   7
ATOM      7  O   UNL     1       8.558  23.435  36.076  1.00  0.00    -0.338 OA
BRANCH   7   8
ATOM      8  C   UNL     1       7.838  24.378  36.742  1.00  0.00     0.199 C 
BRANCH   8   9
ATOM      9  C   UNL     1       6.431  24.532  36.207  1.00  0.00     0.179 C 
ATOM     10  C   UNL     1       5.300  24.406  34.281  1.00  0.00     0.282 C 
ATOM     11  O   UNL     1       6.198  23.696  35.118  1.00  0.00    -0.341 OA
ATOM     12  C   UNL     1       4.162  24.974  35.047  1.00  0.00     0.202 C 
ATOM     13  C   UNL     1       4.021  24.460  36.458  1.00  0.00     0.179 C 
ATOM     14  C   UNL     1       5.343  24.342  37.192  1.00  0.00     0.177 C 
BRANCH  10  15
ATOM     15  O   UNL     1       4.985  23.683  33.159  1.00  0.00    -0.341 OA
BRANCH  15  16
ATOM     16  C   UNL     1       4.945  22.319  33.329  1.00  0.00     0.184 C 
ATOM     17  C   UNL     1       5.720  21.658  32.215  1.00  0.00     0.178 C 
ATOM     18  O   UNL     1       5.042  20.530  31.737  1.00  0.00    -0.341 OA
ATOM     19  C   UNL     1       3.970  20.964  30.993  1.00  0.00     0.281 C 
ATOM     20  C   UNL     1       3.487  21.917  33.293  1.00  0.00     0.180 C 
ATOM     21  C   UNL     1       2.990  21.615  31.915  1.00  0.00     0.202 C 
BRANCH  17  22
ATOM     22  C   UNL     1       7.086  21.201  32.616  1.00  0.00     0.191 C 
BRANCH  22  23
ATOM     23  O   UNL     1       7.695  22.123  33.491  1.00  0.00    -0.394 OA
ATOM     24  H   UNL     1       8.492  22.532  33.078  1.00  0.00     0.210 HD
ENDBRANCH  22  23
ENDBRANCH  17  22
BRANCH  19  25
ATOM     25  O   UNL     1       3.328  19.924  30.322  1.00  0.00    -0.350 OA
BRANCH  25  26
ATOM     26  C   UNL     1       2.189  19.462  30.924  1.00  0.00     0.169 C 
BRANCH  26  27
ATOM     27  C   UNL     1       2.350  18.144  31.651  1.00  0.00     0.119 C 
BRANCH  27  28
ATOM     28  N   UNL     1       1.886  18.235  33.022  1.00  0.00    -0.092 NA
ATOM     29  N   UNL     1       0.747  18.589  33.311  1.00  0.00     0.001 N 
ATOM     30  N   UNL     1      -0.352  18.937  33.705  1.00  0.00    -0.003 NA
ENDBRANCH  27  28
ENDBRANCH  26  27
ENDBRANCH  25  26
ENDBRANCH  19  25
BRANCH  20  31
ATOM     31  O   UNL     1       3.329  20.751  34.064  1.00  0.00    -0.387 OA
ATOM     32  H   UNL     1       2.934  20.009  33.543  1.00  0.00     0.211 HD
ENDBRANCH  20  31
BRANCH  21  33
ATOM     33  O   UNL     1       2.546  22.803  31.289  1.00  0.00    -0.385 OA
ATOM     34  H   UNL     1       3.034  22.878  30.436  1.00  0.00     0.211 HD
ENDBRANCH  21  33
ENDBRANCH  15  16
ENDBRANCH  10  15
BRANCH  12  35
ATOM     35  O   UNL     1       4.130  26.390  35.031  1.00  0.00    -0.385 OA
ATOM     36  H   UNL     1       5.027  26.638  34.638  1.00  0.00     0.211 HD
ENDBRANCH  12  35
BRANCH  13  37
ATOM     37  O   UNL     1       3.251  23.314  36.517  1.00  0.00    -0.387 OA
ATOM     38  H   UNL     1       2.317  23.617  36.755  1.00  0.00     0.211 HD
ENDBRANCH  13  37
BRANCH  14  39
ATOM     39  O   UNL     1       5.414  23.040  37.700  1.00  0.00    -0.387 OA
ATOM     40  H   UNL     1       6.174  22.534  37.318  1.00  0.00     0.211 HD
ENDBRANCH  14  39
ENDBRANCH   8   9
ENDBRANCH   7   8
ENDBRANCH   1   7
BRANCH   1  41
ATOM     41  C   UNL     1      10.737  22.706  36.664  1.00  0.00     0.364 C 
ATOM     42  O   UNL     1      10.376  22.218  37.796  1.00  0.00    -0.246 OA
BRANCH  41  43
ATOM     43  O   UNL     1      11.845  22.133  36.112  1.00  0.00    -0.477 OA
ATOM     44  H   UNL     1      12.406  21.419  36.595  1.00  0.00     0.296 HD
ENDBRANCH  41  43
ENDBRANCH   1  41
BRANCH   3  45
ATOM     45  O   UNL     1      11.325  26.443  38.255  1.00  0.00    -0.391 OA
ATOM     46  H   UNL     1      10.562  27.024  37.946  1.00  0.00     0.211 HD
ENDBRANCH   3  45
BRANCH   5  47
ATOM     47  C   UNL     1      11.004  26.239  33.743  1.00  0.00     0.176 C 
BRANCH  47  48
ATOM     48  O   UNL     1      12.188  26.800  33.303  1.00  0.00    -0.388 OA
ATOM     49  H   UNL     1      13.003  26.388  33.638  1.00  0.00     0.211 HD
ENDBRANCH  47  48
BRANCH  47  50
ATOM     50  C   UNL     1       9.978  27.182  34.242  1.00  0.00     0.165 C 
BRANCH  50  51
ATOM     51  O   UNL     1       8.731  26.798  33.756  1.00  0.00    -0.388 OA
ATOM     52  H   UNL     1       8.188  27.638  33.756  1.00  0.00     0.211 HD
ENDBRANCH  50  51
BRANCH  50  53
ATOM     53  C   UNL     1      10.225  28.609  33.782  1.00  0.00     0.154 C 
BRANCH  53  54
ATOM     54  N   UNL     1       8.949  29.198  33.451  1.00  0.00    -0.319 N 
ATOM     55  C   UNL     1       8.430  30.273  34.266  1.00  0.00     0.407 C 
ATOM     56  H   UNL     1       8.372  28.876  32.641  1.00  0.00     0.167 HD
ATOM     57  O   UNL     1       9.072  30.702  35.259  1.00  0.00    -0.225 OA
BRANCH  55  58
ATOM     58  O   UNL     1       7.208  30.792  33.890  1.00  0.00    -0.443 OA
BRANCH  58  59
ATOM     59  C   UNL     1       6.020  30.100  34.132  1.00  0.00     0.294 C 
BRANCH  59  60
ATOM     60  C   UNL     1       5.779  29.052  33.129  1.00  0.00     0.121 A 
ATOM     61  C   UNL     1       5.449  29.314  31.791  1.00  0.00     0.144 A 
ATOM     62  N   UNL     1       5.819  27.731  33.253  1.00  0.00    -0.131 NA
ATOM     63  N   UNL     1       5.308  28.140  31.186  1.00  0.00    -0.220 N 
ATOM     64  N   UNL     1       5.533  27.213  32.073  1.00  0.00    -0.062 NA
BRANCH  63  65
ATOM     65  C   UNL     1       4.978  27.995  29.797  1.00  0.00     0.068 A 
ATOM     66  C   UNL     1       4.375  26.809  29.370  1.00  0.00     0.050 A 
ATOM     67  C   UNL     1       5.243  28.989  28.905  1.00  0.00     0.028 A 
ATOM     68  C   UNL     1       4.038  26.620  28.053  1.00  0.00     0.084 A 
ATOM     69  C   UNL     1       4.914  28.814  27.599  1.00  0.00     0.004 A 
ATOM     70  C   UNL     1       4.310  27.637  27.149  1.00  0.00     0.022 A 
BRANCH  68  71
ATOM     71  S   UNL     1       3.284  25.171  27.453  1.00  0.00     0.238 S 
ATOM     72  O   UNL     1       4.123  24.620  26.335  1.00  0.00    -0.207 OA
ATOM     73  O   UNL     1       1.919  25.474  26.925  1.00  0.00    -0.207 OA
BRANCH  71  74
ATOM     74  N   UNL     1       3.187  24.018  28.752  1.00  0.00    -0.225 NA
ATOM     75  H   UNL     1       3.498  23.089  28.390  1.00  0.00     0.137 HD
ATOM     76  H   UNL     1       2.244  24.010  29.192  1.00  0.00     0.137 HD
ENDBRANCH  71  74
ENDBRANCH  68  71
ENDBRANCH  63  65
ENDBRANCH  59  60
ENDBRANCH  58  59
ENDBRANCH  55  58
ENDBRANCH  53  54
ENDBRANCH  50  53
ENDBRANCH  47  50
ENDBRANCH   5  47
BRANCH   4  77
ATOM     77  N   UNL     1      13.351  25.679  36.018  1.00  0.00    -0.348 N 
ATOM     78  C   UNL     1      14.285  26.733  35.835  1.00  0.00     0.217 C 
ATOM     79  H   UNL     1      13.719  24.718  36.177  1.00  0.00     0.163 HD
ATOM     80  C   UNL     1      15.743  26.455  35.873  1.00  0.00     0.114 C 
ATOM     81  O   UNL     1      13.832  27.899  35.640  1.00  0.00    -0.275 OA
ENDBRANCH   4  77
TORSDOF 32
