REMARK VINA RESULT:    -6.049      3.481      5.694
REMARK INTER + INTRA:         -20.932
REMARK INTER:                 -14.830
REMARK INTRA:                  -6.101
REMARK UNBOUND:                -6.043
REMARK SMILES CC(=O)N[C@@H]1[C@@H](O)C[C@](OC[C@H]2O[C@@H](O[C@H]3[C@H](O)[C@@H](O)[C@H](OCCN=[N+]=[N-])O[C@@H]3CO)[C@H](O)[C@@H](O)[C@H]2O)(C(=O)O)O[C@H]1C(O)[C@H](O)CNC(=O)OCc1cn(-c2ccccc2I)nn1
REMARK SMILES IDX 9 1 8 2 6 3 5 4 42 5 41 6 10 7 11 8 12 9 14 10 13 11 32 12
REMARK SMILES IDX 34 13 36 14 15 15 16 16 29 17 28 18 21 19 17 20 19 21 30 22
REMARK SMILES IDX 31 23 22 25 23 26 24 27 25 28 26 29 27 30 18 31 20 33 33 35
REMARK SMILES IDX 35 37 37 39 38 41 39 42 40 43 7 45 43 47 44 48 45 50 46 51
REMARK SMILES IDX 47 53 48 54 49 55 50 57 51 58 52 59 53 60 54 61 64 62 55 63
REMARK SMILES IDX 63 64 56 65 57 66 61 67 58 68 60 69 62 70 59 71 4 72 2 73
REMARK SMILES IDX 1 75 3 76
REMARK H PARENT 31 24 18 32 20 34 33 36 35 38 37 40 40 44 7 46 44 49 46 52
REMARK H PARENT 48 56 4 74
REMARK Flexibility Score: inf
ROOT
ATOM      1  C   UNL     1      14.959  32.702  18.327  1.00  0.00     0.272 C 
ATOM      2  C   UNL     1      13.612  32.177  18.735  1.00  0.00     0.113 C 
ATOM      3  C   UNL     1      13.556  30.643  18.626  1.00  0.00     0.145 C 
ATOM      4  C   UNL     1      13.726  30.349  17.108  1.00  0.00     0.142 C 
ATOM      5  C   UNL     1      14.942  31.083  16.615  1.00  0.00     0.178 C 
ATOM      6  O   UNL     1      15.627  31.579  17.731  1.00  0.00    -0.332 OA
ENDROOT
BRANCH   1   7
ATOM      7  O   UNL     1      15.821  33.083  19.306  1.00  0.00    -0.338 OA
BRANCH   7   8
ATOM      8  C   UNL     1      15.559  33.445  20.527  1.00  0.00     0.199 C 
BRANCH   8   9
ATOM      9  C   UNL     1      16.474  33.139  21.645  1.00  0.00     0.179 C 
ATOM     10  C   UNL     1      15.511  31.679  23.114  1.00  0.00     0.282 C 
ATOM     11  O   UNL     1      15.946  32.954  22.879  1.00  0.00    -0.341 OA
ATOM     12  C   UNL     1      16.688  30.746  23.373  1.00  0.00     0.202 C 
ATOM     13  C   UNL     1      17.894  31.273  22.560  1.00  0.00     0.179 C 
ATOM     14  C   UNL     1      17.349  31.898  21.291  1.00  0.00     0.177 C 
BRANCH  10  15
ATOM     15  O   UNL     1      14.516  31.180  22.336  1.00  0.00    -0.341 OA
BRANCH  15  16
ATOM     16  C   UNL     1      13.264  31.139  22.906  1.00  0.00     0.184 C 
ATOM     17  C   UNL     1      12.954  32.238  23.888  1.00  0.00     0.178 C 
ATOM     18  O   UNL     1      11.956  31.832  24.769  1.00  0.00    -0.341 OA
ATOM     19  C   UNL     1      11.072  30.892  24.226  1.00  0.00     0.281 C 
ATOM     20  C   UNL     1      13.234  29.867  23.782  1.00  0.00     0.180 C 
ATOM     21  C   UNL     1      11.751  29.572  23.970  1.00  0.00     0.202 C 
BRANCH  17  22
ATOM     22  C   UNL     1      12.676  33.573  23.278  1.00  0.00     0.191 C 
BRANCH  22  23
ATOM     23  O   UNL     1      13.606  34.470  23.818  1.00  0.00    -0.394 OA
ATOM     24  H   UNL     1      13.328  34.667  24.754  1.00  0.00     0.210 HD
ENDBRANCH  22  23
ENDBRANCH  17  22
BRANCH  19  25
ATOM     25  O   UNL     1      10.370  31.376  23.165  1.00  0.00    -0.350 OA
BRANCH  25  26
ATOM     26  C   UNL     1       9.034  31.466  23.407  1.00  0.00     0.169 C 
BRANCH  26  27
ATOM     27  C   UNL     1       8.500  30.710  24.582  1.00  0.00     0.119 C 
BRANCH  27  28
ATOM     28  N   UNL     1       7.755  29.518  24.289  1.00  0.00    -0.092 NA
ATOM     29  N   UNL     1       8.291  28.437  24.597  1.00  0.00     0.001 N 
ATOM     30  N   UNL     1       8.657  27.271  24.746  1.00  0.00    -0.003 NA
ENDBRANCH  27  28
ENDBRANCH  26  27
ENDBRANCH  25  26
ENDBRANCH  19  25
BRANCH  20  31
ATOM     31  O   UNL     1      13.882  28.823  23.151  1.00  0.00    -0.387 OA
ATOM     32  H   UNL     1      13.453  28.713  22.261  1.00  0.00     0.211 HD
ENDBRANCH  20  31
BRANCH  21  33
ATOM     33  O   UNL     1      11.551  28.643  24.989  1.00  0.00    -0.385 OA
ATOM     34  H   UNL     1      11.508  29.148  25.865  1.00  0.00     0.211 HD
ENDBRANCH  21  33
ENDBRANCH  15  16
ENDBRANCH  10  15
BRANCH  12  35
ATOM     35  O   UNL     1      17.104  30.757  24.697  1.00  0.00    -0.385 OA
ATOM     36  H   UNL     1      17.011  31.692  25.018  1.00  0.00     0.211 HD
ENDBRANCH  12  35
BRANCH  13  37
ATOM     37  O   UNL     1      18.836  30.328  22.305  1.00  0.00    -0.387 OA
ATOM     38  H   UNL     1      18.514  29.513  21.813  1.00  0.00     0.211 HD
ENDBRANCH  13  37
BRANCH  14  39
ATOM     39  O   UNL     1      16.496  30.998  20.676  1.00  0.00    -0.387 OA
ATOM     40  H   UNL     1      16.830  30.059  20.829  1.00  0.00     0.211 HD
ENDBRANCH  14  39
ENDBRANCH   8   9
ENDBRANCH   7   8
ENDBRANCH   1   7
BRANCH   1  41
ATOM     41  C   UNL     1      14.805  33.732  17.284  1.00  0.00     0.364 C 
ATOM     42  O   UNL     1      15.742  34.308  16.704  1.00  0.00    -0.246 OA
BRANCH  41  43
ATOM     43  O   UNL     1      13.519  34.144  16.868  1.00  0.00    -0.477 OA
ATOM     44  H   UNL     1      13.002  34.823  17.445  1.00  0.00     0.296 HD
ENDBRANCH  41  43
ENDBRANCH   1  41
BRANCH   3  45
ATOM     45  O   UNL     1      14.549  30.028  19.357  1.00  0.00    -0.391 OA
ATOM     46  H   UNL     1      14.572  30.385  20.276  1.00  0.00     0.211 HD
ENDBRANCH   3  45
BRANCH   5  47
ATOM     47  C   UNL     1      15.951  30.061  16.025  1.00  0.00     0.176 C 
BRANCH  47  48
ATOM     48  O   UNL     1      15.288  28.778  16.132  1.00  0.00    -0.388 OA
ATOM     49  H   UNL     1      14.567  28.924  16.817  1.00  0.00     0.211 HD
ENDBRANCH  47  48
BRANCH  47  50
ATOM     50  C   UNL     1      17.141  29.873  16.918  1.00  0.00     0.165 C 
BRANCH  50  51
ATOM     51  O   UNL     1      18.280  30.446  16.295  1.00  0.00    -0.388 OA
ATOM     52  H   UNL     1      18.198  31.432  16.249  1.00  0.00     0.211 HD
ENDBRANCH  50  51
BRANCH  50  53
ATOM     53  C   UNL     1      17.489  28.516  17.359  1.00  0.00     0.154 C 
BRANCH  53  54
ATOM     54  N   UNL     1      18.672  28.407  18.191  1.00  0.00    -0.319 N 
ATOM     55  C   UNL     1      18.515  28.338  19.608  1.00  0.00     0.407 C 
ATOM     56  H   UNL     1      19.643  28.375  17.823  1.00  0.00     0.167 HD
ATOM     57  O   UNL     1      17.341  28.384  20.104  1.00  0.00    -0.225 OA
BRANCH  55  58
ATOM     58  O   UNL     1      19.549  28.223  20.514  1.00  0.00    -0.443 OA
BRANCH  58  59
ATOM     59  C   UNL     1      20.876  27.955  20.082  1.00  0.00     0.294 C 
BRANCH  59  60
ATOM     60  C   UNL     1      21.422  26.839  20.936  1.00  0.00     0.121 A 
ATOM     61  C   UNL     1      21.867  26.903  22.236  1.00  0.00     0.144 A 
ATOM     62  N   UNL     1      21.572  25.561  20.549  1.00  0.00    -0.131 NA
ATOM     63  N   UNL     1      22.259  25.654  22.552  1.00  0.00    -0.219 N 
ATOM     64  N   UNL     1      22.077  24.845  21.526  1.00  0.00    -0.062 NA
BRANCH  63  65
ATOM     65  C   UNL     1      22.804  25.225  23.795  1.00  0.00     0.080 A 
ATOM     66  C   UNL     1      21.981  24.990  24.889  1.00  0.00     0.029 A 
ATOM     67  C   UNL     1      24.158  25.037  23.948  1.00  0.00     0.039 A 
ATOM     68  C   UNL     1      22.563  24.576  26.093  1.00  0.00     0.002 A 
ATOM     69  C   UNL     1      24.723  24.622  25.161  1.00  0.00     0.017 A 
ATOM     70  I   UNL     1      25.436  25.389  22.300  1.00  0.00    -0.042 I 
ATOM     71  C   UNL     1      23.916  24.388  26.245  1.00  0.00     0.001 A 
ENDBRANCH  63  65
ENDBRANCH  59  60
ENDBRANCH  58  59
ENDBRANCH  55  58
ENDBRANCH  53  54
ENDBRANCH  50  53
ENDBRANCH  47  50
ENDBRANCH   5  47
BRANCH   4  72
ATOM     72  N   UNL     1      12.491  30.705  16.510  1.00  0.00    -0.348 N 
ATOM     73  C   UNL     1      11.756  29.817  15.647  1.00  0.00     0.217 C 
ATOM     74  H   UNL     1      12.037  31.624  16.657  1.00  0.00     0.163 HD
ATOM     75  C   UNL     1      10.470  30.179  15.020  1.00  0.00     0.114 C 
ATOM     76  O   UNL     1      12.275  28.688  15.443  1.00  0.00    -0.275 OA
ENDBRANCH   4  72
TORSDOF 30
