REMARK VINA RESULT:    -6.013      9.814     16.487
REMARK INTER + INTRA:         -23.017
REMARK INTER:                 -17.604
REMARK INTRA:                  -5.412
REMARK UNBOUND:                -6.283
REMARK SMILES CC(=O)N[C@@H]1[C@@H](O)C[C@](OC[C@H]2O[C@@H](O[C@H]3[C@H](O)[C@@H](O)[C@H](OCCN=[N+]=[N-])O[C@@H]3CO)[C@H](O)[C@@H](O)[C@H]2O)(C(=O)O)O[C@H]1C(O)[C@H](O)CNC(=O)OCc1cn(C[C@H](CC(=O)O)CC(C)C)nn1
REMARK SMILES IDX 43 1 42 2 9 3 8 4 41 5 6 6 5 7 10 8 11 9 12 10 14 11 13 12
REMARK SMILES IDX 32 13 34 14 36 15 15 16 16 17 29 18 28 19 21 20 17 21 19 22
REMARK SMILES IDX 30 23 31 24 22 26 23 27 24 28 25 29 26 30 27 31 18 32 20 34
REMARK SMILES IDX 33 36 35 38 37 40 38 42 39 43 40 44 7 46 4 48 2 49 1 51 3 52
REMARK SMILES IDX 44 53 45 55 46 56 47 58 48 59 49 60 50 62 51 63 52 64 53 65
REMARK SMILES IDX 54 66 67 67 55 68 66 69 56 70 57 71 58 72 59 73 60 74 61 75
REMARK SMILES IDX 62 77 63 78 64 79 65 80
REMARK H PARENT 31 25 18 33 20 35 33 37 35 39 37 41 40 45 7 47 4 50 44 54
REMARK H PARENT 46 57 48 61 61 76
REMARK Flexibility Score: inf
ROOT
ATOM      1  C   UNL     1      13.573  32.230  20.786  1.00  0.00     0.176 C 
ENDROOT
BRANCH   1   2
ATOM      2  C   UNL     1      13.789  31.249  21.904  1.00  0.00     0.178 C 
ATOM      3  C   UNL     1      15.914  30.128  22.101  1.00  0.00     0.272 C 
ATOM      4  C   UNL     1      15.364  28.920  21.432  1.00  0.00     0.113 C 
ATOM      5  O   UNL     1      15.133  31.189  22.090  1.00  0.00    -0.332 OA
ATOM      6  C   UNL     1      14.044  29.036  20.785  1.00  0.00     0.145 C 
ATOM      7  C   UNL     1      13.102  29.980  21.535  1.00  0.00     0.142 C 
BRANCH   3   8
ATOM      8  O   UNL     1      17.155  30.472  21.500  1.00  0.00    -0.338 OA
BRANCH   8   9
ATOM      9  C   UNL     1      17.456  29.774  20.372  1.00  0.00     0.199 C 
BRANCH   9  10
ATOM     10  C   UNL     1      18.985  29.751  20.152  1.00  0.00     0.179 C 
ATOM     11  C   UNL     1      20.973  29.233  21.230  1.00  0.00     0.282 C 
ATOM     12  O   UNL     1      19.610  29.002  21.128  1.00  0.00    -0.341 OA
ATOM     13  C   UNL     1      21.479  29.506  19.805  1.00  0.00     0.202 C 
ATOM     14  C   UNL     1      20.708  28.666  18.808  1.00  0.00     0.179 C 
ATOM     15  C   UNL     1      19.271  29.065  18.809  1.00  0.00     0.177 C 
BRANCH  11  16
ATOM     16  O   UNL     1      21.591  28.067  21.609  1.00  0.00    -0.341 OA
BRANCH  16  17
ATOM     17  C   UNL     1      21.354  27.636  22.888  1.00  0.00     0.184 C 
ATOM     18  C   UNL     1      22.274  28.213  23.924  1.00  0.00     0.178 C 
ATOM     19  O   UNL     1      23.089  27.316  24.548  1.00  0.00    -0.341 OA
ATOM     20  C   UNL     1      22.450  26.254  25.156  1.00  0.00     0.281 C 
ATOM     21  C   UNL     1      21.540  26.133  22.898  1.00  0.00     0.180 C 
ATOM     22  C   UNL     1      21.357  25.651  24.344  1.00  0.00     0.202 C 
BRANCH  18  23
ATOM     23  C   UNL     1      21.430  29.027  24.889  1.00  0.00     0.191 C 
BRANCH  23  24
ATOM     24  O   UNL     1      20.070  28.839  24.655  1.00  0.00    -0.394 OA
ATOM     25  H   UNL     1      19.668  29.593  24.141  1.00  0.00     0.210 HD
ENDBRANCH  23  24
ENDBRANCH  18  23
BRANCH  20  26
ATOM     26  O   UNL     1      22.066  26.662  26.425  1.00  0.00    -0.350 OA
BRANCH  26  27
ATOM     27  C   UNL     1      22.299  25.707  27.400  1.00  0.00     0.169 C 
BRANCH  27  28
ATOM     28  C   UNL     1      23.790  25.397  27.368  1.00  0.00     0.119 C 
BRANCH  28  29
ATOM     29  N   UNL     1      24.399  26.283  28.350  1.00  0.00    -0.092 NA
ATOM     30  N   UNL     1      25.420  25.931  28.893  1.00  0.00     0.001 N 
ATOM     31  N   UNL     1      26.352  25.766  29.692  1.00  0.00    -0.003 NA
ENDBRANCH  28  29
ENDBRANCH  27  28
ENDBRANCH  26  27
ENDBRANCH  20  26
BRANCH  21  32
ATOM     32  O   UNL     1      20.637  25.532  22.041  1.00  0.00    -0.387 OA
ATOM     33  H   UNL     1      20.538  24.576  22.346  1.00  0.00     0.211 HD
ENDBRANCH  21  32
BRANCH  22  34
ATOM     34  O   UNL     1      21.445  24.246  24.267  1.00  0.00    -0.385 OA
ATOM     35  H   UNL     1      21.364  24.003  23.320  1.00  0.00     0.211 HD
ENDBRANCH  22  34
ENDBRANCH  16  17
ENDBRANCH  11  16
BRANCH  13  36
ATOM     36  O   UNL     1      21.517  30.844  19.499  1.00  0.00    -0.385 OA
ATOM     37  H   UNL     1      21.177  31.072  18.616  1.00  0.00     0.211 HD
ENDBRANCH  13  36
BRANCH  14  38
ATOM     38  O   UNL     1      20.814  27.340  19.273  1.00  0.00    -0.387 OA
ATOM     39  H   UNL     1      21.720  27.000  19.219  1.00  0.00     0.211 HD
ENDBRANCH  14  38
BRANCH  15  40
ATOM     40  O   UNL     1      18.506  27.883  18.712  1.00  0.00    -0.387 OA
ATOM     41  H   UNL     1      17.939  27.770  19.492  1.00  0.00     0.211 HD
ENDBRANCH  15  40
ENDBRANCH   9  10
ENDBRANCH   8   9
ENDBRANCH   3   8
BRANCH   3  42
ATOM     42  C   UNL     1      16.330  29.775  23.517  1.00  0.00     0.364 C 
ATOM     43  O   UNL     1      17.526  29.775  23.836  1.00  0.00    -0.246 OA
BRANCH  42  44
ATOM     44  O   UNL     1      15.392  29.454  24.454  1.00  0.00    -0.477 OA
ATOM     45  H   UNL     1      14.798  28.628  24.390  1.00  0.00     0.296 HD
ENDBRANCH  42  44
ENDBRANCH   3  42
BRANCH   6  46
ATOM     46  O   UNL     1      14.031  29.349  19.443  1.00  0.00    -0.391 OA
ATOM     47  H   UNL     1      13.316  30.020  19.313  1.00  0.00     0.211 HD
ENDBRANCH   6  46
BRANCH   7  48
ATOM     48  N   UNL     1      12.572  29.205  22.625  1.00  0.00    -0.348 N 
ATOM     49  C   UNL     1      11.659  29.853  23.540  1.00  0.00     0.217 C 
ATOM     50  H   UNL     1      12.789  28.205  22.830  1.00  0.00     0.163 HD
ATOM     51  C   UNL     1      11.102  29.039  24.676  1.00  0.00     0.114 C 
ATOM     52  O   UNL     1      11.324  31.056  23.414  1.00  0.00    -0.275 OA
ENDBRANCH   7  48
ENDBRANCH   1   2
BRANCH   1  53
ATOM     53  O   UNL     1      14.795  32.353  20.059  1.00  0.00    -0.388 OA
ATOM     54  H   UNL     1      15.093  31.452  19.771  1.00  0.00     0.211 HD
ENDBRANCH   1  53
BRANCH   1  55
ATOM     55  C   UNL     1      13.248  33.655  21.173  1.00  0.00     0.165 C 
BRANCH  55  56
ATOM     56  O   UNL     1      13.099  33.515  22.621  1.00  0.00    -0.388 OA
ATOM     57  H   UNL     1      13.199  32.515  22.732  1.00  0.00     0.211 HD
ENDBRANCH  55  56
BRANCH  55  58
ATOM     58  C   UNL     1      11.883  34.075  20.749  1.00  0.00     0.154 C 
BRANCH  58  59
ATOM     59  N   UNL     1      10.904  33.075  20.990  1.00  0.00    -0.319 N 
ATOM     60  C   UNL     1       9.553  33.394  20.589  1.00  0.00     0.407 C 
ATOM     61  H   UNL     1      11.028  32.143  21.423  1.00  0.00     0.167 HD
ATOM     62  O   UNL     1       9.308  34.511  20.053  1.00  0.00    -0.225 OA
BRANCH  60  63
ATOM     63  O   UNL     1       8.488  32.539  20.763  1.00  0.00    -0.443 OA
BRANCH  63  64
ATOM     64  C   UNL     1       7.413  32.734  21.658  1.00  0.00     0.294 C 
BRANCH  64  65
ATOM     65  C   UNL     1       7.295  31.651  22.675  1.00  0.00     0.120 A 
ATOM     66  C   UNL     1       6.307  30.703  22.812  1.00  0.00     0.138 A 
ATOM     67  N   UNL     1       8.180  31.430  23.652  1.00  0.00    -0.132 NA
ATOM     68  N   UNL     1       6.619  29.915  23.886  1.00  0.00    -0.252 N 
ATOM     69  N   UNL     1       7.749  30.395  24.350  1.00  0.00    -0.067 NA
BRANCH  68  70
ATOM     70  C   UNL     1       5.867  28.832  24.403  1.00  0.00     0.150 C 
BRANCH  70  71
ATOM     71  C   UNL     1       6.319  28.295  25.695  1.00  0.00     0.022 C 
BRANCH  71  72
ATOM     72  C   UNL     1       6.719  26.867  25.735  1.00  0.00     0.128 C 
BRANCH  72  73
ATOM     73  C   UNL     1       8.128  26.560  25.460  1.00  0.00     0.303 C 
ATOM     74  O   UNL     1       8.553  26.621  24.276  1.00  0.00    -0.252 OA
BRANCH  73  75
ATOM     75  O   UNL     1       9.042  26.200  26.442  1.00  0.00    -0.481 OA
ATOM     76  H   UNL     1       9.867  25.669  26.200  1.00  0.00     0.296 HD
ENDBRANCH  73  75
ENDBRANCH  72  73
ENDBRANCH  71  72
BRANCH  71  77
ATOM     77  C   UNL     1       5.483  28.704  26.874  1.00  0.00     0.009 C 
BRANCH  77  78
ATOM     78  C   UNL     1       5.808  29.931  27.599  1.00  0.00    -0.017 C 
ATOM     79  C   UNL     1       5.413  31.240  27.017  1.00  0.00     0.007 C 
ATOM     80  C   UNL     1       5.398  29.925  29.060  1.00  0.00     0.007 C 
ENDBRANCH  77  78
ENDBRANCH  71  77
ENDBRANCH  70  71
ENDBRANCH  68  70
ENDBRANCH  64  65
ENDBRANCH  63  64
ENDBRANCH  60  63
ENDBRANCH  58  59
ENDBRANCH  55  58
ENDBRANCH   1  55
TORSDOF 36
