REMARK VINA RESULT:    -5.080      2.774      8.116
REMARK INTER + INTRA:         -22.323
REMARK INTER:                 -12.294
REMARK INTRA:                 -10.029
REMARK UNBOUND:                -8.334
REMARK SMILES CC[N+](C)(CC)CCCn1cc(COC(=O)NC[C@@H](O)C(O)[C@@H]2O[C@@](OC[C@H]3O[C@@H](O[C@H]4[C@H](O)[C@@H](O)[C@H](OCCN=[N+]=[N-])O[C@@H]4CO)[C@H](O)[C@@H](O)[C@H]3O)(C(=O)O)C[C@H](O)[C@H]2NC(C)=O)nn1
REMARK SMILES IDX 21 1 23 2 25 3 57 4 24 5 58 6 60 7 26 8 27 9 28 10 30 11
REMARK SMILES IDX 29 12 48 13 50 14 52 15 31 16 32 17 45 18 44 19 37 20 33 21
REMARK SMILES IDX 35 22 46 23 47 24 38 26 39 27 40 28 41 29 42 30 43 31 34 32
REMARK SMILES IDX 36 34 49 36 51 38 53 40 54 42 55 43 56 44 59 46 61 48 62 49
REMARK SMILES IDX 63 51 64 52 22 53 19 55 20 56 18 58 17 59 15 60 16 62 14 63
REMARK SMILES IDX 13 64 12 65 11 66 65 67 10 68 66 69 9 70 8 71 7 72 3 73 4 74
REMARK SMILES IDX 2 75 1 76 5 77 6 78
REMARK H PARENT 47 25 34 33 36 35 49 37 51 39 53 41 56 45 59 47 61 50 22 54
REMARK H PARENT 20 57 17 61
REMARK Flexibility Score: inf
ROOT
ATOM      1  C   UNL     1      21.810  29.399  23.976  1.00  0.00     0.176 C 
ENDROOT
BRANCH   1   2
ATOM      2  C   UNL     1      21.602  29.357  22.465  1.00  0.00     0.178 C 
ATOM      3  C   UNL     1      19.844  29.311  20.893  1.00  0.00     0.272 C 
ATOM      4  C   UNL     1      20.806  28.506  20.086  1.00  0.00     0.113 C 
ATOM      5  O   UNL     1      20.258  29.157  22.246  1.00  0.00    -0.332 OA
ATOM      6  C   UNL     1      21.564  27.504  20.917  1.00  0.00     0.145 C 
ATOM      7  C   UNL     1      22.456  28.277  21.884  1.00  0.00     0.142 C 
BRANCH   3   8
ATOM      8  O   UNL     1      18.560  28.807  20.906  1.00  0.00    -0.338 OA
BRANCH   8   9
ATOM      9  C   UNL     1      17.823  28.793  19.784  1.00  0.00     0.199 C 
BRANCH   9  10
ATOM     10  C   UNL     1      16.397  28.247  20.060  1.00  0.00     0.179 C 
ATOM     11  C   UNL     1      15.362  30.096  21.095  1.00  0.00     0.282 C 
ATOM     12  O   UNL     1      15.823  28.787  21.143  1.00  0.00    -0.341 OA
ATOM     13  C   UNL     1      14.868  30.514  19.762  1.00  0.00     0.202 C 
ATOM     14  C   UNL     1      14.324  29.221  19.116  1.00  0.00     0.179 C 
ATOM     15  C   UNL     1      15.563  28.418  18.790  1.00  0.00     0.177 C 
BRANCH  11  16
ATOM     16  O   UNL     1      16.277  30.959  21.715  1.00  0.00    -0.341 OA
BRANCH  16  17
ATOM     17  C   UNL     1      15.972  31.202  23.022  1.00  0.00     0.184 C 
ATOM     18  C   UNL     1      15.585  32.549  23.453  1.00  0.00     0.178 C 
ATOM     19  O   UNL     1      15.057  32.492  24.730  1.00  0.00    -0.341 OA
ATOM     20  C   UNL     1      15.337  31.436  25.520  1.00  0.00     0.281 C 
ATOM     21  C   UNL     1      17.159  30.806  23.932  1.00  0.00     0.180 C 
ATOM     22  C   UNL     1      16.689  30.787  25.362  1.00  0.00     0.202 C 
BRANCH  18  23
ATOM     23  C   UNL     1      14.583  33.276  22.578  1.00  0.00     0.191 C 
BRANCH  23  24
ATOM     24  O   UNL     1      15.084  33.612  21.327  1.00  0.00    -0.394 OA
ATOM     25  H   UNL     1      15.562  32.788  20.988  1.00  0.00     0.210 HD
ENDBRANCH  23  24
ENDBRANCH  18  23
BRANCH  20  26
ATOM     26  O   UNL     1      14.304  30.515  25.515  1.00  0.00    -0.350 OA
BRANCH  26  27
ATOM     27  C   UNL     1      13.052  31.024  25.409  1.00  0.00     0.169 C 
BRANCH  27  28
ATOM     28  C   UNL     1      12.080  30.114  24.687  1.00  0.00     0.119 C 
BRANCH  28  29
ATOM     29  N   UNL     1      12.350  30.156  23.259  1.00  0.00    -0.092 NA
ATOM     30  N   UNL     1      11.894  31.022  22.517  1.00  0.00     0.001 N 
ATOM     31  N   UNL     1      11.467  31.895  21.758  1.00  0.00    -0.003 NA
ENDBRANCH  28  29
ENDBRANCH  27  28
ENDBRANCH  26  27
ENDBRANCH  20  26
BRANCH  21  32
ATOM     32  O   UNL     1      17.643  29.610  23.454  1.00  0.00    -0.387 OA
ATOM     33  H   UNL     1      18.511  29.648  23.024  1.00  0.00     0.211 HD
ENDBRANCH  21  32
BRANCH  22  34
ATOM     34  O   UNL     1      17.664  31.365  26.160  1.00  0.00    -0.385 OA
ATOM     35  H   UNL     1      18.522  30.865  26.172  1.00  0.00     0.211 HD
ENDBRANCH  22  34
ENDBRANCH  16  17
ENDBRANCH  11  16
BRANCH  13  36
ATOM     36  O   UNL     1      13.778  31.398  19.814  1.00  0.00    -0.385 OA
ATOM     37  H   UNL     1      13.822  31.955  19.007  1.00  0.00     0.211 HD
ENDBRANCH  13  36
BRANCH  14  38
ATOM     38  O   UNL     1      13.628  29.543  17.951  1.00  0.00    -0.387 OA
ATOM     39  H   UNL     1      12.687  29.645  18.202  1.00  0.00     0.211 HD
ENDBRANCH  14  38
BRANCH  15  40
ATOM     40  O   UNL     1      16.312  29.207  17.918  1.00  0.00    -0.387 OA
ATOM     41  H   UNL     1      16.320  30.155  18.117  1.00  0.00     0.211 HD
ENDBRANCH  15  40
ENDBRANCH   9  10
ENDBRANCH   8   9
ENDBRANCH   3   8
BRANCH   3  42
ATOM     42  C   UNL     1      19.809  30.745  20.561  1.00  0.00     0.364 C 
ATOM     43  O   UNL     1      20.428  31.211  19.579  1.00  0.00    -0.246 OA
BRANCH  42  44
ATOM     44  O   UNL     1      19.090  31.630  21.327  1.00  0.00    -0.477 OA
ATOM     45  H   UNL     1      18.202  31.397  21.768  1.00  0.00     0.296 HD
ENDBRANCH  42  44
ENDBRANCH   3  42
BRANCH   6  46
ATOM     46  O   UNL     1      20.751  26.652  21.627  1.00  0.00    -0.391 OA
ATOM     47  H   UNL     1      20.049  26.229  21.044  1.00  0.00     0.211 HD
ENDBRANCH   6  46
BRANCH   7  48
ATOM     48  N   UNL     1      23.481  28.897  21.026  1.00  0.00    -0.348 N 
ATOM     49  C   UNL     1      24.869  28.705  21.272  1.00  0.00     0.217 C 
ATOM     50  H   UNL     1      23.253  29.502  20.211  1.00  0.00     0.163 HD
ATOM     51  C   UNL     1      25.935  29.306  20.433  1.00  0.00     0.114 C 
ATOM     52  O   UNL     1      25.202  27.995  22.237  1.00  0.00    -0.275 OA
ENDBRANCH   7  48
ENDBRANCH   1   2
BRANCH   1  53
ATOM     53  O   UNL     1      23.099  28.836  24.267  1.00  0.00    -0.388 OA
ATOM     54  H   UNL     1      22.928  27.919  24.611  1.00  0.00     0.211 HD
ENDBRANCH   1  53
BRANCH   1  55
ATOM     55  C   UNL     1      20.810  28.540  24.679  1.00  0.00     0.165 C 
BRANCH  55  56
ATOM     56  O   UNL     1      20.033  29.508  25.441  1.00  0.00    -0.388 OA
ATOM     57  H   UNL     1      20.678  30.219  25.745  1.00  0.00     0.211 HD
ENDBRANCH  55  56
BRANCH  55  58
ATOM     58  C   UNL     1      21.318  27.530  25.640  1.00  0.00     0.154 C 
BRANCH  58  59
ATOM     59  N   UNL     1      22.069  26.425  25.247  1.00  0.00    -0.319 N 
ATOM     60  C   UNL     1      21.656  25.302  24.493  1.00  0.00     0.407 C 
ATOM     61  H   UNL     1      23.126  26.404  25.559  1.00  0.00     0.167 HD
ATOM     62  O   UNL     1      20.505  25.149  24.057  1.00  0.00    -0.225 OA
BRANCH  60  63
ATOM     63  O   UNL     1      22.581  24.267  24.209  1.00  0.00    -0.443 OA
BRANCH  63  64
ATOM     64  C   UNL     1      23.808  24.656  23.562  1.00  0.00     0.294 C 
BRANCH  64  65
ATOM     65  C   UNL     1      23.467  24.537  22.095  1.00  0.00     0.120 A 
ATOM     66  C   UNL     1      24.282  24.846  21.032  1.00  0.00     0.138 A 
ATOM     67  N   UNL     1      22.345  24.068  21.539  1.00  0.00    -0.132 NA
ATOM     68  N   UNL     1      23.621  24.549  19.867  1.00  0.00    -0.252 N 
ATOM     69  N   UNL     1      22.441  24.079  20.225  1.00  0.00    -0.067 NA
BRANCH  68  70
ATOM     70  C   UNL     1      24.163  24.690  18.527  1.00  0.00     0.152 C 
BRANCH  70  71
ATOM     71  C   UNL     1      23.462  25.704  17.732  1.00  0.00     0.085 C 
BRANCH  71  72
ATOM     72  C   UNL     1      23.716  27.138  17.952  1.00  0.00     0.265 C 
BRANCH  72  73
ATOM     73  N   UNL     1      23.516  28.049  16.874  1.00  0.00    -0.326 N 
ATOM     74  C   UNL     1      23.681  27.375  15.615  1.00  0.00     0.334 C 
BRANCH  73  75
ATOM     75  C   UNL     1      24.297  29.252  16.923  1.00  0.00     0.260 C 
ATOM     76  C   UNL     1      23.575  30.400  17.587  1.00  0.00     0.071 C 
ENDBRANCH  73  75
BRANCH  73  77
ATOM     77  C   UNL     1      22.095  28.429  16.926  1.00  0.00     0.260 C 
ATOM     78  C   UNL     1      21.299  27.955  15.761  1.00  0.00     0.071 C 
ENDBRANCH  73  77
ENDBRANCH  72  73
ENDBRANCH  71  72
ENDBRANCH  70  71
ENDBRANCH  68  70
ENDBRANCH  64  65
ENDBRANCH  63  64
ENDBRANCH  60  63
ENDBRANCH  58  59
ENDBRANCH  55  58
ENDBRANCH   1  55
TORSDOF 35
