REMARK VINA RESULT:    -4.956      2.589      6.745
REMARK INTER + INTRA:         -22.547
REMARK INTER:                 -14.900
REMARK INTRA:                  -7.646
REMARK UNBOUND:                -9.623
REMARK SMILES CC(=O)N[C@@H]1[C@@H](O)C[C@](OC[C@H]2O[C@@H](O[C@H]3[C@H](O)[C@@H](O)[C@H](OCCN=[N+]=[N-])O[C@@H]3CO)[C@H](O)[C@@H](O)[C@H]2O)(C(=O)O)O[C@H]1C(O)[C@H](O)CNC(=O)OCc1cn(Cc2ccc(C(=O)O)cc2)nn1
REMARK SMILES IDX 43 1 42 2 9 3 8 4 41 5 6 6 5 7 10 8 11 9 12 10 14 11 13 12
REMARK SMILES IDX 32 13 34 14 36 15 15 16 16 17 29 18 28 19 21 20 17 21 19 22
REMARK SMILES IDX 30 23 31 24 22 26 23 27 24 28 25 29 26 30 27 31 18 32 20 34
REMARK SMILES IDX 33 36 35 38 37 40 38 42 39 43 40 44 7 46 4 48 2 49 1 51 3 52
REMARK SMILES IDX 44 53 45 55 46 56 47 58 48 59 49 60 50 62 51 63 52 64 53 65
REMARK SMILES IDX 54 66 67 67 55 68 66 69 56 70 57 71 58 72 65 73 59 74 64 75
REMARK SMILES IDX 60 76 61 77 62 78 63 79
REMARK H PARENT 31 25 18 33 20 35 33 37 35 39 37 41 40 45 7 47 4 50 44 54
REMARK H PARENT 46 57 48 61 63 80
REMARK Flexibility Score: inf
ROOT
ATOM      1  C   UNL     1      17.730  30.900  22.327  1.00  0.00     0.176 C 
ENDROOT
BRANCH   1   2
ATOM      2  C   UNL     1      16.194  31.044  22.248  1.00  0.00     0.178 C 
ATOM      3  C   UNL     1      14.734  31.155  20.389  1.00  0.00     0.272 C 
ATOM      4  C   UNL     1      14.260  32.460  20.889  1.00  0.00     0.113 C 
ATOM      5  O   UNL     1      15.864  30.676  21.002  1.00  0.00    -0.332 OA
ATOM      6  C   UNL     1      15.337  33.262  21.589  1.00  0.00     0.145 C 
ATOM      7  C   UNL     1      15.856  32.404  22.705  1.00  0.00     0.142 C 
BRANCH   3   8
ATOM      8  O   UNL     1      15.037  31.205  19.054  1.00  0.00    -0.338 OA
BRANCH   8   9
ATOM      9  C   UNL     1      14.206  31.830  18.193  1.00  0.00     0.199 C 
BRANCH   9  10
ATOM     10  C   UNL     1      14.511  31.386  16.742  1.00  0.00     0.179 C 
ATOM     11  C   UNL     1      16.182  30.363  15.482  1.00  0.00     0.282 C 
ATOM     12  O   UNL     1      15.811  30.978  16.676  1.00  0.00    -0.341 OA
ATOM     13  C   UNL     1      15.164  30.460  14.403  1.00  0.00     0.202 C 
ATOM     14  C   UNL     1      13.864  29.884  14.924  1.00  0.00     0.179 C 
ATOM     15  C   UNL     1      13.537  30.317  16.319  1.00  0.00     0.177 C 
BRANCH  11  16
ATOM     16  O   UNL     1      16.487  29.032  15.764  1.00  0.00    -0.341 OA
BRANCH  16  17
ATOM     17  C   UNL     1      17.820  28.849  15.992  1.00  0.00     0.184 C 
ATOM     18  C   UNL     1      18.166  28.855  17.435  1.00  0.00     0.178 C 
ATOM     19  O   UNL     1      19.477  28.400  17.641  1.00  0.00    -0.341 OA
ATOM     20  C   UNL     1      20.347  28.936  16.688  1.00  0.00     0.281 C 
ATOM     21  C   UNL     1      18.544  30.014  15.291  1.00  0.00     0.180 C 
ATOM     22  C   UNL     1      19.846  30.194  16.044  1.00  0.00     0.202 C 
BRANCH  18  23
ATOM     23  C   UNL     1      17.242  27.957  18.209  1.00  0.00     0.191 C 
BRANCH  23  24
ATOM     24  O   UNL     1      16.122  28.754  18.540  1.00  0.00    -0.394 OA
ATOM     25  H   UNL     1      15.730  28.455  19.383  1.00  0.00     0.210 HD
ENDBRANCH  23  24
ENDBRANCH  18  23
BRANCH  20  26
ATOM     26  O   UNL     1      20.658  27.964  15.767  1.00  0.00    -0.350 OA
BRANCH  26  27
ATOM     27  C   UNL     1      22.002  27.794  15.526  1.00  0.00     0.169 C 
BRANCH  27  28
ATOM     28  C   UNL     1      22.640  26.636  16.219  1.00  0.00     0.119 C 
BRANCH  28  29
ATOM     29  N   UNL     1      21.825  25.454  15.895  1.00  0.00    -0.092 NA
ATOM     30  N   UNL     1      22.188  24.604  15.089  1.00  0.00     0.001 N 
ATOM     31  N   UNL     1      22.698  23.974  14.169  1.00  0.00    -0.003 NA
ENDBRANCH  28  29
ENDBRANCH  27  28
ENDBRANCH  26  27
ENDBRANCH  20  26
BRANCH  21  32
ATOM     32  O   UNL     1      18.758  29.717  13.963  1.00  0.00    -0.387 OA
ATOM     33  H   UNL     1      19.619  30.126  13.625  1.00  0.00     0.211 HD
ENDBRANCH  21  32
BRANCH  22  34
ATOM     34  O   UNL     1      19.721  31.226  16.946  1.00  0.00    -0.385 OA
ATOM     35  H   UNL     1      20.107  31.018  17.815  1.00  0.00     0.211 HD
ENDBRANCH  22  34
ENDBRANCH  16  17
ENDBRANCH  11  16
BRANCH  13  36
ATOM     36  O   UNL     1      14.970  31.784  13.983  1.00  0.00    -0.385 OA
ATOM     37  H   UNL     1      15.797  32.038  13.489  1.00  0.00     0.211 HD
ENDBRANCH  13  36
BRANCH  14  38
ATOM     38  O   UNL     1      13.864  28.491  14.861  1.00  0.00    -0.387 OA
ATOM     39  H   UNL     1      13.769  28.227  13.903  1.00  0.00     0.211 HD
ENDBRANCH  14  38
BRANCH  15  40
ATOM     40  O   UNL     1      13.528  29.243  17.219  1.00  0.00    -0.387 OA
ATOM     41  H   UNL     1      12.922  28.554  16.840  1.00  0.00     0.211 HD
ENDBRANCH  15  40
ENDBRANCH   9  10
ENDBRANCH   8   9
ENDBRANCH   3   8
BRANCH   3  42
ATOM     42  C   UNL     1      13.662  30.127  20.657  1.00  0.00     0.364 C 
ATOM     43  O   UNL     1      13.741  28.974  20.164  1.00  0.00    -0.246 OA
BRANCH  42  44
ATOM     44  O   UNL     1      12.562  30.413  21.449  1.00  0.00    -0.477 OA
ATOM     45  H   UNL     1      12.200  31.379  21.417  1.00  0.00     0.296 HD
ENDBRANCH  42  44
ENDBRANCH   3  42
BRANCH   6  46
ATOM     46  O   UNL     1      16.283  33.601  20.647  1.00  0.00    -0.391 OA
ATOM     47  H   UNL     1      16.977  34.179  21.060  1.00  0.00     0.211 HD
ENDBRANCH   6  46
BRANCH   7  48
ATOM     48  N   UNL     1      14.831  32.329  23.738  1.00  0.00    -0.348 N 
ATOM     49  C   UNL     1      14.862  33.195  24.886  1.00  0.00     0.217 C 
ATOM     50  H   UNL     1      14.028  31.663  23.721  1.00  0.00     0.163 HD
ATOM     51  C   UNL     1      13.791  33.087  25.925  1.00  0.00     0.114 C 
ATOM     52  O   UNL     1      15.787  34.018  24.985  1.00  0.00    -0.275 OA
ENDBRANCH   7  48
ENDBRANCH   1   2
BRANCH   1  53
ATOM     53  O   UNL     1      18.169  30.283  23.452  1.00  0.00    -0.388 OA
ATOM     54  H   UNL     1      18.085  29.304  23.481  1.00  0.00     0.211 HD
ENDBRANCH   1  53
BRANCH   1  55
ATOM     55  C   UNL     1      18.289  30.312  21.054  1.00  0.00     0.165 C 
BRANCH  55  56
ATOM     56  O   UNL     1      18.709  29.041  21.289  1.00  0.00    -0.388 OA
ATOM     57  H   UNL     1      18.012  28.370  21.425  1.00  0.00     0.211 HD
ENDBRANCH  55  56
BRANCH  55  58
ATOM     58  C   UNL     1      19.228  31.263  20.420  1.00  0.00     0.154 C 
BRANCH  58  59
ATOM     59  N   UNL     1      20.403  30.614  19.907  1.00  0.00    -0.319 N 
ATOM     60  C   UNL     1      21.614  30.480  20.621  1.00  0.00     0.407 C 
ATOM     61  H   UNL     1      20.387  30.202  18.933  1.00  0.00     0.167 HD
ATOM     62  O   UNL     1      21.754  30.921  21.771  1.00  0.00    -0.225 OA
BRANCH  60  63
ATOM     63  O   UNL     1      22.746  29.835  20.084  1.00  0.00    -0.443 OA
BRANCH  63  64
ATOM     64  C   UNL     1      22.589  28.635  19.349  1.00  0.00     0.294 C 
BRANCH  64  65
ATOM     65  C   UNL     1      22.131  27.510  20.184  1.00  0.00     0.120 A 
ATOM     66  C   UNL     1      22.789  26.371  20.554  1.00  0.00     0.138 A 
ATOM     67  N   UNL     1      20.900  27.432  20.724  1.00  0.00    -0.132 NA
ATOM     68  N   UNL     1      21.942  25.633  21.306  1.00  0.00    -0.248 N 
ATOM     69  N   UNL     1      20.804  26.298  21.393  1.00  0.00    -0.067 NA
BRANCH  68  70
ATOM     70  C   UNL     1      22.257  24.353  21.886  1.00  0.00     0.181 C 
BRANCH  70  71
ATOM     71  C   UNL     1      22.674  24.507  23.294  1.00  0.00    -0.026 A 
ATOM     72  C   UNL     1      24.014  24.534  23.616  1.00  0.00     0.006 A 
ATOM     73  C   UNL     1      21.720  24.606  24.303  1.00  0.00     0.006 A 
ATOM     74  C   UNL     1      24.336  24.662  24.956  1.00  0.00     0.016 A 
ATOM     75  C   UNL     1      22.047  24.731  25.635  1.00  0.00     0.016 A 
ATOM     76  C   UNL     1      23.385  24.759  25.952  1.00  0.00     0.059 A 
BRANCH  76  77
ATOM     77  C   UNL     1      23.790  24.885  27.343  1.00  0.00     0.335 C 
ATOM     78  O   UNL     1      22.966  24.709  28.252  1.00  0.00    -0.246 OA
BRANCH  77  79
ATOM     79  O   UNL     1      25.094  25.204  27.649  1.00  0.00    -0.478 OA
ATOM     80  H   UNL     1      25.872  24.590  27.417  1.00  0.00     0.297 HD
ENDBRANCH  77  79
ENDBRANCH  76  77
ENDBRANCH  70  71
ENDBRANCH  68  70
ENDBRANCH  64  65
ENDBRANCH  63  64
ENDBRANCH  60  63
ENDBRANCH  58  59
ENDBRANCH  55  58
ENDBRANCH   1  55
TORSDOF 33
