REMARK VINA RESULT:    -5.980      6.540     10.054
REMARK INTER + INTRA:         -20.763
REMARK INTER:                 -15.806
REMARK INTRA:                  -4.957
REMARK UNBOUND:                -6.043
REMARK SMILES CC(=O)N[C@@H]1[C@@H](O)C[C@](OC[C@H]2O[C@@H](O[C@H]3[C@H](O)[C@@H](O)[C@H](OCCN=[N+]=[N-])O[C@@H]3CO)[C@H](O)[C@@H](O)[C@H]2O)(C(=O)O)O[C@H]1C(O)[C@H](O)CNC(=O)OCc1cn(-c2ccccc2I)nn1
REMARK SMILES IDX 9 1 8 2 6 3 5 4 42 5 41 6 10 7 11 8 12 9 14 10 13 11 32 12
REMARK SMILES IDX 34 13 36 14 15 15 16 16 29 17 28 18 21 19 17 20 19 21 30 22
REMARK SMILES IDX 31 23 22 25 23 26 24 27 25 28 26 29 27 30 18 31 20 33 33 35
REMARK SMILES IDX 35 37 37 39 38 41 39 42 40 43 7 45 43 47 44 48 45 50 46 51
REMARK SMILES IDX 47 53 48 54 49 55 50 57 51 58 52 59 53 60 54 61 64 62 55 63
REMARK SMILES IDX 63 64 56 65 57 66 61 67 58 68 60 69 62 70 59 71 4 72 2 73
REMARK SMILES IDX 1 75 3 76
REMARK H PARENT 31 24 18 32 20 34 33 36 35 38 37 40 40 44 7 46 44 49 46 52
REMARK H PARENT 48 56 4 74
REMARK Flexibility Score: inf
ROOT
ATOM      1  C   UNL     1      11.308  30.451  23.971  1.00  0.00     0.272 C 
ATOM      2  C   UNL     1      12.127  31.605  24.478  1.00  0.00     0.113 C 
ATOM      3  C   UNL     1      12.968  32.228  23.351  1.00  0.00     0.145 C 
ATOM      4  C   UNL     1      13.962  31.106  22.932  1.00  0.00     0.142 C 
ATOM      5  C   UNL     1      13.176  29.853  22.663  1.00  0.00     0.178 C 
ATOM      6  O   UNL     1      11.817  30.190  22.653  1.00  0.00    -0.332 OA
ENDROOT
BRANCH   1   7
ATOM      7  O   UNL     1       9.983  30.655  23.749  1.00  0.00    -0.338 OA
BRANCH   7   8
ATOM      8  C   UNL     1       9.254  31.683  24.065  1.00  0.00     0.199 C 
BRANCH   8   9
ATOM      9  C   UNL     1       7.992  31.990  23.361  1.00  0.00     0.179 C 
ATOM     10  C   UNL     1       6.491  30.283  23.588  1.00  0.00     0.282 C 
ATOM     11  O   UNL     1       7.327  30.976  22.756  1.00  0.00    -0.341 OA
ATOM     12  C   UNL     1       5.222  31.079  23.864  1.00  0.00     0.202 C 
ATOM     13  C   UNL     1       5.588  32.581  23.816  1.00  0.00     0.179 C 
ATOM     14  C   UNL     1       7.009  32.720  24.326  1.00  0.00     0.177 C 
BRANCH  10  15
ATOM     15  O   UNL     1       7.030  29.633  24.652  1.00  0.00    -0.341 OA
BRANCH  15  16
ATOM     16  C   UNL     1       6.351  28.519  25.089  1.00  0.00     0.184 C 
ATOM     17  C   UNL     1       5.971  28.511  26.546  1.00  0.00     0.178 C 
ATOM     18  O   UNL     1       5.800  27.204  26.995  1.00  0.00    -0.341 OA
ATOM     19  C   UNL     1       5.387  26.315  25.996  1.00  0.00     0.281 C 
ATOM     20  C   UNL     1       7.345  27.342  24.980  1.00  0.00     0.180 C 
ATOM     21  C   UNL     1       6.462  26.101  24.963  1.00  0.00     0.202 C 
BRANCH  17  22
ATOM     22  C   UNL     1       4.825  29.399  26.907  1.00  0.00     0.191 C 
BRANCH  22  23
ATOM     23  O   UNL     1       4.023  28.685  27.806  1.00  0.00    -0.394 OA
ATOM     24  H   UNL     1       3.141  29.143  27.856  1.00  0.00     0.210 HD
ENDBRANCH  22  23
ENDBRANCH  17  22
BRANCH  19  25
ATOM     25  O   UNL     1       4.167  26.626  25.478  1.00  0.00    -0.350 OA
BRANCH  25  26
ATOM     26  C   UNL     1       3.210  25.711  25.786  1.00  0.00     0.169 C 
BRANCH  26  27
ATOM     27  C   UNL     1       3.630  24.527  26.598  1.00  0.00     0.119 C 
BRANCH  27  28
ATOM     28  N   UNL     1       3.089  24.439  27.925  1.00  0.00    -0.092 NA
ATOM     29  N   UNL     1       3.156  25.468  28.622  1.00  0.00     0.001 N 
ATOM     30  N   UNL     1       3.184  26.332  29.500  1.00  0.00    -0.003 NA
ENDBRANCH  27  28
ENDBRANCH  26  27
ENDBRANCH  25  26
ENDBRANCH  19  25
BRANCH  20  31
ATOM     31  O   UNL     1       8.099  27.443  23.826  1.00  0.00    -0.387 OA
ATOM     32  H   UNL     1       8.650  26.618  23.769  1.00  0.00     0.211 HD
ENDBRANCH  20  31
BRANCH  21  33
ATOM     33  O   UNL     1       7.215  24.948  25.181  1.00  0.00    -0.385 OA
ATOM     34  H   UNL     1       8.190  25.218  25.221  1.00  0.00     0.211 HD
ENDBRANCH  21  33
ENDBRANCH  15  16
ENDBRANCH  10  15
BRANCH  12  35
ATOM     35  O   UNL     1       4.252  30.905  22.887  1.00  0.00    -0.385 OA
ATOM     36  H   UNL     1       4.201  29.930  22.706  1.00  0.00     0.211 HD
ENDBRANCH  12  35
BRANCH  13  37
ATOM     37  O   UNL     1       4.719  33.378  24.491  1.00  0.00    -0.387 OA
ATOM     38  H   UNL     1       4.009  33.819  23.934  1.00  0.00     0.211 HD
ENDBRANCH  13  37
BRANCH  14  39
ATOM     39  O   UNL     1       7.118  32.065  25.541  1.00  0.00    -0.387 OA
ATOM     40  H   UNL     1       6.839  32.686  26.284  1.00  0.00     0.211 HD
ENDBRANCH  14  39
ENDBRANCH   8   9
ENDBRANCH   7   8
ENDBRANCH   1   7
BRANCH   1  41
ATOM     41  C   UNL     1      11.562  29.252  24.790  1.00  0.00     0.364 C 
ATOM     42  O   UNL     1      12.406  29.174  25.700  1.00  0.00    -0.246 OA
BRANCH  41  43
ATOM     43  O   UNL     1      10.826  28.067  24.573  1.00  0.00    -0.477 OA
ATOM     44  H   UNL     1      10.208  28.008  23.751  1.00  0.00     0.296 HD
ENDBRANCH  41  43
ENDBRANCH   1  41
BRANCH   3  45
ATOM     45  O   UNL     1      12.200  32.624  22.279  1.00  0.00    -0.391 OA
ATOM     46  H   UNL     1      11.383  32.074  22.218  1.00  0.00     0.211 HD
ENDBRANCH   3  45
BRANCH   5  47
ATOM     47  C   UNL     1      13.423  29.399  21.200  1.00  0.00     0.176 C 
BRANCH  47  48
ATOM     48  O   UNL     1      14.382  28.318  21.302  1.00  0.00    -0.388 OA
ATOM     49  H   UNL     1      13.935  27.541  20.848  1.00  0.00     0.211 HD
ENDBRANCH  47  48
BRANCH  47  50
ATOM     50  C   UNL     1      14.190  30.423  20.419  1.00  0.00     0.165 C 
BRANCH  50  51
ATOM     51  O   UNL     1      13.283  31.164  19.616  1.00  0.00    -0.388 OA
ATOM     52  H   UNL     1      13.628  31.262  18.693  1.00  0.00     0.211 HD
ENDBRANCH  50  51
BRANCH  50  53
ATOM     53  C   UNL     1      15.304  29.981  19.571  1.00  0.00     0.154 C 
BRANCH  53  54
ATOM     54  N   UNL     1      16.633  30.301  20.058  1.00  0.00    -0.319 N 
ATOM     55  C   UNL     1      17.532  29.235  20.364  1.00  0.00     0.407 C 
ATOM     56  H   UNL     1      16.983  31.269  20.204  1.00  0.00     0.167 HD
ATOM     57  O   UNL     1      17.140  28.032  20.209  1.00  0.00    -0.225 OA
BRANCH  55  58
ATOM     58  O   UNL     1      18.823  29.396  20.823  1.00  0.00    -0.443 OA
BRANCH  58  59
ATOM     59  C   UNL     1      19.938  29.157  19.977  1.00  0.00     0.294 C 
BRANCH  59  60
ATOM     60  C   UNL     1      20.702  27.986  20.540  1.00  0.00     0.121 A 
ATOM     61  C   UNL     1      21.009  27.725  21.855  1.00  0.00     0.144 A 
ATOM     62  N   UNL     1      21.228  26.979  19.823  1.00  0.00    -0.131 NA
ATOM     63  N   UNL     1      21.705  26.571  21.847  1.00  0.00    -0.219 N 
ATOM     64  N   UNL     1      21.833  26.124  20.613  1.00  0.00    -0.062 NA
BRANCH  63  65
ATOM     65  C   UNL     1      22.249  25.901  22.979  1.00  0.00     0.080 A 
ATOM     66  C   UNL     1      21.430  25.177  23.838  1.00  0.00     0.029 A 
ATOM     67  C   UNL     1      23.594  25.957  23.257  1.00  0.00     0.039 A 
ATOM     68  C   UNL     1      22.008  24.540  24.942  1.00  0.00     0.002 A 
ATOM     69  C   UNL     1      24.155  25.312  24.367  1.00  0.00     0.017 A 
ATOM     70  I   UNL     1      24.864  27.052  21.969  1.00  0.00    -0.042 I 
ATOM     71  C   UNL     1      23.354  24.596  25.218  1.00  0.00     0.001 A 
ENDBRANCH  63  65
ENDBRANCH  59  60
ENDBRANCH  58  59
ENDBRANCH  55  58
ENDBRANCH  53  54
ENDBRANCH  50  53
ENDBRANCH  47  50
ENDBRANCH   5  47
BRANCH   4  72
ATOM     72  N   UNL     1      14.919  31.036  23.975  1.00  0.00    -0.348 N 
ATOM     73  C   UNL     1      16.302  31.394  23.791  1.00  0.00     0.217 C 
ATOM     74  H   UNL     1      14.687  30.727  24.936  1.00  0.00     0.163 HD
ATOM     75  C   UNL     1      17.306  31.325  24.869  1.00  0.00     0.114 C 
ATOM     76  O   UNL     1      16.625  31.777  22.635  1.00  0.00    -0.275 OA
ENDBRANCH   4  72
TORSDOF 30
