REMARK VINA RESULT:    -6.750      9.743     14.656
REMARK INTER + INTRA:         -23.262
REMARK INTER:                 -16.491
REMARK INTRA:                  -6.771
REMARK UNBOUND:                -5.463
REMARK SMILES CC(=O)N[C@@H]1[C@@H](O)C[C@](OC[C@H]2O[C@@H](O[C@H]3[C@H](O)[C@@H](O)[C@H](OCCN=[N+]=[N-])O[C@@H]3CO)[C@H](O)[C@@H](O)[C@H]2O)(C(=O)O)O[C@H]1C(O)[C@H](O)CNC(=O)OCc1cn(COCc2ccccc2)nn1
REMARK SMILES IDX 43 1 42 2 9 3 8 4 41 5 6 6 5 7 10 8 11 9 12 10 14 11 13 12
REMARK SMILES IDX 32 13 34 14 36 15 15 16 16 17 29 18 28 19 21 20 17 21 19 22
REMARK SMILES IDX 30 23 31 24 22 26 23 27 24 28 25 29 26 30 27 31 18 32 20 34
REMARK SMILES IDX 33 36 35 38 37 40 38 42 39 43 40 44 7 46 4 48 2 49 1 51 3 52
REMARK SMILES IDX 44 53 45 55 46 56 47 58 48 59 49 60 50 62 51 63 52 64 53 65
REMARK SMILES IDX 54 66 66 67 55 68 65 69 56 70 57 71 58 72 59 73 60 74 64 75
REMARK SMILES IDX 61 76 63 77 62 78
REMARK H PARENT 31 25 18 33 20 35 33 37 35 39 37 41 40 45 7 47 4 50 44 54
REMARK H PARENT 46 57 48 61
REMARK Flexibility Score: inf
ROOT
ATOM      1  C   UNL     1      27.934  21.776  20.665  1.00  0.00     0.176 C 
ENDROOT
BRANCH   1   2
ATOM      2  C   UNL     1      29.311  21.139  20.375  1.00  0.00     0.178 C 
ATOM      3  C   UNL     1      30.307  20.013  18.602  1.00  0.00     0.272 C 
ATOM      4  C   UNL     1      30.949  19.046  19.592  1.00  0.00     0.113 C 
ATOM      5  O   UNL     1      29.150  20.425  19.186  1.00  0.00    -0.332 OA
ATOM      6  C   UNL     1      30.016  18.819  20.757  1.00  0.00     0.145 C 
ATOM      7  C   UNL     1      29.732  20.187  21.449  1.00  0.00     0.142 C 
BRANCH   3   8
ATOM      8  O   UNL     1      30.052  19.349  17.386  1.00  0.00    -0.338 OA
BRANCH   8   9
ATOM      9  C   UNL     1      28.910  18.651  17.291  1.00  0.00     0.199 C 
BRANCH   9  10
ATOM     10  C   UNL     1      28.279  18.847  15.932  1.00  0.00     0.179 C 
ATOM     11  C   UNL     1      27.110  20.216  14.557  1.00  0.00     0.282 C 
ATOM     12  O   UNL     1      27.711  20.134  15.834  1.00  0.00    -0.341 OA
ATOM     13  C   UNL     1      28.178  20.386  13.480  1.00  0.00     0.202 C 
ATOM     14  C   UNL     1      29.499  19.968  14.143  1.00  0.00     0.179 C 
ATOM     15  C   UNL     1      29.213  18.633  14.798  1.00  0.00     0.177 C 
BRANCH  11  16
ATOM     16  O   UNL     1      26.317  21.331  14.540  1.00  0.00    -0.341 OA
BRANCH  16  17
ATOM     17  C   UNL     1      24.963  21.058  14.412  1.00  0.00     0.184 C 
ATOM     18  C   UNL     1      24.641  20.171  13.263  1.00  0.00     0.178 C 
ATOM     19  O   UNL     1      24.788  20.855  12.094  1.00  0.00    -0.341 OA
ATOM     20  C   UNL     1      23.873  21.860  11.885  1.00  0.00     0.281 C 
ATOM     21  C   UNL     1      24.211  22.343  14.350  1.00  0.00     0.180 C 
ATOM     22  C   UNL     1      23.526  22.666  13.075  1.00  0.00     0.202 C 
BRANCH  18  23
ATOM     23  C   UNL     1      23.272  19.560  13.455  1.00  0.00     0.191 C 
BRANCH  23  24
ATOM     24  O   UNL     1      23.021  19.294  14.806  1.00  0.00    -0.394 OA
ATOM     25  H   UNL     1      23.372  20.036  15.358  1.00  0.00     0.210 HD
ENDBRANCH  23  24
ENDBRANCH  18  23
BRANCH  20  26
ATOM     26  O   UNL     1      22.712  21.255  11.390  1.00  0.00    -0.350 OA
BRANCH  26  27
ATOM     27  C   UNL     1      21.562  21.963  11.629  1.00  0.00     0.169 C 
BRANCH  27  28
ATOM     28  C   UNL     1      20.413  21.126  11.093  1.00  0.00     0.119 C 
BRANCH  28  29
ATOM     29  N   UNL     1      19.529  20.677  12.144  1.00  0.00    -0.092 NA
ATOM     30  N   UNL     1      19.033  19.536  12.101  1.00  0.00     0.001 N 
ATOM     31  N   UNL     1      18.179  18.695  11.761  1.00  0.00    -0.003 NA
ENDBRANCH  28  29
ENDBRANCH  27  28
ENDBRANCH  26  27
ENDBRANCH  20  26
BRANCH  21  32
ATOM     32  O   UNL     1      23.212  22.361  15.362  1.00  0.00    -0.387 OA
ATOM     33  H   UNL     1      22.568  23.073  15.225  1.00  0.00     0.211 HD
ENDBRANCH  21  32
BRANCH  22  34
ATOM     34  O   UNL     1      23.834  24.013  12.750  1.00  0.00    -0.385 OA
ATOM     35  H   UNL     1      23.252  24.568  13.332  1.00  0.00     0.211 HD
ENDBRANCH  22  34
ENDBRANCH  16  17
ENDBRANCH  11  16
BRANCH  13  36
ATOM     36  O   UNL     1      27.994  19.499  12.420  1.00  0.00    -0.385 OA
ATOM     37  H   UNL     1      27.071  19.627  12.087  1.00  0.00     0.211 HD
ENDBRANCH  13  36
BRANCH  14  38
ATOM     38  O   UNL     1      29.719  20.910  15.140  1.00  0.00    -0.387 OA
ATOM     39  H   UNL     1      30.557  21.423  15.023  1.00  0.00     0.211 HD
ENDBRANCH  14  38
BRANCH  15  40
ATOM     40  O   UNL     1      30.373  17.955  15.138  1.00  0.00    -0.387 OA
ATOM     41  H   UNL     1      31.004  18.501  15.673  1.00  0.00     0.211 HD
ENDBRANCH  15  40
ENDBRANCH   9  10
ENDBRANCH   8   9
ENDBRANCH   3   8
BRANCH   3  42
ATOM     42  C   UNL     1      31.175  21.138  18.257  1.00  0.00     0.364 C 
ATOM     43  O   UNL     1      31.069  21.912  17.270  1.00  0.00    -0.246 OA
BRANCH  42  44
ATOM     44  O   UNL     1      32.275  21.432  19.099  1.00  0.00    -0.477 OA
ATOM     45  H   UNL     1      32.289  22.288  19.652  1.00  0.00     0.296 HD
ENDBRANCH  42  44
ENDBRANCH   3  42
BRANCH   6  46
ATOM     46  O   UNL     1      28.819  18.254  20.492  1.00  0.00    -0.391 OA
ATOM     47  H   UNL     1      28.527  18.382  19.536  1.00  0.00     0.211 HD
ENDBRANCH   6  46
BRANCH   7  48
ATOM     48  N   UNL     1      30.997  20.538  22.049  1.00  0.00    -0.348 N 
ATOM     49  C   UNL     1      31.007  21.056  23.360  1.00  0.00     0.217 C 
ATOM     50  H   UNL     1      31.872  20.418  21.535  1.00  0.00     0.163 HD
ATOM     51  C   UNL     1      32.299  21.412  24.006  1.00  0.00     0.114 C 
ATOM     52  O   UNL     1      29.924  21.220  24.007  1.00  0.00    -0.275 OA
ENDBRANCH   7  48
ENDBRANCH   1   2
BRANCH   1  53
ATOM     53  O   UNL     1      27.546  22.421  19.429  1.00  0.00    -0.388 OA
ATOM     54  H   UNL     1      26.740  21.916  19.112  1.00  0.00     0.211 HD
ENDBRANCH   1  53
BRANCH   1  55
ATOM     55  C   UNL     1      27.942  22.850  21.694  1.00  0.00     0.165 C 
BRANCH  55  56
ATOM     56  O   UNL     1      26.739  23.247  22.205  1.00  0.00    -0.388 OA
ATOM     57  H   UNL     1      26.627  23.094  23.169  1.00  0.00     0.211 HD
ENDBRANCH  55  56
BRANCH  55  58
ATOM     58  C   UNL     1      28.908  23.966  21.590  1.00  0.00     0.154 C 
BRANCH  58  59
ATOM     59  N   UNL     1      28.572  25.071  20.737  1.00  0.00    -0.319 N 
ATOM     60  C   UNL     1      29.126  25.293  19.449  1.00  0.00     0.407 C 
ATOM     61  H   UNL     1      27.866  25.774  21.049  1.00  0.00     0.167 HD
ATOM     62  O   UNL     1      29.951  24.500  18.983  1.00  0.00    -0.225 OA
BRANCH  60  63
ATOM     63  O   UNL     1      28.793  26.383  18.636  1.00  0.00    -0.443 OA
BRANCH  63  64
ATOM     64  C   UNL     1      28.163  26.158  17.373  1.00  0.00     0.294 C 
BRANCH  64  65
ATOM     65  C   UNL     1      26.947  25.320  17.489  1.00  0.00     0.120 A 
ATOM     66  C   UNL     1      25.813  25.709  18.170  1.00  0.00     0.141 A 
ATOM     67  N   UNL     1      26.698  24.096  17.009  1.00  0.00    -0.132 NA
ATOM     68  N   UNL     1      24.911  24.701  18.079  1.00  0.00    -0.226 N 
ATOM     69  N   UNL     1      25.480  23.739  17.369  1.00  0.00    -0.065 NA
BRANCH  68  70
ATOM     70  C   UNL     1      23.575  24.643  18.628  1.00  0.00     0.307 C 
BRANCH  70  71
ATOM     71  O   UNL     1      23.580  24.488  19.988  1.00  0.00    -0.355 OA
BRANCH  71  72
ATOM     72  C   UNL     1      22.298  24.648  20.488  1.00  0.00     0.198 C 
BRANCH  72  73
ATOM     73  C   UNL     1      22.360  24.640  21.993  1.00  0.00    -0.022 A 
ATOM     74  C   UNL     1      23.605  24.644  22.587  1.00  0.00     0.006 A 
ATOM     75  C   UNL     1      21.213  24.626  22.744  1.00  0.00     0.006 A 
ATOM     76  C   UNL     1      23.704  24.635  23.962  1.00  0.00     0.000 A 
ATOM     77  C   UNL     1      21.335  24.617  24.102  1.00  0.00     0.000 A 
ATOM     78  C   UNL     1      22.566  24.621  24.739  1.00  0.00     0.000 A 
ENDBRANCH  72  73
ENDBRANCH  71  72
ENDBRANCH  70  71
ENDBRANCH  68  70
ENDBRANCH  64  65
ENDBRANCH  63  64
ENDBRANCH  60  63
ENDBRANCH  58  59
ENDBRANCH  55  58
ENDBRANCH   1  55
TORSDOF 33
