REMARK VINA RESULT:    -5.909      7.508     13.208
REMARK INTER + INTRA:         -22.812
REMARK INTER:                 -15.623
REMARK INTRA:                  -7.189
REMARK UNBOUND:                -7.402
REMARK SMILES CC(=O)N[C@@H]1[C@@H](O)C[C@](OC[C@H]2O[C@@H](O[C@H]3[C@H](O)[C@@H](O)[C@H](OCCN=[N+]=[N-])O[C@@H]3CO)[C@H](O)[C@@H](O)[C@H]2O)(C(=O)O)O[C@H]1C(O)[C@H](O)CNC(=O)OCc1cn(-c2ccc(S(=O)(=O)c3ccc(N)cc3)cc2)nn1
REMARK SMILES IDX 43 1 42 2 9 3 8 4 41 5 6 6 5 7 10 8 11 9 12 10 14 11 13 12
REMARK SMILES IDX 32 13 34 14 36 15 15 16 16 17 29 18 28 19 21 20 17 21 19 22
REMARK SMILES IDX 30 23 31 24 22 26 23 27 24 28 25 29 26 30 27 31 18 32 20 34
REMARK SMILES IDX 33 36 35 38 37 40 38 42 39 43 40 44 7 46 4 48 2 49 1 51 3 52
REMARK SMILES IDX 44 53 45 55 46 56 47 58 48 59 49 60 50 62 51 63 52 64 53 65
REMARK SMILES IDX 54 66 73 67 55 68 72 69 56 70 57 71 71 72 58 73 70 74 59 75
REMARK SMILES IDX 60 76 61 77 62 78 63 79 64 80 69 81 65 82 68 83 66 84 67 85
REMARK H PARENT 31 25 18 33 20 35 33 37 35 39 37 41 40 45 7 47 4 50 44 54
REMARK H PARENT 46 57 48 61 67 86 67 87
REMARK Flexibility Score: inf
ROOT
ATOM      1  C   UNL     1      32.074  21.780  20.931  1.00  0.00     0.176 C 
ENDROOT
BRANCH   1   2
ATOM      2  C   UNL     1      30.789  21.079  21.372  1.00  0.00     0.178 C 
ATOM      3  C   UNL     1      28.706  20.376  20.655  1.00  0.00     0.272 C 
ATOM      4  C   UNL     1      28.079  20.906  21.903  1.00  0.00     0.113 C 
ATOM      5  O   UNL     1      29.886  21.079  20.353  1.00  0.00    -0.332 OA
ATOM      6  C   UNL     1      28.830  22.158  22.327  1.00  0.00     0.145 C 
ATOM      7  C   UNL     1      30.243  21.784  22.624  1.00  0.00     0.142 C 
BRANCH   3   8
ATOM      8  O   UNL     1      27.928  20.509  19.501  1.00  0.00    -0.338 OA
BRANCH   8   9
ATOM      9  C   UNL     1      28.401  21.358  18.546  1.00  0.00     0.199 C 
BRANCH   9  10
ATOM     10  C   UNL     1      27.567  21.220  17.293  1.00  0.00     0.179 C 
ATOM     11  C   UNL     1      26.290  22.373  15.792  1.00  0.00     0.282 C 
ATOM     12  O   UNL     1      27.199  22.504  16.874  1.00  0.00    -0.341 OA
ATOM     13  C   UNL     1      27.123  21.918  14.627  1.00  0.00     0.202 C 
ATOM     14  C   UNL     1      27.620  20.517  14.901  1.00  0.00     0.179 C 
ATOM     15  C   UNL     1      28.334  20.493  16.242  1.00  0.00     0.177 C 
BRANCH  11  16
ATOM     16  O   UNL     1      25.657  23.578  15.631  1.00  0.00    -0.341 OA
BRANCH  16  17
ATOM     17  C   UNL     1      24.262  23.444  15.827  1.00  0.00     0.184 C 
ATOM     18  C   UNL     1      23.582  23.836  14.554  1.00  0.00     0.178 C 
ATOM     19  O   UNL     1      22.608  24.790  14.676  1.00  0.00    -0.341 OA
ATOM     20  C   UNL     1      22.920  25.928  15.360  1.00  0.00     0.281 C 
ATOM     21  C   UNL     1      23.943  24.413  16.958  1.00  0.00     0.180 C 
ATOM     22  C   UNL     1      24.060  25.794  16.344  1.00  0.00     0.202 C 
BRANCH  18  23
ATOM     23  C   UNL     1      22.861  22.567  14.060  1.00  0.00     0.191 C 
BRANCH  23  24
ATOM     24  O   UNL     1      23.730  21.587  13.649  1.00  0.00    -0.394 OA
ATOM     25  H   UNL     1      23.886  20.867  14.309  1.00  0.00     0.210 HD
ENDBRANCH  23  24
ENDBRANCH  18  23
BRANCH  20  26
ATOM     26  O   UNL     1      21.800  26.297  16.097  1.00  0.00    -0.350 OA
BRANCH  26  27
ATOM     27  C   UNL     1      21.604  27.645  16.231  1.00  0.00     0.169 C 
BRANCH  27  28
ATOM     28  C   UNL     1      21.406  28.021  17.662  1.00  0.00     0.119 C 
BRANCH  28  29
ATOM     29  N   UNL     1      20.227  28.897  17.780  1.00  0.00    -0.092 NA
ATOM     30  N   UNL     1      19.108  28.429  17.983  1.00  0.00     0.001 N 
ATOM     31  N   UNL     1      18.103  28.046  18.607  1.00  0.00    -0.003 NA
ENDBRANCH  28  29
ENDBRANCH  27  28
ENDBRANCH  26  27
ENDBRANCH  20  26
BRANCH  21  32
ATOM     32  O   UNL     1      22.655  24.224  17.399  1.00  0.00    -0.387 OA
ATOM     33  H   UNL     1      22.098  25.028  17.210  1.00  0.00     0.211 HD
ENDBRANCH  21  32
BRANCH  22  34
ATOM     34  O   UNL     1      25.296  26.027  15.789  1.00  0.00    -0.385 OA
ATOM     35  H   UNL     1      25.704  26.880  16.093  1.00  0.00     0.211 HD
ENDBRANCH  22  34
ENDBRANCH  16  17
ENDBRANCH  11  16
BRANCH  13  36
ATOM     36  O   UNL     1      26.437  21.992  13.417  1.00  0.00    -0.385 OA
ATOM     37  H   UNL     1      25.972  22.889  13.410  1.00  0.00     0.211 HD
ENDBRANCH  13  36
BRANCH  14  38
ATOM     38  O   UNL     1      28.601  20.204  13.948  1.00  0.00    -0.387 OA
ATOM     39  H   UNL     1      28.211  19.685  13.220  1.00  0.00     0.211 HD
ENDBRANCH  14  38
BRANCH  15  40
ATOM     40  O   UNL     1      29.631  20.968  16.121  1.00  0.00    -0.387 OA
ATOM     41  H   UNL     1      29.632  21.855  15.692  1.00  0.00     0.211 HD
ENDBRANCH  15  40
ENDBRANCH   9  10
ENDBRANCH   8   9
ENDBRANCH   3   8
BRANCH   3  42
ATOM     42  C   UNL     1      29.072  18.937  20.740  1.00  0.00     0.364 C 
ATOM     43  O   UNL     1      29.569  18.257  19.812  1.00  0.00    -0.246 OA
BRANCH  42  44
ATOM     44  O   UNL     1      28.858  18.262  21.930  1.00  0.00    -0.477 OA
ATOM     45  H   UNL     1      29.636  18.031  22.569  1.00  0.00     0.296 HD
ENDBRANCH  42  44
ENDBRANCH   3  42
BRANCH   6  46
ATOM     46  O   UNL     1      28.840  22.996  21.206  1.00  0.00    -0.391 OA
ATOM     47  H   UNL     1      29.672  22.887  20.671  1.00  0.00     0.211 HD
ENDBRANCH   6  46
BRANCH   7  48
ATOM     48  N   UNL     1      30.434  20.958  23.773  1.00  0.00    -0.348 N 
ATOM     49  C   UNL     1      31.178  21.342  24.925  1.00  0.00     0.217 C 
ATOM     50  H   UNL     1      30.002  20.002  23.789  1.00  0.00     0.163 HD
ATOM     51  C   UNL     1      31.305  20.393  26.058  1.00  0.00     0.114 C 
ATOM     52  O   UNL     1      31.694  22.468  24.933  1.00  0.00    -0.275 OA
ENDBRANCH   7  48
ENDBRANCH   1   2
BRANCH   1  53
ATOM     53  O   UNL     1      32.853  22.125  22.024  1.00  0.00    -0.388 OA
ATOM     54  H   UNL     1      33.427  21.350  22.297  1.00  0.00     0.211 HD
ENDBRANCH   1  53
BRANCH   1  55
ATOM     55  C   UNL     1      32.797  21.038  19.874  1.00  0.00     0.165 C 
BRANCH  55  56
ATOM     56  O   UNL     1      33.919  20.388  20.394  1.00  0.00    -0.388 OA
ATOM     57  H   UNL     1      34.630  20.985  20.676  1.00  0.00     0.211 HD
ENDBRANCH  55  56
BRANCH  55  58
ATOM     58  C   UNL     1      33.323  21.974  18.807  1.00  0.00     0.154 C 
BRANCH  58  59
ATOM     59  N   UNL     1      32.405  23.021  18.456  1.00  0.00    -0.319 N 
ATOM     60  C   UNL     1      32.782  24.366  18.693  1.00  0.00     0.407 C 
ATOM     61  H   UNL     1      31.484  22.817  18.037  1.00  0.00     0.167 HD
ATOM     62  O   UNL     1      33.920  24.596  19.197  1.00  0.00    -0.225 OA
BRANCH  60  63
ATOM     63  O   UNL     1      31.993  25.459  18.416  1.00  0.00    -0.443 OA
BRANCH  63  64
ATOM     64  C   UNL     1      31.197  25.595  17.259  1.00  0.00     0.294 C 
BRANCH  64  65
ATOM     65  C   UNL     1      29.824  25.977  17.672  1.00  0.00     0.121 A 
ATOM     66  C   UNL     1      28.879  25.273  18.390  1.00  0.00     0.144 A 
ATOM     67  N   UNL     1      29.228  27.183  17.412  1.00  0.00    -0.131 NA
ATOM     68  N   UNL     1      27.764  26.052  18.542  1.00  0.00    -0.220 N 
ATOM     69  N   UNL     1      28.024  27.185  17.939  1.00  0.00    -0.062 NA
BRANCH  68  70
ATOM     70  C   UNL     1      26.568  25.736  19.221  1.00  0.00     0.066 A 
ATOM     71  C   UNL     1      25.615  26.726  19.480  1.00  0.00     0.030 A 
ATOM     72  C   UNL     1      26.266  24.473  19.664  1.00  0.00     0.030 A 
ATOM     73  C   UNL     1      24.437  26.470  20.137  1.00  0.00     0.023 A 
ATOM     74  C   UNL     1      25.070  24.206  20.333  1.00  0.00     0.023 A 
ATOM     75  C   UNL     1      24.146  25.198  20.576  1.00  0.00     0.072 A 
BRANCH  75  76
ATOM     76  S   UNL     1      22.645  24.859  21.411  1.00  0.00     0.206 S 
ATOM     77  O   UNL     1      22.172  23.473  20.999  1.00  0.00    -0.219 OA
ATOM     78  O   UNL     1      21.595  25.890  21.170  1.00  0.00    -0.219 OA
BRANCH  76  79
ATOM     79  C   UNL     1      22.974  24.744  23.140  1.00  0.00     0.072 A 
ATOM     80  C   UNL     1      21.944  24.696  24.039  1.00  0.00     0.023 A 
ATOM     81  C   UNL     1      24.267  24.704  23.607  1.00  0.00     0.023 A 
ATOM     82  C   UNL     1      22.210  24.610  25.374  1.00  0.00     0.027 A 
ATOM     83  C   UNL     1      24.520  24.618  24.952  1.00  0.00     0.027 A 
ATOM     84  C   UNL     1      23.512  24.569  25.873  1.00  0.00     0.031 A 
BRANCH  84  85
ATOM     85  N   UNL     1      23.742  24.482  27.262  1.00  0.00    -0.399 N 
ATOM     86  H   UNL     1      24.318  23.728  27.663  1.00  0.00     0.156 HD
ATOM     87  H   UNL     1      23.326  25.188  27.895  1.00  0.00     0.156 HD
ENDBRANCH  84  85
ENDBRANCH  76  79
ENDBRANCH  75  76
ENDBRANCH  68  70
ENDBRANCH  64  65
ENDBRANCH  63  64
ENDBRANCH  60  63
ENDBRANCH  58  59
ENDBRANCH  55  58
ENDBRANCH   1  55
TORSDOF 33
