REMARK VINA RESULT:    -5.667      3.624     10.848
REMARK INTER + INTRA:         -24.736
REMARK INTER:                 -12.898
REMARK INTRA:                 -11.837
REMARK UNBOUND:                -8.963
REMARK SMILES CC(=O)N[C@@H]1[C@@H](O)C[C@](OC[C@H]2O[C@@H](O[C@H]3[C@H](O)[C@@H](O)[C@H](OCCN=[N+]=[N-])O[C@@H]3CO)[C@H](O)[C@@H](O)[C@H]2O)(C(=O)O)O[C@H]1C(O)[C@H](O)CNC(=O)OCc1cn(C[C@@H](C(=O)O)C(c2ccccc2)c2ccccc2)nn1
REMARK SMILES IDX 43 1 42 2 9 3 8 4 41 5 6 6 5 7 10 8 11 9 12 10 14 11 13 12
REMARK SMILES IDX 32 13 34 14 36 15 15 16 16 17 29 18 28 19 21 20 17 21 19 22
REMARK SMILES IDX 30 23 31 24 22 26 23 27 24 28 25 29 26 30 27 31 18 32 20 34
REMARK SMILES IDX 33 36 35 38 37 40 38 42 39 43 40 44 7 46 4 48 2 49 1 51 3 52
REMARK SMILES IDX 44 53 45 55 46 56 47 58 48 59 49 60 50 62 51 63 52 64 53 65
REMARK SMILES IDX 54 66 75 67 55 68 74 69 56 70 57 71 58 72 59 73 60 74 61 76
REMARK SMILES IDX 62 77 63 78 67 79 64 80 66 81 65 82 68 83 69 84 73 85 70 86
REMARK SMILES IDX 72 87 71 88
REMARK H PARENT 31 25 18 33 20 35 33 37 35 39 37 41 40 45 7 47 4 50 44 54
REMARK H PARENT 46 57 48 61 60 75
REMARK Flexibility Score: inf
ROOT
ATOM      1  C   UNL     1      23.502  30.882  22.331  1.00  0.00     0.176 C 
ENDROOT
BRANCH   1   2
ATOM      2  C   UNL     1      22.381  29.825  22.231  1.00  0.00     0.178 C 
ATOM      3  C   UNL     1      20.313  29.223  21.393  1.00  0.00     0.272 C 
ATOM      4  C   UNL     1      20.838  27.925  22.091  1.00  0.00     0.113 C 
ATOM      5  O   UNL     1      21.288  30.224  21.553  1.00  0.00    -0.332 OA
ATOM      6  C   UNL     1      21.202  28.166  23.516  1.00  0.00     0.145 C 
ATOM      7  C   UNL     1      22.137  29.326  23.635  1.00  0.00     0.142 C 
BRANCH   3   8
ATOM      8  O   UNL     1      19.135  29.476  21.856  1.00  0.00    -0.338 OA
BRANCH   8   9
ATOM      9  C   UNL     1      18.378  30.453  22.168  1.00  0.00     0.199 C 
BRANCH   9  10
ATOM     10  C   UNL     1      16.964  30.647  21.686  1.00  0.00     0.179 C 
ATOM     11  C   UNL     1      15.983  30.752  19.530  1.00  0.00     0.282 C 
ATOM     12  O   UNL     1      16.953  31.080  20.396  1.00  0.00    -0.341 OA
ATOM     13  C   UNL     1      14.792  30.007  19.993  1.00  0.00     0.202 C 
ATOM     14  C   UNL     1      14.865  29.480  21.397  1.00  0.00     0.179 C 
ATOM     15  C   UNL     1      16.313  29.245  21.686  1.00  0.00     0.177 C 
BRANCH  11  16
ATOM     16  O   UNL     1      16.621  29.922  18.562  1.00  0.00    -0.341 OA
BRANCH  16  17
ATOM     17  C   UNL     1      16.255  30.203  17.276  1.00  0.00     0.184 C 
ATOM     18  C   UNL     1      16.618  29.034  16.404  1.00  0.00     0.178 C 
ATOM     19  O   UNL     1      17.932  29.089  15.953  1.00  0.00    -0.341 OA
ATOM     20  C   UNL     1      18.787  29.799  16.808  1.00  0.00     0.281 C 
ATOM     21  C   UNL     1      16.970  31.427  16.721  1.00  0.00     0.180 C 
ATOM     22  C   UNL     1      18.471  31.255  16.845  1.00  0.00     0.202 C 
BRANCH  18  23
ATOM     23  C   UNL     1      15.705  28.830  15.229  1.00  0.00     0.191 C 
BRANCH  23  24
ATOM     24  O   UNL     1      14.412  29.250  15.466  1.00  0.00    -0.394 OA
ATOM     25  H   UNL     1      13.951  29.287  14.575  1.00  0.00     0.210 HD
ENDBRANCH  23  24
ENDBRANCH  18  23
BRANCH  20  26
ATOM     26  O   UNL     1      20.075  29.648  16.347  1.00  0.00    -0.350 OA
BRANCH  26  27
ATOM     27  C   UNL     1      20.432  28.416  15.896  1.00  0.00     0.169 C 
BRANCH  27  28
ATOM     28  C   UNL     1      21.905  28.181  15.817  1.00  0.00     0.119 C 
BRANCH  28  29
ATOM     29  N   UNL     1      22.534  29.254  16.613  1.00  0.00    -0.092 NA
ATOM     30  N   UNL     1      23.723  29.489  16.384  1.00  0.00     0.001 N 
ATOM     31  N   UNL     1      24.938  29.638  16.273  1.00  0.00    -0.003 NA
ENDBRANCH  28  29
ENDBRANCH  27  28
ENDBRANCH  26  27
ENDBRANCH  20  26
BRANCH  21  32
ATOM     32  O   UNL     1      16.667  31.498  15.365  1.00  0.00    -0.387 OA
ATOM     33  H   UNL     1      16.718  30.625  14.912  1.00  0.00     0.211 HD
ENDBRANCH  21  32
BRANCH  22  34
ATOM     34  O   UNL     1      18.916  31.794  18.045  1.00  0.00    -0.385 OA
ATOM     35  H   UNL     1      19.655  31.190  18.375  1.00  0.00     0.211 HD
ENDBRANCH  22  34
ENDBRANCH  16  17
ENDBRANCH  11  16
BRANCH  13  36
ATOM     36  O   UNL     1      13.648  30.840  19.955  1.00  0.00    -0.385 OA
ATOM     37  H   UNL     1      13.915  31.782  19.755  1.00  0.00     0.211 HD
ENDBRANCH  13  36
BRANCH  14  38
ATOM     38  O   UNL     1      14.142  28.309  21.505  1.00  0.00    -0.387 OA
ATOM     39  H   UNL     1      14.690  27.558  21.155  1.00  0.00     0.211 HD
ENDBRANCH  14  38
BRANCH  15  40
ATOM     40  O   UNL     1      16.850  28.453  20.681  1.00  0.00    -0.387 OA
ATOM     41  H   UNL     1      17.717  28.116  20.990  1.00  0.00     0.211 HD
ENDBRANCH  15  40
ENDBRANCH   9  10
ENDBRANCH   8   9
ENDBRANCH   3   8
BRANCH   3  42
ATOM     42  C   UNL     1      20.385  28.854  19.964  1.00  0.00     0.364 C 
ATOM     43  O   UNL     1      19.668  28.000  19.403  1.00  0.00    -0.246 OA
BRANCH  42  44
ATOM     44  O   UNL     1      21.327  29.497  19.133  1.00  0.00    -0.477 OA
ATOM     45  H   UNL     1      21.601  29.022  18.300  1.00  0.00     0.296 HD
ENDBRANCH  42  44
ENDBRANCH   3  42
BRANCH   6  46
ATOM     46  O   UNL     1      20.075  28.340  24.332  1.00  0.00    -0.391 OA
ATOM     47  H   UNL     1      19.605  27.489  24.500  1.00  0.00     0.211 HD
ENDBRANCH   6  46
BRANCH   7  48
ATOM     48  N   UNL     1      23.397  28.869  24.174  1.00  0.00    -0.348 N 
ATOM     49  C   UNL     1      23.544  28.567  25.550  1.00  0.00     0.217 C 
ATOM     50  H   UNL     1      24.220  28.761  23.515  1.00  0.00     0.163 HD
ATOM     51  C   UNL     1      24.854  28.090  26.116  1.00  0.00     0.114 C 
ATOM     52  O   UNL     1      22.534  28.714  26.285  1.00  0.00    -0.275 OA
ENDBRANCH   7  48
ENDBRANCH   1   2
BRANCH   1  53
ATOM     53  O   UNL     1      23.424  31.570  23.511  1.00  0.00    -0.388 OA
ATOM     54  H   UNL     1      23.116  32.500  23.419  1.00  0.00     0.211 HD
ENDBRANCH   1  53
BRANCH   1  55
ATOM     55  C   UNL     1      23.444  31.816  21.186  1.00  0.00     0.165 C 
BRANCH  55  56
ATOM     56  O   UNL     1      23.327  31.165  19.940  1.00  0.00    -0.388 OA
ATOM     57  H   UNL     1      23.634  30.223  20.125  1.00  0.00     0.211 HD
ENDBRANCH  55  56
BRANCH  55  58
ATOM     58  C   UNL     1      24.416  32.928  21.062  1.00  0.00     0.154 C 
BRANCH  58  59
ATOM     59  N   UNL     1      25.787  32.602  21.208  1.00  0.00    -0.319 N 
ATOM     60  C   UNL     1      26.547  32.671  22.395  1.00  0.00     0.407 C 
ATOM     61  H   UNL     1      26.316  32.258  20.315  1.00  0.00     0.167 HD
ATOM     62  O   UNL     1      26.084  33.082  23.473  1.00  0.00    -0.225 OA
BRANCH  60  63
ATOM     63  O   UNL     1      27.861  32.257  22.346  1.00  0.00    -0.443 OA
BRANCH  63  64
ATOM     64  C   UNL     1      28.290  31.083  22.942  1.00  0.00     0.294 C 
BRANCH  64  65
ATOM     65  C   UNL     1      27.500  29.892  22.599  1.00  0.00     0.120 A 
ATOM     66  C   UNL     1      27.494  29.150  21.442  1.00  0.00     0.138 A 
ATOM     67  N   UNL     1      26.557  29.297  23.393  1.00  0.00    -0.132 NA
ATOM     68  N   UNL     1      26.593  28.168  21.548  1.00  0.00    -0.251 N 
ATOM     69  N   UNL     1      26.040  28.281  22.741  1.00  0.00    -0.067 NA
BRANCH  68  70
ATOM     70  C   UNL     1      26.247  27.132  20.556  1.00  0.00     0.162 C 
BRANCH  70  71
ATOM     71  C   UNL     1      24.811  26.748  20.704  1.00  0.00     0.132 C 
BRANCH  71  72
ATOM     72  C   UNL     1      23.973  27.411  19.661  1.00  0.00     0.309 C 
ATOM     73  O   UNL     1      23.017  26.847  19.102  1.00  0.00    -0.252 OA
BRANCH  72  74
ATOM     74  O   UNL     1      24.259  28.713  19.289  1.00  0.00    -0.481 OA
ATOM     75  H   UNL     1      24.062  29.018  18.331  1.00  0.00     0.296 HD
ENDBRANCH  72  74
ENDBRANCH  71  72
BRANCH  71  76
ATOM     76  C   UNL     1      24.485  25.311  20.875  1.00  0.00     0.065 C 
BRANCH  76  77
ATOM     77  C   UNL     1      25.577  24.344  20.757  1.00  0.00    -0.040 A 
ATOM     78  C   UNL     1      26.107  23.710  21.890  1.00  0.00     0.004 A 
ATOM     79  C   UNL     1      26.170  23.987  19.543  1.00  0.00     0.004 A 
ATOM     80  C   UNL     1      27.123  22.810  21.829  1.00  0.00     0.000 A 
ATOM     81  C   UNL     1      27.197  23.076  19.493  1.00  0.00     0.000 A 
ATOM     82  C   UNL     1      27.686  22.477  20.636  1.00  0.00     0.000 A 
ENDBRANCH  76  77
BRANCH  76  83
ATOM     83  C   UNL     1      23.529  25.044  21.982  1.00  0.00    -0.040 A 
ATOM     84  C   UNL     1      23.958  25.341  23.259  1.00  0.00     0.004 A 
ATOM     85  C   UNL     1      22.274  24.539  21.773  1.00  0.00     0.004 A 
ATOM     86  C   UNL     1      23.143  25.138  24.336  1.00  0.00     0.000 A 
ATOM     87  C   UNL     1      21.454  24.338  22.880  1.00  0.00     0.000 A 
ATOM     88  C   UNL     1      21.876  24.632  24.157  1.00  0.00     0.000 A 
ENDBRANCH  76  83
ENDBRANCH  71  76
ENDBRANCH  70  71
ENDBRANCH  68  70
ENDBRANCH  64  65
ENDBRANCH  63  64
ENDBRANCH  60  63
ENDBRANCH  58  59
ENDBRANCH  55  58
ENDBRANCH   1  55
TORSDOF 36
