REMARK VINA RESULT:    -6.230     15.939     20.016
REMARK INTER + INTRA:         -21.150
REMARK INTER:                 -12.981
REMARK INTRA:                  -8.168
REMARK UNBOUND:                -5.087
REMARK SMILES CC(=O)N[C@@H]1[C@@H](O)C[C@](OC[C@H]2O[C@@H](O[C@H]3[C@H](O)[C@@H](O)[C@H](OCCN=[N+]=[N-])O[C@@H]3CO)[C@H](O)[C@@H](O)[C@H]2O)(C(=O)O)O[C@H]1C(O)[C@H](O)CNC(=O)OCc1cn(CS(=O)(=O)c2ccccc2)nn1
REMARK SMILES IDX 9 1 8 2 6 3 5 4 42 5 41 6 10 7 11 8 12 9 14 10 13 11 32 12
REMARK SMILES IDX 34 13 36 14 15 15 16 16 29 17 28 18 21 19 17 20 19 21 30 22
REMARK SMILES IDX 31 23 22 25 23 26 24 27 25 28 26 29 27 30 18 31 20 33 33 35
REMARK SMILES IDX 35 37 37 39 38 41 39 42 40 43 7 45 43 47 44 48 45 50 46 51
REMARK SMILES IDX 47 53 48 54 49 55 50 57 51 58 52 59 53 60 54 61 67 62 55 63
REMARK SMILES IDX 66 64 56 65 57 66 58 67 59 68 60 69 61 70 65 71 62 72 64 73
REMARK SMILES IDX 63 74 4 75 2 76 1 78 3 79
REMARK H PARENT 31 24 18 32 20 34 33 36 35 38 37 40 40 44 7 46 44 49 46 52
REMARK H PARENT 48 56 4 77
REMARK Flexibility Score: inf
ROOT
ATOM      1  C   UNL     1       6.997  27.507  34.906  1.00  0.00     0.272 C 
ATOM      2  C   UNL     1       5.739  27.839  35.598  1.00  0.00     0.113 C 
ATOM      3  C   UNL     1       4.979  26.651  36.154  1.00  0.00     0.145 C 
ATOM      4  C   UNL     1       4.867  25.660  35.050  1.00  0.00     0.142 C 
ATOM      5  C   UNL     1       6.176  25.370  34.371  1.00  0.00     0.178 C 
ATOM      6  O   UNL     1       6.956  26.420  34.048  1.00  0.00    -0.332 OA
ENDROOT
BRANCH   1   7
ATOM      7  O   UNL     1       8.097  27.486  35.737  1.00  0.00    -0.338 OA
BRANCH   7   8
ATOM      8  C   UNL     1       9.309  27.276  35.164  1.00  0.00     0.199 C 
BRANCH   8   9
ATOM      9  C   UNL     1      10.407  28.080  35.893  1.00  0.00     0.179 C 
ATOM     10  C   UNL     1      12.478  26.972  36.178  1.00  0.00     0.282 C 
ATOM     11  O   UNL     1      11.182  27.204  36.543  1.00  0.00    -0.341 OA
ATOM     12  C   UNL     1      12.687  27.151  34.722  1.00  0.00     0.202 C 
ATOM     13  C   UNL     1      12.179  28.476  34.238  1.00  0.00     0.179 C 
ATOM     14  C   UNL     1      11.099  29.068  35.049  1.00  0.00     0.177 C 
BRANCH  10  15
ATOM     15  O   UNL     1      12.745  25.661  36.606  1.00  0.00    -0.341 OA
BRANCH  15  16
ATOM     16  C   UNL     1      11.678  24.918  36.981  1.00  0.00     0.184 C 
ATOM     17  C   UNL     1      11.923  24.143  38.242  1.00  0.00     0.178 C 
ATOM     18  O   UNL     1      10.679  23.789  38.756  1.00  0.00    -0.341 OA
ATOM     19  C   UNL     1       9.806  23.254  37.851  1.00  0.00     0.281 C 
ATOM     20  C   UNL     1      11.370  23.811  35.942  1.00  0.00     0.180 C 
ATOM     21  C   UNL     1      10.370  22.897  36.531  1.00  0.00     0.202 C 
BRANCH  17  22
ATOM     22  C   UNL     1      12.698  24.844  39.301  1.00  0.00     0.191 C 
BRANCH  22  23
ATOM     23  O   UNL     1      14.022  24.972  38.895  1.00  0.00    -0.394 OA
ATOM     24  H   UNL     1      14.172  25.869  38.516  1.00  0.00     0.210 HD
ENDBRANCH  22  23
ENDBRANCH  17  22
BRANCH  19  25
ATOM     25  O   UNL     1       8.792  24.191  37.672  1.00  0.00    -0.350 OA
BRANCH  25  26
ATOM     26  C   UNL     1       8.348  24.714  38.909  1.00  0.00     0.169 C 
BRANCH  26  27
ATOM     27  C   UNL     1       7.433  23.706  39.571  1.00  0.00     0.119 C 
BRANCH  27  28
ATOM     28  N   UNL     1       6.101  23.877  38.999  1.00  0.00    -0.092 NA
ATOM     29  N   UNL     1       5.127  23.818  39.776  1.00  0.00     0.001 N 
ATOM     30  N   UNL     1       4.204  23.490  40.544  1.00  0.00    -0.003 NA
ENDBRANCH  27  28
ENDBRANCH  26  27
ENDBRANCH  25  26
ENDBRANCH  19  25
BRANCH  20  31
ATOM     31  O   UNL     1      10.889  24.374  34.772  1.00  0.00    -0.387 OA
ATOM     32  H   UNL     1      11.329  23.918  34.009  1.00  0.00     0.211 HD
ENDBRANCH  20  31
BRANCH  21  33
ATOM     33  O   UNL     1      10.984  21.627  36.677  1.00  0.00    -0.385 OA
ATOM     34  H   UNL     1      11.103  21.169  35.818  1.00  0.00     0.211 HD
ENDBRANCH  21  33
ENDBRANCH  15  16
ENDBRANCH  10  15
BRANCH  12  35
ATOM     35  O   UNL     1      14.082  27.179  34.405  1.00  0.00    -0.385 OA
ATOM     36  H   UNL     1      14.119  27.439  33.453  1.00  0.00     0.211 HD
ENDBRANCH  12  35
BRANCH  13  37
ATOM     37  O   UNL     1      11.806  28.398  32.873  1.00  0.00    -0.387 OA
ATOM     38  H   UNL     1      12.576  28.688  32.305  1.00  0.00     0.211 HD
ENDBRANCH  13  37
BRANCH  14  39
ATOM     39  O   UNL     1      10.219  29.771  34.205  1.00  0.00    -0.387 OA
ATOM     40  H   UNL     1       9.857  29.125  33.545  1.00  0.00     0.211 HD
ENDBRANCH  14  39
ENDBRANCH   8   9
ENDBRANCH   7   8
ENDBRANCH   1   7
BRANCH   1  41
ATOM     41  C   UNL     1       7.226  28.651  33.931  1.00  0.00     0.364 C 
ATOM     42  O   UNL     1       7.300  28.379  32.722  1.00  0.00    -0.246 OA
BRANCH  41  43
ATOM     43  O   UNL     1       7.344  29.952  34.393  1.00  0.00    -0.477 OA
ATOM     44  H   UNL     1       7.058  30.187  35.355  1.00  0.00     0.296 HD
ENDBRANCH  41  43
ENDBRANCH   1  41
BRANCH   3  45
ATOM     45  O   UNL     1       5.615  26.202  37.278  1.00  0.00    -0.391 OA
ATOM     46  H   UNL     1       5.772  26.987  37.872  1.00  0.00     0.211 HD
ENDBRANCH   3  45
BRANCH   5  47
ATOM     47  C   UNL     1       6.924  24.224  35.013  1.00  0.00     0.176 C 
BRANCH  47  48
ATOM     48  O   UNL     1       6.207  23.581  36.018  1.00  0.00    -0.388 OA
ATOM     49  H   UNL     1       6.606  23.632  36.898  1.00  0.00     0.211 HD
ENDBRANCH  47  48
BRANCH  47  50
ATOM     50  C   UNL     1       7.405  23.194  34.001  1.00  0.00     0.165 C 
BRANCH  50  51
ATOM     51  O   UNL     1       8.676  23.450  33.538  1.00  0.00    -0.388 OA
ATOM     52  H   UNL     1       9.052  24.306  33.795  1.00  0.00     0.211 HD
ENDBRANCH  50  51
BRANCH  50  53
ATOM     53  C   UNL     1       6.452  22.924  32.900  1.00  0.00     0.154 C 
BRANCH  53  54
ATOM     54  N   UNL     1       5.233  22.252  33.231  1.00  0.00    -0.319 N 
ATOM     55  C   UNL     1       3.931  22.631  32.833  1.00  0.00     0.407 C 
ATOM     56  H   UNL     1       5.308  21.381  33.841  1.00  0.00     0.167 HD
ATOM     57  O   UNL     1       3.742  23.628  32.111  1.00  0.00    -0.225 OA
BRANCH  55  58
ATOM     58  O   UNL     1       2.857  21.867  33.261  1.00  0.00    -0.443 OA
BRANCH  58  59
ATOM     59  C   UNL     1       1.982  22.232  34.287  1.00  0.00     0.294 C 
BRANCH  59  60
ATOM     60  C   UNL     1       2.585  21.904  35.593  1.00  0.00     0.120 A 
ATOM     61  C   UNL     1       2.125  20.900  36.428  1.00  0.00     0.139 A 
ATOM     62  N   UNL     1       3.635  22.443  36.233  1.00  0.00    -0.132 NA
ATOM     63  N   UNL     1       2.894  20.857  37.531  1.00  0.00    -0.237 N 
ATOM     64  N   UNL     1       3.804  21.814  37.377  1.00  0.00    -0.066 NA
BRANCH  63  65
ATOM     65  C   UNL     1       2.761  19.956  38.642  1.00  0.00     0.287 C 
BRANCH  65  66
ATOM     66  S   UNL     1       3.352  18.359  38.082  1.00  0.00     0.198 S 
ATOM     67  O   UNL     1       4.375  18.517  37.024  1.00  0.00    -0.222 OA
ATOM     68  O   UNL     1       2.137  17.597  37.578  1.00  0.00    -0.222 OA
BRANCH  66  69
ATOM     69  C   UNL     1       4.013  17.535  39.471  1.00  0.00     0.069 A 
ATOM     70  C   UNL     1       5.367  17.329  39.623  1.00  0.00     0.020 A 
ATOM     71  C   UNL     1       3.192  17.061  40.471  1.00  0.00     0.020 A 
ATOM     72  C   UNL     1       5.888  16.681  40.713  1.00  0.00     0.001 A 
ATOM     73  C   UNL     1       3.697  16.411  41.567  1.00  0.00     0.001 A 
ATOM     74  C   UNL     1       5.051  16.221  41.686  1.00  0.00     0.000 A 
ENDBRANCH  66  69
ENDBRANCH  65  66
ENDBRANCH  63  65
ENDBRANCH  59  60
ENDBRANCH  58  59
ENDBRANCH  55  58
ENDBRANCH  53  54
ENDBRANCH  50  53
ENDBRANCH  47  50
ENDBRANCH   5  47
BRANCH   4  75
ATOM     75  N   UNL     1       3.971  26.199  34.033  1.00  0.00    -0.348 N 
ATOM     76  C   UNL     1       2.556  26.116  34.162  1.00  0.00     0.217 C 
ATOM     77  H   UNL     1       4.334  26.674  33.151  1.00  0.00     0.163 HD
ATOM     78  C   UNL     1       1.676  26.688  33.082  1.00  0.00     0.114 C 
ATOM     79  O   UNL     1       2.030  25.567  35.173  1.00  0.00    -0.275 OA
ENDBRANCH   4  75
TORSDOF 32
