REMARK VINA RESULT:    -8.627      2.453      7.332
REMARK INTER + INTRA:         -20.520
REMARK INTER:                 -11.061
REMARK INTRA:                  -9.459
REMARK UNBOUND:                 2.731
REMARK SMILES CC(=O)N[C@@H]1[C@@H](O)C[C@](OC[C@H]2O[C@@H](O[C@H]3[C@H](O)[C@@H](O)[C@H](OCCN=[N+]=[N-])O[C@@H]3CO)[C@H](O)[C@@H](O)[C@H]2O)(C(=O)O)O[C@H]1C(O)[C@H](O)CNC(=O)OCc1cn(C2CCc3ccccc3NC2=O)nn1
REMARK SMILES IDX 43 1 42 2 9 3 8 4 41 5 6 6 5 7 10 8 11 9 12 10 14 11 13 12
REMARK SMILES IDX 32 13 34 14 36 15 15 16 16 17 29 18 28 19 21 20 17 21 19 22
REMARK SMILES IDX 30 23 31 24 22 26 23 27 24 28 25 29 26 30 27 31 18 32 20 34
REMARK SMILES IDX 33 36 35 38 37 40 38 42 39 43 40 44 7 46 4 48 2 49 1 51 3 52
REMARK SMILES IDX 44 53 45 55 46 56 47 58 48 59 49 60 50 62 51 63 52 64 53 65
REMARK SMILES IDX 54 66 69 67 55 68 68 69 56 70 57 71 66 73 65 74 67 75 64 77
REMARK SMILES IDX 59 78 63 79 60 80 62 81 61 82 58 83
REMARK H PARENT 31 25 18 33 20 35 33 37 35 39 37 41 40 45 7 47 4 50 44 54
REMARK H PARENT 46 57 48 61 65 76
REMARK Flexibility Score: 90.00
ROOT
ATOM      1  C   UNL     1      22.337  28.344  24.593  1.00  0.00     0.176 C 
ENDROOT
BRANCH   1   2
ATOM      2  C   UNL     1      23.042  26.972  24.589  1.00  0.00     0.178 C 
ATOM      3  C   UNL     1      23.624  25.829  22.578  1.00  0.00     0.272 C 
ATOM      4  C   UNL     1      22.633  24.775  22.869  1.00  0.00     0.113 C 
ATOM      5  O   UNL     1      23.857  26.786  23.567  1.00  0.00    -0.332 OA
ATOM      6  C   UNL     1      21.474  25.273  23.665  1.00  0.00     0.145 C 
ATOM      7  C   UNL     1      22.032  25.911  24.929  1.00  0.00     0.142 C 
BRANCH   3   8
ATOM      8  O   UNL     1      23.423  26.535  21.445  1.00  0.00    -0.338 OA
BRANCH   8   9
ATOM      9  C   UNL     1      22.520  26.259  20.519  1.00  0.00     0.199 C 
BRANCH   9  10
ATOM     10  C   UNL     1      21.609  27.219  19.888  1.00  0.00     0.179 C 
ATOM     11  C   UNL     1      19.858  28.614  20.474  1.00  0.00     0.282 C 
ATOM     12  O   UNL     1      20.940  27.887  20.969  1.00  0.00    -0.341 OA
ATOM     13  C   UNL     1      19.870  28.897  19.024  1.00  0.00     0.202 C 
ATOM     14  C   UNL     1      21.198  29.040  18.364  1.00  0.00     0.179 C 
ATOM     15  C   UNL     1      22.286  28.395  19.186  1.00  0.00     0.177 C 
BRANCH  11  16
ATOM     16  O   UNL     1      19.688  29.756  21.285  1.00  0.00    -0.341 OA
BRANCH  16  17
ATOM     17  C   UNL     1      18.484  30.374  21.074  1.00  0.00     0.184 C 
ATOM     18  C   UNL     1      18.487  31.872  21.236  1.00  0.00     0.178 C 
ATOM     19  O   UNL     1      17.219  32.301  20.836  1.00  0.00    -0.341 OA
ATOM     20  C   UNL     1      16.265  32.058  21.814  1.00  0.00     0.281 C 
ATOM     21  C   UNL     1      17.417  29.839  22.018  1.00  0.00     0.180 C 
ATOM     22  C   UNL     1      16.611  30.891  22.690  1.00  0.00     0.202 C 
BRANCH  18  23
ATOM     23  C   UNL     1      19.481  32.540  20.307  1.00  0.00     0.191 C 
BRANCH  23  24
ATOM     24  O   UNL     1      20.755  31.991  20.431  1.00  0.00    -0.394 OA
ATOM     25  H   UNL     1      21.473  32.634  20.244  1.00  0.00     0.210 HD
ENDBRANCH  23  24
ENDBRANCH  18  23
BRANCH  20  26
ATOM     26  O   UNL     1      15.035  31.913  21.200  1.00  0.00    -0.350 OA
BRANCH  26  27
ATOM     27  C   UNL     1      14.015  31.754  22.122  1.00  0.00     0.169 C 
BRANCH  27  28
ATOM     28  C   UNL     1      12.931  30.811  21.708  1.00  0.00     0.119 C 
BRANCH  28  29
ATOM     29  N   UNL     1      13.423  29.447  21.812  1.00  0.00    -0.092 NA
ATOM     30  N   UNL     1      13.692  28.767  20.805  1.00  0.00     0.001 N 
ATOM     31  N   UNL     1      14.349  28.426  19.811  1.00  0.00    -0.003 NA
ENDBRANCH  28  29
ENDBRANCH  27  28
ENDBRANCH  26  27
ENDBRANCH  20  26
BRANCH  21  32
ATOM     32  O   UNL     1      16.622  28.868  21.390  1.00  0.00    -0.387 OA
ATOM     33  H   UNL     1      15.758  29.285  21.138  1.00  0.00     0.211 HD
ENDBRANCH  21  32
BRANCH  22  34
ATOM     34  O   UNL     1      17.220  31.365  23.875  1.00  0.00    -0.385 OA
ATOM     35  H   UNL     1      17.808  32.125  23.709  1.00  0.00     0.211 HD
ENDBRANCH  22  34
ENDBRANCH  16  17
ENDBRANCH  11  16
BRANCH  13  36
ATOM     36  O   UNL     1      19.028  28.002  18.358  1.00  0.00    -0.385 OA
ATOM     37  H   UNL     1      19.358  27.860  17.433  1.00  0.00     0.211 HD
ENDBRANCH  13  36
BRANCH  14  38
ATOM     38  O   UNL     1      21.500  30.356  18.017  1.00  0.00    -0.387 OA
ATOM     39  H   UNL     1      22.427  30.340  17.662  1.00  0.00     0.211 HD
ENDBRANCH  14  38
BRANCH  15  40
ATOM     40  O   UNL     1      22.748  29.308  20.167  1.00  0.00    -0.387 OA
ATOM     41  H   UNL     1      22.110  30.056  20.152  1.00  0.00     0.211 HD
ENDBRANCH  15  40
ENDBRANCH   9  10
ENDBRANCH   8   9
ENDBRANCH   3   8
BRANCH   3  42
ATOM     42  C   UNL     1      24.970  25.138  22.558  1.00  0.00     0.364 C 
ATOM     43  O   UNL     1      25.964  25.682  22.137  1.00  0.00    -0.246 OA
BRANCH  42  44
ATOM     44  O   UNL     1      25.079  23.828  23.036  1.00  0.00    -0.477 OA
ATOM     45  H   UNL     1      24.718  23.549  23.933  1.00  0.00     0.296 HD
ENDBRANCH  42  44
ENDBRANCH   3  42
BRANCH   6  46
ATOM     46  O   UNL     1      20.819  26.244  22.889  1.00  0.00    -0.391 OA
ATOM     47  H   UNL     1      20.307  25.864  22.155  1.00  0.00     0.211 HD
ENDBRANCH   6  46
BRANCH   7  48
ATOM     48  N   UNL     1      22.506  24.872  25.779  1.00  0.00    -0.348 N 
ATOM     49  C   UNL     1      22.511  25.036  27.193  1.00  0.00     0.217 C 
ATOM     50  H   UNL     1      22.863  23.968  25.389  1.00  0.00     0.163 HD
ATOM     51  C   UNL     1      22.998  23.980  28.122  1.00  0.00     0.114 C 
ATOM     52  O   UNL     1      22.089  26.104  27.650  1.00  0.00    -0.275 OA
ENDBRANCH   7  48
ENDBRANCH   1   2
BRANCH   1  53
ATOM     53  O   UNL     1      22.073  28.733  23.276  1.00  0.00    -0.388 OA
ATOM     54  H   UNL     1      21.875  27.978  22.679  1.00  0.00     0.211 HD
ENDBRANCH   1  53
BRANCH   1  55
ATOM     55  C   UNL     1      21.054  28.341  25.341  1.00  0.00     0.165 C 
BRANCH  55  56
ATOM     56  O   UNL     1      19.913  28.443  24.555  1.00  0.00    -0.388 OA
ATOM     57  H   UNL     1      19.783  27.570  24.100  1.00  0.00     0.211 HD
ENDBRANCH  55  56
BRANCH  55  58
ATOM     58  C   UNL     1      20.930  29.336  26.448  1.00  0.00     0.154 C 
BRANCH  58  59
ATOM     59  N   UNL     1      21.514  30.618  26.194  1.00  0.00    -0.319 N 
ATOM     60  C   UNL     1      20.908  31.629  25.413  1.00  0.00     0.407 C 
ATOM     61  H   UNL     1      22.446  30.822  26.610  1.00  0.00     0.167 HD
ATOM     62  O   UNL     1      19.785  31.451  24.882  1.00  0.00    -0.225 OA
BRANCH  60  63
ATOM     63  O   UNL     1      21.566  32.824  25.239  1.00  0.00    -0.443 OA
BRANCH  63  64
ATOM     64  C   UNL     1      22.009  33.291  24.013  1.00  0.00     0.294 C 
BRANCH  64  65
ATOM     65  C   UNL     1      22.989  32.373  23.429  1.00  0.00     0.120 A 
ATOM     66  C   UNL     1      24.295  32.212  23.821  1.00  0.00     0.139 A 
ATOM     67  N   UNL     1      22.822  31.509  22.398  1.00  0.00    -0.132 NA
ATOM     68  N   UNL     1      24.886  31.274  23.041  1.00  0.00    -0.240 N 
ATOM     69  N   UNL     1      23.963  30.873  22.191  1.00  0.00    -0.066 NA
BRANCH  68  70
ATOM     70  C   UNL     1      26.278  30.801  23.129  1.00  0.00     0.198 C 
BRANCH  70  71
ATOM     71  C   UNL     1      26.808  31.300  24.421  1.00  0.00     0.042 CG0
ATOM     72  G   UNL     1      27.991  30.594  24.985  1.00  0.00     0.000 G0
ENDBRANCH  70  71
BRANCH  70  73
ATOM     73  C   UNL     1      26.214  29.345  22.968  1.00  0.00     0.249 C 
ATOM     74  N   UNL     1      26.179  28.316  23.945  1.00  0.00    -0.324 N 
ATOM     75  O   UNL     1      26.187  28.948  21.772  1.00  0.00    -0.272 OA
ATOM     76  H   UNL     1      25.770  27.392  23.685  1.00  0.00     0.170 HD
BRANCH  74  77
ATOM     77  C   UNL     1      26.676  28.468  25.292  1.00  0.00     0.044 A 
ATOM     78  C   UNL     1      27.489  29.465  25.818  1.00  0.00    -0.024 A 
ATOM     79  C   UNL     1      26.245  27.446  26.110  1.00  0.00     0.026 A 
ATOM     80  C   UNL     1      27.874  29.459  27.139  1.00  0.00     0.006 A 
ATOM     81  C   UNL     1      26.618  27.416  27.440  1.00  0.00     0.002 A 
ATOM     82  C   UNL     1      27.436  28.434  27.941  1.00  0.00     0.000 A 
BRANCH  78  83
ATOM     83  C   UNL     1      28.006  30.610  25.017  1.00  0.00     0.040 CG0
ATOM     84  G   UNL     1      26.823  31.295  24.426  1.00  0.00     0.000 G0
ENDBRANCH  78  83
ENDBRANCH  74  77
ENDBRANCH  70  73
ENDBRANCH  68  70
ENDBRANCH  64  65
ENDBRANCH  63  64
ENDBRANCH  60  63
ENDBRANCH  58  59
ENDBRANCH  55  58
ENDBRANCH   1  55
TORSDOF 30
