REMARK VINA RESULT:    -5.866      2.992      6.777
REMARK INTER + INTRA:         -20.903
REMARK INTER:                 -14.394
REMARK INTRA:                  -6.509
REMARK UNBOUND:                -5.091
REMARK SMILES C=CCCCCn1cc(COC(=O)NC[C@@H](O)C(O)[C@@H]2O[C@@](OC[C@H]3O[C@@H](O[C@H]4[C@H](O)[C@@H](O)[C@H](OCCN=[N+]=[N-])O[C@@H]4CO)[C@H](O)[C@@H](O)[C@H]3O)(C(=O)O)C[C@H](O)[C@H]2NC(C)=O)nn1
REMARK SMILES IDX 18 1 20 2 22 3 54 4 21 5 55 6 57 7 23 8 24 9 25 10 27 11
REMARK SMILES IDX 26 12 45 13 47 14 49 15 28 16 29 17 42 18 41 19 34 20 30 21
REMARK SMILES IDX 32 22 43 23 44 24 35 26 36 27 37 28 38 29 39 30 40 31 31 32
REMARK SMILES IDX 33 34 46 36 48 38 50 40 51 42 52 43 53 44 56 46 58 48 59 49
REMARK SMILES IDX 60 51 61 52 19 53 16 55 17 56 15 58 14 59 12 60 13 62 11 63
REMARK SMILES IDX 10 64 9 65 8 66 62 67 7 68 63 69 6 70 5 71 4 72 3 73 2 74
REMARK SMILES IDX 1 75
REMARK H PARENT 44 25 31 33 33 35 46 37 48 39 50 41 53 45 56 47 58 50 19 54
REMARK H PARENT 17 57 14 61
REMARK Flexibility Score: inf
ROOT
ATOM      1  C   UNL     1      16.629  31.799  22.459  1.00  0.00     0.176 C 
ENDROOT
BRANCH   1   2
ATOM      2  C   UNL     1      15.311  31.143  22.039  1.00  0.00     0.178 C 
ATOM      3  C   UNL     1      14.329  30.055  20.267  1.00  0.00     0.272 C 
ATOM      4  C   UNL     1      13.060  30.755  20.522  1.00  0.00     0.113 C 
ATOM      5  O   UNL     1      15.382  30.945  20.706  1.00  0.00    -0.332 OA
ATOM      6  C   UNL     1      12.833  31.185  21.905  1.00  0.00     0.145 C 
ATOM      7  C   UNL     1      14.083  31.613  22.657  1.00  0.00     0.142 C 
BRANCH   3   8
ATOM      8  O   UNL     1      14.662  29.961  18.923  1.00  0.00    -0.338 OA
BRANCH   8   9
ATOM      9  C   UNL     1      14.347  30.879  18.031  1.00  0.00     0.199 C 
BRANCH   9  10
ATOM     10  C   UNL     1      14.934  30.885  16.673  1.00  0.00     0.179 C 
ATOM     11  C   UNL     1      17.026  30.735  15.628  1.00  0.00     0.282 C 
ATOM     12  O   UNL     1      16.327  31.126  16.737  1.00  0.00    -0.341 OA
ATOM     13  C   UNL     1      16.194  30.517  14.425  1.00  0.00     0.202 C 
ATOM     14  C   UNL     1      15.025  29.592  14.629  1.00  0.00     0.179 C 
ATOM     15  C   UNL     1      14.761  29.484  16.100  1.00  0.00     0.177 C 
BRANCH  11  16
ATOM     16  O   UNL     1      17.893  29.745  16.005  1.00  0.00    -0.341 OA
BRANCH  16  17
ATOM     17  C   UNL     1      19.117  30.131  16.464  1.00  0.00     0.184 C 
ATOM     18  C   UNL     1      19.945  28.901  16.752  1.00  0.00     0.178 C 
ATOM     19  O   UNL     1      20.707  29.068  17.920  1.00  0.00    -0.341 OA
ATOM     20  C   UNL     1      19.843  28.901  18.998  1.00  0.00     0.281 C 
ATOM     21  C   UNL     1      19.001  30.875  17.814  1.00  0.00     0.180 C 
ATOM     22  C   UNL     1      18.714  29.886  18.920  1.00  0.00     0.202 C 
BRANCH  18  23
ATOM     23  C   UNL     1      20.836  28.499  15.589  1.00  0.00     0.191 C 
BRANCH  23  24
ATOM     24  O   UNL     1      20.343  28.994  14.394  1.00  0.00    -0.394 OA
ATOM     25  H   UNL     1      19.939  29.879  14.559  1.00  0.00     0.210 HD
ENDBRANCH  23  24
ENDBRANCH  18  23
BRANCH  20  26
ATOM     26  O   UNL     1      20.599  29.112  20.152  1.00  0.00    -0.350 OA
BRANCH  26  27
ATOM     27  C   UNL     1      20.798  27.967  20.901  1.00  0.00     0.169 C 
BRANCH  27  28
ATOM     28  C   UNL     1      21.839  27.129  20.180  1.00  0.00     0.119 C 
BRANCH  28  29
ATOM     29  N   UNL     1      22.595  26.312  21.092  1.00  0.00    -0.092 NA
ATOM     30  N   UNL     1      22.372  25.114  21.216  1.00  0.00     0.001 N 
ATOM     31  N   UNL     1      22.172  23.904  21.113  1.00  0.00    -0.003 NA
ENDBRANCH  28  29
ENDBRANCH  27  28
ENDBRANCH  26  27
ENDBRANCH  20  26
BRANCH  21  32
ATOM     32  O   UNL     1      20.263  31.416  18.056  1.00  0.00    -0.387 OA
ATOM     33  H   UNL     1      20.961  30.750  18.217  1.00  0.00     0.211 HD
ENDBRANCH  21  32
BRANCH  22  34
ATOM     34  O   UNL     1      17.470  29.291  18.733  1.00  0.00    -0.385 OA
ATOM     35  H   UNL     1      16.863  29.656  19.433  1.00  0.00     0.211 HD
ENDBRANCH  22  34
ENDBRANCH  16  17
ENDBRANCH  11  16
BRANCH  13  36
ATOM     36  O   UNL     1      15.688  31.763  14.028  1.00  0.00    -0.385 OA
ATOM     37  H   UNL     1      15.700  31.879  13.060  1.00  0.00     0.211 HD
ENDBRANCH  13  36
BRANCH  14  38
ATOM     38  O   UNL     1      15.237  28.338  14.054  1.00  0.00    -0.387 OA
ATOM     39  H   UNL     1      15.399  27.709  14.786  1.00  0.00     0.211 HD
ENDBRANCH  14  38
BRANCH  15  40
ATOM     40  O   UNL     1      15.629  28.583  16.729  1.00  0.00    -0.387 OA
ATOM     41  H   UNL     1      16.333  29.022  17.243  1.00  0.00     0.211 HD
ENDBRANCH  15  40
ENDBRANCH   9  10
ENDBRANCH   8   9
ENDBRANCH   3   8
BRANCH   3  42
ATOM     42  C   UNL     1      14.493  28.861  21.085  1.00  0.00     0.364 C 
ATOM     43  O   UNL     1      15.611  28.316  21.217  1.00  0.00    -0.246 OA
BRANCH  42  44
ATOM     44  O   UNL     1      13.451  28.273  21.738  1.00  0.00    -0.477 OA
ATOM     45  H   UNL     1      12.756  27.727  21.259  1.00  0.00     0.296 HD
ENDBRANCH  42  44
ENDBRANCH   3  42
BRANCH   6  46
ATOM     46  O   UNL     1      11.892  32.245  21.902  1.00  0.00    -0.391 OA
ATOM     47  H   UNL     1      12.110  32.931  22.581  1.00  0.00     0.211 HD
ENDBRANCH   6  46
BRANCH   7  48
ATOM     48  N   UNL     1      13.996  31.109  24.041  1.00  0.00    -0.348 N 
ATOM     49  C   UNL     1      13.692  31.936  25.147  1.00  0.00     0.217 C 
ATOM     50  H   UNL     1      14.163  30.092  24.271  1.00  0.00     0.163 HD
ATOM     51  C   UNL     1      13.628  31.361  26.543  1.00  0.00     0.114 C 
ATOM     52  O   UNL     1      13.478  33.158  24.950  1.00  0.00    -0.275 OA
ENDBRANCH   7  48
ENDBRANCH   1   2
BRANCH   1  53
ATOM     53  O   UNL     1      16.819  31.301  23.854  1.00  0.00    -0.388 OA
ATOM     54  H   UNL     1      16.212  30.494  23.821  1.00  0.00     0.211 HD
ENDBRANCH   1  53
BRANCH   1  55
ATOM     55  C   UNL     1      17.832  31.272  21.816  1.00  0.00     0.165 C 
BRANCH  55  56
ATOM     56  O   UNL     1      18.009  29.873  21.909  1.00  0.00    -0.388 OA
ATOM     57  H   UNL     1      18.983  29.746  22.025  1.00  0.00     0.211 HD
ENDBRANCH  55  56
BRANCH  55  58
ATOM     58  C   UNL     1      19.126  31.942  22.018  1.00  0.00     0.154 C 
BRANCH  58  59
ATOM     59  N   UNL     1      20.006  31.332  22.939  1.00  0.00    -0.319 N 
ATOM     60  C   UNL     1      20.158  31.482  24.322  1.00  0.00     0.407 C 
ATOM     61  H   UNL     1      20.695  30.611  22.500  1.00  0.00     0.167 HD
ATOM     62  O   UNL     1      19.448  32.272  24.966  1.00  0.00    -0.225 OA
BRANCH  60  63
ATOM     63  O   UNL     1      21.115  30.747  25.035  1.00  0.00    -0.443 OA
BRANCH  63  64
ATOM     64  C   UNL     1      21.914  29.809  24.313  1.00  0.00     0.294 C 
BRANCH  64  65
ATOM     65  C   UNL     1      21.439  28.422  24.553  1.00  0.00     0.120 A 
ATOM     66  C   UNL     1      22.255  27.292  24.534  1.00  0.00     0.138 A 
ATOM     67  N   UNL     1      20.203  27.977  24.821  1.00  0.00    -0.132 NA
ATOM     68  N   UNL     1      21.479  26.234  24.788  1.00  0.00    -0.252 N 
ATOM     69  N   UNL     1      20.250  26.648  24.959  1.00  0.00    -0.067 NA
BRANCH  68  70
ATOM     70  C   UNL     1      21.982  24.855  24.853  1.00  0.00     0.146 C 
BRANCH  70  71
ATOM     71  C   UNL     1      22.697  24.660  26.163  1.00  0.00     0.024 C 
BRANCH  71  72
ATOM     72  C   UNL     1      24.153  24.368  25.873  1.00  0.00     0.006 C 
BRANCH  72  73
ATOM     73  C   UNL     1      25.014  25.504  26.377  1.00  0.00     0.027 C 
BRANCH  73  74
ATOM     74  C   UNL     1      24.539  26.000  27.688  1.00  0.00    -0.035 C 
ATOM     75  C   UNL     1      25.333  25.972  28.741  1.00  0.00     0.004 C 
ENDBRANCH  73  74
ENDBRANCH  72  73
ENDBRANCH  71  72
ENDBRANCH  70  71
ENDBRANCH  68  70
ENDBRANCH  64  65
ENDBRANCH  63  64
ENDBRANCH  60  63
ENDBRANCH  58  59
ENDBRANCH  55  58
ENDBRANCH   1  55
TORSDOF 34
