REMARK VINA RESULT:    -5.322      4.634     13.845
REMARK INTER + INTRA:         -23.011
REMARK INTER:                 -14.160
REMARK INTRA:                  -8.851
REMARK UNBOUND:                -8.356
REMARK SMILES CC(=O)N[C@@H]1[C@@H](O)C[C@](OC[C@H]2O[C@@H](O[C@H]3[C@H](O)[C@@H](O)[C@H](OCCN=[N+]=[N-])O[C@@H]3CO)[C@H](O)[C@@H](O)[C@H]2O)(C(=O)O)O[C@H]1C(O)[C@H](O)CNC(=O)OCc1cn([C@@H](CCC(=O)O)C(=O)O)nn1
REMARK SMILES IDX 43 1 42 2 9 3 8 4 41 5 6 6 5 7 10 8 11 9 12 10 14 11 13 12
REMARK SMILES IDX 32 13 34 14 36 15 15 16 16 17 29 18 28 19 21 20 17 21 19 22
REMARK SMILES IDX 30 23 31 24 22 26 23 27 24 28 25 29 26 30 27 31 18 32 20 34
REMARK SMILES IDX 33 36 35 38 37 40 38 42 39 43 40 44 7 46 4 48 2 49 1 51 3 52
REMARK SMILES IDX 44 53 45 55 46 56 47 58 48 59 49 60 50 62 51 63 52 64 53 65
REMARK SMILES IDX 54 66 66 67 55 68 65 69 56 70 57 71 58 72 59 73 60 74 61 75
REMARK SMILES IDX 62 77 63 78 64 79
REMARK H PARENT 31 25 18 33 20 35 33 37 35 39 37 41 40 45 7 47 4 50 44 54
REMARK H PARENT 46 57 48 61 61 76 64 80
REMARK Flexibility Score: inf
ROOT
ATOM      1  C   UNL     1      25.106  27.948  21.720  1.00  0.00     0.176 C 
ENDROOT
BRANCH   1   2
ATOM      2  C   UNL     1      24.546  26.545  21.483  1.00  0.00     0.178 C 
ATOM      3  C   UNL     1      22.755  25.310  22.383  1.00  0.00     0.272 C 
ATOM      4  C   UNL     1      23.602  24.216  22.895  1.00  0.00     0.113 C 
ATOM      5  O   UNL     1      23.561  26.465  22.468  1.00  0.00    -0.332 OA
ATOM      6  C   UNL     1      25.064  24.575  22.890  1.00  0.00     0.145 C 
ATOM      7  C   UNL     1      25.537  25.461  21.795  1.00  0.00     0.142 C 
BRANCH   3   8
ATOM      8  O   UNL     1      21.672  25.547  23.206  1.00  0.00    -0.338 OA
BRANCH   8   9
ATOM      9  C   UNL     1      21.460  24.984  24.367  1.00  0.00     0.199 C 
BRANCH   9  10
ATOM     10  C   UNL     1      21.678  25.670  25.688  1.00  0.00     0.179 C 
ATOM     11  C   UNL     1      23.503  26.830  26.561  1.00  0.00     0.282 C 
ATOM     12  O   UNL     1      22.984  25.655  26.082  1.00  0.00    -0.341 OA
ATOM     13  C   UNL     1      23.388  27.882  25.479  1.00  0.00     0.202 C 
ATOM     14  C   UNL     1      21.939  28.144  25.218  1.00  0.00     0.179 C 
ATOM     15  C   UNL     1      21.042  27.054  25.686  1.00  0.00     0.177 C 
BRANCH  11  16
ATOM     16  O   UNL     1      24.857  26.634  26.843  1.00  0.00    -0.341 OA
BRANCH  16  17
ATOM     17  C   UNL     1      25.118  25.950  28.004  1.00  0.00     0.184 C 
ATOM     18  C   UNL     1      24.341  26.527  29.184  1.00  0.00     0.178 C 
ATOM     19  O   UNL     1      25.244  26.980  30.143  1.00  0.00    -0.341 OA
ATOM     20  C   UNL     1      25.923  28.132  29.658  1.00  0.00     0.281 C 
ATOM     21  C   UNL     1      26.591  26.132  28.310  1.00  0.00     0.180 C 
ATOM     22  C   UNL     1      26.806  27.642  28.550  1.00  0.00     0.202 C 
BRANCH  18  23
ATOM     23  C   UNL     1      23.513  25.428  29.826  1.00  0.00     0.191 C 
BRANCH  23  24
ATOM     24  O   UNL     1      24.294  24.544  30.547  1.00  0.00    -0.394 OA
ATOM     25  H   UNL     1      23.907  23.630  30.559  1.00  0.00     0.210 HD
ENDBRANCH  23  24
ENDBRANCH  18  23
BRANCH  20  26
ATOM     26  O   UNL     1      26.554  28.703  30.724  1.00  0.00    -0.350 OA
BRANCH  26  27
ATOM     27  C   UNL     1      26.624  27.937  31.854  1.00  0.00     0.169 C 
BRANCH  27  28
ATOM     28  C   UNL     1      28.001  27.371  32.136  1.00  0.00     0.119 C 
BRANCH  28  29
ATOM     29  N   UNL     1      27.982  25.929  32.282  1.00  0.00    -0.092 NA
ATOM     30  N   UNL     1      28.061  25.349  33.359  1.00  0.00     0.001 N 
ATOM     31  N   UNL     1      27.959  24.879  34.472  1.00  0.00    -0.003 NA
ENDBRANCH  28  29
ENDBRANCH  27  28
ENDBRANCH  26  27
ENDBRANCH  20  26
BRANCH  21  32
ATOM     32  O   UNL     1      27.004  25.401  29.418  1.00  0.00    -0.387 OA
ATOM     33  H   UNL     1      27.464  25.974  30.108  1.00  0.00     0.211 HD
ENDBRANCH  21  32
BRANCH  22  34
ATOM     34  O   UNL     1      26.334  28.241  27.356  1.00  0.00    -0.385 OA
ATOM     35  H   UNL     1      25.541  28.786  27.594  1.00  0.00     0.211 HD
ENDBRANCH  22  34
ENDBRANCH  16  17
ENDBRANCH  11  16
BRANCH  13  36
ATOM     36  O   UNL     1      24.040  29.055  25.863  1.00  0.00    -0.385 OA
ATOM     37  H   UNL     1      24.494  28.840  26.739  1.00  0.00     0.211 HD
ENDBRANCH  13  36
BRANCH  14  38
ATOM     38  O   UNL     1      21.687  28.439  23.875  1.00  0.00    -0.387 OA
ATOM     39  H   UNL     1      21.871  29.412  23.718  1.00  0.00     0.211 HD
ENDBRANCH  14  38
BRANCH  15  40
ATOM     40  O   UNL     1      19.948  27.033  24.817  1.00  0.00    -0.387 OA
ATOM     41  H   UNL     1      20.194  26.639  23.950  1.00  0.00     0.211 HD
ENDBRANCH  15  40
ENDBRANCH   9  10
ENDBRANCH   8   9
ENDBRANCH   3   8
BRANCH   3  42
ATOM     42  C   UNL     1      22.248  25.215  21.020  1.00  0.00     0.364 C 
ATOM     43  O   UNL     1      21.560  26.200  20.565  1.00  0.00    -0.246 OA
BRANCH  42  44
ATOM     44  O   UNL     1      22.401  24.183  20.113  1.00  0.00    -0.477 OA
ATOM     45  H   UNL     1      23.259  23.694  20.004  1.00  0.00     0.296 HD
ENDBRANCH  42  44
ENDBRANCH   3  42
BRANCH   6  46
ATOM     46  O   UNL     1      25.309  25.285  24.099  1.00  0.00    -0.391 OA
ATOM     47  H   UNL     1      24.493  25.319  24.660  1.00  0.00     0.211 HD
ENDBRANCH   6  46
BRANCH   7  48
ATOM     48  N   UNL     1      25.974  24.630  20.727  1.00  0.00    -0.348 N 
ATOM     49  C   UNL     1      27.155  23.848  20.759  1.00  0.00     0.217 C 
ATOM     50  H   UNL     1      25.420  24.536  19.854  1.00  0.00     0.163 HD
ATOM     51  C   UNL     1      27.560  22.992  19.588  1.00  0.00     0.114 C 
ATOM     52  O   UNL     1      27.879  23.851  21.751  1.00  0.00    -0.275 OA
ENDBRANCH   7  48
ENDBRANCH   1   2
BRANCH   1  53
ATOM     53  O   UNL     1      26.136  27.880  22.650  1.00  0.00    -0.388 OA
ATOM     54  H   UNL     1      26.472  26.946  22.717  1.00  0.00     0.211 HD
ENDBRANCH   1  53
BRANCH   1  55
ATOM     55  C   UNL     1      24.153  28.996  22.057  1.00  0.00     0.165 C 
BRANCH  55  56
ATOM     56  O   UNL     1      23.027  28.870  21.189  1.00  0.00    -0.388 OA
ATOM     57  H   UNL     1      22.511  29.708  21.249  1.00  0.00     0.211 HD
ENDBRANCH  55  56
BRANCH  55  58
ATOM     58  C   UNL     1      24.587  30.424  21.915  1.00  0.00     0.154 C 
BRANCH  58  59
ATOM     59  N   UNL     1      23.486  31.356  21.879  1.00  0.00    -0.319 N 
ATOM     60  C   UNL     1      22.726  31.729  23.027  1.00  0.00     0.407 C 
ATOM     61  H   UNL     1      23.214  31.778  20.977  1.00  0.00     0.167 HD
ATOM     62  O   UNL     1      22.984  31.257  24.134  1.00  0.00    -0.225 OA
BRANCH  60  63
ATOM     63  O   UNL     1      21.700  32.624  22.861  1.00  0.00    -0.443 OA
BRANCH  63  64
ATOM     64  C   UNL     1      20.902  32.691  21.714  1.00  0.00     0.294 C 
BRANCH  64  65
ATOM     65  C   UNL     1      20.054  31.477  21.627  1.00  0.00     0.120 A 
ATOM     66  C   UNL     1      18.679  31.374  21.595  1.00  0.00     0.139 A 
ATOM     67  N   UNL     1      20.511  30.197  21.582  1.00  0.00    -0.132 NA
ATOM     68  N   UNL     1      18.338  30.054  21.532  1.00  0.00    -0.238 N 
ATOM     69  N   UNL     1      19.485  29.374  21.527  1.00  0.00    -0.066 NA
BRANCH  68  70
ATOM     70  C   UNL     1      17.026  29.523  21.460  1.00  0.00     0.219 C 
BRANCH  70  71
ATOM     71  C   UNL     1      15.863  30.444  21.455  1.00  0.00     0.051 C 
BRANCH  71  72
ATOM     72  C   UNL     1      14.791  30.281  22.451  1.00  0.00     0.125 C 
BRANCH  72  73
ATOM     73  C   UNL     1      13.582  29.567  22.097  1.00  0.00     0.303 C 
ATOM     74  O   UNL     1      12.401  29.945  22.185  1.00  0.00    -0.252 OA
BRANCH  73  75
ATOM     75  O   UNL     1      13.702  28.241  21.571  1.00  0.00    -0.481 OA
ATOM     76  H   UNL     1      14.368  28.068  20.834  1.00  0.00     0.296 HD
ENDBRANCH  73  75
ENDBRANCH  72  73
ENDBRANCH  71  72
ENDBRANCH  70  71
BRANCH  70  77
ATOM     77  C   UNL     1      16.934  28.649  20.248  1.00  0.00     0.328 C 
ATOM     78  O   UNL     1      16.329  27.561  20.299  1.00  0.00    -0.250 OA
BRANCH  77  79
ATOM     79  O   UNL     1      17.508  29.009  19.043  1.00  0.00    -0.480 OA
ATOM     80  H   UNL     1      18.521  29.007  18.908  1.00  0.00     0.296 HD
ENDBRANCH  77  79
ENDBRANCH  70  77
ENDBRANCH  68  70
ENDBRANCH  64  65
ENDBRANCH  63  64
ENDBRANCH  60  63
ENDBRANCH  58  59
ENDBRANCH  55  58
ENDBRANCH   1  55
TORSDOF 36
