REMARK VINA RESULT:    -6.541      4.124      8.942
REMARK INTER + INTRA:         -21.315
REMARK INTER:                 -13.655
REMARK INTRA:                  -7.661
REMARK UNBOUND:                -5.215
REMARK SMILES CC(=O)N[C@@H]1[C@@H](O)C[C@](OC[C@H]2O[C@@H](O[C@H]3[C@H](O)[C@@H](O)[C@H](OCCN=[N+]=[N-])O[C@@H]3CO)[C@H](O)[C@@H](O)[C@H]2O)(C(=O)O)O[C@H]1C(O)[C@H](O)CNC(=O)OCc1cn(C2CCCC2)nn1
REMARK SMILES IDX 9 1 8 2 6 3 5 4 42 5 41 6 10 7 11 8 12 9 14 10 13 11 32 12
REMARK SMILES IDX 34 13 36 14 15 15 16 16 29 17 28 18 21 19 17 20 19 21 30 22
REMARK SMILES IDX 31 23 22 25 23 26 24 27 25 28 26 29 27 30 18 31 20 33 33 35
REMARK SMILES IDX 35 37 37 39 38 41 39 42 40 43 7 45 43 47 44 48 45 50 46 51
REMARK SMILES IDX 47 53 48 54 49 55 50 57 51 58 52 59 53 60 54 61 62 62 55 63
REMARK SMILES IDX 61 64 56 65 57 66 60 67 58 68 59 69 4 70 2 71 1 73 3 74
REMARK H PARENT 31 24 18 32 20 34 33 36 35 38 37 40 40 44 7 46 44 49 46 52
REMARK H PARENT 48 56 4 72
REMARK Flexibility Score: inf
ROOT
ATOM      1  C   UNL     1      19.029  30.428  20.620  1.00  0.00     0.272 C 
ATOM      2  C   UNL     1      18.204  31.505  21.221  1.00  0.00     0.113 C 
ATOM      3  C   UNL     1      17.161  31.031  22.172  1.00  0.00     0.145 C 
ATOM      4  C   UNL     1      16.346  29.878  21.539  1.00  0.00     0.142 C 
ATOM      5  C   UNL     1      16.881  29.651  20.169  1.00  0.00     0.178 C 
ATOM      6  O   UNL     1      18.248  29.271  20.395  1.00  0.00    -0.332 OA
ENDROOT
BRANCH   1   7
ATOM      7  O   UNL     1      20.091  30.066  21.367  1.00  0.00    -0.338 OA
BRANCH   7   8
ATOM      8  C   UNL     1      20.281  28.746  21.685  1.00  0.00     0.199 C 
BRANCH   8   9
ATOM      9  C   UNL     1      21.741  28.414  21.386  1.00  0.00     0.179 C 
ATOM     10  C   UNL     1      22.201  26.693  22.886  1.00  0.00     0.282 C 
ATOM     11  O   UNL     1      22.443  27.996  22.470  1.00  0.00    -0.341 OA
ATOM     12  C   UNL     1      21.864  25.759  21.775  1.00  0.00     0.202 C 
ATOM     13  C   UNL     1      22.360  26.193  20.431  1.00  0.00     0.179 C 
ATOM     14  C   UNL     1      21.826  27.578  20.165  1.00  0.00     0.177 C 
BRANCH  10  15
ATOM     15  O   UNL     1      21.300  26.649  23.948  1.00  0.00    -0.341 OA
BRANCH  15  16
ATOM     16  C   UNL     1      21.915  26.919  25.170  1.00  0.00     0.184 C 
ATOM     17  C   UNL     1      21.903  25.778  26.132  1.00  0.00     0.178 C 
ATOM     18  O   UNL     1      22.467  26.202  27.333  1.00  0.00    -0.341 OA
ATOM     19  C   UNL     1      21.563  26.986  28.026  1.00  0.00     0.281 C 
ATOM     20  C   UNL     1      21.102  28.040  25.804  1.00  0.00     0.180 C 
ATOM     21  C   UNL     1      21.435  28.278  27.241  1.00  0.00     0.202 C 
BRANCH  17  22
ATOM     22  C   UNL     1      22.758  24.597  25.688  1.00  0.00     0.191 C 
BRANCH  22  23
ATOM     23  O   UNL     1      23.515  24.240  26.816  1.00  0.00    -0.394 OA
ATOM     24  H   UNL     1      23.228  24.733  27.603  1.00  0.00     0.210 HD
ENDBRANCH  22  23
ENDBRANCH  17  22
BRANCH  19  25
ATOM     25  O   UNL     1      22.105  27.311  29.266  1.00  0.00    -0.350 OA
BRANCH  25  26
ATOM     26  C   UNL     1      22.705  26.175  29.834  1.00  0.00     0.169 C 
BRANCH  26  27
ATOM     27  C   UNL     1      24.054  26.530  30.434  1.00  0.00     0.119 C 
BRANCH  27  28
ATOM     28  N   UNL     1      25.077  25.639  29.971  1.00  0.00    -0.092 NA
ATOM     29  N   UNL     1      25.955  25.186  30.734  1.00  0.00     0.001 N 
ATOM     30  N   UNL     1      27.002  25.177  31.376  1.00  0.00    -0.003 NA
ENDBRANCH  27  28
ENDBRANCH  26  27
ENDBRANCH  25  26
ENDBRANCH  19  25
BRANCH  20  31
ATOM     31  O   UNL     1      21.403  29.193  25.083  1.00  0.00    -0.387 OA
ATOM     32  H   UNL     1      21.307  29.073  24.106  1.00  0.00     0.211 HD
ENDBRANCH  20  31
BRANCH  21  33
ATOM     33  O   UNL     1      20.376  28.998  27.819  1.00  0.00    -0.385 OA
ATOM     34  H   UNL     1      20.055  28.438  28.572  1.00  0.00     0.211 HD
ENDBRANCH  21  33
ENDBRANCH  15  16
ENDBRANCH  10  15
BRANCH  12  35
ATOM     35  O   UNL     1      22.422  24.478  21.998  1.00  0.00    -0.385 OA
ATOM     36  H   UNL     1      22.373  23.992  21.153  1.00  0.00     0.211 HD
ENDBRANCH  12  35
BRANCH  13  37
ATOM     37  O   UNL     1      21.867  25.340  19.461  1.00  0.00    -0.387 OA
ATOM     38  H   UNL     1      22.272  25.590  18.602  1.00  0.00     0.211 HD
ENDBRANCH  13  37
BRANCH  14  39
ATOM     39  O   UNL     1      20.628  27.458  19.473  1.00  0.00    -0.387 OA
ATOM     40  H   UNL     1      20.337  26.541  19.373  1.00  0.00     0.211 HD
ENDBRANCH  14  39
ENDBRANCH   8   9
ENDBRANCH   7   8
ENDBRANCH   1   7
BRANCH   1  41
ATOM     41  C   UNL     1      19.425  30.852  19.223  1.00  0.00     0.364 C 
ATOM     42  O   UNL     1      20.086  30.124  18.466  1.00  0.00    -0.246 OA
BRANCH  41  43
ATOM     43  O   UNL     1      19.000  32.126  18.833  1.00  0.00    -0.477 OA
ATOM     44  H   UNL     1      18.472  32.698  19.504  1.00  0.00     0.296 HD
ENDBRANCH  41  43
ENDBRANCH   1  41
BRANCH   3  45
ATOM     45  O   UNL     1      17.599  30.712  23.432  1.00  0.00    -0.391 OA
ATOM     46  H   UNL     1      16.834  30.597  24.040  1.00  0.00     0.211 HD
ENDBRANCH   3  45
BRANCH   5  47
ATOM     47  C   UNL     1      16.300  28.468  19.436  1.00  0.00     0.176 C 
BRANCH  47  48
ATOM     48  O   UNL     1      16.590  27.313  20.277  1.00  0.00    -0.388 OA
ATOM     49  H   UNL     1      15.838  27.321  20.913  1.00  0.00     0.211 HD
ENDBRANCH  47  48
BRANCH  47  50
ATOM     50  C   UNL     1      16.982  28.091  18.151  1.00  0.00     0.165 C 
BRANCH  50  51
ATOM     51  O   UNL     1      18.274  27.703  18.207  1.00  0.00    -0.388 OA
ATOM     52  H   UNL     1      18.936  28.389  17.972  1.00  0.00     0.211 HD
ENDBRANCH  50  51
BRANCH  50  53
ATOM     53  C   UNL     1      16.891  29.286  17.210  1.00  0.00     0.154 C 
BRANCH  53  54
ATOM     54  N   UNL     1      18.140  29.355  16.439  1.00  0.00    -0.319 N 
ATOM     55  C   UNL     1      18.155  29.074  15.049  1.00  0.00     0.407 C 
ATOM     56  H   UNL     1      19.052  29.613  16.895  1.00  0.00     0.167 HD
ATOM     57  O   UNL     1      17.079  28.763  14.476  1.00  0.00    -0.225 OA
BRANCH  55  58
ATOM     58  O   UNL     1      19.317  29.134  14.313  1.00  0.00    -0.443 OA
BRANCH  58  59
ATOM     59  C   UNL     1      20.559  29.498  14.885  1.00  0.00     0.294 C 
BRANCH  59  60
ATOM     60  C   UNL     1      21.291  28.349  15.465  1.00  0.00     0.120 A 
ATOM     61  C   UNL     1      22.539  27.843  15.177  1.00  0.00     0.138 A 
ATOM     62  N   UNL     1      20.813  27.553  16.446  1.00  0.00    -0.132 NA
ATOM     63  N   UNL     1      22.772  26.790  15.964  1.00  0.00    -0.249 N 
ATOM     64  N   UNL     1      21.700  26.643  16.725  1.00  0.00    -0.067 NA
BRANCH  63  65
ATOM     65  C   UNL     1      23.956  25.940  16.016  1.00  0.00     0.109 C 
ATOM     66  C   UNL     1      23.666  24.573  16.542  1.00  0.00     0.027 C 
ATOM     67  C   UNL     1      24.439  25.706  14.601  1.00  0.00     0.027 C 
ATOM     68  C   UNL     1      23.398  23.675  15.362  1.00  0.00     0.002 C 
ATOM     69  C   UNL     1      23.787  24.443  14.126  1.00  0.00     0.002 C 
ENDBRANCH  63  65
ENDBRANCH  59  60
ENDBRANCH  58  59
ENDBRANCH  55  58
ENDBRANCH  53  54
ENDBRANCH  50  53
ENDBRANCH  47  50
ENDBRANCH   5  47
BRANCH   4  70
ATOM     70  N   UNL     1      14.941  30.203  21.639  1.00  0.00    -0.348 N 
ATOM     71  C   UNL     1      14.202  29.853  22.834  1.00  0.00     0.217 C 
ATOM     72  H   UNL     1      14.411  30.703  20.897  1.00  0.00     0.163 HD
ATOM     73  C   UNL     1      12.760  30.178  22.959  1.00  0.00     0.114 C 
ATOM     74  O   UNL     1      14.770  29.265  23.794  1.00  0.00    -0.275 OA
ENDBRANCH   4  70
TORSDOF 30
