REMARK VINA RESULT:    -8.138      5.087      9.191
REMARK INTER + INTRA:         -19.809
REMARK INTER:                 -12.312
REMARK INTRA:                  -7.497
REMARK UNBOUND:                 3.076
REMARK SMILES CC(=O)N[C@@H]1[C@@H](O)C[C@](OC[C@H]2O[C@@H](O[C@H]3[C@H](O)[C@@H](O)[C@H](OCCN=[N+]=[N-])O[C@@H]3CO)[C@H](O)[C@@H](O)[C@H]2O)(C(=O)O)O[C@H]1C(O)[C@H](O)CNC(=O)OCc1cn(C2CC(O)C=C[C@@H](O)C2)nn1
REMARK SMILES IDX 43 1 42 2 9 3 8 4 41 5 6 6 5 7 10 8 11 9 12 10 14 11 13 12
REMARK SMILES IDX 32 13 34 14 36 15 15 16 16 17 29 18 28 19 21 20 17 21 19 22
REMARK SMILES IDX 30 23 31 24 22 26 23 27 24 28 25 29 26 30 27 31 18 32 20 34
REMARK SMILES IDX 33 36 35 38 37 40 38 42 39 43 40 44 7 46 4 48 2 49 1 51 3 52
REMARK SMILES IDX 44 53 45 55 46 56 47 58 48 59 49 60 50 62 51 63 52 64 53 65
REMARK SMILES IDX 54 66 66 67 55 68 65 69 56 70 57 71 58 72 59 74 64 76 62 77
REMARK SMILES IDX 61 78 60 79 63 81
REMARK H PARENT 31 25 18 33 20 35 33 37 35 39 37 41 40 45 7 47 4 50 44 54
REMARK H PARENT 46 57 48 61 59 75 63 82
REMARK Flexibility Score: 90.00
ROOT
ATOM      1  C   UNL     1      15.751  29.039  19.179  1.00  0.00     0.176 C 
ENDROOT
BRANCH   1   2
ATOM      2  C   UNL     1      15.628  30.520  18.869  1.00  0.00     0.178 C 
ATOM      3  C   UNL     1      13.902  32.120  18.860  1.00  0.00     0.272 C 
ATOM      4  C   UNL     1      14.698  33.036  18.005  1.00  0.00     0.113 C 
ATOM      5  O   UNL     1      14.237  30.820  18.928  1.00  0.00    -0.332 OA
ATOM      6  C   UNL     1      16.060  32.550  17.667  1.00  0.00     0.145 C 
ATOM      7  C   UNL     1      16.066  30.994  17.552  1.00  0.00     0.142 C 
BRANCH   3   8
ATOM      8  O   UNL     1      12.542  32.289  18.529  1.00  0.00    -0.338 OA
BRANCH   8   9
ATOM      9  C   UNL     1      12.161  33.582  18.313  1.00  0.00     0.199 C 
BRANCH   9  10
ATOM     10  C   UNL     1      11.343  33.702  17.026  1.00  0.00     0.179 C 
ATOM     11  C   UNL     1      10.480  32.120  15.582  1.00  0.00     0.282 C 
ATOM     12  O   UNL     1      11.596  32.605  16.265  1.00  0.00    -0.341 OA
ATOM     13  C   UNL     1       9.547  31.637  16.677  1.00  0.00     0.202 C 
ATOM     14  C   UNL     1       8.975  32.882  17.317  1.00  0.00     0.179 C 
ATOM     15  C   UNL     1       9.918  34.042  17.294  1.00  0.00     0.177 C 
BRANCH  11  16
ATOM     16  O   UNL     1      10.879  31.132  14.715  1.00  0.00    -0.341 OA
BRANCH  16  17
ATOM     17  C   UNL     1      12.237  30.859  14.907  1.00  0.00     0.184 C 
ATOM     18  C   UNL     1      13.014  31.174  13.654  1.00  0.00     0.178 C 
ATOM     19  O   UNL     1      12.879  30.252  12.648  1.00  0.00    -0.341 OA
ATOM     20  C   UNL     1      12.165  29.112  13.012  1.00  0.00     0.281 C 
ATOM     21  C   UNL     1      12.484  29.461  15.404  1.00  0.00     0.180 C 
ATOM     22  C   UNL     1      12.768  28.508  14.275  1.00  0.00     0.202 C 
BRANCH  18  23
ATOM     23  C   UNL     1      14.489  31.382  13.973  1.00  0.00     0.191 C 
BRANCH  23  24
ATOM     24  O   UNL     1      15.304  31.069  12.902  1.00  0.00    -0.394 OA
ATOM     25  H   UNL     1      14.836  30.612  12.185  1.00  0.00     0.210 HD
ENDBRANCH  23  24
ENDBRANCH  18  23
BRANCH  20  26
ATOM     26  O   UNL     1      12.289  28.224  11.948  1.00  0.00    -0.350 OA
BRANCH  26  27
ATOM     27  C   UNL     1      11.213  28.409  11.088  1.00  0.00     0.169 C 
BRANCH  27  28
ATOM     28  C   UNL     1       9.909  28.540  11.857  1.00  0.00     0.119 C 
BRANCH  28  29
ATOM     29  N   UNL     1       9.085  27.362  11.679  1.00  0.00    -0.092 NA
ATOM     30  N   UNL     1       8.966  26.879  10.542  1.00  0.00     0.001 N 
ATOM     31  N   UNL     1       8.847  26.559   9.351  1.00  0.00    -0.003 NA
ENDBRANCH  28  29
ENDBRANCH  27  28
ENDBRANCH  26  27
ENDBRANCH  20  26
BRANCH  21  32
ATOM     32  O   UNL     1      13.544  29.450  16.310  1.00  0.00    -0.387 OA
ATOM     33  H   UNL     1      13.305  28.996  17.154  1.00  0.00     0.211 HD
ENDBRANCH  21  32
BRANCH  22  34
ATOM     34  O   UNL     1      12.196  27.264  14.513  1.00  0.00    -0.385 OA
ATOM     35  H   UNL     1      12.094  27.103  15.487  1.00  0.00     0.211 HD
ENDBRANCH  22  34
ENDBRANCH  16  17
ENDBRANCH  11  16
BRANCH  13  36
ATOM     36  O   UNL     1       8.539  30.819  16.241  1.00  0.00    -0.385 OA
ATOM     37  H   UNL     1       8.579  30.572  15.304  1.00  0.00     0.211 HD
ENDBRANCH  13  36
BRANCH  14  38
ATOM     38  O   UNL     1       8.585  32.526  18.607  1.00  0.00    -0.387 OA
ATOM     39  H   UNL     1       8.844  33.230  19.265  1.00  0.00     0.211 HD
ENDBRANCH  14  38
BRANCH  15  40
ATOM     40  O   UNL     1       9.882  34.715  18.532  1.00  0.00    -0.387 OA
ATOM     41  H   UNL     1       9.004  35.046  18.768  1.00  0.00     0.211 HD
ENDBRANCH  15  40
ENDBRANCH   9  10
ENDBRANCH   8   9
ENDBRANCH   3   8
BRANCH   3  42
ATOM     42  C   UNL     1      14.025  32.662  20.268  1.00  0.00     0.364 C 
ATOM     43  O   UNL     1      14.476  33.812  20.512  1.00  0.00    -0.246 OA
BRANCH  42  44
ATOM     44  O   UNL     1      13.619  31.841  21.308  1.00  0.00    -0.477 OA
ATOM     45  H   UNL     1      14.248  31.618  22.079  1.00  0.00     0.296 HD
ENDBRANCH  42  44
ENDBRANCH   3  42
BRANCH   6  46
ATOM     46  O   UNL     1      16.529  33.110  16.504  1.00  0.00    -0.391 OA
ATOM     47  H   UNL     1      16.782  34.045  16.656  1.00  0.00     0.211 HD
ENDBRANCH   6  46
BRANCH   7  48
ATOM     48  N   UNL     1      17.296  30.587  16.990  1.00  0.00    -0.348 N 
ATOM     49  C   UNL     1      17.340  29.505  16.075  1.00  0.00     0.217 C 
ATOM     50  H   UNL     1      18.178  31.086  17.209  1.00  0.00     0.163 HD
ATOM     51  C   UNL     1      18.623  29.060  15.471  1.00  0.00     0.114 C 
ATOM     52  O   UNL     1      16.279  28.910  15.767  1.00  0.00    -0.275 OA
ENDBRANCH   7  48
ENDBRANCH   1   2
BRANCH   1  53
ATOM     53  O   UNL     1      14.404  28.585  18.827  1.00  0.00    -0.388 OA
ATOM     54  H   UNL     1      13.834  29.409  18.722  1.00  0.00     0.211 HD
ENDBRANCH   1  53
BRANCH   1  55
ATOM     55  C   UNL     1      15.793  28.717  20.646  1.00  0.00     0.165 C 
BRANCH  55  56
ATOM     56  O   UNL     1      14.568  28.869  21.249  1.00  0.00    -0.388 OA
ATOM     57  H   UNL     1      14.588  28.776  22.227  1.00  0.00     0.211 HD
ENDBRANCH  55  56
BRANCH  55  58
ATOM     58  C   UNL     1      16.753  29.650  21.376  1.00  0.00     0.154 C 
BRANCH  58  59
ATOM     59  N   UNL     1      16.141  30.434  22.400  1.00  0.00    -0.319 N 
ATOM     60  C   UNL     1      16.627  30.480  23.736  1.00  0.00     0.407 C 
ATOM     61  H   UNL     1      15.280  31.017  22.173  1.00  0.00     0.167 HD
ATOM     62  O   UNL     1      17.648  29.780  23.995  1.00  0.00    -0.225 OA
BRANCH  60  63
ATOM     63  O   UNL     1      15.997  31.256  24.681  1.00  0.00    -0.443 OA
BRANCH  63  64
ATOM     64  C   UNL     1      14.991  30.700  25.524  1.00  0.00     0.294 C 
BRANCH  64  65
ATOM     65  C   UNL     1      13.725  30.670  24.759  1.00  0.00     0.120 A 
ATOM     66  C   UNL     1      12.619  31.465  24.912  1.00  0.00     0.138 A 
ATOM     67  N   UNL     1      13.442  29.820  23.756  1.00  0.00    -0.132 NA
ATOM     68  N   UNL     1      11.700  31.067  23.997  1.00  0.00    -0.249 N 
ATOM     69  N   UNL     1      12.229  30.073  23.315  1.00  0.00    -0.067 NA
BRANCH  68  70
ATOM     70  C   UNL     1      10.359  31.635  23.800  1.00  0.00     0.115 C 
BRANCH  70  71
ATOM     71  C   UNL     1      10.244  32.108  22.390  1.00  0.00     0.063 C 
BRANCH  71  72
ATOM     72  C   UNL     1       9.184  33.212  22.321  1.00  0.00     0.139 CG0
ATOM     73  G   UNL     1       7.849  32.604  22.442  1.00  0.00     0.000 G0
BRANCH  72  74
ATOM     74  O   UNL     1       9.314  33.920  21.128  1.00  0.00    -0.389 OA
ATOM     75  H   UNL     1       8.401  34.019  20.732  1.00  0.00     0.211 HD
ENDBRANCH  72  74
ENDBRANCH  71  72
ENDBRANCH  70  71
BRANCH  70  76
ATOM     76  C   UNL     1       9.346  30.576  24.106  1.00  0.00     0.063 C 
BRANCH  76  77
ATOM     77  C   UNL     1       8.074  31.303  24.556  1.00  0.00     0.139 C 
BRANCH  77  78
ATOM     78  C   UNL     1       7.337  31.802  23.364  1.00  0.00     0.002 C 
ATOM     79  C   UNL     1       7.819  32.607  22.428  1.00  0.00     0.002 CG0
ATOM     80  G   UNL     1       9.156  33.210  22.302  1.00  0.00     0.000 G0
ENDBRANCH  77  78
BRANCH  77  81
ATOM     81  O   UNL     1       7.274  30.493  25.346  1.00  0.00    -0.389 OA
ATOM     82  H   UNL     1       7.154  29.629  24.862  1.00  0.00     0.211 HD
ENDBRANCH  77  81
ENDBRANCH  76  77
ENDBRANCH  70  76
ENDBRANCH  68  70
ENDBRANCH  64  65
ENDBRANCH  63  64
ENDBRANCH  60  63
ENDBRANCH  58  59
ENDBRANCH  55  58
ENDBRANCH   1  55
TORSDOF 32
