REMARK VINA RESULT:    -5.234      5.735     13.869
REMARK INTER + INTRA:         -22.057
REMARK INTER:                 -14.101
REMARK INTRA:                  -7.956
REMARK UNBOUND:                -8.562
REMARK SMILES CC(=O)N[C@@H]1[C@@H](O)C[C@](OC[C@H]2O[C@@H](O[C@H]3[C@H](O)[C@@H](O)[C@H](OCCN=[N+]=[N-])O[C@@H]3CO)[C@H](O)[C@@H](O)[C@H]2O)(C(=O)O)O[C@H]1C(O)[C@H](O)CNC(=O)OCc1cn(Cc2ccc(C#N)cc2)nn1
REMARK SMILES IDX 9 1 8 2 6 3 5 4 42 5 41 6 10 7 11 8 12 9 14 10 13 11 32 12
REMARK SMILES IDX 34 13 36 14 15 15 16 16 29 17 28 18 21 19 17 20 19 21 30 22
REMARK SMILES IDX 31 23 22 25 23 26 24 27 25 28 26 29 27 30 18 31 20 33 33 35
REMARK SMILES IDX 35 37 37 39 38 41 39 42 40 43 7 45 43 47 44 48 45 50 46 51
REMARK SMILES IDX 47 53 48 54 49 55 50 57 51 58 52 59 53 60 54 61 66 62 55 63
REMARK SMILES IDX 65 64 56 65 57 66 58 67 64 68 59 69 63 70 60 71 61 72 62 73
REMARK SMILES IDX 4 74 2 75 1 77 3 78
REMARK H PARENT 31 24 18 32 20 34 33 36 35 38 37 40 40 44 7 46 44 49 46 52
REMARK H PARENT 48 56 4 76
REMARK Flexibility Score: inf
ROOT
ATOM      1  C   UNL     1      16.410  29.719  21.354  1.00  0.00     0.272 C 
ATOM      2  C   UNL     1      15.400  28.708  20.937  1.00  0.00     0.113 C 
ATOM      3  C   UNL     1      15.418  28.346  19.495  1.00  0.00     0.145 C 
ATOM      4  C   UNL     1      15.894  29.578  18.706  1.00  0.00     0.142 C 
ATOM      5  C   UNL     1      15.507  30.772  19.525  1.00  0.00     0.178 C 
ATOM      6  O   UNL     1      16.344  30.899  20.596  1.00  0.00    -0.332 OA
ENDROOT
BRANCH   1   7
ATOM      7  O   UNL     1      17.713  29.278  21.433  1.00  0.00    -0.338 OA
BRANCH   7   8
ATOM      8  C   UNL     1      18.640  30.249  21.610  1.00  0.00     0.199 C 
BRANCH   8   9
ATOM      9  C   UNL     1      20.015  29.847  21.046  1.00  0.00     0.179 C 
ATOM     10  C   UNL     1      21.232  27.942  20.583  1.00  0.00     0.282 C 
ATOM     11  O   UNL     1      20.116  28.468  21.233  1.00  0.00    -0.341 OA
ATOM     12  C   UNL     1      21.192  28.128  19.101  1.00  0.00     0.202 C 
ATOM     13  C   UNL     1      19.956  28.913  18.728  1.00  0.00     0.179 C 
ATOM     14  C   UNL     1      19.998  30.176  19.576  1.00  0.00     0.177 C 
BRANCH  10  15
ATOM     15  O   UNL     1      21.245  26.575  20.849  1.00  0.00    -0.341 OA
BRANCH  15  16
ATOM     16  C   UNL     1      22.450  26.131  21.389  1.00  0.00     0.184 C 
ATOM     17  C   UNL     1      22.267  24.777  21.976  1.00  0.00     0.178 C 
ATOM     18  O   UNL     1      22.035  24.723  23.320  1.00  0.00    -0.341 OA
ATOM     19  C   UNL     1      21.784  25.916  23.949  1.00  0.00     0.281 C 
ATOM     20  C   UNL     1      23.086  27.141  22.289  1.00  0.00     0.180 C 
ATOM     21  C   UNL     1      22.975  26.828  23.758  1.00  0.00     0.202 C 
BRANCH  17  22
ATOM     22  C   UNL     1      23.433  23.886  21.556  1.00  0.00     0.191 C 
BRANCH  22  23
ATOM     23  O   UNL     1      24.342  23.853  22.614  1.00  0.00    -0.394 OA
ATOM     24  H   UNL     1      23.870  23.717  23.491  1.00  0.00     0.210 HD
ENDBRANCH  22  23
ENDBRANCH  17  22
BRANCH  19  25
ATOM     25  O   UNL     1      21.689  25.623  25.325  1.00  0.00    -0.350 OA
BRANCH  25  26
ATOM     26  C   UNL     1      22.567  24.606  25.674  1.00  0.00     0.169 C 
BRANCH  26  27
ATOM     27  C   UNL     1      22.949  24.700  27.138  1.00  0.00     0.119 C 
BRANCH  27  28
ATOM     28  N   UNL     1      22.394  25.880  27.775  1.00  0.00    -0.092 NA
ATOM     29  N   UNL     1      22.223  25.901  28.983  1.00  0.00     0.001 N 
ATOM     30  N   UNL     1      22.362  26.267  30.160  1.00  0.00    -0.003 NA
ENDBRANCH  27  28
ENDBRANCH  26  27
ENDBRANCH  25  26
ENDBRANCH  19  25
BRANCH  20  31
ATOM     31  O   UNL     1      24.411  27.427  21.940  1.00  0.00    -0.387 OA
ATOM     32  H   UNL     1      24.611  28.392  22.118  1.00  0.00     0.211 HD
ENDBRANCH  20  31
BRANCH  21  33
ATOM     33  O   UNL     1      22.843  27.985  24.529  1.00  0.00    -0.385 OA
ATOM     34  H   UNL     1      23.041  28.750  23.928  1.00  0.00     0.211 HD
ENDBRANCH  21  33
ENDBRANCH  15  16
ENDBRANCH  10  15
BRANCH  12  35
ATOM     35  O   UNL     1      22.291  28.765  18.570  1.00  0.00    -0.385 OA
ATOM     36  H   UNL     1      22.085  29.733  18.434  1.00  0.00     0.211 HD
ENDBRANCH  12  35
BRANCH  13  37
ATOM     37  O   UNL     1      18.846  28.130  19.000  1.00  0.00    -0.387 OA
ATOM     38  H   UNL     1      18.762  27.844  19.936  1.00  0.00     0.211 HD
ENDBRANCH  13  37
BRANCH  14  39
ATOM     39  O   UNL     1      19.033  31.093  19.238  1.00  0.00    -0.387 OA
ATOM     40  H   UNL     1      18.838  31.036  18.278  1.00  0.00     0.211 HD
ENDBRANCH  14  39
ENDBRANCH   8   9
ENDBRANCH   7   8
ENDBRANCH   1   7
BRANCH   1  41
ATOM     41  C   UNL     1      16.004  30.179  22.724  1.00  0.00     0.364 C 
ATOM     42  O   UNL     1      15.441  31.268  22.873  1.00  0.00    -0.246 OA
BRANCH  41  43
ATOM     43  O   UNL     1      16.271  29.364  23.799  1.00  0.00    -0.477 OA
ATOM     44  H   UNL     1      17.125  28.830  23.906  1.00  0.00     0.296 HD
ENDBRANCH  41  43
ENDBRANCH   1  41
BRANCH   3  45
ATOM     45  O   UNL     1      16.093  27.207  19.159  1.00  0.00    -0.391 OA
ATOM     46  H   UNL     1      16.323  26.680  19.951  1.00  0.00     0.211 HD
ENDBRANCH   3  45
BRANCH   5  47
ATOM     47  C   UNL     1      15.445  32.068  18.706  1.00  0.00     0.176 C 
BRANCH  47  48
ATOM     48  O   UNL     1      14.185  32.022  18.064  1.00  0.00    -0.388 OA
ATOM     49  H   UNL     1      14.008  31.082  17.811  1.00  0.00     0.211 HD
ENDBRANCH  47  48
BRANCH  47  50
ATOM     50  C   UNL     1      15.506  33.257  19.557  1.00  0.00     0.165 C 
BRANCH  50  51
ATOM     51  O   UNL     1      14.611  34.268  19.091  1.00  0.00    -0.388 OA
ATOM     52  H   UNL     1      13.702  33.845  19.199  1.00  0.00     0.211 HD
ENDBRANCH  50  51
BRANCH  50  53
ATOM     53  C   UNL     1      16.833  33.857  19.806  1.00  0.00     0.154 C 
BRANCH  53  54
ATOM     54  N   UNL     1      17.639  33.486  20.884  1.00  0.00    -0.319 N 
ATOM     55  C   UNL     1      17.585  33.876  22.236  1.00  0.00     0.407 C 
ATOM     56  H   UNL     1      18.438  32.791  20.674  1.00  0.00     0.167 HD
ATOM     57  O   UNL     1      16.728  34.647  22.689  1.00  0.00    -0.225 OA
BRANCH  55  58
ATOM     58  O   UNL     1      18.522  33.395  23.164  1.00  0.00    -0.443 OA
BRANCH  58  59
ATOM     59  C   UNL     1      18.442  33.793  24.522  1.00  0.00     0.294 C 
BRANCH  59  60
ATOM     60  C   UNL     1      17.632  32.763  25.264  1.00  0.00     0.120 A 
ATOM     61  C   UNL     1      16.455  33.038  25.928  1.00  0.00     0.138 A 
ATOM     62  N   UNL     1      17.867  31.450  25.438  1.00  0.00    -0.132 NA
ATOM     63  N   UNL     1      16.012  31.881  26.486  1.00  0.00    -0.248 N 
ATOM     64  N   UNL     1      16.880  30.979  26.166  1.00  0.00    -0.067 NA
BRANCH  63  65
ATOM     65  C   UNL     1      14.796  31.814  27.281  1.00  0.00     0.181 C 
BRANCH  65  66
ATOM     66  C   UNL     1      13.677  31.798  26.269  1.00  0.00    -0.026 A 
ATOM     67  C   UNL     1      12.954  32.949  26.082  1.00  0.00     0.007 A 
ATOM     68  C   UNL     1      13.399  30.630  25.554  1.00  0.00     0.007 A 
ATOM     69  C   UNL     1      11.913  33.027  25.184  1.00  0.00     0.020 A 
ATOM     70  C   UNL     1      12.362  30.708  24.659  1.00  0.00     0.020 A 
ATOM     71  C   UNL     1      11.649  31.848  24.478  1.00  0.00     0.052 A 
BRANCH  71  72
ATOM     72  C   UNL     1      10.538  31.898  23.535  1.00  0.00     0.099 C 
ATOM     73  N   UNL     1       9.664  31.946  22.768  1.00  0.00    -0.192 NA
ENDBRANCH  71  72
ENDBRANCH  65  66
ENDBRANCH  63  65
ENDBRANCH  59  60
ENDBRANCH  58  59
ENDBRANCH  55  58
ENDBRANCH  53  54
ENDBRANCH  50  53
ENDBRANCH  47  50
ENDBRANCH   5  47
BRANCH   4  74
ATOM     74  N   UNL     1      15.344  29.555  17.374  1.00  0.00    -0.348 N 
ATOM     75  C   UNL     1      16.149  29.058  16.315  1.00  0.00     0.217 C 
ATOM     76  H   UNL     1      14.390  29.882  17.159  1.00  0.00     0.163 HD
ATOM     77  C   UNL     1      15.656  29.002  14.927  1.00  0.00     0.114 C 
ATOM     78  O   UNL     1      17.335  28.641  16.533  1.00  0.00    -0.275 OA
ENDBRANCH   4  74
TORSDOF 32
