REMARK VINA RESULT:    -6.035      4.430     10.238
REMARK INTER + INTRA:         -21.632
REMARK INTER:                 -16.422
REMARK INTRA:                  -5.210
REMARK UNBOUND:                -6.778
REMARK SMILES CC(=O)N[C@@H]1[C@@H](O)C[C@](OC[C@H]2O[C@@H](O[C@H]3[C@H](O)[C@@H](O)[C@H](OCCN=[N+]=[N-])O[C@@H]3CO)[C@H](O)[C@@H](O)[C@H]2O)(C(=O)O)O[C@H]1C(O)[C@H](O)CNC(=O)OCc1cn(-c2ccc3c(c2)OCO3)nn1
REMARK SMILES IDX 9 1 8 2 6 3 5 4 42 5 41 6 10 7 11 8 12 9 14 10 13 11 32 12
REMARK SMILES IDX 34 13 36 14 15 15 16 16 29 17 28 18 21 19 17 20 19 21 30 22
REMARK SMILES IDX 31 23 22 25 23 26 24 27 25 28 26 29 27 30 18 31 20 33 33 35
REMARK SMILES IDX 35 37 37 39 38 41 39 42 40 43 7 45 43 47 44 48 45 50 46 51
REMARK SMILES IDX 47 53 48 54 49 55 50 57 51 58 52 59 53 60 54 61 66 62 55 63
REMARK SMILES IDX 65 64 56 65 57 66 61 67 58 68 60 69 59 70 62 71 64 72 63 73
REMARK SMILES IDX 4 74 2 75 1 77 3 78
REMARK H PARENT 31 24 18 32 20 34 33 36 35 38 37 40 40 44 7 46 44 49 46 52
REMARK H PARENT 48 56 4 76
REMARK Flexibility Score: inf
ROOT
ATOM      1  C   UNL     1      24.553  25.304  20.069  1.00  0.00     0.272 C 
ATOM      2  C   UNL     1      24.537  24.166  21.051  1.00  0.00     0.113 C 
ATOM      3  C   UNL     1      23.117  23.872  21.570  1.00  0.00     0.145 C 
ATOM      4  C   UNL     1      22.743  25.081  22.402  1.00  0.00     0.142 C 
ATOM      5  C   UNL     1      22.951  26.279  21.499  1.00  0.00     0.178 C 
ATOM      6  O   UNL     1      23.317  25.992  20.227  1.00  0.00    -0.332 OA
ENDROOT
BRANCH   1   7
ATOM      7  O   UNL     1      24.582  24.934  18.799  1.00  0.00    -0.338 OA
BRANCH   7   8
ATOM      8  C   UNL     1      23.820  25.166  17.775  1.00  0.00     0.199 C 
BRANCH   8   9
ATOM      9  C   UNL     1      24.327  25.086  16.360  1.00  0.00     0.179 C 
ATOM     10  C   UNL     1      25.070  23.464  14.864  1.00  0.00     0.282 C 
ATOM     11  O   UNL     1      24.865  23.840  16.166  1.00  0.00    -0.341 OA
ATOM     12  C   UNL     1      24.923  24.572  13.876  1.00  0.00     0.202 C 
ATOM     13  C   UNL     1      23.575  25.261  13.997  1.00  0.00     0.179 C 
ATOM     14  C   UNL     1      23.111  25.275  15.418  1.00  0.00     0.177 C 
BRANCH  10  15
ATOM     15  O   UNL     1      24.079  22.513  14.552  1.00  0.00    -0.341 OA
BRANCH  15  16
ATOM     16  C   UNL     1      24.566  21.235  14.457  1.00  0.00     0.184 C 
ATOM     17  C   UNL     1      25.590  21.169  13.353  1.00  0.00     0.178 C 
ATOM     18  O   UNL     1      25.054  20.951  12.107  1.00  0.00    -0.341 OA
ATOM     19  C   UNL     1      23.755  21.446  11.978  1.00  0.00     0.281 C 
ATOM     20  C   UNL     1      23.389  20.324  14.198  1.00  0.00     0.180 C 
ATOM     21  C   UNL     1      22.784  20.711  12.867  1.00  0.00     0.202 C 
BRANCH  17  22
ATOM     22  C   UNL     1      26.613  20.070  13.606  1.00  0.00     0.191 C 
BRANCH  22  23
ATOM     23  O   UNL     1      26.677  19.740  14.954  1.00  0.00    -0.394 OA
ATOM     24  H   UNL     1      27.574  19.954  15.358  1.00  0.00     0.210 HD
ENDBRANCH  22  23
ENDBRANCH  17  22
BRANCH  19  25
ATOM     25  O   UNL     1      23.392  21.211  10.659  1.00  0.00    -0.350 OA
BRANCH  25  26
ATOM     26  C   UNL     1      23.472  22.406   9.952  1.00  0.00     0.169 C 
BRANCH  26  27
ATOM     27  C   UNL     1      22.129  23.127   9.938  1.00  0.00     0.119 C 
BRANCH  27  28
ATOM     28  N   UNL     1      22.335  24.377   9.191  1.00  0.00    -0.092 NA
ATOM     29  N   UNL     1      22.446  25.447   9.827  1.00  0.00     0.001 N 
ATOM     30  N   UNL     1      22.482  26.394  10.632  1.00  0.00    -0.003 NA
ENDBRANCH  27  28
ENDBRANCH  26  27
ENDBRANCH  25  26
ENDBRANCH  19  25
BRANCH  20  31
ATOM     31  O   UNL     1      23.708  18.983  14.266  1.00  0.00    -0.387 OA
ATOM     32  H   UNL     1      24.688  18.805  14.372  1.00  0.00     0.211 HD
ENDBRANCH  20  31
BRANCH  21  33
ATOM     33  O   UNL     1      21.716  21.572  13.127  1.00  0.00    -0.385 OA
ATOM     34  H   UNL     1      22.003  22.509  13.274  1.00  0.00     0.211 HD
ENDBRANCH  21  33
ENDBRANCH  15  16
ENDBRANCH  10  15
BRANCH  12  35
ATOM     35  O   UNL     1      25.923  25.539  13.942  1.00  0.00    -0.385 OA
ATOM     36  H   UNL     1      25.638  26.232  14.616  1.00  0.00     0.211 HD
ENDBRANCH  12  35
BRANCH  13  37
ATOM     37  O   UNL     1      22.668  24.574  13.187  1.00  0.00    -0.387 OA
ATOM     38  H   UNL     1      22.022  24.038  13.682  1.00  0.00     0.211 HD
ENDBRANCH  13  37
BRANCH  14  39
ATOM     39  O   UNL     1      22.211  24.229  15.600  1.00  0.00    -0.387 OA
ATOM     40  H   UNL     1      21.657  24.043  14.824  1.00  0.00     0.211 HD
ENDBRANCH  14  39
ENDBRANCH   8   9
ENDBRANCH   7   8
ENDBRANCH   1   7
BRANCH   1  41
ATOM     41  C   UNL     1      25.609  26.305  20.428  1.00  0.00     0.364 C 
ATOM     42  O   UNL     1      25.805  27.236  19.571  1.00  0.00    -0.246 OA
BRANCH  41  43
ATOM     43  O   UNL     1      26.362  26.309  21.558  1.00  0.00    -0.477 OA
ATOM     44  H   UNL     1      27.017  25.583  21.804  1.00  0.00     0.296 HD
ENDBRANCH  41  43
ENDBRANCH   1  41
BRANCH   3  45
ATOM     45  O   UNL     1      22.317  23.780  20.423  1.00  0.00    -0.391 OA
ATOM     46  H   UNL     1      21.545  23.197  20.589  1.00  0.00     0.211 HD
ENDBRANCH   3  45
BRANCH   5  47
ATOM     47  C   UNL     1      21.554  26.925  21.386  1.00  0.00     0.176 C 
BRANCH  47  48
ATOM     48  O   UNL     1      20.562  26.150  21.913  1.00  0.00    -0.388 OA
ATOM     49  H   UNL     1      19.647  26.420  21.652  1.00  0.00     0.211 HD
ENDBRANCH  47  48
BRANCH  47  50
ATOM     50  C   UNL     1      21.536  28.304  22.033  1.00  0.00     0.165 C 
BRANCH  50  51
ATOM     51  O   UNL     1      21.193  28.268  23.343  1.00  0.00    -0.388 OA
ATOM     52  H   UNL     1      21.119  29.127  23.808  1.00  0.00     0.211 HD
ENDBRANCH  50  51
BRANCH  50  53
ATOM     53  C   UNL     1      20.587  29.132  21.224  1.00  0.00     0.154 C 
BRANCH  53  54
ATOM     54  N   UNL     1      19.875  28.360  20.254  1.00  0.00    -0.319 N 
ATOM     55  C   UNL     1      19.573  28.766  18.929  1.00  0.00     0.407 C 
ATOM     56  H   UNL     1      19.510  27.372  20.497  1.00  0.00     0.167 HD
ATOM     57  O   UNL     1      19.944  29.878  18.500  1.00  0.00    -0.225 OA
BRANCH  55  58
ATOM     58  O   UNL     1      18.854  27.940  18.061  1.00  0.00    -0.443 OA
BRANCH  58  59
ATOM     59  C   UNL     1      17.538  28.199  17.654  1.00  0.00     0.294 C 
BRANCH  59  60
ATOM     60  C   UNL     1      16.673  28.307  18.878  1.00  0.00     0.121 A 
ATOM     61  C   UNL     1      15.660  29.247  19.079  1.00  0.00     0.144 A 
ATOM     62  N   UNL     1      16.684  27.553  19.984  1.00  0.00    -0.131 NA
ATOM     63  N   UNL     1      15.103  29.027  20.290  1.00  0.00    -0.220 N 
ATOM     64  N   UNL     1      15.756  27.993  20.797  1.00  0.00    -0.062 NA
BRANCH  63  65
ATOM     65  C   UNL     1      14.048  29.726  20.902  1.00  0.00     0.070 A 
ATOM     66  C   UNL     1      13.608  30.913  20.386  1.00  0.00     0.032 A 
ATOM     67  C   UNL     1      13.441  29.224  22.028  1.00  0.00     0.079 A 
ATOM     68  C   UNL     1      12.552  31.598  21.006  1.00  0.00     0.053 A 
ATOM     69  C   UNL     1      12.403  29.884  22.650  1.00  0.00     0.167 A 
ATOM     70  C   UNL     1      11.964  31.074  22.130  1.00  0.00     0.165 A 
ATOM     71  O   UNL     1      11.660  29.572  23.767  1.00  0.00    -0.454 OA
ATOM     72  O   UNL     1      10.922  31.529  22.928  1.00  0.00    -0.454 OA
ATOM     73  C   UNL     1      10.927  30.758  24.098  1.00  0.00     0.468 C 
ENDBRANCH  63  65
ENDBRANCH  59  60
ENDBRANCH  58  59
ENDBRANCH  55  58
ENDBRANCH  53  54
ENDBRANCH  50  53
ENDBRANCH  47  50
ENDBRANCH   5  47
BRANCH   4  74
ATOM     74  N   UNL     1      23.533  25.098  23.595  1.00  0.00    -0.348 N 
ATOM     75  C   UNL     1      22.969  25.476  24.870  1.00  0.00     0.217 C 
ATOM     76  H   UNL     1      24.544  24.852  23.645  1.00  0.00     0.163 HD
ATOM     77  C   UNL     1      23.800  25.489  26.103  1.00  0.00     0.114 C 
ATOM     78  O   UNL     1      21.776  25.792  24.931  1.00  0.00    -0.275 OA
ENDBRANCH   4  74
TORSDOF 30
