REMARK VINA RESULT:    -6.772      6.591     13.944
REMARK INTER + INTRA:         -22.810
REMARK INTER:                 -15.554
REMARK INTRA:                  -7.255
REMARK UNBOUND:                -5.152
REMARK SMILES CC(=O)N[C@@H]1[C@@H](O)C[C@](OC[C@H]2O[C@@H](O[C@H]3[C@H](O)[C@@H](O)[C@H](OCCN=[N+]=[N-])O[C@@H]3CO)[C@H](O)[C@@H](O)[C@H]2O)(C(=O)O)O[C@H]1C(O)[C@H](O)CNC(=O)OCc1cn(CC(O)c2ccccc2)nn1
REMARK SMILES IDX 9 1 8 2 6 3 5 4 42 5 41 6 10 7 11 8 12 9 14 10 13 11 32 12
REMARK SMILES IDX 34 13 36 14 15 15 16 16 29 17 28 18 21 19 17 20 19 21 30 22
REMARK SMILES IDX 31 23 22 25 23 26 24 27 25 28 26 29 27 30 18 31 20 33 33 35
REMARK SMILES IDX 35 37 37 39 38 41 39 42 40 43 7 45 43 47 44 48 45 50 46 51
REMARK SMILES IDX 47 53 48 54 49 55 50 57 51 58 52 59 53 60 54 61 66 62 55 63
REMARK SMILES IDX 65 64 56 65 57 66 58 67 59 69 60 70 64 71 61 72 63 73 62 74
REMARK SMILES IDX 4 75 2 76 1 78 3 79
REMARK H PARENT 31 24 18 32 20 34 33 36 35 38 37 40 40 44 7 46 44 49 46 52
REMARK H PARENT 48 56 58 68 4 77
REMARK Flexibility Score: inf
ROOT
ATOM      1  C   UNL     1      19.620  19.010  10.762  1.00  0.00     0.272 C 
ATOM      2  C   UNL     1      19.071  18.165   9.674  1.00  0.00     0.113 C 
ATOM      3  C   UNL     1      19.842  18.120   8.402  1.00  0.00     0.145 C 
ATOM      4  C   UNL     1      20.837  19.237   8.392  1.00  0.00     0.142 C 
ATOM      5  C   UNL     1      20.168  20.452   9.009  1.00  0.00     0.178 C 
ATOM      6  O   UNL     1      19.828  20.321  10.320  1.00  0.00    -0.332 OA
ENDROOT
BRANCH   1   7
ATOM      7  O   UNL     1      20.778  18.605  11.355  1.00  0.00    -0.338 OA
BRANCH   7   8
ATOM      8  C   UNL     1      21.398  19.462  12.210  1.00  0.00     0.199 C 
BRANCH   8   9
ATOM      9  C   UNL     1      22.498  18.771  12.983  1.00  0.00     0.179 C 
ATOM     10  C   UNL     1      24.384  17.533  12.534  1.00  0.00     0.282 C 
ATOM     11  O   UNL     1      23.072  17.769  12.225  1.00  0.00    -0.341 OA
ATOM     12  C   UNL     1      25.322  18.687  12.258  1.00  0.00     0.202 C 
ATOM     13  C   UNL     1      24.566  19.973  12.511  1.00  0.00     0.179 C 
ATOM     14  C   UNL     1      23.527  19.676  13.573  1.00  0.00     0.177 C 
BRANCH  10  15
ATOM     15  O   UNL     1      24.903  16.459  11.819  1.00  0.00    -0.341 OA
BRANCH  15  16
ATOM     16  C   UNL     1      24.011  15.789  11.028  1.00  0.00     0.184 C 
ATOM     17  C   UNL     1      24.413  14.320  11.061  1.00  0.00     0.178 C 
ATOM     18  O   UNL     1      25.130  13.974   9.934  1.00  0.00    -0.341 OA
ATOM     19  C   UNL     1      26.160  14.919   9.773  1.00  0.00     0.281 C 
ATOM     20  C   UNL     1      24.143  16.371   9.626  1.00  0.00     0.180 C 
ATOM     21  C   UNL     1      25.537  16.124   9.076  1.00  0.00     0.202 C 
BRANCH  17  22
ATOM     22  C   UNL     1      23.197  13.431  11.252  1.00  0.00     0.191 C 
BRANCH  22  23
ATOM     23  O   UNL     1      22.109  13.895  10.520  1.00  0.00    -0.394 OA
ATOM     24  H   UNL     1      21.788  14.776  10.846  1.00  0.00     0.210 HD
ENDBRANCH  22  23
ENDBRANCH  17  22
BRANCH  19  25
ATOM     25  O   UNL     1      27.139  14.315   9.024  1.00  0.00    -0.350 OA
BRANCH  25  26
ATOM     26  C   UNL     1      28.400  14.332   9.572  1.00  0.00     0.169 C 
BRANCH  26  27
ATOM     27  C   UNL     1      29.416  15.092   8.765  1.00  0.00     0.119 C 
BRANCH  27  28
ATOM     28  N   UNL     1      29.218  16.534   8.945  1.00  0.00    -0.092 NA
ATOM     29  N   UNL     1      29.743  17.004   9.967  1.00  0.00     0.001 N 
ATOM     30  N   UNL     1      30.299  17.710  10.807  1.00  0.00    -0.003 NA
ENDBRANCH  27  28
ENDBRANCH  26  27
ENDBRANCH  25  26
ENDBRANCH  19  25
BRANCH  20  31
ATOM     31  O   UNL     1      23.185  15.819   8.786  1.00  0.00    -0.387 OA
ATOM     32  H   UNL     1      23.558  15.006   8.341  1.00  0.00     0.211 HD
ENDBRANCH  20  31
BRANCH  21  33
ATOM     33  O   UNL     1      26.320  17.259   9.178  1.00  0.00    -0.385 OA
ATOM     34  H   UNL     1      26.099  17.848   8.415  1.00  0.00     0.211 HD
ENDBRANCH  21  33
ENDBRANCH  15  16
ENDBRANCH  10  15
BRANCH  12  35
ATOM     35  O   UNL     1      26.401  18.607  13.145  1.00  0.00    -0.385 OA
ATOM     36  H   UNL     1      26.839  19.501  13.155  1.00  0.00     0.211 HD
ENDBRANCH  12  35
BRANCH  13  37
ATOM     37  O   UNL     1      23.964  20.314  11.302  1.00  0.00    -0.387 OA
ATOM     38  H   UNL     1      23.107  19.879  11.146  1.00  0.00     0.211 HD
ENDBRANCH  13  37
BRANCH  14  39
ATOM     39  O   UNL     1      23.010  20.794  14.181  1.00  0.00    -0.387 OA
ATOM     40  H   UNL     1      23.001  21.599  13.601  1.00  0.00     0.211 HD
ENDBRANCH  14  39
ENDBRANCH   8   9
ENDBRANCH   7   8
ENDBRANCH   1   7
BRANCH   1  41
ATOM     41  C   UNL     1      18.495  19.147  11.776  1.00  0.00     0.364 C 
ATOM     42  O   UNL     1      18.138  20.255  12.143  1.00  0.00    -0.246 OA
BRANCH  41  43
ATOM     43  O   UNL     1      17.938  17.964  12.227  1.00  0.00    -0.477 OA
ATOM     44  H   UNL     1      17.333  17.483  11.596  1.00  0.00     0.296 HD
ENDBRANCH  41  43
ENDBRANCH   1  41
BRANCH   3  45
ATOM     45  O   UNL     1      20.411  16.865   8.179  1.00  0.00    -0.391 OA
ATOM     46  H   UNL     1      20.561  16.805   7.194  1.00  0.00     0.211 HD
ENDBRANCH   3  45
BRANCH   5  47
ATOM     47  C   UNL     1      21.068  21.621   8.700  1.00  0.00     0.176 C 
BRANCH  47  48
ATOM     48  O   UNL     1      22.346  21.346   9.212  1.00  0.00    -0.388 OA
ATOM     49  H   UNL     1      22.876  20.965   8.457  1.00  0.00     0.211 HD
ENDBRANCH  47  48
BRANCH  47  50
ATOM     50  C   UNL     1      20.522  22.914   9.207  1.00  0.00     0.165 C 
BRANCH  50  51
ATOM     51  O   UNL     1      19.581  23.457   8.375  1.00  0.00    -0.388 OA
ATOM     52  H   UNL     1      19.405  22.955   7.564  1.00  0.00     0.211 HD
ENDBRANCH  50  51
BRANCH  50  53
ATOM     53  C   UNL     1      21.560  23.872   9.730  1.00  0.00     0.154 C 
BRANCH  53  54
ATOM     54  N   UNL     1      21.867  23.756  11.125  1.00  0.00    -0.319 N 
ATOM     55  C   UNL     1      23.156  23.444  11.649  1.00  0.00     0.407 C 
ATOM     56  H   UNL     1      21.092  23.919  11.845  1.00  0.00     0.167 HD
ATOM     57  O   UNL     1      24.122  23.257  10.890  1.00  0.00    -0.225 OA
BRANCH  55  58
ATOM     58  O   UNL     1      23.368  23.341  13.006  1.00  0.00    -0.443 OA
BRANCH  58  59
ATOM     59  C   UNL     1      24.287  24.166  13.721  1.00  0.00     0.294 C 
BRANCH  59  60
ATOM     60  C   UNL     1      23.610  24.734  14.929  1.00  0.00     0.120 A 
ATOM     61  C   UNL     1      24.131  25.074  16.151  1.00  0.00     0.138 A 
ATOM     62  N   UNL     1      22.292  25.027  14.980  1.00  0.00    -0.132 NA
ATOM     63  N   UNL     1      23.125  25.571  16.931  1.00  0.00    -0.249 N 
ATOM     64  N   UNL     1      22.055  25.516  16.172  1.00  0.00    -0.067 NA
BRANCH  63  65
ATOM     65  C   UNL     1      23.265  26.048  18.298  1.00  0.00     0.182 C 
BRANCH  65  66
ATOM     66  C   UNL     1      22.803  24.978  19.271  1.00  0.00     0.166 C 
BRANCH  66  67
ATOM     67  O   UNL     1      22.384  23.905  18.450  1.00  0.00    -0.386 OA
ATOM     68  H   UNL     1      22.869  23.939  17.580  1.00  0.00     0.211 HD
ENDBRANCH  66  67
BRANCH  66  69
ATOM     69  C   UNL     1      23.839  24.528  20.206  1.00  0.00    -0.018 A 
ATOM     70  C   UNL     1      23.565  24.102  21.469  1.00  0.00     0.006 A 
ATOM     71  C   UNL     1      25.153  24.578  19.720  1.00  0.00     0.006 A 
ATOM     72  C   UNL     1      24.622  23.713  22.277  1.00  0.00     0.000 A 
ATOM     73  C   UNL     1      26.179  24.189  20.538  1.00  0.00     0.000 A 
ATOM     74  C   UNL     1      25.919  23.755  21.823  1.00  0.00     0.000 A 
ENDBRANCH  66  69
ENDBRANCH  65  66
ENDBRANCH  63  65
ENDBRANCH  59  60
ENDBRANCH  58  59
ENDBRANCH  55  58
ENDBRANCH  53  54
ENDBRANCH  50  53
ENDBRANCH  47  50
ENDBRANCH   5  47
BRANCH   4  75
ATOM     75  N   UNL     1      21.136  19.635   7.007  1.00  0.00    -0.348 N 
ATOM     76  C   UNL     1      22.188  19.050   6.259  1.00  0.00     0.217 C 
ATOM     77  H   UNL     1      20.568  20.374   6.541  1.00  0.00     0.163 HD
ATOM     78  C   UNL     1      22.520  19.426   4.861  1.00  0.00     0.114 C 
ATOM     79  O   UNL     1      22.880  18.154   6.818  1.00  0.00    -0.275 OA
ENDBRANCH   4  75
TORSDOF 33
