REMARK VINA RESULT:    -6.407      4.267     11.398
REMARK INTER + INTRA:         -24.109
REMARK INTER:                 -15.732
REMARK INTRA:                  -8.378
REMARK UNBOUND:                -7.402
REMARK SMILES CC(=O)N[C@@H]1[C@@H](O)C[C@](OC[C@H]2O[C@@H](O[C@H]3[C@H](O)[C@@H](O)[C@H](OCCN=[N+]=[N-])O[C@@H]3CO)[C@H](O)[C@@H](O)[C@H]2O)(C(=O)O)O[C@H]1C(O)[C@H](O)CNC(=O)OCc1cn(-c2ccc(S(=O)(=O)c3ccc(N)cc3)cc2)nn1
REMARK SMILES IDX 43 1 42 2 9 3 8 4 41 5 6 6 5 7 10 8 11 9 12 10 14 11 13 12
REMARK SMILES IDX 32 13 34 14 36 15 15 16 16 17 29 18 28 19 21 20 17 21 19 22
REMARK SMILES IDX 30 23 31 24 22 26 23 27 24 28 25 29 26 30 27 31 18 32 20 34
REMARK SMILES IDX 33 36 35 38 37 40 38 42 39 43 40 44 7 46 4 48 2 49 1 51 3 52
REMARK SMILES IDX 44 53 45 55 46 56 47 58 48 59 49 60 50 62 51 63 52 64 53 65
REMARK SMILES IDX 54 66 73 67 55 68 72 69 56 70 57 71 71 72 58 73 70 74 59 75
REMARK SMILES IDX 60 76 61 77 62 78 63 79 64 80 69 81 65 82 68 83 66 84 67 85
REMARK H PARENT 31 25 18 33 20 35 33 37 35 39 37 41 40 45 7 47 4 50 44 54
REMARK H PARENT 46 57 48 61 67 86 67 87
REMARK Flexibility Score: inf
ROOT
ATOM      1  C   UNL     1      22.912  27.581  15.752  1.00  0.00     0.176 C 
ENDROOT
BRANCH   1   2
ATOM      2  C   UNL     1      23.273  26.339  16.566  1.00  0.00     0.178 C 
ATOM      3  C   UNL     1      24.137  25.617  18.587  1.00  0.00     0.272 C 
ATOM      4  C   UNL     1      24.988  24.611  17.882  1.00  0.00     0.113 C 
ATOM      5  O   UNL     1      23.852  26.706  17.743  1.00  0.00    -0.332 OA
ATOM      6  C   UNL     1      25.418  25.193  16.545  1.00  0.00     0.145 C 
ATOM      7  C   UNL     1      24.198  25.445  15.725  1.00  0.00     0.142 C 
BRANCH   3   8
ATOM      8  O   UNL     1      24.726  26.205  19.710  1.00  0.00    -0.338 OA
BRANCH   8   9
ATOM      9  C   UNL     1      25.578  25.421  20.427  1.00  0.00     0.199 C 
BRANCH   9  10
ATOM     10  C   UNL     1      25.540  25.834  21.881  1.00  0.00     0.179 C 
ATOM     11  C   UNL     1      24.533  27.241  23.371  1.00  0.00     0.282 C 
ATOM     12  O   UNL     1      24.478  26.731  22.047  1.00  0.00    -0.341 OA
ATOM     13  C   UNL     1      24.093  26.106  24.252  1.00  0.00     0.202 C 
ATOM     14  C   UNL     1      25.138  25.015  24.201  1.00  0.00     0.179 C 
ATOM     15  C   UNL     1      25.394  24.635  22.753  1.00  0.00     0.177 C 
BRANCH  11  16
ATOM     16  O   UNL     1      23.749  28.364  23.418  1.00  0.00    -0.341 OA
BRANCH  16  17
ATOM     17  C   UNL     1      22.780  28.345  22.387  1.00  0.00     0.184 C 
ATOM     18  C   UNL     1      22.483  29.761  22.011  1.00  0.00     0.178 C 
ATOM     19  O   UNL     1      21.159  30.111  22.032  1.00  0.00    -0.341 OA
ATOM     20  C   UNL     1      20.442  29.807  23.152  1.00  0.00     0.281 C 
ATOM     21  C   UNL     1      21.573  27.662  23.016  1.00  0.00     0.180 C 
ATOM     22  C   UNL     1      21.002  28.677  23.986  1.00  0.00     0.202 C 
BRANCH  18  23
ATOM     23  C   UNL     1      22.928  29.905  20.543  1.00  0.00     0.191 C 
BRANCH  23  24
ATOM     24  O   UNL     1      23.452  28.744  20.031  1.00  0.00    -0.394 OA
ATOM     25  H   UNL     1      22.821  27.983  19.997  1.00  0.00     0.210 HD
ENDBRANCH  23  24
ENDBRANCH  18  23
BRANCH  20  26
ATOM     26  O   UNL     1      19.173  29.410  22.746  1.00  0.00    -0.350 OA
BRANCH  26  27
ATOM     27  C   UNL     1      18.354  30.417  22.314  1.00  0.00     0.169 C 
BRANCH  27  28
ATOM     28  C   UNL     1      17.537  29.983  21.144  1.00  0.00     0.119 C 
BRANCH  28  29
ATOM     29  N   UNL     1      18.364  30.019  19.926  1.00  0.00    -0.092 NA
ATOM     30  N   UNL     1      19.048  29.052  19.595  1.00  0.00     0.001 N 
ATOM     31  N   UNL     1      19.370  27.995  19.024  1.00  0.00    -0.003 NA
ENDBRANCH  28  29
ENDBRANCH  27  28
ENDBRANCH  26  27
ENDBRANCH  20  26
BRANCH  21  32
ATOM     32  O   UNL     1      20.630  27.380  22.055  1.00  0.00    -0.387 OA
ATOM     33  H   UNL     1      19.788  27.054  22.475  1.00  0.00     0.211 HD
ENDBRANCH  21  32
BRANCH  22  34
ATOM     34  O   UNL     1      21.919  29.088  24.926  1.00  0.00    -0.385 OA
ATOM     35  H   UNL     1      22.784  28.606  24.860  1.00  0.00     0.211 HD
ENDBRANCH  22  34
ENDBRANCH  16  17
ENDBRANCH  11  16
BRANCH  13  36
ATOM     36  O   UNL     1      23.836  26.512  25.560  1.00  0.00    -0.385 OA
ATOM     37  H   UNL     1      23.109  25.903  25.906  1.00  0.00     0.211 HD
ENDBRANCH  13  36
BRANCH  14  38
ATOM     38  O   UNL     1      24.605  23.866  24.803  1.00  0.00    -0.387 OA
ATOM     39  H   UNL     1      25.318  23.244  25.035  1.00  0.00     0.211 HD
ENDBRANCH  14  38
BRANCH  15  40
ATOM     40  O   UNL     1      24.416  23.768  22.288  1.00  0.00    -0.387 OA
ATOM     41  H   UNL     1      24.314  23.859  21.313  1.00  0.00     0.211 HD
ENDBRANCH  15  40
ENDBRANCH   9  10
ENDBRANCH   8   9
ENDBRANCH   3   8
BRANCH   3  42
ATOM     42  C   UNL     1      22.830  25.074  19.044  1.00  0.00     0.364 C 
ATOM     43  O   UNL     1      22.097  25.586  19.921  1.00  0.00    -0.246 OA
BRANCH  42  44
ATOM     44  O   UNL     1      22.357  23.904  18.474  1.00  0.00    -0.477 OA
ATOM     45  H   UNL     1      21.555  23.905  17.824  1.00  0.00     0.296 HD
ENDBRANCH  42  44
ENDBRANCH   3  42
BRANCH   6  46
ATOM     46  O   UNL     1      25.997  26.433  16.836  1.00  0.00    -0.391 OA
ATOM     47  H   UNL     1      26.473  26.422  17.710  1.00  0.00     0.211 HD
ENDBRANCH   6  46
BRANCH   7  48
ATOM     48  N   UNL     1      23.493  24.281  15.292  1.00  0.00    -0.348 N 
ATOM     49  C   UNL     1      22.895  24.133  14.009  1.00  0.00     0.217 C 
ATOM     50  H   UNL     1      23.403  23.469  15.950  1.00  0.00     0.163 HD
ATOM     51  C   UNL     1      22.188  22.872  13.677  1.00  0.00     0.114 C 
ATOM     52  O   UNL     1      22.991  25.076  13.212  1.00  0.00    -0.275 OA
ENDBRANCH   7  48
ENDBRANCH   1   2
BRANCH   1  53
ATOM     53  O   UNL     1      21.932  27.295  14.815  1.00  0.00    -0.388 OA
ATOM     54  H   UNL     1      21.222  28.004  14.830  1.00  0.00     0.211 HD
ENDBRANCH   1  53
BRANCH   1  55
ATOM     55  C   UNL     1      22.621  28.757  16.601  1.00  0.00     0.165 C 
BRANCH  55  56
ATOM     56  O   UNL     1      21.761  28.421  17.650  1.00  0.00    -0.388 OA
ATOM     57  H   UNL     1      20.819  28.526  17.442  1.00  0.00     0.211 HD
ENDBRANCH  55  56
BRANCH  55  58
ATOM     58  C   UNL     1      21.908  29.839  15.818  1.00  0.00     0.154 C 
BRANCH  58  59
ATOM     59  N   UNL     1      20.532  30.009  16.191  1.00  0.00    -0.319 N 
ATOM     60  C   UNL     1      19.526  29.688  15.247  1.00  0.00     0.407 C 
ATOM     61  H   UNL     1      20.262  30.357  17.124  1.00  0.00     0.167 HD
ATOM     62  O   UNL     1      19.877  29.252  14.112  1.00  0.00    -0.225 OA
BRANCH  60  63
ATOM     63  O   UNL     1      18.174  29.817  15.472  1.00  0.00    -0.443 OA
BRANCH  63  64
ATOM     64  C   UNL     1      17.287  28.732  15.645  1.00  0.00     0.294 C 
BRANCH  64  65
ATOM     65  C   UNL     1      16.124  29.197  16.441  1.00  0.00     0.121 A 
ATOM     66  C   UNL     1      15.887  29.131  17.799  1.00  0.00     0.144 A 
ATOM     67  N   UNL     1      15.021  29.830  15.930  1.00  0.00    -0.131 NA
ATOM     68  N   UNL     1      14.678  29.714  18.068  1.00  0.00    -0.220 N 
ATOM     69  N   UNL     1      14.200  30.116  16.916  1.00  0.00    -0.062 NA
BRANCH  68  70
ATOM     70  C   UNL     1      14.053  29.879  19.322  1.00  0.00     0.066 A 
ATOM     71  C   UNL     1      14.048  28.839  20.256  1.00  0.00     0.030 A 
ATOM     72  C   UNL     1      13.423  31.038  19.701  1.00  0.00     0.030 A 
ATOM     73  C   UNL     1      13.454  28.949  21.488  1.00  0.00     0.023 A 
ATOM     74  C   UNL     1      12.816  31.157  20.953  1.00  0.00     0.023 A 
ATOM     75  C   UNL     1      12.825  30.118  21.857  1.00  0.00     0.072 A 
BRANCH  75  76
ATOM     76  S   UNL     1      12.067  30.271  23.428  1.00  0.00     0.206 S 
ATOM     77  O   UNL     1      11.477  28.922  23.807  1.00  0.00    -0.219 OA
ATOM     78  O   UNL     1      11.041  31.353  23.480  1.00  0.00    -0.219 OA
BRANCH  76  79
ATOM     79  C   UNL     1      13.319  30.588  24.630  1.00  0.00     0.072 A 
ATOM     80  C   UNL     1      14.638  30.399  24.320  1.00  0.00     0.023 A 
ATOM     81  C   UNL     1      12.988  31.025  25.891  1.00  0.00     0.023 A 
ATOM     82  C   UNL     1      15.599  30.645  25.258  1.00  0.00     0.027 A 
ATOM     83  C   UNL     1      13.964  31.267  26.824  1.00  0.00     0.027 A 
ATOM     84  C   UNL     1      15.289  31.088  26.543  1.00  0.00     0.031 A 
BRANCH  84  85
ATOM     85  N   UNL     1      16.314  31.328  27.483  1.00  0.00    -0.399 N 
ATOM     86  H   UNL     1      17.019  30.610  27.700  1.00  0.00     0.156 HD
ATOM     87  H   UNL     1      16.361  32.242  27.965  1.00  0.00     0.156 HD
ENDBRANCH  84  85
ENDBRANCH  76  79
ENDBRANCH  75  76
ENDBRANCH  68  70
ENDBRANCH  64  65
ENDBRANCH  63  64
ENDBRANCH  60  63
ENDBRANCH  58  59
ENDBRANCH  55  58
ENDBRANCH   1  55
TORSDOF 33
