REMARK VINA RESULT:    -6.368      8.676     10.607
REMARK INTER + INTRA:         -22.254
REMARK INTER:                 -14.881
REMARK INTRA:                  -7.373
REMARK UNBOUND:                -5.463
REMARK SMILES CC(=O)N[C@@H]1[C@@H](O)C[C@](OC[C@H]2O[C@@H](O[C@H]3[C@H](O)[C@@H](O)[C@H](OCCN=[N+]=[N-])O[C@@H]3CO)[C@H](O)[C@@H](O)[C@H]2O)(C(=O)O)O[C@H]1C(O)[C@H](O)CNC(=O)OCc1cn(COCc2ccccc2)nn1
REMARK SMILES IDX 43 1 42 2 9 3 8 4 41 5 6 6 5 7 10 8 11 9 12 10 14 11 13 12
REMARK SMILES IDX 32 13 34 14 36 15 15 16 16 17 29 18 28 19 21 20 17 21 19 22
REMARK SMILES IDX 30 23 31 24 22 26 23 27 24 28 25 29 26 30 27 31 18 32 20 34
REMARK SMILES IDX 33 36 35 38 37 40 38 42 39 43 40 44 7 46 4 48 2 49 1 51 3 52
REMARK SMILES IDX 44 53 45 55 46 56 47 58 48 59 49 60 50 62 51 63 52 64 53 65
REMARK SMILES IDX 54 66 66 67 55 68 65 69 56 70 57 71 58 72 59 73 60 74 64 75
REMARK SMILES IDX 61 76 63 77 62 78
REMARK H PARENT 31 25 18 33 20 35 33 37 35 39 37 41 40 45 7 47 4 50 44 54
REMARK H PARENT 46 57 48 61
REMARK Flexibility Score: inf
ROOT
ATOM      1  C   UNL     1      23.011  28.367  22.390  1.00  0.00     0.176 C 
ENDROOT
BRANCH   1   2
ATOM      2  C   UNL     1      23.036  26.917  22.922  1.00  0.00     0.178 C 
ATOM      3  C   UNL     1      23.312  24.794  22.017  1.00  0.00     0.272 C 
ATOM      4  C   UNL     1      22.206  24.273  22.928  1.00  0.00     0.113 C 
ATOM      5  O   UNL     1      23.019  26.102  21.788  1.00  0.00    -0.332 OA
ATOM      6  C   UNL     1      21.160  25.346  23.120  1.00  0.00     0.145 C 
ATOM      7  C   UNL     1      21.835  26.599  23.755  1.00  0.00     0.142 C 
BRANCH   3   8
ATOM      8  O   UNL     1      23.323  24.059  20.815  1.00  0.00    -0.338 OA
BRANCH   8   9
ATOM      9  C   UNL     1      22.884  24.680  19.709  1.00  0.00     0.199 C 
BRANCH   9  10
ATOM     10  C   UNL     1      23.726  24.296  18.514  1.00  0.00     0.179 C 
ATOM     11  C   UNL     1      23.787  23.853  16.293  1.00  0.00     0.282 C 
ATOM     12  O   UNL     1      22.936  24.258  17.347  1.00  0.00    -0.341 OA
ATOM     13  C   UNL     1      24.701  25.003  15.880  1.00  0.00     0.202 C 
ATOM     14  C   UNL     1      24.649  26.007  17.042  1.00  0.00     0.179 C 
ATOM     15  C   UNL     1      24.894  25.185  18.290  1.00  0.00     0.177 C 
BRANCH  11  16
ATOM     16  O   UNL     1      23.001  23.536  15.220  1.00  0.00    -0.341 OA
BRANCH  16  17
ATOM     17  C   UNL     1      23.690  22.948  14.169  1.00  0.00     0.184 C 
ATOM     18  C   UNL     1      22.944  22.970  12.882  1.00  0.00     0.178 C 
ATOM     19  O   UNL     1      21.914  22.080  12.929  1.00  0.00    -0.341 OA
ATOM     20  C   UNL     1      22.286  20.757  12.969  1.00  0.00     0.281 C 
ATOM     21  C   UNL     1      24.086  21.567  14.559  1.00  0.00     0.180 C 
ATOM     22  C   UNL     1      23.457  20.447  13.817  1.00  0.00     0.202 C 
BRANCH  18  23
ATOM     23  C   UNL     1      23.900  22.752  11.733  1.00  0.00     0.191 C 
BRANCH  23  24
ATOM     24  O   UNL     1      24.670  23.895  11.489  1.00  0.00    -0.394 OA
ATOM     25  H   UNL     1      24.928  23.920  10.533  1.00  0.00     0.210 HD
ENDBRANCH  23  24
ENDBRANCH  18  23
BRANCH  20  26
ATOM     26  O   UNL     1      22.563  20.373  11.652  1.00  0.00    -0.350 OA
BRANCH  26  27
ATOM     27  C   UNL     1      21.803  19.325  11.198  1.00  0.00     0.169 C 
BRANCH  27  28
ATOM     28  C   UNL     1      20.838  19.896  10.173  1.00  0.00     0.119 C 
BRANCH  28  29
ATOM     29  N   UNL     1      19.589  20.309  10.771  1.00  0.00    -0.092 NA
ATOM     30  N   UNL     1      19.002  19.562  11.574  1.00  0.00     0.001 N 
ATOM     31  N   UNL     1      18.226  18.639  11.888  1.00  0.00    -0.003 NA
ENDBRANCH  28  29
ENDBRANCH  27  28
ENDBRANCH  26  27
ENDBRANCH  20  26
BRANCH  21  32
ATOM     32  O   UNL     1      25.492  21.412  14.408  1.00  0.00    -0.387 OA
ATOM     33  H   UNL     1      25.735  20.504  14.170  1.00  0.00     0.211 HD
ENDBRANCH  21  32
BRANCH  22  34
ATOM     34  O   UNL     1      23.019  19.491  14.772  1.00  0.00    -0.385 OA
ATOM     35  H   UNL     1      23.357  19.814  15.647  1.00  0.00     0.211 HD
ENDBRANCH  22  34
ENDBRANCH  16  17
ENDBRANCH  11  16
BRANCH  13  36
ATOM     36  O   UNL     1      26.034  24.603  15.790  1.00  0.00    -0.385 OA
ATOM     37  H   UNL     1      26.274  24.189  16.656  1.00  0.00     0.211 HD
ENDBRANCH  13  36
BRANCH  14  38
ATOM     38  O   UNL     1      23.339  26.466  17.066  1.00  0.00    -0.387 OA
ATOM     39  H   UNL     1      22.684  25.820  16.701  1.00  0.00     0.211 HD
ENDBRANCH  14  38
BRANCH  15  40
ATOM     40  O   UNL     1      25.224  25.974  19.381  1.00  0.00    -0.387 OA
ATOM     41  H   UNL     1      24.575  25.904  20.127  1.00  0.00     0.211 HD
ENDBRANCH  15  40
ENDBRANCH   9  10
ENDBRANCH   8   9
ENDBRANCH   3   8
BRANCH   3  42
ATOM     42  C   UNL     1      24.649  24.626  22.587  1.00  0.00     0.364 C 
ATOM     43  O   UNL     1      25.755  24.781  22.005  1.00  0.00    -0.246 OA
BRANCH  42  44
ATOM     44  O   UNL     1      24.765  24.248  23.947  1.00  0.00    -0.477 OA
ATOM     45  H   UNL     1      24.409  23.348  24.266  1.00  0.00     0.296 HD
ENDBRANCH  42  44
ENDBRANCH   3  42
BRANCH   6  46
ATOM     46  O   UNL     1      20.497  25.768  22.022  1.00  0.00    -0.391 OA
ATOM     47  H   UNL     1      21.094  26.227  21.354  1.00  0.00     0.211 HD
ENDBRANCH   6  46
BRANCH   7  48
ATOM     48  N   UNL     1      22.173  26.168  25.090  1.00  0.00    -0.348 N 
ATOM     49  C   UNL     1      21.570  26.817  26.188  1.00  0.00     0.217 C 
ATOM     50  H   UNL     1      22.840  25.408  25.242  1.00  0.00     0.163 HD
ATOM     51  C   UNL     1      21.892  26.381  27.573  1.00  0.00     0.114 C 
ATOM     52  O   UNL     1      20.747  27.770  26.012  1.00  0.00    -0.275 OA
ENDBRANCH   7  48
ENDBRANCH   1   2
BRANCH   1  53
ATOM     53  O   UNL     1      21.802  28.461  21.601  1.00  0.00    -0.388 OA
ATOM     54  H   UNL     1      21.180  27.777  21.991  1.00  0.00     0.211 HD
ENDBRANCH   1  53
BRANCH   1  55
ATOM     55  C   UNL     1      24.123  28.718  21.466  1.00  0.00     0.165 C 
BRANCH  55  56
ATOM     56  O   UNL     1      24.009  28.327  20.162  1.00  0.00    -0.388 OA
ATOM     57  H   UNL     1      23.120  28.000  19.903  1.00  0.00     0.211 HD
ENDBRANCH  55  56
BRANCH  55  58
ATOM     58  C   UNL     1      25.522  28.685  21.947  1.00  0.00     0.154 C 
BRANCH  58  59
ATOM     59  N   UNL     1      26.346  27.578  21.550  1.00  0.00    -0.319 N 
ATOM     60  C   UNL     1      27.527  27.691  20.771  1.00  0.00     0.407 C 
ATOM     61  H   UNL     1      26.097  26.610  21.849  1.00  0.00     0.167 HD
ATOM     62  O   UNL     1      27.917  28.802  20.392  1.00  0.00    -0.225 OA
BRANCH  60  63
ATOM     63  O   UNL     1      28.313  26.600  20.386  1.00  0.00    -0.443 OA
BRANCH  63  64
ATOM     64  C   UNL     1      28.834  26.535  19.056  1.00  0.00     0.294 C 
BRANCH  64  65
ATOM     65  C   UNL     1      28.614  25.213  18.427  1.00  0.00     0.120 A 
ATOM     66  C   UNL     1      28.288  24.074  19.133  1.00  0.00     0.141 A 
ATOM     67  N   UNL     1      28.685  24.850  17.140  1.00  0.00    -0.132 NA
ATOM     68  N   UNL     1      28.174  23.056  18.246  1.00  0.00    -0.226 N 
ATOM     69  N   UNL     1      28.420  23.562  17.047  1.00  0.00    -0.065 NA
BRANCH  68  70
ATOM     70  C   UNL     1      27.842  21.673  18.507  1.00  0.00     0.307 C 
BRANCH  70  71
ATOM     71  O   UNL     1      28.872  20.827  18.197  1.00  0.00    -0.355 OA
BRANCH  71  72
ATOM     72  C   UNL     1      28.611  19.560  18.695  1.00  0.00     0.198 C 
BRANCH  72  73
ATOM     73  C   UNL     1      29.233  19.439  20.061  1.00  0.00    -0.022 A 
ATOM     74  C   UNL     1      30.464  20.029  20.264  1.00  0.00     0.006 A 
ATOM     75  C   UNL     1      28.593  18.762  21.067  1.00  0.00     0.006 A 
ATOM     76  C   UNL     1      31.066  19.939  21.501  1.00  0.00     0.000 A 
ATOM     77  C   UNL     1      29.208  18.685  22.282  1.00  0.00     0.000 A 
ATOM     78  C   UNL     1      30.444  19.263  22.529  1.00  0.00     0.000 A 
ENDBRANCH  72  73
ENDBRANCH  71  72
ENDBRANCH  70  71
ENDBRANCH  68  70
ENDBRANCH  64  65
ENDBRANCH  63  64
ENDBRANCH  60  63
ENDBRANCH  58  59
ENDBRANCH  55  58
ENDBRANCH   1  55
TORSDOF 33
