REMARK VINA RESULT:    -5.374      3.194      5.852
REMARK INTER + INTRA:         -20.774
REMARK INTER:                 -13.228
REMARK INTRA:                  -7.546
REMARK UNBOUND:                -7.546
REMARK SMILES CC(=O)N[C@@H]1[C@@H](O)C[C@](OC[C@H]2O[C@@H](O[C@H]3[C@H](O)[C@@H](O)[C@H](OCCN=[N+]=[N-])O[C@@H]3CO)[C@H](O)[C@@H](O)[C@H]2O)(C(=O)O)O[C@H]1C(O)[C@H](O)CNC(=O)OCc1cn(-c2ccc3[nH]ncc3c2)nn1
REMARK SMILES IDX 9 1 8 2 6 3 5 4 42 5 41 6 10 7 11 8 12 9 14 10 13 11 32 12
REMARK SMILES IDX 34 13 36 14 15 15 16 16 29 17 28 18 21 19 17 20 19 21 30 22
REMARK SMILES IDX 31 23 22 25 23 26 24 27 25 28 26 29 27 30 18 31 20 33 33 35
REMARK SMILES IDX 35 37 37 39 38 41 39 42 40 43 7 45 43 47 44 48 45 50 46 51
REMARK SMILES IDX 47 53 48 54 49 55 50 57 51 58 52 59 53 60 54 61 66 62 55 63
REMARK SMILES IDX 65 64 56 65 57 66 64 67 58 68 63 69 59 70 62 71 60 72 61 73
REMARK SMILES IDX 4 75 2 76 1 78 3 79
REMARK H PARENT 31 24 18 32 20 34 33 36 35 38 37 40 40 44 7 46 44 49 46 52
REMARK H PARENT 48 56 60 74 4 77
REMARK Flexibility Score: inf
ROOT
ATOM      1  C   UNL     1      21.245  30.862  24.724  1.00  0.00     0.272 C 
ATOM      2  C   UNL     1      22.578  31.509  24.821  1.00  0.00     0.113 C 
ATOM      3  C   UNL     1      23.759  30.597  24.609  1.00  0.00     0.145 C 
ATOM      4  C   UNL     1      23.546  30.007  23.189  1.00  0.00     0.142 C 
ATOM      5  C   UNL     1      22.206  29.383  23.231  1.00  0.00     0.178 C 
ATOM      6  O   UNL     1      21.135  30.152  23.531  1.00  0.00    -0.332 OA
ENDROOT
BRANCH   1   7
ATOM      7  O   UNL     1      20.262  31.875  24.723  1.00  0.00    -0.338 OA
BRANCH   7   8
ATOM      8  C   UNL     1      18.980  31.445  24.829  1.00  0.00     0.199 C 
BRANCH   8   9
ATOM      9  C   UNL     1      18.226  31.545  23.484  1.00  0.00     0.179 C 
ATOM     10  C   UNL     1      16.482  30.196  22.774  1.00  0.00     0.282 C 
ATOM     11  O   UNL     1      17.859  30.314  23.030  1.00  0.00    -0.341 OA
ATOM     12  C   UNL     1      15.793  30.393  24.086  1.00  0.00     0.202 C 
ATOM     13  C   UNL     1      15.936  31.883  24.430  1.00  0.00     0.179 C 
ATOM     14  C   UNL     1      17.058  32.500  23.640  1.00  0.00     0.177 C 
BRANCH  10  15
ATOM     15  O   UNL     1      16.232  28.989  22.146  1.00  0.00    -0.341 OA
BRANCH  15  16
ATOM     16  C   UNL     1      16.137  29.189  20.775  1.00  0.00     0.184 C 
ATOM     17  C   UNL     1      14.863  28.696  20.158  1.00  0.00     0.178 C 
ATOM     18  O   UNL     1      14.801  29.002  18.851  1.00  0.00    -0.341 OA
ATOM     19  C   UNL     1      15.914  29.321  18.141  1.00  0.00     0.281 C 
ATOM     20  C   UNL     1      17.217  28.353  20.063  1.00  0.00     0.180 C 
ATOM     21  C   UNL     1      17.204  28.756  18.629  1.00  0.00     0.202 C 
BRANCH  17  22
ATOM     22  C   UNL     1      13.606  29.184  20.849  1.00  0.00     0.191 C 
BRANCH  22  23
ATOM     23  O   UNL     1      13.294  28.423  21.961  1.00  0.00    -0.394 OA
ATOM     24  H   UNL     1      13.935  27.649  21.944  1.00  0.00     0.210 HD
ENDBRANCH  22  23
ENDBRANCH  17  22
BRANCH  19  25
ATOM     25  O   UNL     1      15.980  30.691  18.065  1.00  0.00    -0.350 OA
BRANCH  25  26
ATOM     26  C   UNL     1      16.810  31.222  17.141  1.00  0.00     0.169 C 
BRANCH  26  27
ATOM     27  C   UNL     1      16.446  30.908  15.725  1.00  0.00     0.119 C 
BRANCH  27  28
ATOM     28  N   UNL     1      15.159  31.370  15.300  1.00  0.00    -0.092 NA
ATOM     29  N   UNL     1      14.528  30.875  14.387  1.00  0.00     0.001 N 
ATOM     30  N   UNL     1      14.047  30.625  13.259  1.00  0.00    -0.003 NA
ENDBRANCH  27  28
ENDBRANCH  26  27
ENDBRANCH  25  26
ENDBRANCH  19  25
BRANCH  20  31
ATOM     31  O   UNL     1      18.447  28.505  20.646  1.00  0.00    -0.387 OA
ATOM     32  H   UNL     1      18.428  29.016  21.496  1.00  0.00     0.211 HD
ENDBRANCH  20  31
BRANCH  21  33
ATOM     33  O   UNL     1      17.587  27.631  17.876  1.00  0.00    -0.385 OA
ATOM     34  H   UNL     1      17.003  26.852  18.065  1.00  0.00     0.211 HD
ENDBRANCH  21  33
ENDBRANCH  15  16
ENDBRANCH  10  15
BRANCH  12  35
ATOM     35  O   UNL     1      14.481  29.998  24.142  1.00  0.00    -0.385 OA
ATOM     36  H   UNL     1      14.212  29.715  25.069  1.00  0.00     0.211 HD
ENDBRANCH  12  35
BRANCH  13  37
ATOM     37  O   UNL     1      16.010  32.093  25.791  1.00  0.00    -0.387 OA
ATOM     38  H   UNL     1      15.067  32.108  26.136  1.00  0.00     0.211 HD
ENDBRANCH  13  37
BRANCH  14  39
ATOM     39  O   UNL     1      17.525  33.600  24.404  1.00  0.00    -0.387 OA
ATOM     40  H   UNL     1      17.587  33.399  25.350  1.00  0.00     0.211 HD
ENDBRANCH  14  39
ENDBRANCH   8   9
ENDBRANCH   7   8
ENDBRANCH   1   7
BRANCH   1  41
ATOM     41  C   UNL     1      20.958  29.875  25.800  1.00  0.00     0.364 C 
ATOM     42  O   UNL     1      20.419  28.776  25.440  1.00  0.00    -0.246 OA
BRANCH  41  43
ATOM     43  O   UNL     1      21.205  30.009  27.131  1.00  0.00    -0.477 OA
ATOM     44  H   UNL     1      21.936  30.610  27.513  1.00  0.00     0.296 HD
ENDBRANCH  41  43
ENDBRANCH   1  41
BRANCH   3  45
ATOM     45  O   UNL     1      24.910  31.362  24.636  1.00  0.00    -0.391 OA
ATOM     46  H   UNL     1      24.846  32.155  24.023  1.00  0.00     0.211 HD
ENDBRANCH   3  45
BRANCH   5  47
ATOM     47  C   UNL     1      21.989  28.456  22.072  1.00  0.00     0.176 C 
BRANCH  47  48
ATOM     48  O   UNL     1      20.658  27.946  22.292  1.00  0.00    -0.388 OA
ATOM     49  H   UNL     1      20.695  27.010  22.575  1.00  0.00     0.211 HD
ENDBRANCH  47  48
BRANCH  47  50
ATOM     50  C   UNL     1      21.919  29.111  20.715  1.00  0.00     0.165 C 
BRANCH  50  51
ATOM     51  O   UNL     1      20.775  29.954  20.770  1.00  0.00    -0.388 OA
ATOM     52  H   UNL     1      20.131  29.657  21.436  1.00  0.00     0.211 HD
ENDBRANCH  50  51
BRANCH  50  53
ATOM     53  C   UNL     1      21.779  28.194  19.559  1.00  0.00     0.154 C 
BRANCH  53  54
ATOM     54  N   UNL     1      22.045  26.815  19.767  1.00  0.00    -0.319 N 
ATOM     55  C   UNL     1      23.299  26.162  19.706  1.00  0.00     0.407 C 
ATOM     56  H   UNL     1      21.228  26.165  20.001  1.00  0.00     0.167 HD
ATOM     57  O   UNL     1      24.338  26.785  19.463  1.00  0.00    -0.225 OA
BRANCH  55  58
ATOM     58  O   UNL     1      23.380  24.790  19.923  1.00  0.00    -0.443 OA
BRANCH  58  59
ATOM     59  C   UNL     1      22.452  24.017  20.621  1.00  0.00     0.294 C 
BRANCH  59  60
ATOM     60  C   UNL     1      22.065  24.547  21.935  1.00  0.00     0.121 A 
ATOM     61  C   UNL     1      22.881  24.683  23.036  1.00  0.00     0.144 A 
ATOM     62  N   UNL     1      20.838  24.980  22.291  1.00  0.00    -0.131 NA
ATOM     63  N   UNL     1      22.108  25.191  23.999  1.00  0.00    -0.220 N 
ATOM     64  N   UNL     1      20.885  25.362  23.531  1.00  0.00    -0.062 NA
BRANCH  63  65
ATOM     65  C   UNL     1      22.550  25.492  25.322  1.00  0.00     0.067 A 
ATOM     66  C   UNL     1      22.407  24.580  26.344  1.00  0.00     0.030 A 
ATOM     67  C   UNL     1      23.127  26.710  25.601  1.00  0.00     0.040 A 
ATOM     68  C   UNL     1      22.830  24.874  27.617  1.00  0.00     0.030 A 
ATOM     69  C   UNL     1      23.551  26.991  26.897  1.00  0.00     0.022 A 
ATOM     70  C   UNL     1      23.413  26.085  27.935  1.00  0.00     0.065 A 
ATOM     71  C   UNL     1      24.147  28.117  27.415  1.00  0.00     0.143 A 
ATOM     72  N   UNL     1      23.915  26.654  29.044  1.00  0.00    -0.278 N 
ATOM     73  N   UNL     1      24.344  27.852  28.718  1.00  0.00    -0.183 NA
ATOM     74  H   UNL     1      23.944  26.194  29.986  1.00  0.00     0.190 HD
ENDBRANCH  63  65
ENDBRANCH  59  60
ENDBRANCH  58  59
ENDBRANCH  55  58
ENDBRANCH  53  54
ENDBRANCH  50  53
ENDBRANCH  47  50
ENDBRANCH   5  47
BRANCH   4  75
ATOM     75  N   UNL     1      24.566  28.955  23.132  1.00  0.00    -0.348 N 
ATOM     76  C   UNL     1      25.478  28.951  22.075  1.00  0.00     0.217 C 
ATOM     77  H   UNL     1      24.629  28.214  23.850  1.00  0.00     0.163 HD
ATOM     78  C   UNL     1      26.548  27.907  21.940  1.00  0.00     0.114 C 
ATOM     79  O   UNL     1      25.413  29.865  21.188  1.00  0.00    -0.275 OA
ENDBRANCH   4  75
TORSDOF 30
