REMARK VINA RESULT:    -7.003      3.200      9.881
REMARK INTER + INTRA:         -22.832
REMARK INTER:                 -16.089
REMARK INTRA:                  -6.743
REMARK UNBOUND:                -5.593
REMARK SMILES CC(=O)N[C@@H]1[C@@H](O)C[C@](OC[C@H]2O[C@@H](O[C@H]3[C@H](O)[C@@H](O)[C@H](OCCN=[N+]=[N-])O[C@@H]3CO)[C@H](O)[C@@H](O)[C@H]2O)(C(=O)O)O[C@H]1C(O)[C@H](O)CNC(=O)OCc1cn(C2c3ccccc3-c3ccccc32)nn1
REMARK SMILES IDX 9 1 8 2 6 3 5 4 42 5 41 6 10 7 11 8 12 9 14 10 13 11 32 12
REMARK SMILES IDX 34 13 36 14 15 15 16 16 29 17 28 18 21 19 17 20 19 21 30 22
REMARK SMILES IDX 31 23 22 25 23 26 24 27 25 28 26 29 27 30 18 31 20 33 33 35
REMARK SMILES IDX 35 37 37 39 38 41 39 42 40 43 7 45 43 47 44 48 45 50 46 51
REMARK SMILES IDX 47 53 48 54 49 55 50 57 51 58 52 59 53 60 54 61 70 62 55 63
REMARK SMILES IDX 69 64 56 65 57 66 68 67 58 68 62 69 63 70 67 71 59 72 61 73
REMARK SMILES IDX 64 74 66 75 60 76 65 77 4 78 2 79 1 81 3 82
REMARK H PARENT 31 24 18 32 20 34 33 36 35 38 37 40 40 44 7 46 44 49 46 52
REMARK H PARENT 48 56 4 80
REMARK Flexibility Score: inf
ROOT
ATOM      1  C   UNL     1      18.847  32.040  24.549  1.00  0.00     0.272 C 
ATOM      2  C   UNL     1      18.194  33.323  24.868  1.00  0.00     0.113 C 
ATOM      3  C   UNL     1      18.408  34.359  23.831  1.00  0.00     0.145 C 
ATOM      4  C   UNL     1      19.601  34.108  22.950  1.00  0.00     0.142 C 
ATOM      5  C   UNL     1      20.614  33.334  23.719  1.00  0.00     0.178 C 
ATOM      6  O   UNL     1      20.216  32.155  24.264  1.00  0.00    -0.332 OA
ENDROOT
BRANCH   1   7
ATOM      7  O   UNL     1      18.252  31.366  23.516  1.00  0.00    -0.338 OA
BRANCH   7   8
ATOM      8  C   UNL     1      17.183  30.572  23.828  1.00  0.00     0.199 C 
BRANCH   8   9
ATOM      9  C   UNL     1      15.899  31.232  23.379  1.00  0.00     0.179 C 
ATOM     10  C   UNL     1      15.627  29.780  21.558  1.00  0.00     0.282 C 
ATOM     11  O   UNL     1      15.781  31.057  22.019  1.00  0.00    -0.341 OA
ATOM     12  C   UNL     1      14.632  29.033  22.359  1.00  0.00     0.202 C 
ATOM     13  C   UNL     1      13.751  30.103  23.031  1.00  0.00     0.179 C 
ATOM     14  C   UNL     1      14.690  30.701  24.100  1.00  0.00     0.177 C 
BRANCH  10  15
ATOM     15  O   UNL     1      16.829  29.177  21.302  1.00  0.00    -0.341 OA
BRANCH  15  16
ATOM     16  C   UNL     1      17.299  29.254  20.019  1.00  0.00     0.184 C 
ATOM     17  C   UNL     1      17.467  30.665  19.597  1.00  0.00     0.178 C 
ATOM     18  O   UNL     1      17.095  30.897  18.277  1.00  0.00    -0.341 OA
ATOM     19  C   UNL     1      17.334  29.853  17.444  1.00  0.00     0.281 C 
ATOM     20  C   UNL     1      16.262  28.509  19.184  1.00  0.00     0.180 C 
ATOM     21  C   UNL     1      16.295  28.775  17.737  1.00  0.00     0.202 C 
BRANCH  17  22
ATOM     22  C   UNL     1      18.897  31.138  19.744  1.00  0.00     0.191 C 
BRANCH  22  23
ATOM     23  O   UNL     1      19.373  30.872  21.050  1.00  0.00    -0.394 OA
ATOM     24  H   UNL     1      19.069  31.602  21.670  1.00  0.00     0.210 HD
ENDBRANCH  22  23
ENDBRANCH  17  22
BRANCH  19  25
ATOM     25  O   UNL     1      18.571  29.245  17.546  1.00  0.00    -0.350 OA
BRANCH  25  26
ATOM     26  C   UNL     1      18.887  28.425  16.501  1.00  0.00     0.169 C 
BRANCH  26  27
ATOM     27  C   UNL     1      20.283  28.505  15.985  1.00  0.00     0.119 C 
BRANCH  27  28
ATOM     28  N   UNL     1      21.085  27.346  16.320  1.00  0.00    -0.092 NA
ATOM     29  N   UNL     1      21.943  27.015  15.491  1.00  0.00     0.001 N 
ATOM     30  N   UNL     1      22.749  26.562  14.670  1.00  0.00    -0.003 NA
ENDBRANCH  27  28
ENDBRANCH  26  27
ENDBRANCH  25  26
ENDBRANCH  19  25
BRANCH  20  31
ATOM     31  O   UNL     1      16.437  27.112  19.375  1.00  0.00    -0.387 OA
ATOM     32  H   UNL     1      16.197  26.621  18.549  1.00  0.00     0.211 HD
ENDBRANCH  20  31
BRANCH  21  33
ATOM     33  O   UNL     1      15.061  29.279  17.303  1.00  0.00    -0.385 OA
ATOM     34  H   UNL     1      14.350  28.588  17.293  1.00  0.00     0.211 HD
ENDBRANCH  21  33
ENDBRANCH  15  16
ENDBRANCH  10  15
BRANCH  12  35
ATOM     35  O   UNL     1      13.750  28.275  21.590  1.00  0.00    -0.385 OA
ATOM     36  H   UNL     1      14.224  27.971  20.780  1.00  0.00     0.211 HD
ENDBRANCH  12  35
BRANCH  13  37
ATOM     37  O   UNL     1      12.689  29.541  23.700  1.00  0.00    -0.387 OA
ATOM     38  H   UNL     1      13.012  29.195  24.567  1.00  0.00     0.211 HD
ENDBRANCH  13  37
BRANCH  14  39
ATOM     39  O   UNL     1      15.065  29.638  24.900  1.00  0.00    -0.387 OA
ATOM     40  H   UNL     1      14.325  29.297  25.461  1.00  0.00     0.211 HD
ENDBRANCH  14  39
ENDBRANCH   8   9
ENDBRANCH   7   8
ENDBRANCH   1   7
BRANCH   1  41
ATOM     41  C   UNL     1      18.864  31.142  25.786  1.00  0.00     0.364 C 
ATOM     42  O   UNL     1      19.764  30.301  25.871  1.00  0.00    -0.246 OA
BRANCH  41  43
ATOM     43  O   UNL     1      17.918  31.258  26.774  1.00  0.00    -0.477 OA
ATOM     44  H   UNL     1      17.218  32.010  26.760  1.00  0.00     0.296 HD
ENDBRANCH  41  43
ENDBRANCH   1  41
BRANCH   3  45
ATOM     45  O   UNL     1      17.300  34.622  23.025  1.00  0.00    -0.391 OA
ATOM     46  H   UNL     1      17.313  34.144  22.183  1.00  0.00     0.211 HD
ENDBRANCH   3  45
BRANCH   5  47
ATOM     47  C   UNL     1      21.815  33.070  22.813  1.00  0.00     0.176 C 
BRANCH  47  48
ATOM     48  O   UNL     1      21.390  32.957  21.514  1.00  0.00    -0.388 OA
ATOM     49  H   UNL     1      22.055  32.455  20.954  1.00  0.00     0.211 HD
ENDBRANCH  47  48
BRANCH  47  50
ATOM     50  C   UNL     1      22.503  31.829  23.294  1.00  0.00     0.165 C 
BRANCH  50  51
ATOM     51  O   UNL     1      23.119  32.083  24.532  1.00  0.00    -0.388 OA
ATOM     52  H   UNL     1      23.638  32.917  24.497  1.00  0.00     0.211 HD
ENDBRANCH  50  51
BRANCH  50  53
ATOM     53  C   UNL     1      23.660  31.560  22.324  1.00  0.00     0.154 C 
BRANCH  53  54
ATOM     54  N   UNL     1      23.377  30.342  21.628  1.00  0.00    -0.319 N 
ATOM     55  C   UNL     1      23.047  30.355  20.257  1.00  0.00     0.407 C 
ATOM     56  H   UNL     1      23.418  29.429  22.141  1.00  0.00     0.167 HD
ATOM     57  O   UNL     1      22.980  31.432  19.611  1.00  0.00    -0.225 OA
BRANCH  55  58
ATOM     58  O   UNL     1      22.784  29.193  19.559  1.00  0.00    -0.443 OA
BRANCH  58  59
ATOM     59  C   UNL     1      21.485  28.630  19.457  1.00  0.00     0.294 C 
BRANCH  59  60
ATOM     60  C   UNL     1      21.426  27.480  20.394  1.00  0.00     0.120 A 
ATOM     61  C   UNL     1      22.354  26.460  20.559  1.00  0.00     0.139 A 
ATOM     62  N   UNL     1      20.447  27.214  21.272  1.00  0.00    -0.132 NA
ATOM     63  N   UNL     1      21.919  25.623  21.514  1.00  0.00    -0.240 N 
ATOM     64  N   UNL     1      20.759  26.109  21.927  1.00  0.00    -0.066 NA
BRANCH  63  65
ATOM     65  C   UNL     1      22.596  24.418  21.999  1.00  0.00     0.170 C 
ATOM     66  C   UNL     1      22.748  24.533  23.452  1.00  0.00    -0.011 A 
ATOM     67  C   UNL     1      23.981  24.368  21.498  1.00  0.00    -0.011 A 
ATOM     68  C   UNL     1      21.817  24.620  24.480  1.00  0.00     0.007 A 
ATOM     69  C   UNL     1      24.071  24.555  23.804  1.00  0.00    -0.012 A 
ATOM     70  C   UNL     1      24.841  24.450  22.567  1.00  0.00    -0.012 A 
ATOM     71  C   UNL     1      24.515  24.257  20.228  1.00  0.00     0.007 A 
ATOM     72  C   UNL     1      22.222  24.721  25.792  1.00  0.00     0.000 A 
ATOM     73  C   UNL     1      24.478  24.658  25.127  1.00  0.00     0.009 A 
ATOM     74  C   UNL     1      26.205  24.423  22.386  1.00  0.00     0.009 A 
ATOM     75  C   UNL     1      25.876  24.228  20.024  1.00  0.00     0.000 A 
ATOM     76  C   UNL     1      23.562  24.744  26.149  1.00  0.00     0.001 A 
ATOM     77  C   UNL     1      26.724  24.312  21.108  1.00  0.00     0.001 A 
ENDBRANCH  63  65
ENDBRANCH  59  60
ENDBRANCH  58  59
ENDBRANCH  55  58
ENDBRANCH  53  54
ENDBRANCH  50  53
ENDBRANCH  47  50
ENDBRANCH   5  47
BRANCH   4  78
ATOM     78  N   UNL     1      20.205  35.428  22.690  1.00  0.00    -0.348 N 
ATOM     79  C   UNL     1      19.919  36.158  21.508  1.00  0.00     0.217 C 
ATOM     80  H   UNL     1      20.849  35.806  23.399  1.00  0.00     0.163 HD
ATOM     81  C   UNL     1      20.540  37.497  21.259  1.00  0.00     0.114 C 
ATOM     82  O   UNL     1      19.123  35.645  20.673  1.00  0.00    -0.275 OA
ENDBRANCH   4  78
TORSDOF 30
