REMARK VINA RESULT:    -6.835      3.405     10.393
REMARK INTER + INTRA:         -21.974
REMARK INTER:                 -15.198
REMARK INTRA:                  -6.776
REMARK UNBOUND:                -4.749
REMARK SMILES CC(=O)N[C@@H]1[C@@H](O)C[C@](OC[C@H]2O[C@@H](O[C@H]3[C@H](O)[C@@H](O)[C@H](OCCN=[N+]=[N-])O[C@@H]3CO)[C@H](O)[C@@H](O)[C@H]2O)(C(=O)O)O[C@H]1C(O)[C@H](O)CNC(=O)OCc1cn(-c2ccccc2C(C)=O)nn1
REMARK SMILES IDX 9 1 8 2 6 3 5 4 42 5 41 6 10 7 11 8 12 9 14 10 13 11 32 12
REMARK SMILES IDX 34 13 36 14 15 15 16 16 29 17 28 18 21 19 17 20 19 21 30 22
REMARK SMILES IDX 31 23 22 25 23 26 24 27 25 28 26 29 27 30 18 31 20 33 33 35
REMARK SMILES IDX 35 37 37 39 38 41 39 42 40 43 7 45 43 47 44 48 45 50 46 51
REMARK SMILES IDX 47 53 48 54 49 55 50 57 51 58 52 59 53 60 54 61 66 62 55 63
REMARK SMILES IDX 65 64 56 65 61 66 57 67 60 68 58 69 59 70 62 71 64 72 63 73
REMARK SMILES IDX 4 74 2 75 1 77 3 78
REMARK H PARENT 31 24 18 32 20 34 33 36 35 38 37 40 40 44 7 46 44 49 46 52
REMARK H PARENT 48 56 4 76
REMARK Flexibility Score: inf
ROOT
ATOM      1  C   UNL     1      14.270  30.339  22.396  1.00  0.00     0.272 C 
ATOM      2  C   UNL     1      12.963  30.336  23.134  1.00  0.00     0.113 C 
ATOM      3  C   UNL     1      13.235  29.952  24.565  1.00  0.00     0.145 C 
ATOM      4  C   UNL     1      14.038  31.113  25.126  1.00  0.00     0.142 C 
ATOM      5  C   UNL     1      15.346  31.086  24.381  1.00  0.00     0.178 C 
ATOM      6  O   UNL     1      15.398  30.367  23.246  1.00  0.00    -0.332 OA
ENDROOT
BRANCH   1   7
ATOM      7  O   UNL     1      14.464  31.262  21.489  1.00  0.00    -0.338 OA
BRANCH   7   8
ATOM      8  C   UNL     1      14.015  31.483  20.294  1.00  0.00     0.199 C 
BRANCH   8   9
ATOM      9  C   UNL     1      14.757  31.285  19.026  1.00  0.00     0.179 C 
ATOM     10  C   UNL     1      16.842  30.614  18.279  1.00  0.00     0.282 C 
ATOM     11  O   UNL     1      16.005  30.682  19.378  1.00  0.00    -0.341 OA
ATOM     12  C   UNL     1      16.212  30.839  16.957  1.00  0.00     0.202 C 
ATOM     13  C   UNL     1      14.806  30.347  16.799  1.00  0.00     0.179 C 
ATOM     14  C   UNL     1      14.118  30.195  18.133  1.00  0.00     0.177 C 
BRANCH  10  15
ATOM     15  O   UNL     1      17.500  29.385  18.279  1.00  0.00    -0.341 OA
BRANCH  15  16
ATOM     16  C   UNL     1      18.814  29.501  18.729  1.00  0.00     0.184 C 
ATOM     17  C   UNL     1      19.702  28.754  17.764  1.00  0.00     0.178 C 
ATOM     18  O   UNL     1      20.387  27.704  18.319  1.00  0.00    -0.341 OA
ATOM     19  C   UNL     1      21.117  27.987  19.447  1.00  0.00     0.281 C 
ATOM     20  C   UNL     1      18.862  28.737  20.060  1.00  0.00     0.180 C 
ATOM     21  C   UNL     1      20.290  28.705  20.502  1.00  0.00     0.202 C 
BRANCH  17  22
ATOM     22  C   UNL     1      20.619  29.760  17.092  1.00  0.00     0.191 C 
BRANCH  22  23
ATOM     23  O   UNL     1      21.454  29.064  16.220  1.00  0.00    -0.394 OA
ATOM     24  H   UNL     1      22.401  29.109  16.442  1.00  0.00     0.210 HD
ENDBRANCH  22  23
ENDBRANCH  17  22
BRANCH  19  25
ATOM     25  O   UNL     1      22.316  28.633  19.214  1.00  0.00    -0.350 OA
BRANCH  25  26
ATOM     26  C   UNL     1      23.361  27.758  19.468  1.00  0.00     0.169 C 
BRANCH  26  27
ATOM     27  C   UNL     1      24.129  27.508  18.179  1.00  0.00     0.119 C 
BRANCH  27  28
ATOM     28  N   UNL     1      23.810  26.174  17.655  1.00  0.00    -0.092 NA
ATOM     29  N   UNL     1      22.914  26.124  16.814  1.00  0.00     0.001 N 
ATOM     30  N   UNL     1      21.978  25.905  16.065  1.00  0.00    -0.003 NA
ENDBRANCH  27  28
ENDBRANCH  26  27
ENDBRANCH  25  26
ENDBRANCH  19  25
BRANCH  20  31
ATOM     31  O   UNL     1      18.017  29.339  20.964  1.00  0.00    -0.387 OA
ATOM     32  H   UNL     1      17.052  29.113  20.784  1.00  0.00     0.211 HD
ENDBRANCH  20  31
BRANCH  21  33
ATOM     33  O   UNL     1      20.440  28.131  21.766  1.00  0.00    -0.385 OA
ATOM     34  H   UNL     1      21.419  27.973  21.938  1.00  0.00     0.211 HD
ENDBRANCH  21  33
ENDBRANCH  15  16
ENDBRANCH  10  15
BRANCH  12  35
ATOM     35  O   UNL     1      16.359  32.167  16.525  1.00  0.00    -0.385 OA
ATOM     36  H   UNL     1      17.224  32.303  16.063  1.00  0.00     0.211 HD
ENDBRANCH  12  35
BRANCH  13  37
ATOM     37  O   UNL     1      14.757  29.095  16.164  1.00  0.00    -0.387 OA
ATOM     38  H   UNL     1      15.633  28.982  15.709  1.00  0.00     0.211 HD
ENDBRANCH  13  37
BRANCH  14  39
ATOM     39  O   UNL     1      14.362  28.937  18.694  1.00  0.00    -0.387 OA
ATOM     40  H   UNL     1      13.763  28.235  18.332  1.00  0.00     0.211 HD
ENDBRANCH  14  39
ENDBRANCH   8   9
ENDBRANCH   7   8
ENDBRANCH   1   7
BRANCH   1  41
ATOM     41  C   UNL     1      14.385  28.959  21.842  1.00  0.00     0.364 C 
ATOM     42  O   UNL     1      15.535  28.466  21.575  1.00  0.00    -0.246 OA
BRANCH  41  43
ATOM     43  O   UNL     1      13.341  28.114  21.567  1.00  0.00    -0.477 OA
ATOM     44  H   UNL     1      13.262  27.605  20.697  1.00  0.00     0.296 HD
ENDBRANCH  41  43
ENDBRANCH   1  41
BRANCH   3  45
ATOM     45  O   UNL     1      11.996  29.838  25.191  1.00  0.00    -0.391 OA
ATOM     46  H   UNL     1      11.817  30.616  25.783  1.00  0.00     0.211 HD
ENDBRANCH   3  45
BRANCH   5  47
ATOM     47  C   UNL     1      15.878  32.547  24.217  1.00  0.00     0.176 C 
BRANCH  47  48
ATOM     48  O   UNL     1      16.801  32.427  23.110  1.00  0.00    -0.388 OA
ATOM     49  H   UNL     1      16.698  33.322  22.662  1.00  0.00     0.211 HD
ENDBRANCH  47  48
BRANCH  47  50
ATOM     50  C   UNL     1      16.674  32.963  25.381  1.00  0.00     0.165 C 
BRANCH  50  51
ATOM     51  O   UNL     1      16.005  33.941  26.157  1.00  0.00    -0.388 OA
ATOM     52  H   UNL     1      15.525  33.531  26.909  1.00  0.00     0.211 HD
ENDBRANCH  50  51
BRANCH  50  53
ATOM     53  C   UNL     1      18.133  33.045  25.362  1.00  0.00     0.154 C 
BRANCH  53  54
ATOM     54  N   UNL     1      18.850  31.823  25.362  1.00  0.00    -0.319 N 
ATOM     55  C   UNL     1      19.381  31.117  26.464  1.00  0.00     0.407 C 
ATOM     56  H   UNL     1      19.030  31.340  24.421  1.00  0.00     0.167 HD
ATOM     57  O   UNL     1      19.241  31.605  27.609  1.00  0.00    -0.225 OA
BRANCH  55  58
ATOM     58  O   UNL     1      20.053  29.907  26.362  1.00  0.00    -0.443 OA
BRANCH  58  59
ATOM     59  C   UNL     1      21.233  29.805  25.608  1.00  0.00     0.294 C 
BRANCH  59  60
ATOM     60  C   UNL     1      21.297  28.402  25.069  1.00  0.00     0.121 A 
ATOM     61  C   UNL     1      22.395  27.764  24.541  1.00  0.00     0.144 A 
ATOM     62  N   UNL     1      20.308  27.501  24.992  1.00  0.00    -0.131 NA
ATOM     63  N   UNL     1      22.019  26.499  24.163  1.00  0.00    -0.220 N 
ATOM     64  N   UNL     1      20.742  26.382  24.457  1.00  0.00    -0.062 NA
BRANCH  63  65
ATOM     65  C   UNL     1      22.891  25.566  23.539  1.00  0.00     0.077 A 
ATOM     66  C   UNL     1      23.902  24.900  24.133  1.00  0.00     0.043 A 
ATOM     67  C   UNL     1      22.637  25.338  22.172  1.00  0.00     0.029 A 
ATOM     68  C   UNL     1      24.657  24.006  23.343  1.00  0.00     0.014 A 
ATOM     69  C   UNL     1      23.390  24.459  21.426  1.00  0.00     0.002 A 
ATOM     70  C   UNL     1      24.423  23.774  22.018  1.00  0.00     0.001 A 
BRANCH  66  71
ATOM     71  C   UNL     1      24.238  25.074  25.526  1.00  0.00     0.161 C 
ATOM     72  O   UNL     1      23.616  24.287  26.338  1.00  0.00    -0.294 OA
ATOM     73  C   UNL     1      25.180  26.014  26.137  1.00  0.00     0.093 C 
ENDBRANCH  66  71
ENDBRANCH  63  65
ENDBRANCH  59  60
ENDBRANCH  58  59
ENDBRANCH  55  58
ENDBRANCH  53  54
ENDBRANCH  50  53
ENDBRANCH  47  50
ENDBRANCH   5  47
BRANCH   4  74
ATOM     74  N   UNL     1      14.194  31.032  26.547  1.00  0.00    -0.348 N 
ATOM     75  C   UNL     1      13.672  31.991  27.451  1.00  0.00     0.217 C 
ATOM     76  H   UNL     1      14.730  30.205  26.919  1.00  0.00     0.163 HD
ATOM     77  C   UNL     1      13.893  31.807  28.927  1.00  0.00     0.114 C 
ATOM     78  O   UNL     1      13.041  32.957  26.974  1.00  0.00    -0.275 OA
ENDBRANCH   4  74
TORSDOF 31
