REMARK VINA RESULT:    -5.238      1.916      3.177
REMARK INTER + INTRA:         -22.592
REMARK INTER:                 -15.623
REMARK INTRA:                  -6.969
REMARK UNBOUND:                -8.780
REMARK SMILES COc1ccc(Cn2cc(COC(=O)NC[C@@H](O)C(O)[C@@H]3O[C@@](OC[C@H]4O[C@@H](O[C@H]5[C@H](O)[C@@H](O)[C@H](OCCN=[N+]=[N-])O[C@@H]5CO)[C@H](O)[C@@H](O)[C@H]4O)(C(=O)O)C[C@H](O)[C@H]3NC(C)=O)nn2)cc1OC
REMARK SMILES IDX 23 1 55 2 56 3 58 4 21 5 22 6 24 7 25 8 26 9 28 10 27 11
REMARK SMILES IDX 46 12 48 13 50 14 29 15 30 16 43 17 42 18 35 19 31 20 33 21
REMARK SMILES IDX 44 22 45 23 36 25 37 26 38 27 39 28 40 29 41 30 32 31 34 33
REMARK SMILES IDX 47 35 49 37 51 39 52 41 53 42 54 43 57 45 19 47 20 48 17 50
REMARK SMILES IDX 18 51 16 53 15 54 13 55 14 57 12 58 11 59 10 60 9 61 63 62
REMARK SMILES IDX 8 63 64 64 7 65 6 66 65 67 5 68 66 69 4 70 3 71 67 72 68 73
REMARK SMILES IDX 2 74 1 75 59 76 60 77 61 79 62 80
REMARK H PARENT 45 24 32 32 34 34 47 36 49 38 51 40 54 44 57 46 20 49 18 52
REMARK H PARENT 15 56 59 78
REMARK Flexibility Score: inf
ROOT
ATOM      1  C   UNL     1      22.790  25.424  20.477  1.00  0.00     0.272 C 
ATOM      2  C   UNL     1      21.939  24.418  21.231  1.00  0.00     0.113 C 
ATOM      3  C   UNL     1      21.748  24.602  22.693  1.00  0.00     0.145 C 
ATOM      4  C   UNL     1      22.870  25.472  23.252  1.00  0.00     0.142 C 
ATOM      5  C   UNL     1      24.048  25.177  22.411  1.00  0.00     0.178 C 
ATOM      6  O   UNL     1      23.926  25.835  21.202  1.00  0.00    -0.332 OA
ENDROOT
BRANCH   1   7
ATOM      7  O   UNL     1      21.961  26.527  20.320  1.00  0.00    -0.338 OA
BRANCH   7   8
ATOM      8  C   UNL     1      22.021  27.196  19.136  1.00  0.00     0.199 C 
BRANCH   8   9
ATOM      9  C   UNL     1      22.451  28.622  19.340  1.00  0.00     0.179 C 
ATOM     10  C   UNL     1      22.583  30.373  20.783  1.00  0.00     0.282 C 
ATOM     11  O   UNL     1      22.566  28.927  20.709  1.00  0.00    -0.341 OA
ATOM     12  C   UNL     1      23.866  30.872  20.302  1.00  0.00     0.202 C 
ATOM     13  C   UNL     1      24.310  30.202  19.013  1.00  0.00     0.179 C 
ATOM     14  C   UNL     1      23.892  28.795  18.836  1.00  0.00     0.177 C 
BRANCH  10  15
ATOM     15  O   UNL     1      22.275  30.690  22.090  1.00  0.00    -0.341 OA
BRANCH  15  16
ATOM     16  C   UNL     1      20.902  30.572  22.306  1.00  0.00     0.184 C 
ATOM     17  C   UNL     1      20.256  31.836  22.713  1.00  0.00     0.178 C 
ATOM     18  O   UNL     1      18.877  31.663  22.625  1.00  0.00    -0.341 OA
ATOM     19  C   UNL     1      18.463  30.438  23.009  1.00  0.00     0.281 C 
ATOM     20  C   UNL     1      20.714  29.517  23.404  1.00  0.00     0.180 C 
ATOM     21  C   UNL     1      19.330  29.737  24.030  1.00  0.00     0.202 C 
BRANCH  17  22
ATOM     22  C   UNL     1      20.718  33.027  21.906  1.00  0.00     0.191 C 
BRANCH  22  23
ATOM     23  O   UNL     1      21.980  33.366  22.391  1.00  0.00    -0.394 OA
ATOM     24  H   UNL     1      22.078  34.365  22.368  1.00  0.00     0.210 HD
ENDBRANCH  22  23
ENDBRANCH  17  22
BRANCH  19  25
ATOM     25  O   UNL     1      18.470  29.582  21.849  1.00  0.00    -0.350 OA
BRANCH  25  26
ATOM     26  C   UNL     1      17.433  30.035  21.009  1.00  0.00     0.169 C 
BRANCH  26  27
ATOM     27  C   UNL     1      16.091  29.409  21.342  1.00  0.00     0.119 C 
BRANCH  27  28
ATOM     28  N   UNL     1      16.016  28.113  20.725  1.00  0.00    -0.092 NA
ATOM     29  N   UNL     1      16.259  27.939  19.528  1.00  0.00     0.001 N 
ATOM     30  N   UNL     1      16.380  28.110  18.298  1.00  0.00    -0.003 NA
ENDBRANCH  27  28
ENDBRANCH  26  27
ENDBRANCH  25  26
ENDBRANCH  19  25
BRANCH  20  31
ATOM     31  O   UNL     1      20.690  28.278  22.784  1.00  0.00    -0.387 OA
ATOM     32  H   UNL     1      21.603  28.104  22.405  1.00  0.00     0.211 HD
ENDBRANCH  20  31
BRANCH  21  33
ATOM     33  O   UNL     1      19.483  30.535  25.138  1.00  0.00    -0.385 OA
ATOM     34  H   UNL     1      18.971  30.196  25.923  1.00  0.00     0.211 HD
ENDBRANCH  21  33
ENDBRANCH  15  16
ENDBRANCH  10  15
BRANCH  12  35
ATOM     35  O   UNL     1      23.821  32.230  20.030  1.00  0.00    -0.385 OA
ATOM     36  H   UNL     1      23.962  32.422  19.058  1.00  0.00     0.211 HD
ENDBRANCH  12  35
BRANCH  13  37
ATOM     37  O   UNL     1      25.722  30.330  18.936  1.00  0.00    -0.387 OA
ATOM     38  H   UNL     1      25.916  31.303  18.917  1.00  0.00     0.211 HD
ENDBRANCH  13  37
BRANCH  14  39
ATOM     39  O   UNL     1      24.668  27.920  19.628  1.00  0.00    -0.387 OA
ATOM     40  H   UNL     1      24.267  26.985  19.628  1.00  0.00     0.211 HD
ENDBRANCH  14  39
ENDBRANCH   8   9
ENDBRANCH   7   8
ENDBRANCH   1   7
BRANCH   1  41
ATOM     41  C   UNL     1      23.249  24.787  19.216  1.00  0.00     0.364 C 
ATOM     42  O   UNL     1      24.405  24.920  18.807  1.00  0.00    -0.246 OA
BRANCH  41  43
ATOM     43  O   UNL     1      22.409  23.992  18.391  1.00  0.00    -0.477 OA
ATOM     44  H   UNL     1      22.882  23.554  17.567  1.00  0.00     0.296 HD
ENDBRANCH  41  43
ENDBRANCH   1  41
BRANCH   3  45
ATOM     45  O   UNL     1      20.547  25.208  22.979  1.00  0.00    -0.391 OA
ATOM     46  H   UNL     1      20.606  26.192  22.805  1.00  0.00     0.211 HD
ENDBRANCH   3  45
BRANCH   5  47
ATOM     47  C   UNL     1      25.329  25.279  23.103  1.00  0.00     0.176 C 
BRANCH  47  48
ATOM     48  O   UNL     1      25.614  24.284  24.029  1.00  0.00    -0.388 OA
ATOM     49  H   UNL     1      26.288  23.648  23.765  1.00  0.00     0.211 HD
ENDBRANCH  47  48
BRANCH  47  50
ATOM     50  C   UNL     1      26.488  24.905  22.029  1.00  0.00     0.165 C 
BRANCH  50  51
ATOM     51  O   UNL     1      26.529  25.899  21.131  1.00  0.00    -0.388 OA
ATOM     52  H   UNL     1      27.360  26.455  21.192  1.00  0.00     0.211 HD
ENDBRANCH  50  51
BRANCH  50  53
ATOM     53  C   UNL     1      26.404  23.509  21.671  1.00  0.00     0.154 C 
BRANCH  53  54
ATOM     54  N   UNL     1      27.385  22.526  21.986  1.00  0.00    -0.319 N 
ATOM     55  C   UNL     1      27.982  21.858  20.888  1.00  0.00     0.407 C 
ATOM     56  H   UNL     1      27.690  22.243  22.914  1.00  0.00     0.167 HD
ATOM     57  O   UNL     1      27.632  22.135  19.693  1.00  0.00    -0.225 OA
BRANCH  55  58
ATOM     58  O   UNL     1      28.964  20.877  20.979  1.00  0.00    -0.443 OA
BRANCH  58  59
ATOM     59  C   UNL     1      28.771  19.866  22.027  1.00  0.00     0.294 C 
BRANCH  59  60
ATOM     60  C   UNL     1      29.826  20.225  23.019  1.00  0.00     0.120 A 
ATOM     61  C   UNL     1      31.055  19.541  23.173  1.00  0.00     0.138 A 
ATOM     62  N   UNL     1      29.843  21.257  23.853  1.00  0.00    -0.132 NA
ATOM     63  N   UNL     1      31.739  20.237  24.111  1.00  0.00    -0.248 N 
ATOM     64  N   UNL     1      31.026  21.234  24.504  1.00  0.00    -0.067 NA
BRANCH  63  65
ATOM     65  C   UNL     1      33.124  19.908  24.544  1.00  0.00     0.181 C 
BRANCH  65  66
ATOM     66  C   UNL     1      32.941  19.555  26.021  1.00  0.00    -0.023 A 
ATOM     67  C   UNL     1      33.201  20.457  27.029  1.00  0.00     0.056 A 
ATOM     68  C   UNL     1      32.387  18.348  26.305  1.00  0.00     0.010 A 
ATOM     69  C   UNL     1      32.845  20.026  28.339  1.00  0.00     0.161 A 
ATOM     70  C   UNL     1      32.038  17.935  27.627  1.00  0.00     0.051 A 
ATOM     71  C   UNL     1      32.295  18.842  28.620  1.00  0.00     0.160 A 
BRANCH  69  72
ATOM     72  O   UNL     1      33.090  20.892  29.407  1.00  0.00    -0.493 OA
ATOM     73  C   UNL     1      34.413  21.330  29.736  1.00  0.00     0.278 C 
ENDBRANCH  69  72
BRANCH  71  74
ATOM     74  O   UNL     1      31.955  18.534  29.968  1.00  0.00    -0.493 OA
ATOM     75  C   UNL     1      32.408  17.275  30.510  1.00  0.00     0.278 C 
ENDBRANCH  71  74
ENDBRANCH  65  66
ENDBRANCH  63  65
ENDBRANCH  59  60
ENDBRANCH  58  59
ENDBRANCH  55  58
ENDBRANCH  53  54
ENDBRANCH  50  53
ENDBRANCH  47  50
ENDBRANCH   5  47
BRANCH   4  76
ATOM     76  N   UNL     1      23.025  25.172  24.650  1.00  0.00    -0.348 N 
ATOM     77  C   UNL     1      22.318  25.920  25.597  1.00  0.00     0.217 C 
ATOM     78  H   UNL     1      23.638  24.392  25.016  1.00  0.00     0.163 HD
ATOM     79  C   UNL     1      22.387  25.754  27.081  1.00  0.00     0.114 C 
ATOM     80  O   UNL     1      21.502  26.872  25.263  1.00  0.00    -0.275 OA
ENDBRANCH   4  76
TORSDOF 33
