REMARK VINA RESULT:    -6.457      5.474     10.958
REMARK INTER + INTRA:         -22.543
REMARK INTER:                 -15.583
REMARK INTRA:                  -6.960
REMARK UNBOUND:                -6.272
REMARK SMILES CC(=O)N[C@@H]1[C@@H](O)C[C@](OC[C@H]2O[C@@H](O[C@H]3[C@H](O)[C@@H](O)[C@H](OCCN=[N+]=[N-])O[C@@H]3CO)[C@H](O)[C@@H](O)[C@H]2O)(C(=O)O)O[C@H]1C(O)[C@H](O)CNC(=O)OCc1cn(Cc2cccc(Br)c2)nn1
REMARK SMILES IDX 9 1 8 2 6 3 5 4 42 5 41 6 10 7 11 8 12 9 14 10 13 11 32 12
REMARK SMILES IDX 34 13 36 14 15 15 16 16 29 17 28 18 21 19 17 20 19 21 30 22
REMARK SMILES IDX 31 23 22 25 23 26 24 27 25 28 26 29 27 30 18 31 20 33 33 35
REMARK SMILES IDX 35 37 37 39 38 41 39 42 40 43 7 45 43 47 44 48 45 50 46 51
REMARK SMILES IDX 47 53 48 54 49 55 50 57 51 58 52 59 53 60 54 61 65 62 55 63
REMARK SMILES IDX 64 64 56 65 57 66 58 67 63 68 59 69 61 70 60 71 62 72 4 73
REMARK SMILES IDX 2 74 1 76 3 77
REMARK H PARENT 31 24 18 32 20 34 33 36 35 38 37 40 40 44 7 46 44 49 46 52
REMARK H PARENT 48 56 4 75
REMARK Flexibility Score: inf
ROOT
ATOM      1  C   UNL     1      17.769  30.366  20.023  1.00  0.00     0.272 C 
ATOM      2  C   UNL     1      17.166  31.227  18.979  1.00  0.00     0.113 C 
ATOM      3  C   UNL     1      16.440  32.430  19.490  1.00  0.00     0.145 C 
ATOM      4  C   UNL     1      15.782  32.196  20.831  1.00  0.00     0.142 C 
ATOM      5  C   UNL     1      16.452  31.209  21.679  1.00  0.00     0.178 C 
ATOM      6  O   UNL     1      17.702  30.820  21.311  1.00  0.00    -0.332 OA
ENDROOT
BRANCH   1   7
ATOM      7  O   UNL     1      19.134  30.116  19.680  1.00  0.00    -0.338 OA
BRANCH   7   8
ATOM      8  C   UNL     1      19.456  30.577  18.436  1.00  0.00     0.199 C 
BRANCH   8   9
ATOM      9  C   UNL     1      20.694  29.836  17.888  1.00  0.00     0.179 C 
ATOM     10  C   UNL     1      22.185  28.203  18.660  1.00  0.00     0.282 C 
ATOM     11  O   UNL     1      21.276  29.245  18.960  1.00  0.00    -0.341 OA
ATOM     12  C   UNL     1      22.562  28.183  17.232  1.00  0.00     0.202 C 
ATOM     13  C   UNL     1      21.365  28.122  16.300  1.00  0.00     0.179 C 
ATOM     14  C   UNL     1      20.158  28.776  16.950  1.00  0.00     0.177 C 
BRANCH  10  15
ATOM     15  O   UNL     1      21.587  27.081  19.181  1.00  0.00    -0.341 OA
BRANCH  15  16
ATOM     16  C   UNL     1      21.991  26.673  20.400  1.00  0.00     0.184 C 
ATOM     17  C   UNL     1      22.203  25.181  20.378  1.00  0.00     0.178 C 
ATOM     18  O   UNL     1      22.785  24.794  21.583  1.00  0.00    -0.341 OA
ATOM     19  C   UNL     1      21.951  24.986  22.687  1.00  0.00     0.281 C 
ATOM     20  C   UNL     1      20.956  26.884  21.501  1.00  0.00     0.180 C 
ATOM     21  C   UNL     1      21.681  26.468  22.789  1.00  0.00     0.202 C 
BRANCH  17  22
ATOM     22  C   UNL     1      23.150  24.832  19.280  1.00  0.00     0.191 C 
BRANCH  22  23
ATOM     23  O   UNL     1      22.470  24.383  18.163  1.00  0.00    -0.394 OA
ATOM     24  H   UNL     1      21.520  24.651  18.260  1.00  0.00     0.210 HD
ENDBRANCH  22  23
ENDBRANCH  17  22
BRANCH  19  25
ATOM     25  O   UNL     1      22.634  24.483  23.774  1.00  0.00    -0.350 OA
BRANCH  25  26
ATOM     26  C   UNL     1      23.986  24.360  23.614  1.00  0.00     0.169 C 
BRANCH  26  27
ATOM     27  C   UNL     1      24.808  25.101  24.644  1.00  0.00     0.119 C 
BRANCH  27  28
ATOM     28  N   UNL     1      25.086  26.413  24.104  1.00  0.00    -0.092 NA
ATOM     29  N   UNL     1      25.406  26.628  22.945  1.00  0.00     0.001 N 
ATOM     30  N   UNL     1      25.584  26.752  21.735  1.00  0.00    -0.003 NA
ENDBRANCH  27  28
ENDBRANCH  26  27
ENDBRANCH  25  26
ENDBRANCH  19  25
BRANCH  20  31
ATOM     31  O   UNL     1      20.561  28.183  21.651  1.00  0.00    -0.387 OA
ATOM     32  H   UNL     1      20.630  28.540  22.564  1.00  0.00     0.211 HD
ENDBRANCH  20  31
BRANCH  21  33
ATOM     33  O   UNL     1      20.874  26.826  23.836  1.00  0.00    -0.385 OA
ATOM     34  H   UNL     1      20.775  27.828  23.926  1.00  0.00     0.211 HD
ENDBRANCH  21  33
ENDBRANCH  15  16
ENDBRANCH  10  15
BRANCH  12  35
ATOM     35  O   UNL     1      23.260  29.388  16.963  1.00  0.00    -0.385 OA
ATOM     36  H   UNL     1      23.683  29.325  16.068  1.00  0.00     0.211 HD
ENDBRANCH  12  35
BRANCH  13  37
ATOM     37  O   UNL     1      21.102  26.831  15.853  1.00  0.00    -0.387 OA
ATOM     38  H   UNL     1      21.743  26.199  16.316  1.00  0.00     0.211 HD
ENDBRANCH  13  37
BRANCH  14  39
ATOM     39  O   UNL     1      19.379  27.906  17.676  1.00  0.00    -0.387 OA
ATOM     40  H   UNL     1      19.938  27.152  18.038  1.00  0.00     0.211 HD
ENDBRANCH  14  39
ENDBRANCH   8   9
ENDBRANCH   7   8
ENDBRANCH   1   7
BRANCH   1  41
ATOM     41  C   UNL     1      17.141  29.012  19.959  1.00  0.00     0.364 C 
ATOM     42  O   UNL     1      17.848  27.987  20.261  1.00  0.00    -0.246 OA
BRANCH  41  43
ATOM     43  O   UNL     1      15.851  28.742  19.598  1.00  0.00    -0.477 OA
ATOM     44  H   UNL     1      15.227  29.540  19.418  1.00  0.00     0.296 HD
ENDBRANCH  41  43
ENDBRANCH   1  41
BRANCH   3  45
ATOM     45  O   UNL     1      17.243  33.561  19.469  1.00  0.00    -0.391 OA
ATOM     46  H   UNL     1      17.225  34.047  18.616  1.00  0.00     0.211 HD
ENDBRANCH   3  45
BRANCH   5  47
ATOM     47  C   UNL     1      16.470  31.617  23.161  1.00  0.00     0.176 C 
BRANCH  47  48
ATOM     48  O   UNL     1      15.240  32.366  23.354  1.00  0.00    -0.388 OA
ATOM     49  H   UNL     1      15.516  33.307  23.500  1.00  0.00     0.211 HD
ENDBRANCH  47  48
BRANCH  47  50
ATOM     50  C   UNL     1      16.423  30.489  24.125  1.00  0.00     0.165 C 
BRANCH  50  51
ATOM     51  O   UNL     1      17.759  29.938  24.097  1.00  0.00    -0.388 OA
ATOM     52  H   UNL     1      18.143  30.138  23.189  1.00  0.00     0.211 HD
ENDBRANCH  50  51
BRANCH  50  53
ATOM     53  C   UNL     1      15.560  29.319  23.792  1.00  0.00     0.154 C 
BRANCH  53  54
ATOM     54  N   UNL     1      14.139  29.562  23.986  1.00  0.00    -0.319 N 
ATOM     55  C   UNL     1      13.259  29.411  22.886  1.00  0.00     0.407 C 
ATOM     56  H   UNL     1      13.754  29.840  24.906  1.00  0.00     0.167 HD
ATOM     57  O   UNL     1      13.709  29.075  21.755  1.00  0.00    -0.225 OA
BRANCH  55  58
ATOM     58  O   UNL     1      11.887  29.625  23.023  1.00  0.00    -0.443 OA
BRANCH  58  59
ATOM     59  C   UNL     1      11.365  29.852  24.340  1.00  0.00     0.294 C 
BRANCH  59  60
ATOM     60  C   UNL     1      10.223  28.932  24.551  1.00  0.00     0.120 A 
ATOM     61  C   UNL     1       8.881  29.199  24.448  1.00  0.00     0.138 A 
ATOM     62  N   UNL     1      10.342  27.641  24.888  1.00  0.00    -0.132 NA
ATOM     63  N   UNL     1       8.227  28.055  24.729  1.00  0.00    -0.248 N 
ATOM     64  N   UNL     1       9.133  27.126  24.993  1.00  0.00    -0.067 NA
BRANCH  63  65
ATOM     65  C   UNL     1       6.775  27.900  24.732  1.00  0.00     0.181 C 
BRANCH  65  66
ATOM     66  C   UNL     1       6.197  28.273  26.049  1.00  0.00    -0.025 A 
ATOM     67  C   UNL     1       6.207  29.585  26.475  1.00  0.00     0.006 A 
ATOM     68  C   UNL     1       5.634  27.355  26.902  1.00  0.00     0.021 A 
ATOM     69  C   UNL     1       5.690  29.994  27.683  1.00  0.00     0.002 A 
ATOM     70  C   UNL     1       5.109  27.729  28.117  1.00  0.00     0.018 A 
ATOM     71  C   UNL     1       5.122  29.035  28.534  1.00  0.00     0.016 A 
ATOM     72  Br  UNL     1       4.323  26.453  29.308  1.00  0.00    -0.051 Br
ENDBRANCH  65  66
ENDBRANCH  63  65
ENDBRANCH  59  60
ENDBRANCH  58  59
ENDBRANCH  55  58
ENDBRANCH  53  54
ENDBRANCH  50  53
ENDBRANCH  47  50
ENDBRANCH   5  47
BRANCH   4  73
ATOM     73  N   UNL     1      14.363  31.813  20.614  1.00  0.00    -0.348 N 
ATOM     74  C   UNL     1      13.321  32.737  20.874  1.00  0.00     0.217 C 
ATOM     75  H   UNL     1      14.108  30.854  20.265  1.00  0.00     0.163 HD
ATOM     76  C   UNL     1      11.876  32.372  20.662  1.00  0.00     0.114 C 
ATOM     77  O   UNL     1      13.624  33.886  21.292  1.00  0.00    -0.275 OA
ENDBRANCH   4  73
TORSDOF 31
