REMARK VINA RESULT:    -4.426      3.933      5.894
REMARK INTER + INTRA:         -21.127
REMARK INTER:                 -14.605
REMARK INTRA:                  -6.522
REMARK UNBOUND:                -8.679
REMARK SMILES CCOC(CCn1cc(COC(=O)NC[C@@H](O)C(O)[C@@H]2O[C@@](OC[C@H]3O[C@@H](O[C@H]4[C@H](O)[C@@H](O)[C@H](OCCN=[N+]=[N-])O[C@@H]4CO)[C@H](O)[C@@H](O)[C@H]3O)(C(=O)O)C[C@H](O)[C@H]2NC(C)=O)nn1)OCC
REMARK SMILES IDX 18 1 20 2 22 3 54 4 21 5 55 6 57 7 23 8 24 9 25 10 27 11
REMARK SMILES IDX 26 12 45 13 47 14 49 15 28 16 29 17 42 18 41 19 34 20 30 21
REMARK SMILES IDX 32 22 43 23 44 24 35 26 36 27 37 28 38 29 39 30 40 31 31 32
REMARK SMILES IDX 33 34 46 36 48 38 50 40 51 42 52 43 53 44 56 46 58 48 59 49
REMARK SMILES IDX 60 51 61 52 19 53 16 55 17 56 15 58 14 59 12 60 13 62 11 63
REMARK SMILES IDX 10 64 9 65 8 66 62 67 7 68 63 69 6 70 5 71 4 72 3 73 2 74
REMARK SMILES IDX 1 75 64 76 65 77 66 78
REMARK H PARENT 44 25 31 33 33 35 46 37 48 39 50 41 53 45 56 47 58 50 19 54
REMARK H PARENT 17 57 14 61
REMARK Flexibility Score: inf
ROOT
ATOM      1  C   UNL     1      17.944  31.538  21.726  1.00  0.00     0.176 C 
ENDROOT
BRANCH   1   2
ATOM      2  C   UNL     1      16.595  31.297  21.116  1.00  0.00     0.178 C 
ATOM      3  C   UNL     1      15.080  29.662  20.499  1.00  0.00     0.272 C 
ATOM      4  C   UNL     1      14.283  30.886  20.218  1.00  0.00     0.113 C 
ATOM      5  O   UNL     1      16.377  29.934  20.989  1.00  0.00    -0.332 OA
ATOM      6  C   UNL     1      14.987  31.974  19.483  1.00  0.00     0.145 C 
ATOM      7  C   UNL     1      16.502  31.843  19.688  1.00  0.00     0.142 C 
BRANCH   3   8
ATOM      8  O   UNL     1      15.190  28.734  19.544  1.00  0.00    -0.338 OA
BRANCH   8   9
ATOM      9  C   UNL     1      16.328  28.046  19.343  1.00  0.00     0.199 C 
BRANCH   9  10
ATOM     10  C   UNL     1      16.894  28.312  17.966  1.00  0.00     0.179 C 
ATOM     11  C   UNL     1      16.615  29.326  15.982  1.00  0.00     0.282 C 
ATOM     12  O   UNL     1      16.417  29.470  17.381  1.00  0.00    -0.341 OA
ATOM     13  C   UNL     1      18.070  29.429  15.711  1.00  0.00     0.202 C 
ATOM     14  C   UNL     1      18.812  28.382  16.508  1.00  0.00     0.179 C 
ATOM     15  C   UNL     1      18.419  28.324  17.961  1.00  0.00     0.177 C 
BRANCH  11  16
ATOM     16  O   UNL     1      15.817  30.263  15.317  1.00  0.00    -0.341 OA
BRANCH  16  17
ATOM     17  C   UNL     1      14.788  29.617  14.708  1.00  0.00     0.184 C 
ATOM     18  C   UNL     1      14.438  29.979  13.317  1.00  0.00     0.178 C 
ATOM     19  O   UNL     1      13.651  28.948  12.786  1.00  0.00    -0.341 OA
ATOM     20  C   UNL     1      12.404  28.907  13.429  1.00  0.00     0.281 C 
ATOM     21  C   UNL     1      13.462  29.831  15.504  1.00  0.00     0.180 C 
ATOM     22  C   UNL     1      12.535  28.751  14.929  1.00  0.00     0.202 C 
BRANCH  18  23
ATOM     23  C   UNL     1      15.660  30.122  12.460  1.00  0.00     0.191 C 
BRANCH  23  24
ATOM     24  O   UNL     1      16.443  28.967  12.457  1.00  0.00    -0.394 OA
ATOM     25  H   UNL     1      17.392  29.151  12.341  1.00  0.00     0.210 HD
ENDBRANCH  23  24
ENDBRANCH  18  23
BRANCH  20  26
ATOM     26  O   UNL     1      11.746  27.792  12.941  1.00  0.00    -0.350 OA
BRANCH  26  27
ATOM     27  C   UNL     1      11.505  27.763  11.600  1.00  0.00     0.169 C 
BRANCH  27  28
ATOM     28  C   UNL     1      10.045  27.503  11.335  1.00  0.00     0.119 C 
BRANCH  28  29
ATOM     29  N   UNL     1       9.304  28.756  11.465  1.00  0.00    -0.092 NA
ATOM     30  N   UNL     1       8.657  28.870  12.526  1.00  0.00     0.001 N 
ATOM     31  N   UNL     1       7.687  29.020  13.272  1.00  0.00    -0.003 NA
ENDBRANCH  28  29
ENDBRANCH  27  28
ENDBRANCH  26  27
ENDBRANCH  20  26
BRANCH  21  32
ATOM     32  O   UNL     1      13.652  29.641  16.847  1.00  0.00    -0.387 OA
ATOM     33  H   UNL     1      12.808  29.500  17.342  1.00  0.00     0.211 HD
ENDBRANCH  21  32
BRANCH  22  34
ATOM     34  O   UNL     1      11.291  28.809  15.498  1.00  0.00    -0.385 OA
ATOM     35  H   UNL     1      11.329  28.259  16.342  1.00  0.00     0.211 HD
ENDBRANCH  22  34
ENDBRANCH  16  17
ENDBRANCH  11  16
BRANCH  13  36
ATOM     36  O   UNL     1      18.361  29.159  14.365  1.00  0.00    -0.385 OA
ATOM     37  H   UNL     1      19.329  29.082  14.210  1.00  0.00     0.211 HD
ENDBRANCH  13  36
BRANCH  14  38
ATOM     38  O   UNL     1      20.188  28.475  16.334  1.00  0.00    -0.387 OA
ATOM     39  H   UNL     1      20.593  29.105  16.989  1.00  0.00     0.211 HD
ENDBRANCH  14  38
BRANCH  15  40
ATOM     40  O   UNL     1      18.873  29.418  18.681  1.00  0.00    -0.387 OA
ATOM     41  H   UNL     1      18.660  29.326  19.636  1.00  0.00     0.211 HD
ENDBRANCH  15  40
ENDBRANCH   9  10
ENDBRANCH   8   9
ENDBRANCH   3   8
BRANCH   3  42
ATOM     42  C   UNL     1      14.418  28.990  21.663  1.00  0.00     0.364 C 
ATOM     43  O   UNL     1      13.366  28.338  21.532  1.00  0.00    -0.246 OA
BRANCH  42  44
ATOM     44  O   UNL     1      14.957  29.067  22.944  1.00  0.00    -0.477 OA
ATOM     45  H   UNL     1      15.966  29.034  23.044  1.00  0.00     0.296 HD
ENDBRANCH  42  44
ENDBRANCH   3  42
BRANCH   6  46
ATOM     46  O   UNL     1      14.678  32.066  18.148  1.00  0.00    -0.391 OA
ATOM     47  H   UNL     1      13.870  32.602  17.953  1.00  0.00     0.211 HD
ENDBRANCH   6  46
BRANCH   7  48
ATOM     48  N   UNL     1      17.185  33.082  19.507  1.00  0.00    -0.348 N 
ATOM     49  C   UNL     1      18.165  33.167  18.477  1.00  0.00     0.217 C 
ATOM     50  H   UNL     1      17.003  33.925  20.085  1.00  0.00     0.163 HD
ATOM     51  C   UNL     1      18.894  34.443  18.264  1.00  0.00     0.114 C 
ATOM     52  O   UNL     1      18.431  32.165  17.731  1.00  0.00    -0.275 OA
ENDBRANCH   7  48
ENDBRANCH   1   2
BRANCH   1  53
ATOM     53  O   UNL     1      17.741  32.409  22.812  1.00  0.00    -0.388 OA
ATOM     54  H   UNL     1      18.083  31.996  23.658  1.00  0.00     0.211 HD
ENDBRANCH   1  53
BRANCH   1  55
ATOM     55  C   UNL     1      18.434  30.225  22.305  1.00  0.00     0.165 C 
BRANCH  55  56
ATOM     56  O   UNL     1      17.666  29.834  23.363  1.00  0.00    -0.388 OA
ATOM     57  H   UNL     1      17.934  30.220  24.234  1.00  0.00     0.211 HD
ENDBRANCH  55  56
BRANCH  55  58
ATOM     58  C   UNL     1      19.878  30.337  22.708  1.00  0.00     0.154 C 
BRANCH  58  59
ATOM     59  N   UNL     1      20.636  29.122  22.653  1.00  0.00    -0.319 N 
ATOM     60  C   UNL     1      20.703  28.162  23.675  1.00  0.00     0.407 C 
ATOM     61  H   UNL     1      21.181  28.963  21.750  1.00  0.00     0.167 HD
ATOM     62  O   UNL     1      20.092  28.271  24.751  1.00  0.00    -0.225 OA
BRANCH  60  63
ATOM     63  O   UNL     1      21.493  27.001  23.515  1.00  0.00    -0.443 OA
BRANCH  63  64
ATOM     64  C   UNL     1      21.142  25.818  24.247  1.00  0.00     0.294 C 
BRANCH  64  65
ATOM     65  C   UNL     1      22.278  25.460  25.135  1.00  0.00     0.120 A 
ATOM     66  C   UNL     1      22.522  25.920  26.407  1.00  0.00     0.138 A 
ATOM     67  N   UNL     1      23.274  24.623  24.836  1.00  0.00    -0.132 NA
ATOM     68  N   UNL     1      23.666  25.336  26.822  1.00  0.00    -0.252 N 
ATOM     69  N   UNL     1      24.094  24.555  25.847  1.00  0.00    -0.067 NA
BRANCH  68  70
ATOM     70  C   UNL     1      24.262  25.557  28.107  1.00  0.00     0.151 C 
BRANCH  70  71
ATOM     71  C   UNL     1      25.684  26.039  28.066  1.00  0.00     0.086 C 
BRANCH  71  72
ATOM     72  C   UNL     1      26.281  25.951  29.470  1.00  0.00     0.251 C 
BRANCH  72  73
ATOM     73  O   UNL     1      27.481  25.277  29.346  1.00  0.00    -0.353 OA
BRANCH  73  74
ATOM     74  C   UNL     1      28.568  26.062  29.706  1.00  0.00     0.160 C 
ATOM     75  C   UNL     1      29.862  25.273  29.664  1.00  0.00     0.035 C 
ENDBRANCH  73  74
ENDBRANCH  72  73
BRANCH  72  76
ATOM     76  O   UNL     1      25.399  25.441  30.375  1.00  0.00    -0.353 OA
BRANCH  76  77
ATOM     77  C   UNL     1      25.359  26.025  31.612  1.00  0.00     0.160 C 
ATOM     78  C   UNL     1      25.403  27.527  31.455  1.00  0.00     0.035 C 
ENDBRANCH  76  77
ENDBRANCH  72  76
ENDBRANCH  71  72
ENDBRANCH  70  71
ENDBRANCH  68  70
ENDBRANCH  64  65
ENDBRANCH  63  64
ENDBRANCH  60  63
ENDBRANCH  58  59
ENDBRANCH  55  58
ENDBRANCH   1  55
TORSDOF 36
