REMARK VINA RESULT:    -4.987     23.135     26.981
REMARK INTER + INTRA:         -21.268
REMARK INTER:                 -14.431
REMARK INTRA:                  -6.836
REMARK UNBOUND:                -8.118
REMARK SMILES CC(=O)N[C@@H]1[C@@H](O)C[C@](OC[C@H]2O[C@@H](O[C@H]3[C@H](O)[C@@H](O)[C@H](OCCN=[N+]=[N-])O[C@@H]3CO)[C@H](O)[C@@H](O)[C@H]2O)(C(=O)O)O[C@H]1C(O)[C@H](O)CNC(=O)OCc1cn(CCOC(C)=O)nn1
REMARK SMILES IDX 43 1 42 2 9 3 8 4 41 5 6 6 5 7 10 8 11 9 12 10 14 11 13 12
REMARK SMILES IDX 32 13 34 14 36 15 15 16 16 17 29 18 28 19 21 20 17 21 19 22
REMARK SMILES IDX 30 23 31 24 22 26 23 27 24 28 25 29 26 30 27 31 18 32 20 34
REMARK SMILES IDX 33 36 35 38 37 40 38 42 39 43 40 44 7 46 4 48 2 49 1 51 3 52
REMARK SMILES IDX 44 53 45 55 46 56 47 58 48 59 49 60 50 62 51 63 52 64 53 65
REMARK SMILES IDX 54 66 63 67 55 68 62 69 56 70 57 71 58 72 59 73 61 74 60 75
REMARK H PARENT 31 25 18 33 20 35 33 37 35 39 37 41 40 45 7 47 4 50 44 54
REMARK H PARENT 46 57 48 61
REMARK Flexibility Score: inf
ROOT
ATOM      1  C   UNL     1      23.793  18.776  12.182  1.00  0.00     0.176 C 
ENDROOT
BRANCH   1   2
ATOM      2  C   UNL     1      22.713  19.579  11.504  1.00  0.00     0.178 C 
ATOM      3  C   UNL     1      20.442  19.331  10.921  1.00  0.00     0.272 C 
ATOM      4  C   UNL     1      20.676  20.765  10.510  1.00  0.00     0.113 C 
ATOM      5  O   UNL     1      21.540  18.810  11.658  1.00  0.00    -0.332 OA
ATOM      6  C   UNL     1      21.909  20.948   9.699  1.00  0.00     0.145 C 
ATOM      7  C   UNL     1      22.868  19.768  10.027  1.00  0.00     0.142 C 
BRANCH   3   8
ATOM      8  O   UNL     1      20.190  18.460   9.975  1.00  0.00    -0.338 OA
BRANCH   8   9
ATOM      9  C   UNL     1      19.238  18.368   9.089  1.00  0.00     0.199 C 
BRANCH   9  10
ATOM     10  C   UNL     1      19.395  18.117   7.650  1.00  0.00     0.179 C 
ATOM     11  C   UNL     1      20.045  19.224   5.736  1.00  0.00     0.282 C 
ATOM     12  O   UNL     1      20.259  19.152   7.120  1.00  0.00    -0.341 OA
ATOM     13  C   UNL     1      19.928  17.918   5.068  1.00  0.00     0.202 C 
ATOM     14  C   UNL     1      20.217  16.700   5.873  1.00  0.00     0.179 C 
ATOM     15  C   UNL     1      20.258  16.876   7.351  1.00  0.00     0.177 C 
BRANCH  11  16
ATOM     16  O   UNL     1      20.998  20.093   5.233  1.00  0.00    -0.341 OA
BRANCH  16  17
ATOM     17  C   UNL     1      20.476  21.279   4.786  1.00  0.00     0.184 C 
ATOM     18  C   UNL     1      21.400  22.417   5.155  1.00  0.00     0.178 C 
ATOM     19  O   UNL     1      20.801  23.570   4.628  1.00  0.00    -0.341 OA
ATOM     20  C   UNL     1      19.760  23.949   5.422  1.00  0.00     0.281 C 
ATOM     21  C   UNL     1      19.089  21.539   5.352  1.00  0.00     0.180 C 
ATOM     22  C   UNL     1      19.020  22.825   6.107  1.00  0.00     0.202 C 
BRANCH  18  23
ATOM     23  C   UNL     1      22.749  22.228   4.486  1.00  0.00     0.191 C 
BRANCH  23  24
ATOM     24  O   UNL     1      23.551  21.420   5.270  1.00  0.00    -0.394 OA
ATOM     25  H   UNL     1      23.990  20.774   4.640  1.00  0.00     0.210 HD
ENDBRANCH  23  24
ENDBRANCH  18  23
BRANCH  20  26
ATOM     26  O   UNL     1      18.890  24.717   4.636  1.00  0.00    -0.350 OA
BRANCH  26  27
ATOM     27  C   UNL     1      19.157  24.558   3.281  1.00  0.00     0.169 C 
BRANCH  27  28
ATOM     28  C   UNL     1      17.847  24.902   2.563  1.00  0.00     0.119 C 
BRANCH  28  29
ATOM     29  N   UNL     1      16.990  23.730   2.605  1.00  0.00    -0.092 NA
ATOM     30  N   UNL     1      16.103  23.588   3.456  1.00  0.00     0.001 N 
ATOM     31  N   UNL     1      15.505  23.264   4.499  1.00  0.00    -0.003 NA
ENDBRANCH  28  29
ENDBRANCH  27  28
ENDBRANCH  26  27
ENDBRANCH  20  26
BRANCH  21  32
ATOM     32  O   UNL     1      18.087  21.463   4.392  1.00  0.00    -0.387 OA
ATOM     33  H   UNL     1      18.113  22.196   3.729  1.00  0.00     0.211 HD
ENDBRANCH  21  32
BRANCH  22  34
ATOM     34  O   UNL     1      19.393  22.646   7.425  1.00  0.00    -0.385 OA
ATOM     35  H   UNL     1      19.103  23.450   7.945  1.00  0.00     0.211 HD
ENDBRANCH  22  34
ENDBRANCH  16  17
ENDBRANCH  11  16
BRANCH  13  36
ATOM     36  O   UNL     1      18.695  17.790   4.374  1.00  0.00    -0.385 OA
ATOM     37  H   UNL     1      17.929  17.971   4.958  1.00  0.00     0.211 HD
ENDBRANCH  13  36
BRANCH  14  38
ATOM     38  O   UNL     1      21.423  16.096   5.482  1.00  0.00    -0.387 OA
ATOM     39  H   UNL     1      21.690  15.450   6.200  1.00  0.00     0.211 HD
ENDBRANCH  14  38
BRANCH  15  40
ATOM     40  O   UNL     1      21.598  17.209   7.688  1.00  0.00    -0.387 OA
ATOM     41  H   UNL     1      21.698  18.177   7.788  1.00  0.00     0.211 HD
ENDBRANCH  15  40
ENDBRANCH   9  10
ENDBRANCH   8   9
ENDBRANCH   3   8
BRANCH   3  42
ATOM     42  C   UNL     1      19.404  19.401  11.987  1.00  0.00     0.364 C 
ATOM     43  O   UNL     1      18.227  19.782  11.844  1.00  0.00    -0.246 OA
BRANCH  42  44
ATOM     44  O   UNL     1      19.730  19.012  13.304  1.00  0.00    -0.477 OA
ATOM     45  H   UNL     1      20.341  18.220  13.437  1.00  0.00     0.296 HD
ENDBRANCH  42  44
ENDBRANCH   3  42
BRANCH   6  46
ATOM     46  O   UNL     1      21.718  21.057   8.341  1.00  0.00    -0.391 OA
ATOM     47  H   UNL     1      20.952  20.525   8.005  1.00  0.00     0.211 HD
ENDBRANCH   6  46
BRANCH   7  48
ATOM     48  N   UNL     1      24.167  20.072   9.530  1.00  0.00    -0.348 N 
ATOM     49  C   UNL     1      24.571  19.729   8.213  1.00  0.00     0.217 C 
ATOM     50  H   UNL     1      24.835  20.578  10.132  1.00  0.00     0.163 HD
ATOM     51  C   UNL     1      25.938  20.051   7.698  1.00  0.00     0.114 C 
ATOM     52  O   UNL     1      23.790  19.134   7.410  1.00  0.00    -0.275 OA
ENDBRANCH   7  48
ENDBRANCH   1   2
BRANCH   1  53
ATOM     53  O   UNL     1      23.228  17.469  12.320  1.00  0.00    -0.388 OA
ATOM     54  H   UNL     1      22.433  17.506  12.892  1.00  0.00     0.211 HD
ENDBRANCH   1  53
BRANCH   1  55
ATOM     55  C   UNL     1      23.974  19.242  13.607  1.00  0.00     0.165 C 
BRANCH  55  56
ATOM     56  O   UNL     1      22.760  19.093  14.296  1.00  0.00    -0.388 OA
ATOM     57  H   UNL     1      22.065  19.570  13.797  1.00  0.00     0.211 HD
ENDBRANCH  55  56
BRANCH  55  58
ATOM     58  C   UNL     1      24.501  20.638  13.711  1.00  0.00     0.154 C 
BRANCH  58  59
ATOM     59  N   UNL     1      23.638  21.580  14.351  1.00  0.00    -0.319 N 
ATOM     60  C   UNL     1      23.006  22.642  13.675  1.00  0.00     0.407 C 
ATOM     61  H   UNL     1      23.423  21.522  15.394  1.00  0.00     0.167 HD
ATOM     62  O   UNL     1      23.143  22.841  12.450  1.00  0.00    -0.225 OA
BRANCH  60  63
ATOM     63  O   UNL     1      22.177  23.555  14.345  1.00  0.00    -0.443 OA
BRANCH  63  64
ATOM     64  C   UNL     1      22.642  24.784  14.826  1.00  0.00     0.294 C 
BRANCH  64  65
ATOM     65  C   UNL     1      23.450  24.625  16.066  1.00  0.00     0.120 A 
ATOM     66  C   UNL     1      23.036  25.058  17.314  1.00  0.00     0.138 A 
ATOM     67  N   UNL     1      24.645  24.074  16.253  1.00  0.00    -0.132 NA
ATOM     68  N   UNL     1      23.999  24.748  18.188  1.00  0.00    -0.249 N 
ATOM     69  N   UNL     1      24.968  24.150  17.521  1.00  0.00    -0.067 NA
BRANCH  68  70
ATOM     70  C   UNL     1      24.011  25.025  19.632  1.00  0.00     0.187 C 
BRANCH  70  71
ATOM     71  C   UNL     1      22.620  25.402  20.093  1.00  0.00     0.256 C 
BRANCH  71  72
ATOM     72  O   UNL     1      22.140  24.374  20.952  1.00  0.00    -0.464 OA
BRANCH  72  73
ATOM     73  C   UNL     1      21.742  24.671  22.253  1.00  0.00     0.302 C 
ATOM     74  O   UNL     1      20.557  25.038  22.437  1.00  0.00    -0.253 OA
ATOM     75  C   UNL     1      22.677  24.566  23.421  1.00  0.00     0.139 C 
ENDBRANCH  72  73
ENDBRANCH  71  72
ENDBRANCH  70  71
ENDBRANCH  68  70
ENDBRANCH  64  65
ENDBRANCH  63  64
ENDBRANCH  60  63
ENDBRANCH  58  59
ENDBRANCH  55  58
ENDBRANCH   1  55
TORSDOF 33
