REMARK VINA RESULT:    -4.720      2.644      9.720
REMARK INTER + INTRA:         -21.953
REMARK INTER:                 -13.441
REMARK INTRA:                  -8.513
REMARK UNBOUND:                -8.679
REMARK SMILES CCOC(CCn1cc(COC(=O)NC[C@@H](O)C(O)[C@@H]2O[C@@](OC[C@H]3O[C@@H](O[C@H]4[C@H](O)[C@@H](O)[C@H](OCCN=[N+]=[N-])O[C@@H]4CO)[C@H](O)[C@@H](O)[C@H]3O)(C(=O)O)C[C@H](O)[C@H]2NC(C)=O)nn1)OCC
REMARK SMILES IDX 18 1 20 2 22 3 54 4 21 5 55 6 57 7 23 8 24 9 25 10 27 11
REMARK SMILES IDX 26 12 45 13 47 14 49 15 28 16 29 17 42 18 41 19 34 20 30 21
REMARK SMILES IDX 32 22 43 23 44 24 35 26 36 27 37 28 38 29 39 30 40 31 31 32
REMARK SMILES IDX 33 34 46 36 48 38 50 40 51 42 52 43 53 44 56 46 58 48 59 49
REMARK SMILES IDX 60 51 61 52 19 53 16 55 17 56 15 58 14 59 12 60 13 62 11 63
REMARK SMILES IDX 10 64 9 65 8 66 62 67 7 68 63 69 6 70 5 71 4 72 3 73 2 74
REMARK SMILES IDX 1 75 64 76 65 77 66 78
REMARK H PARENT 44 25 31 33 33 35 46 37 48 39 50 41 53 45 56 47 58 50 19 54
REMARK H PARENT 17 57 14 61
REMARK Flexibility Score: inf
ROOT
ATOM      1  C   UNL     1      17.654  31.707  24.078  1.00  0.00     0.176 C 
ENDROOT
BRANCH   1   2
ATOM      2  C   UNL     1      19.088  31.450  24.432  1.00  0.00     0.178 C 
ATOM      3  C   UNL     1      20.612  29.810  25.015  1.00  0.00     0.272 C 
ATOM      4  C   UNL     1      21.515  30.987  24.897  1.00  0.00     0.113 C 
ATOM      5  O   UNL     1      19.256  30.113  24.759  1.00  0.00    -0.332 OA
ATOM      6  C   UNL     1      21.047  32.241  25.549  1.00  0.00     0.145 C 
ATOM      7  C   UNL     1      19.519  32.217  25.687  1.00  0.00     0.142 C 
BRANCH   3   8
ATOM      8  O   UNL     1      20.664  29.070  26.126  1.00  0.00    -0.338 OA
BRANCH   8   9
ATOM      9  C   UNL     1      21.804  28.898  26.818  1.00  0.00     0.199 C 
BRANCH   9  10
ATOM     10  C   UNL     1      22.001  27.448  27.201  1.00  0.00     0.179 C 
ATOM     11  C   UNL     1      22.613  25.393  26.533  1.00  0.00     0.282 C 
ATOM     12  O   UNL     1      22.905  26.777  26.399  1.00  0.00    -0.341 OA
ATOM     13  C   UNL     1      23.037  24.964  27.888  1.00  0.00     0.202 C 
ATOM     14  C   UNL     1      22.337  25.804  28.931  1.00  0.00     0.179 C 
ATOM     15  C   UNL     1      22.394  27.285  28.666  1.00  0.00     0.177 C 
BRANCH  11  16
ATOM     16  O   UNL     1      23.213  24.703  25.474  1.00  0.00    -0.341 OA
BRANCH  16  17
ATOM     17  C   UNL     1      23.216  25.499  24.372  1.00  0.00     0.184 C 
ATOM     18  C   UNL     1      22.652  24.974  23.109  1.00  0.00     0.178 C 
ATOM     19  O   UNL     1      22.406  26.062  22.260  1.00  0.00    -0.341 OA
ATOM     20  C   UNL     1      23.615  26.645  21.852  1.00  0.00     0.281 C 
ATOM     21  C   UNL     1      24.677  25.906  23.998  1.00  0.00     0.180 C 
ATOM     22  C   UNL     1      24.472  27.074  23.024  1.00  0.00     0.202 C 
BRANCH  18  23
ATOM     23  C   UNL     1      21.355  24.259  23.340  1.00  0.00     0.191 C 
BRANCH  23  24
ATOM     24  O   UNL     1      20.402  25.074  23.952  1.00  0.00    -0.394 OA
ATOM     25  H   UNL     1      19.961  24.644  24.706  1.00  0.00     0.210 HD
ENDBRANCH  23  24
ENDBRANCH  18  23
BRANCH  20  26
ATOM     26  O   UNL     1      23.283  27.777  21.130  1.00  0.00    -0.350 OA
BRANCH  26  27
ATOM     27  C   UNL     1      22.891  27.586  19.839  1.00  0.00     0.169 C 
BRANCH  27  28
ATOM     28  C   UNL     1      21.712  28.464  19.513  1.00  0.00     0.119 C 
BRANCH  28  29
ATOM     29  N   UNL     1      20.524  27.941  20.184  1.00  0.00    -0.092 NA
ATOM     30  N   UNL     1      19.683  28.807  20.504  1.00  0.00     0.001 N 
ATOM     31  N   UNL     1      18.946  29.485  21.223  1.00  0.00    -0.003 NA
ENDBRANCH  28  29
ENDBRANCH  27  28
ENDBRANCH  26  27
ENDBRANCH  20  26
BRANCH  21  32
ATOM     32  O   UNL     1      25.378  26.312  25.102  1.00  0.00    -0.387 OA
ATOM     33  H   UNL     1      26.246  25.849  25.203  1.00  0.00     0.211 HD
ENDBRANCH  21  32
BRANCH  22  34
ATOM     34  O   UNL     1      25.668  27.548  22.558  1.00  0.00    -0.385 OA
ATOM     35  H   UNL     1      26.291  26.759  22.495  1.00  0.00     0.211 HD
ENDBRANCH  22  34
ENDBRANCH  16  17
ENDBRANCH  11  16
BRANCH  13  36
ATOM     36  O   UNL     1      22.656  23.639  28.149  1.00  0.00    -0.385 OA
ATOM     37  H   UNL     1      23.360  23.144  28.625  1.00  0.00     0.211 HD
ENDBRANCH  13  36
BRANCH  14  38
ATOM     38  O   UNL     1      22.746  25.480  30.220  1.00  0.00    -0.387 OA
ATOM     39  H   UNL     1      23.245  24.619  30.234  1.00  0.00     0.211 HD
ENDBRANCH  14  38
BRANCH  15  40
ATOM     40  O   UNL     1      23.660  27.815  28.863  1.00  0.00    -0.387 OA
ATOM     41  H   UNL     1      23.736  28.226  29.753  1.00  0.00     0.211 HD
ENDBRANCH  15  40
ENDBRANCH   9  10
ENDBRANCH   8   9
ENDBRANCH   3   8
BRANCH   3  42
ATOM     42  C   UNL     1      20.968  28.895  23.883  1.00  0.00     0.364 C 
ATOM     43  O   UNL     1      20.509  27.740  23.805  1.00  0.00    -0.246 OA
BRANCH  42  44
ATOM     44  O   UNL     1      21.828  29.301  22.868  1.00  0.00    -0.477 OA
ATOM     45  H   UNL     1      21.461  29.901  22.138  1.00  0.00     0.296 HD
ENDBRANCH  42  44
ENDBRANCH   3  42
BRANCH   6  46
ATOM     46  O   UNL     1      21.644  32.528  26.752  1.00  0.00    -0.391 OA
ATOM     47  H   UNL     1      21.452  33.435  27.096  1.00  0.00     0.211 HD
ENDBRANCH   6  46
BRANCH   7  48
ATOM     48  N   UNL     1      18.959  33.525  25.773  1.00  0.00    -0.348 N 
ATOM     49  C   UNL     1      18.687  34.057  27.065  1.00  0.00     0.217 C 
ATOM     50  H   UNL     1      18.742  34.111  24.944  1.00  0.00     0.163 HD
ATOM     51  C   UNL     1      18.102  35.417  27.189  1.00  0.00     0.114 C 
ATOM     52  O   UNL     1      18.935  33.387  28.124  1.00  0.00    -0.275 OA
ENDBRANCH   7  48
ENDBRANCH   1   2
BRANCH   1  53
ATOM     53  O   UNL     1      17.608  31.851  22.679  1.00  0.00    -0.388 OA
ATOM     54  H   UNL     1      18.378  32.406  22.361  1.00  0.00     0.211 HD
ENDBRANCH   1  53
BRANCH   1  55
ATOM     55  C   UNL     1      16.861  30.459  24.414  1.00  0.00     0.165 C 
BRANCH  55  56
ATOM     56  O   UNL     1      16.997  29.510  23.444  1.00  0.00    -0.388 OA
ATOM     57  H   UNL     1      16.867  29.840  22.520  1.00  0.00     0.211 HD
ENDBRANCH  55  56
BRANCH  55  58
ATOM     58  C   UNL     1      15.412  30.801  24.625  1.00  0.00     0.154 C 
BRANCH  58  59
ATOM     59  N   UNL     1      14.550  30.575  23.501  1.00  0.00    -0.319 N 
ATOM     60  C   UNL     1      14.250  31.520  22.508  1.00  0.00     0.407 C 
ATOM     61  H   UNL     1      14.118  29.602  23.445  1.00  0.00     0.167 HD
ATOM     62  O   UNL     1      14.719  32.671  22.500  1.00  0.00    -0.225 OA
BRANCH  60  63
ATOM     63  O   UNL     1      13.376  31.190  21.448  1.00  0.00    -0.443 OA
BRANCH  63  64
ATOM     64  C   UNL     1      13.066  29.809  21.210  1.00  0.00     0.294 C 
BRANCH  64  65
ATOM     65  C   UNL     1      14.286  29.134  20.697  1.00  0.00     0.120 A 
ATOM     66  C   UNL     1      14.739  29.097  19.400  1.00  0.00     0.138 A 
ATOM     67  N   UNL     1      15.159  28.432  21.424  1.00  0.00    -0.132 NA
ATOM     68  N   UNL     1      15.873  28.367  19.401  1.00  0.00    -0.252 N 
ATOM     69  N   UNL     1      16.099  27.980  20.643  1.00  0.00    -0.067 NA
BRANCH  68  70
ATOM     70  C   UNL     1      16.656  28.094  18.231  1.00  0.00     0.151 C 
BRANCH  70  71
ATOM     71  C   UNL     1      16.615  29.168  17.182  1.00  0.00     0.086 C 
BRANCH  71  72
ATOM     72  C   UNL     1      17.935  29.938  17.205  1.00  0.00     0.251 C 
BRANCH  72  73
ATOM     73  O   UNL     1      18.942  28.992  17.180  1.00  0.00    -0.353 OA
BRANCH  73  74
ATOM     74  C   UNL     1      19.677  29.031  16.003  1.00  0.00     0.160 C 
ATOM     75  C   UNL     1      20.797  28.009  16.012  1.00  0.00     0.035 C 
ENDBRANCH  73  74
ENDBRANCH  72  73
BRANCH  72  76
ATOM     76  O   UNL     1      17.987  30.843  18.222  1.00  0.00    -0.353 OA
BRANCH  76  77
ATOM     77  C   UNL     1      18.618  32.032  17.974  1.00  0.00     0.160 C 
ATOM     78  C   UNL     1      19.254  32.534  19.249  1.00  0.00     0.035 C 
ENDBRANCH  76  77
ENDBRANCH  72  76
ENDBRANCH  71  72
ENDBRANCH  70  71
ENDBRANCH  68  70
ENDBRANCH  64  65
ENDBRANCH  63  64
ENDBRANCH  60  63
ENDBRANCH  58  59
ENDBRANCH  55  58
ENDBRANCH   1  55
TORSDOF 36
