REMARK VINA RESULT:    -6.295      3.941     10.280
REMARK INTER + INTRA:         -20.511
REMARK INTER:                 -12.978
REMARK INTRA:                  -7.532
REMARK UNBOUND:                -5.017
REMARK SMILES CC(=O)N[C@@H]1[C@@H](O)C[C@](OC[C@H]2O[C@@H](O[C@H]3[C@H](O)[C@@H](O)[C@H](OCCN=[N+]=[N-])O[C@@H]3CO)[C@H](O)[C@@H](O)[C@H]2O)(C(=O)O)O[C@H]1C(O)[C@H](O)CNC(=O)OCc1cn(C2CCCCC2)nn1
REMARK SMILES IDX 9 1 8 2 6 3 5 4 42 5 41 6 10 7 11 8 12 9 14 10 13 11 32 12
REMARK SMILES IDX 34 13 36 14 15 15 16 16 29 17 28 18 21 19 17 20 19 21 30 22
REMARK SMILES IDX 31 23 22 25 23 26 24 27 25 28 26 29 27 30 18 31 20 33 33 35
REMARK SMILES IDX 35 37 37 39 38 41 39 42 40 43 7 45 43 47 44 48 45 50 46 51
REMARK SMILES IDX 47 53 48 54 49 55 50 57 51 58 52 59 53 60 54 61 63 62 55 63
REMARK SMILES IDX 62 64 56 65 57 66 61 67 58 68 60 69 59 70 4 71 2 72 1 74
REMARK SMILES IDX 3 75
REMARK H PARENT 31 24 18 32 20 34 33 36 35 38 37 40 40 44 7 46 44 49 46 52
REMARK H PARENT 48 56 4 73
REMARK Flexibility Score: inf
ROOT
ATOM      1  C   UNL     1      19.205  28.978  19.008  1.00  0.00     0.272 C 
ATOM      2  C   UNL     1      19.161  30.145  17.952  1.00  0.00     0.113 C 
ATOM      3  C   UNL     1      17.765  30.681  17.866  1.00  0.00     0.145 C 
ATOM      4  C   UNL     1      16.783  29.585  17.545  1.00  0.00     0.142 C 
ATOM      5  C   UNL     1      17.092  28.292  18.214  1.00  0.00     0.178 C 
ATOM      6  O   UNL     1      18.278  28.046  18.732  1.00  0.00    -0.332 OA
ENDROOT
BRANCH   1   7
ATOM      7  O   UNL     1      19.008  29.608  20.157  1.00  0.00    -0.338 OA
BRANCH   7   8
ATOM      8  C   UNL     1      19.312  29.380  21.390  1.00  0.00     0.199 C 
BRANCH   8   9
ATOM      9  C   UNL     1      19.867  30.454  22.311  1.00  0.00     0.179 C 
ATOM     10  C   UNL     1      18.658  32.370  22.916  1.00  0.00     0.282 C 
ATOM     11  O   UNL     1      19.443  31.701  21.983  1.00  0.00    -0.341 OA
ATOM     12  C   UNL     1      19.355  32.398  24.223  1.00  0.00     0.202 C 
ATOM     13  C   UNL     1      19.850  31.048  24.682  1.00  0.00     0.179 C 
ATOM     14  C   UNL     1      19.447  30.008  23.708  1.00  0.00     0.177 C 
BRANCH  10  15
ATOM     15  O   UNL     1      17.412  31.868  22.836  1.00  0.00    -0.341 OA
BRANCH  15  16
ATOM     16  C   UNL     1      16.340  32.697  22.764  1.00  0.00     0.184 C 
ATOM     17  C   UNL     1      15.138  31.953  23.307  1.00  0.00     0.178 C 
ATOM     18  O   UNL     1      14.064  32.787  23.545  1.00  0.00    -0.341 OA
ATOM     19  C   UNL     1      14.040  33.920  22.775  1.00  0.00     0.281 C 
ATOM     20  C   UNL     1      15.954  33.084  21.352  1.00  0.00     0.180 C 
ATOM     21  C   UNL     1      14.570  33.687  21.408  1.00  0.00     0.202 C 
BRANCH  17  22
ATOM     22  C   UNL     1      15.458  31.059  24.471  1.00  0.00     0.191 C 
BRANCH  22  23
ATOM     23  O   UNL     1      15.467  29.745  24.003  1.00  0.00    -0.394 OA
ATOM     24  H   UNL     1      14.597  29.479  23.621  1.00  0.00     0.210 HD
ENDBRANCH  22  23
ENDBRANCH  17  22
BRANCH  19  25
ATOM     25  O   UNL     1      14.587  34.962  23.475  1.00  0.00    -0.350 OA
BRANCH  25  26
ATOM     26  C   UNL     1      14.713  36.137  22.750  1.00  0.00     0.169 C 
BRANCH  26  27
ATOM     27  C   UNL     1      15.899  36.974  23.148  1.00  0.00     0.119 C 
BRANCH  27  28
ATOM     28  N   UNL     1      17.085  36.388  22.557  1.00  0.00    -0.092 NA
ATOM     29  N   UNL     1      17.928  35.946  23.349  1.00  0.00     0.001 N 
ATOM     30  N   UNL     1      19.010  35.967  23.962  1.00  0.00    -0.003 NA
ENDBRANCH  27  28
ENDBRANCH  26  27
ENDBRANCH  25  26
ENDBRANCH  19  25
BRANCH  20  31
ATOM     31  O   UNL     1      16.803  33.999  20.777  1.00  0.00    -0.387 OA
ATOM     32  H   UNL     1      16.519  34.936  20.915  1.00  0.00     0.211 HD
ENDBRANCH  20  31
BRANCH  21  33
ATOM     33  O   UNL     1      13.711  32.743  20.793  1.00  0.00    -0.385 OA
ATOM     34  H   UNL     1      13.759  31.874  21.262  1.00  0.00     0.211 HD
ENDBRANCH  21  33
ENDBRANCH  15  16
ENDBRANCH  10  15
BRANCH  12  35
ATOM     35  O   UNL     1      20.516  33.191  24.031  1.00  0.00    -0.385 OA
ATOM     36  H   UNL     1      20.391  33.845  23.308  1.00  0.00     0.211 HD
ENDBRANCH  12  35
BRANCH  13  37
ATOM     37  O   UNL     1      19.345  30.732  25.959  1.00  0.00    -0.387 OA
ATOM     38  H   UNL     1      19.801  29.939  26.284  1.00  0.00     0.211 HD
ENDBRANCH  13  37
BRANCH  14  39
ATOM     39  O   UNL     1      18.158  29.556  23.778  1.00  0.00    -0.387 OA
ATOM     40  H   UNL     1      18.109  28.690  23.307  1.00  0.00     0.211 HD
ENDBRANCH  14  39
ENDBRANCH   8   9
ENDBRANCH   7   8
ENDBRANCH   1   7
BRANCH   1  41
ATOM     41  C   UNL     1      20.553  28.360  18.751  1.00  0.00     0.364 C 
ATOM     42  O   UNL     1      20.916  27.274  19.186  1.00  0.00    -0.246 OA
BRANCH  41  43
ATOM     43  O   UNL     1      21.490  29.049  17.955  1.00  0.00    -0.477 OA
ATOM     44  H   UNL     1      21.437  30.051  17.860  1.00  0.00     0.296 HD
ENDBRANCH  41  43
ENDBRANCH   1  41
BRANCH   3  45
ATOM     45  O   UNL     1      17.414  31.381  19.013  1.00  0.00    -0.391 OA
ATOM     46  H   UNL     1      18.196  31.350  19.636  1.00  0.00     0.211 HD
ENDBRANCH   3  45
BRANCH   5  47
ATOM     47  C   UNL     1      16.043  28.014  19.334  1.00  0.00     0.176 C 
BRANCH  47  48
ATOM     48  O   UNL     1      16.686  27.337  20.388  1.00  0.00    -0.388 OA
ATOM     49  H   UNL     1      16.906  26.416  20.145  1.00  0.00     0.211 HD
ENDBRANCH  47  48
BRANCH  47  50
ATOM     50  C   UNL     1      15.379  29.267  19.793  1.00  0.00     0.165 C 
BRANCH  50  51
ATOM     51  O   UNL     1      16.037  29.654  20.984  1.00  0.00    -0.388 OA
ATOM     52  H   UNL     1      15.457  30.191  21.558  1.00  0.00     0.211 HD
ENDBRANCH  50  51
BRANCH  50  53
ATOM     53  C   UNL     1      13.934  29.185  20.114  1.00  0.00     0.154 C 
BRANCH  53  54
ATOM     54  N   UNL     1      13.611  28.957  21.498  1.00  0.00    -0.319 N 
ATOM     55  C   UNL     1      12.700  29.765  22.229  1.00  0.00     0.407 C 
ATOM     56  H   UNL     1      14.056  28.164  21.993  1.00  0.00     0.167 HD
ATOM     57  O   UNL     1      12.131  30.735  21.669  1.00  0.00    -0.225 OA
BRANCH  55  58
ATOM     58  O   UNL     1      12.412  29.527  23.544  1.00  0.00    -0.443 OA
BRANCH  58  59
ATOM     59  C   UNL     1      11.336  30.054  24.282  1.00  0.00     0.294 C 
BRANCH  59  60
ATOM     60  C   UNL     1      10.356  28.977  24.537  1.00  0.00     0.120 A 
ATOM     61  C   UNL     1       9.006  29.170  24.472  1.00  0.00     0.138 A 
ATOM     62  N   UNL     1      10.557  27.695  24.864  1.00  0.00    -0.132 NA
ATOM     63  N   UNL     1       8.395  27.998  24.761  1.00  0.00    -0.249 N 
ATOM     64  N   UNL     1       9.366  27.118  24.995  1.00  0.00    -0.067 NA
BRANCH  63  65
ATOM     65  C   UNL     1       6.964  27.768  24.805  1.00  0.00     0.109 C 
ATOM     66  C   UNL     1       6.329  28.990  24.147  1.00  0.00     0.027 C 
ATOM     67  C   UNL     1       6.486  27.697  26.238  1.00  0.00     0.027 C 
ATOM     68  C   UNL     1       4.817  28.782  24.072  1.00  0.00     0.002 C 
ATOM     69  C   UNL     1       5.330  28.637  26.512  1.00  0.00     0.002 C 
ATOM     70  C   UNL     1       4.286  28.513  25.444  1.00  0.00     0.000 C 
ENDBRANCH  63  65
ENDBRANCH  59  60
ENDBRANCH  58  59
ENDBRANCH  55  58
ENDBRANCH  53  54
ENDBRANCH  50  53
ENDBRANCH  47  50
ENDBRANCH   5  47
BRANCH   4  71
ATOM     71  N   UNL     1      16.549  29.473  16.129  1.00  0.00    -0.348 N 
ATOM     72  C   UNL     1      15.295  29.617  15.513  1.00  0.00     0.217 C 
ATOM     73  H   UNL     1      17.352  29.267  15.451  1.00  0.00     0.163 HD
ATOM     74  C   UNL     1      15.124  29.501  14.024  1.00  0.00     0.114 C 
ATOM     75  O   UNL     1      14.277  29.844  16.166  1.00  0.00    -0.275 OA
ENDBRANCH   4  71
TORSDOF 30
