REMARK VINA RESULT:    -6.208      0.000      0.000
REMARK INTER + INTRA:         -23.130
REMARK INTER:                 -16.010
REMARK INTRA:                  -7.120
REMARK UNBOUND:                -6.761
REMARK SMILES CC(=O)N[C@@H]1[C@@H](O)C[C@](OC[C@H]2O[C@@H](O[C@H]3[C@H](O)[C@@H](O)[C@H](OCCN=[N+]=[N-])O[C@@H]3CO)[C@H](O)[C@@H](O)[C@H]2O)(C(=O)O)O[C@H]1C(O)[C@H](O)CNC(=O)OCc1cn(CCNS(C)(=O)=O)nn1
REMARK SMILES IDX 43 1 42 2 9 3 8 4 41 5 6 6 5 7 10 8 11 9 12 10 14 11 13 12
REMARK SMILES IDX 32 13 34 14 36 15 15 16 16 17 29 18 28 19 21 20 17 21 19 22
REMARK SMILES IDX 30 23 31 24 22 26 23 27 24 28 25 29 26 30 27 31 18 32 20 34
REMARK SMILES IDX 33 36 35 38 37 40 38 42 39 43 40 44 7 46 4 48 2 49 1 51 3 52
REMARK SMILES IDX 44 53 45 55 46 56 47 58 48 59 49 60 50 62 51 63 52 64 53 65
REMARK SMILES IDX 54 66 64 67 55 68 63 69 56 70 57 71 58 72 59 74 61 75 62 76
REMARK SMILES IDX 60 77
REMARK H PARENT 31 25 18 33 20 35 33 37 35 39 37 41 40 45 7 47 4 50 44 54
REMARK H PARENT 46 57 48 61 58 73
REMARK Flexibility Score: inf
ROOT
ATOM      1  C   UNL     1      13.369  29.387  21.031  1.00  0.00     0.176 C 
ENDROOT
BRANCH   1   2
ATOM      2  C   UNL     1      14.358  29.407  19.851  1.00  0.00     0.178 C 
ATOM      3  C   UNL     1      16.661  29.116  19.541  1.00  0.00     0.272 C 
ATOM      4  C   UNL     1      16.898  30.486  19.044  1.00  0.00     0.113 C 
ATOM      5  O   UNL     1      15.552  29.045  20.375  1.00  0.00    -0.332 OA
ATOM      6  C   UNL     1      15.696  31.390  19.033  1.00  0.00     0.145 C 
ATOM      7  C   UNL     1      14.367  30.741  19.216  1.00  0.00     0.142 C 
BRANCH   3   8
ATOM      8  O   UNL     1      17.691  28.550  20.298  1.00  0.00    -0.338 OA
BRANCH   8   9
ATOM      9  C   UNL     1      18.729  29.435  20.535  1.00  0.00     0.199 C 
BRANCH   9  10
ATOM     10  C   UNL     1      20.033  28.812  20.176  1.00  0.00     0.179 C 
ATOM     11  C   UNL     1      21.485  27.063  20.565  1.00  0.00     0.282 C 
ATOM     12  O   UNL     1      20.174  27.545  20.716  1.00  0.00    -0.341 OA
ATOM     13  C   UNL     1      21.851  26.903  19.130  1.00  0.00     0.202 C 
ATOM     14  C   UNL     1      21.794  28.277  18.497  1.00  0.00     0.179 C 
ATOM     15  C   UNL     1      20.466  28.906  18.752  1.00  0.00     0.177 C 
BRANCH  11  16
ATOM     16  O   UNL     1      21.555  25.887  21.249  1.00  0.00    -0.341 OA
BRANCH  16  17
ATOM     17  C   UNL     1      22.408  25.847  22.299  1.00  0.00     0.184 C 
ATOM     18  C   UNL     1      23.014  24.571  22.728  1.00  0.00     0.178 C 
ATOM     19  O   UNL     1      23.344  24.673  24.080  1.00  0.00    -0.341 OA
ATOM     20  C   UNL     1      22.249  24.587  24.891  1.00  0.00     0.281 C 
ATOM     21  C   UNL     1      21.791  26.535  23.548  1.00  0.00     0.180 C 
ATOM     22  C   UNL     1      21.120  25.398  24.290  1.00  0.00     0.202 C 
BRANCH  18  23
ATOM     23  C   UNL     1      24.351  24.351  22.028  1.00  0.00     0.191 C 
BRANCH  23  24
ATOM     24  O   UNL     1      24.664  25.482  21.239  1.00  0.00    -0.394 OA
ATOM     25  H   UNL     1      24.130  25.510  20.416  1.00  0.00     0.210 HD
ENDBRANCH  23  24
ENDBRANCH  18  23
BRANCH  20  26
ATOM     26  O   UNL     1      22.539  25.012  26.196  1.00  0.00    -0.350 OA
BRANCH  26  27
ATOM     27  C   UNL     1      23.761  24.606  26.668  1.00  0.00     0.169 C 
BRANCH  27  28
ATOM     28  C   UNL     1      24.114  25.445  27.855  1.00  0.00     0.119 C 
BRANCH  28  29
ATOM     29  N   UNL     1      25.527  25.803  27.874  1.00  0.00    -0.092 NA
ATOM     30  N   UNL     1      26.048  25.814  29.003  1.00  0.00     0.001 N 
ATOM     31  N   UNL     1      26.804  25.971  29.955  1.00  0.00    -0.003 NA
ENDBRANCH  28  29
ENDBRANCH  27  28
ENDBRANCH  26  27
ENDBRANCH  20  26
BRANCH  21  32
ATOM     32  O   UNL     1      22.812  27.030  24.364  1.00  0.00    -0.387 OA
ATOM     33  H   UNL     1      22.413  27.361  25.212  1.00  0.00     0.211 HD
ENDBRANCH  21  32
BRANCH  22  34
ATOM     34  O   UNL     1      20.275  24.640  23.512  1.00  0.00    -0.385 OA
ATOM     35  H   UNL     1      19.555  24.185  24.019  1.00  0.00     0.211 HD
ENDBRANCH  22  34
ENDBRANCH  16  17
ENDBRANCH  11  16
BRANCH  13  36
ATOM     36  O   UNL     1      23.185  26.492  18.992  1.00  0.00    -0.385 OA
ATOM     37  H   UNL     1      23.821  27.183  19.309  1.00  0.00     0.211 HD
ENDBRANCH  13  36
BRANCH  14  38
ATOM     38  O   UNL     1      22.183  28.263  17.180  1.00  0.00    -0.387 OA
ATOM     39  H   UNL     1      21.431  28.515  16.557  1.00  0.00     0.211 HD
ENDBRANCH  14  38
BRANCH  15  40
ATOM     40  O   UNL     1      19.514  28.272  17.959  1.00  0.00    -0.387 OA
ATOM     41  H   UNL     1      19.863  27.462  17.507  1.00  0.00     0.211 HD
ENDBRANCH  15  40
ENDBRANCH   9  10
ENDBRANCH   8   9
ENDBRANCH   3   8
BRANCH   3  42
ATOM     42  C   UNL     1      16.470  28.166  18.419  1.00  0.00     0.364 C 
ATOM     43  O   UNL     1      16.723  26.921  18.540  1.00  0.00    -0.246 OA
BRANCH  42  44
ATOM     44  O   UNL     1      16.012  28.524  17.167  1.00  0.00    -0.477 OA
ATOM     45  H   UNL     1      15.032  28.486  16.897  1.00  0.00     0.296 HD
ENDBRANCH  42  44
ENDBRANCH   3  42
BRANCH   6  46
ATOM     46  O   UNL     1      15.840  32.426  19.944  1.00  0.00    -0.391 OA
ATOM     47  H   UNL     1      16.750  32.764  20.061  1.00  0.00     0.211 HD
ENDBRANCH   6  46
BRANCH   7  48
ATOM     48  N   UNL     1      13.720  30.665  17.896  1.00  0.00    -0.348 N 
ATOM     49  C   UNL     1      12.795  31.575  17.375  1.00  0.00     0.217 C 
ATOM     50  H   UNL     1      13.997  29.854  17.238  1.00  0.00     0.163 HD
ATOM     51  C   UNL     1      12.190  31.381  16.011  1.00  0.00     0.114 C 
ATOM     52  O   UNL     1      12.426  32.593  18.022  1.00  0.00    -0.275 OA
ENDBRANCH   7  48
ENDBRANCH   1   2
BRANCH   1  53
ATOM     53  O   UNL     1      13.742  28.354  21.908  1.00  0.00    -0.388 OA
ATOM     54  H   UNL     1      13.021  27.699  21.902  1.00  0.00     0.211 HD
ENDBRANCH   1  53
BRANCH   1  55
ATOM     55  C   UNL     1      13.427  30.673  21.771  1.00  0.00     0.165 C 
BRANCH  55  56
ATOM     56  O   UNL     1      14.663  31.044  22.241  1.00  0.00    -0.388 OA
ATOM     57  H   UNL     1      14.890  30.642  23.121  1.00  0.00     0.211 HD
ENDBRANCH  55  56
BRANCH  55  58
ATOM     58  C   UNL     1      12.365  30.874  22.806  1.00  0.00     0.154 C 
BRANCH  58  59
ATOM     59  N   UNL     1      12.769  30.397  24.102  1.00  0.00    -0.319 N 
ATOM     60  C   UNL     1      13.041  31.384  25.124  1.00  0.00     0.407 C 
ATOM     61  H   UNL     1      12.879  29.401  24.349  1.00  0.00     0.167 HD
ATOM     62  O   UNL     1      12.876  32.588  24.802  1.00  0.00    -0.225 OA
BRANCH  60  63
ATOM     63  O   UNL     1      13.456  31.006  26.375  1.00  0.00    -0.443 OA
BRANCH  63  64
ATOM     64  C   UNL     1      14.795  31.198  26.767  1.00  0.00     0.294 C 
BRANCH  64  65
ATOM     65  C   UNL     1      15.720  30.900  25.658  1.00  0.00     0.120 A 
ATOM     66  C   UNL     1      16.762  31.687  25.198  1.00  0.00     0.138 A 
ATOM     67  N   UNL     1      15.751  29.804  24.913  1.00  0.00    -0.132 NA
ATOM     68  N   UNL     1      17.390  31.059  24.203  1.00  0.00    -0.251 N 
ATOM     69  N   UNL     1      16.757  29.897  24.034  1.00  0.00    -0.067 NA
BRANCH  68  70
ATOM     70  C   UNL     1      18.530  31.552  23.448  1.00  0.00     0.162 C 
BRANCH  70  71
ATOM     71  C   UNL     1      19.826  31.137  24.144  1.00  0.00     0.122 C 
BRANCH  71  72
ATOM     72  N   UNL     1      19.703  29.825  24.710  1.00  0.00    -0.214 NA
ATOM     73  H   UNL     1      19.895  29.109  23.959  1.00  0.00     0.141 HD
BRANCH  72  74
ATOM     74  S   UNL     1      20.829  29.532  25.977  1.00  0.00     0.208 S 
ATOM     75  O   UNL     1      20.746  28.081  26.421  1.00  0.00    -0.213 OA
ATOM     76  O   UNL     1      22.205  29.774  25.386  1.00  0.00    -0.213 OA
ATOM     77  C   UNL     1      20.551  30.622  27.339  1.00  0.00     0.176 C 
ENDBRANCH  72  74
ENDBRANCH  71  72
ENDBRANCH  70  71
ENDBRANCH  68  70
ENDBRANCH  64  65
ENDBRANCH  63  64
ENDBRANCH  60  63
ENDBRANCH  58  59
ENDBRANCH  55  58
ENDBRANCH   1  55
TORSDOF 33
