REMARK VINA RESULT:    -4.743      2.755      5.061
REMARK INTER + INTRA:         -22.667
REMARK INTER:                 -14.678
REMARK INTRA:                  -7.989
REMARK UNBOUND:                -9.744
REMARK SMILES CC(=O)N[C@@H]1[C@@H](O)C[C@](OC[C@H]2O[C@@H](O[C@H]3[C@H](O)[C@@H](O)[C@H](OCCN=[N+]=[N-])O[C@@H]3CO)[C@H](O)[C@@H](O)[C@H]2O)(C(=O)O)O[C@H]1C(O)[C@H](O)CNC(=O)OCc1cn(CC(O)Cn2ccnc2[N+](=O)[O-])nn1
REMARK SMILES IDX 43 1 42 2 9 3 8 4 41 5 6 6 5 7 10 8 11 9 12 10 14 11 13 12
REMARK SMILES IDX 32 13 34 14 36 15 15 16 16 17 29 18 28 19 21 20 17 21 19 22
REMARK SMILES IDX 30 23 31 24 22 26 23 27 24 28 25 29 26 30 27 31 18 32 20 34
REMARK SMILES IDX 33 36 35 38 37 40 38 42 39 43 40 44 7 46 4 48 2 49 1 51 3 52
REMARK SMILES IDX 44 53 45 55 46 56 47 58 48 59 49 60 50 62 51 63 52 64 53 65
REMARK SMILES IDX 54 66 69 67 55 68 68 69 56 70 57 71 58 72 59 74 60 75 61 76
REMARK SMILES IDX 64 77 62 78 63 79 65 80 66 81 67 82
REMARK H PARENT 31 25 18 33 20 35 33 37 35 39 37 41 40 45 7 47 4 50 44 54
REMARK H PARENT 46 57 48 61 58 73
REMARK Flexibility Score: inf
ROOT
ATOM      1  C   UNL     1      14.206  31.068  11.900  1.00  0.00     0.176 C 
ENDROOT
BRANCH   1   2
ATOM      2  C   UNL     1      13.226  30.686  13.051  1.00  0.00     0.178 C 
ATOM      3  C   UNL     1      13.351  30.679  15.360  1.00  0.00     0.272 C 
ATOM      4  C   UNL     1      12.644  29.357  15.406  1.00  0.00     0.113 C 
ATOM      5  O   UNL     1      14.055  30.813  14.168  1.00  0.00    -0.332 OA
ATOM      6  C   UNL     1      13.008  28.490  14.208  1.00  0.00     0.145 C 
ATOM      7  C   UNL     1      12.831  29.275  12.914  1.00  0.00     0.142 C 
BRANCH   3   8
ATOM      8  O   UNL     1      14.335  30.806  16.334  1.00  0.00    -0.338 OA
BRANCH   8   9
ATOM      9  C   UNL     1      14.131  30.270  17.549  1.00  0.00     0.199 C 
BRANCH   9  10
ATOM     10  C   UNL     1      15.407  30.059  18.342  1.00  0.00     0.179 C 
ATOM     11  C   UNL     1      16.206  29.608  20.378  1.00  0.00     0.282 C 
ATOM     12  O   UNL     1      15.179  29.234  19.476  1.00  0.00    -0.341 OA
ATOM     13  C   UNL     1      17.564  29.350  19.772  1.00  0.00     0.202 C 
ATOM     14  C   UNL     1      17.340  28.487  18.532  1.00  0.00     0.179 C 
ATOM     15  C   UNL     1      16.481  29.320  17.576  1.00  0.00     0.177 C 
BRANCH  11  16
ATOM     16  O   UNL     1      16.098  28.947  21.583  1.00  0.00    -0.341 OA
BRANCH  16  17
ATOM     17  C   UNL     1      15.330  29.726  22.418  1.00  0.00     0.184 C 
ATOM     18  C   UNL     1      16.053  30.174  23.679  1.00  0.00     0.178 C 
ATOM     19  O   UNL     1      15.284  31.238  24.161  1.00  0.00    -0.341 OA
ATOM     20  C   UNL     1      14.046  30.880  24.617  1.00  0.00     0.281 C 
ATOM     21  C   UNL     1      14.098  28.988  22.922  1.00  0.00     0.180 C 
ATOM     22  C   UNL     1      13.323  29.816  23.876  1.00  0.00     0.202 C 
BRANCH  18  23
ATOM     23  C   UNL     1      17.465  30.583  23.461  1.00  0.00     0.191 C 
BRANCH  23  24
ATOM     24  O   UNL     1      18.282  29.488  23.714  1.00  0.00    -0.394 OA
ATOM     25  H   UNL     1      18.014  28.985  24.523  1.00  0.00     0.210 HD
ENDBRANCH  23  24
ENDBRANCH  18  23
BRANCH  20  26
ATOM     26  O   UNL     1      13.246  32.052  24.532  1.00  0.00    -0.350 OA
BRANCH  26  27
ATOM     27  C   UNL     1      13.986  33.182  24.294  1.00  0.00     0.169 C 
BRANCH  27  28
ATOM     28  C   UNL     1      13.474  33.751  22.964  1.00  0.00     0.119 C 
BRANCH  28  29
ATOM     29  N   UNL     1      12.419  32.961  22.407  1.00  0.00    -0.092 NA
ATOM     30  N   UNL     1      12.569  32.329  21.336  1.00  0.00     0.001 N 
ATOM     31  N   UNL     1      12.626  31.374  20.579  1.00  0.00    -0.003 NA
ENDBRANCH  28  29
ENDBRANCH  27  28
ENDBRANCH  26  27
ENDBRANCH  20  26
BRANCH  21  32
ATOM     32  O   UNL     1      13.275  28.668  21.823  1.00  0.00    -0.387 OA
ATOM     33  H   UNL     1      12.750  29.468  21.637  1.00  0.00     0.211 HD
ENDBRANCH  21  32
BRANCH  22  34
ATOM     34  O   UNL     1      12.814  28.919  24.850  1.00  0.00    -0.385 OA
ATOM     35  H   UNL     1      12.523  28.069  24.428  1.00  0.00     0.211 HD
ENDBRANCH  22  34
ENDBRANCH  16  17
ENDBRANCH  11  16
BRANCH  13  36
ATOM     36  O   UNL     1      18.136  30.574  19.427  1.00  0.00    -0.385 OA
ATOM     37  H   UNL     1      18.303  31.139  20.233  1.00  0.00     0.211 HD
ENDBRANCH  13  36
BRANCH  14  38
ATOM     38  O   UNL     1      16.555  27.414  18.914  1.00  0.00    -0.387 OA
ATOM     39  H   UNL     1      16.295  27.501  19.847  1.00  0.00     0.211 HD
ENDBRANCH  14  38
BRANCH  15  40
ATOM     40  O   UNL     1      15.967  28.425  16.664  1.00  0.00    -0.387 OA
ATOM     41  H   UNL     1      16.567  28.289  15.889  1.00  0.00     0.211 HD
ENDBRANCH  15  40
ENDBRANCH   9  10
ENDBRANCH   8   9
ENDBRANCH   3   8
BRANCH   3  42
ATOM     42  C   UNL     1      12.401  31.793  15.480  1.00  0.00     0.364 C 
ATOM     43  O   UNL     1      12.777  33.016  15.414  1.00  0.00    -0.246 OA
BRANCH  42  44
ATOM     44  O   UNL     1      11.044  31.630  15.675  1.00  0.00    -0.477 OA
ATOM     45  H   UNL     1      10.645  31.127  16.473  1.00  0.00     0.296 HD
ENDBRANCH  42  44
ENDBRANCH   3  42
BRANCH   6  46
ATOM     46  O   UNL     1      14.279  27.961  14.319  1.00  0.00    -0.391 OA
ATOM     47  H   UNL     1      14.817  28.124  13.503  1.00  0.00     0.211 HD
ENDBRANCH   6  46
BRANCH   7  48
ATOM     48  N   UNL     1      11.569  28.979  12.313  1.00  0.00    -0.348 N 
ATOM     49  C   UNL     1      10.337  29.582  12.536  1.00  0.00     0.217 C 
ATOM     50  H   UNL     1      11.546  28.171  11.556  1.00  0.00     0.163 HD
ATOM     51  C   UNL     1       9.099  29.149  11.768  1.00  0.00     0.114 C 
ATOM     52  O   UNL     1      10.151  30.491  13.347  1.00  0.00    -0.275 OA
ENDBRANCH   7  48
ENDBRANCH   1   2
BRANCH   1  53
ATOM     53  O   UNL     1      14.014  30.110  10.873  1.00  0.00    -0.388 OA
ATOM     54  H   UNL     1      13.790  29.233  11.221  1.00  0.00     0.211 HD
ENDBRANCH   1  53
BRANCH   1  55
ATOM     55  C   UNL     1      15.612  31.145  12.274  1.00  0.00     0.165 C 
BRANCH  55  56
ATOM     56  O   UNL     1      16.419  31.987  11.553  1.00  0.00    -0.388 OA
ATOM     57  H   UNL     1      15.937  32.701  11.079  1.00  0.00     0.211 HD
ENDBRANCH  55  56
BRANCH  55  58
ATOM     58  C   UNL     1      16.291  29.756  12.358  1.00  0.00     0.154 C 
BRANCH  58  59
ATOM     59  N   UNL     1      16.933  29.712  13.666  1.00  0.00    -0.319 N 
ATOM     60  C   UNL     1      18.342  29.493  13.806  1.00  0.00     0.407 C 
ATOM     61  H   UNL     1      16.368  29.842  14.536  1.00  0.00     0.167 HD
ATOM     62  O   UNL     1      19.046  29.338  12.786  1.00  0.00    -0.225 OA
BRANCH  60  63
ATOM     63  O   UNL     1      18.941  29.446  15.047  1.00  0.00    -0.443 OA
BRANCH  63  64
ATOM     64  C   UNL     1      19.678  30.455  15.667  1.00  0.00     0.294 C 
BRANCH  64  65
ATOM     65  C   UNL     1      20.302  29.938  16.910  1.00  0.00     0.120 A 
ATOM     66  C   UNL     1      20.738  28.646  17.141  1.00  0.00     0.138 A 
ATOM     67  N   UNL     1      20.575  30.596  18.047  1.00  0.00    -0.132 NA
ATOM     68  N   UNL     1      21.253  28.578  18.394  1.00  0.00    -0.249 N 
ATOM     69  N   UNL     1      21.140  29.772  18.918  1.00  0.00    -0.067 NA
BRANCH  68  70
ATOM     70  C   UNL     1      21.842  27.363  18.948  1.00  0.00     0.181 C 
BRANCH  70  71
ATOM     71  C   UNL     1      21.656  27.480  20.458  1.00  0.00     0.170 C 
BRANCH  71  72
ATOM     72  O   UNL     1      20.315  27.381  20.743  1.00  0.00    -0.388 OA
ATOM     73  H   UNL     1      20.112  26.497  21.133  1.00  0.00     0.211 HD
ENDBRANCH  71  72
BRANCH  71  74
ATOM     74  C   UNL     1      22.492  26.460  21.168  1.00  0.00     0.239 C 
BRANCH  74  75
ATOM     75  N   UNL     1      21.812  26.025  22.377  1.00  0.00    -0.227 N 
ATOM     76  C   UNL     1      21.292  24.760  22.503  1.00  0.00     0.204 A 
ATOM     77  C   UNL     1      21.600  26.704  23.505  1.00  0.00     0.434 A 
ATOM     78  C   UNL     1      20.744  24.674  23.763  1.00  0.00     0.245 A 
ATOM     79  N   UNL     1      20.943  25.867  24.356  1.00  0.00    -0.074 NA
BRANCH  77  80
ATOM     80  N   UNL     1      21.970  28.045  23.772  1.00  0.00    -0.047 N 
ATOM     81  O   UNL     1      23.194  28.375  23.874  1.00  0.00    -0.390 OA
ATOM     82  O   UNL     1      21.069  29.059  23.945  1.00  0.00    -0.390 OA
ENDBRANCH  77  80
ENDBRANCH  74  75
ENDBRANCH  71  74
ENDBRANCH  70  71
ENDBRANCH  68  70
ENDBRANCH  64  65
ENDBRANCH  63  64
ENDBRANCH  60  63
ENDBRANCH  58  59
ENDBRANCH  55  58
ENDBRANCH   1  55
TORSDOF 35
