REMARK VINA RESULT:    -6.753     16.264     21.702
REMARK INTER + INTRA:         -23.441
REMARK INTER:                 -16.605
REMARK INTRA:                  -6.836
REMARK UNBOUND:                -5.634
REMARK SMILES CC(=O)N[C@@H]1[C@@H](O)C[C@](OC[C@H]2O[C@@H](O[C@H]3[C@H](O)[C@@H](O)[C@H](OCCN=[N+]=[N-])O[C@@H]3CO)[C@H](O)[C@@H](O)[C@H]2O)(C(=O)O)O[C@H]1C(O)[C@H](O)CNC(=O)OCc1cn(Cc2ccccc2OC(C)=O)nn1
REMARK SMILES IDX 43 1 42 2 9 3 8 4 41 5 6 6 5 7 10 8 11 9 12 10 14 11 13 12
REMARK SMILES IDX 32 13 34 14 36 15 15 16 16 17 29 18 28 19 21 20 17 21 19 22
REMARK SMILES IDX 30 23 31 24 22 26 23 27 24 28 25 29 26 30 27 31 18 32 20 34
REMARK SMILES IDX 33 36 35 38 37 40 38 42 39 43 40 44 7 46 4 48 2 49 1 51 3 52
REMARK SMILES IDX 44 53 45 55 46 56 47 58 48 59 49 60 50 62 51 63 52 64 53 65
REMARK SMILES IDX 54 66 68 67 55 68 67 69 56 70 57 71 62 72 58 73 61 74 59 75
REMARK SMILES IDX 60 76 63 77 64 78 66 79 65 80
REMARK H PARENT 31 25 18 33 20 35 33 37 35 39 37 41 40 45 7 47 4 50 44 54
REMARK H PARENT 46 57 48 61
REMARK Flexibility Score: inf
ROOT
ATOM      1  C   UNL     1       9.520  23.196  35.599  1.00  0.00     0.176 C 
ENDROOT
BRANCH   1   2
ATOM      2  C   UNL     1       8.481  24.242  35.974  1.00  0.00     0.178 C 
ATOM      3  C   UNL     1       6.181  24.483  36.274  1.00  0.00     0.272 C 
ATOM      4  C   UNL     1       6.624  25.938  36.162  1.00  0.00     0.113 C 
ATOM      5  O   UNL     1       7.242  23.660  35.826  1.00  0.00    -0.332 OA
ATOM      6  C   UNL     1       7.352  26.057  34.833  1.00  0.00     0.145 C 
ATOM      7  C   UNL     1       8.664  25.387  34.977  1.00  0.00     0.142 C 
BRANCH   3   8
ATOM      8  O   UNL     1       5.115  24.181  35.481  1.00  0.00    -0.338 OA
BRANCH   8   9
ATOM      9  C   UNL     1       3.889  24.052  36.051  1.00  0.00     0.199 C 
BRANCH   9  10
ATOM     10  C   UNL     1       3.123  22.968  35.273  1.00  0.00     0.179 C 
ATOM     11  C   UNL     1       3.382  21.467  33.552  1.00  0.00     0.282 C 
ATOM     12  O   UNL     1       4.061  22.407  34.400  1.00  0.00    -0.341 OA
ATOM     13  C   UNL     1       3.115  20.289  34.421  1.00  0.00     0.202 C 
ATOM     14  C   UNL     1       2.087  20.753  35.468  1.00  0.00     0.179 C 
ATOM     15  C   UNL     1       2.558  21.954  36.215  1.00  0.00     0.177 C 
BRANCH  11  16
ATOM     16  O   UNL     1       4.239  21.300  32.492  1.00  0.00    -0.341 OA
BRANCH  16  17
ATOM     17  C   UNL     1       3.720  21.880  31.320  1.00  0.00     0.184 C 
ATOM     18  C   UNL     1       2.824  23.037  31.563  1.00  0.00     0.178 C 
ATOM     19  O   UNL     1       1.649  22.989  30.805  1.00  0.00    -0.341 OA
ATOM     20  C   UNL     1       1.849  22.683  29.466  1.00  0.00     0.281 C 
ATOM     21  C   UNL     1       2.774  20.791  30.689  1.00  0.00     0.180 C 
ATOM     22  C   UNL     1       2.476  21.299  29.305  1.00  0.00     0.202 C 
BRANCH  18  23
ATOM     23  C   UNL     1       3.463  24.389  31.517  1.00  0.00     0.191 C 
BRANCH  23  24
ATOM     24  O   UNL     1       4.768  24.294  31.975  1.00  0.00    -0.394 OA
ATOM     25  H   UNL     1       5.322  25.002  31.584  1.00  0.00     0.210 HD
ENDBRANCH  23  24
ENDBRANCH  18  23
BRANCH  20  26
ATOM     26  O   UNL     1       2.666  23.576  28.868  1.00  0.00    -0.350 OA
BRANCH  26  27
ATOM     27  C   UNL     1       2.178  24.586  28.124  1.00  0.00     0.169 C 
BRANCH  27  28
ATOM     28  C   UNL     1       3.127  25.565  27.532  1.00  0.00     0.119 C 
BRANCH  28  29
ATOM     29  N   UNL     1       3.148  25.469  26.112  1.00  0.00    -0.092 NA
ATOM     30  N   UNL     1       2.144  25.469  25.435  1.00  0.00     0.001 N 
ATOM     31  N   UNL     1       1.093  25.743  24.849  1.00  0.00    -0.003 NA
ENDBRANCH  28  29
ENDBRANCH  27  28
ENDBRANCH  26  27
ENDBRANCH  20  26
BRANCH  21  32
ATOM     32  O   UNL     1       3.401  19.570  30.718  1.00  0.00    -0.387 OA
ATOM     33  H   UNL     1       3.274  19.140  31.624  1.00  0.00     0.211 HD
ENDBRANCH  21  32
BRANCH  22  34
ATOM     34  O   UNL     1       1.692  20.430  28.578  1.00  0.00    -0.385 OA
ATOM     35  H   UNL     1       2.310  19.809  28.096  1.00  0.00     0.211 HD
ENDBRANCH  22  34
ENDBRANCH  16  17
ENDBRANCH  11  16
BRANCH  13  36
ATOM     36  O   UNL     1       2.501  19.236  33.762  1.00  0.00    -0.385 OA
ATOM     37  H   UNL     1       2.848  18.351  33.998  1.00  0.00     0.211 HD
ENDBRANCH  13  36
BRANCH  14  38
ATOM     38  O   UNL     1       1.761  19.694  36.317  1.00  0.00    -0.387 OA
ATOM     39  H   UNL     1       2.150  19.924  37.209  1.00  0.00     0.211 HD
ENDBRANCH  14  38
BRANCH  15  40
ATOM     40  O   UNL     1       3.476  21.537  37.176  1.00  0.00    -0.387 OA
ATOM     41  H   UNL     1       4.213  22.163  37.308  1.00  0.00     0.211 HD
ENDBRANCH  15  40
ENDBRANCH   9  10
ENDBRANCH   8   9
ENDBRANCH   3   8
BRANCH   3  42
ATOM     42  C   UNL     1       5.966  24.235  37.717  1.00  0.00     0.364 C 
ATOM     43  O   UNL     1       5.974  25.138  38.551  1.00  0.00    -0.246 OA
BRANCH  42  44
ATOM     44  O   UNL     1       5.743  22.923  38.142  1.00  0.00    -0.477 OA
ATOM     45  H   UNL     1       5.641  22.150  37.468  1.00  0.00     0.296 HD
ENDBRANCH  42  44
ENDBRANCH   3  42
BRANCH   6  46
ATOM     46  O   UNL     1       6.588  25.329  33.916  1.00  0.00    -0.391 OA
ATOM     47  H   UNL     1       6.888  25.431  32.982  1.00  0.00     0.211 HD
ENDBRANCH   6  46
BRANCH   7  48
ATOM     48  N   UNL     1       9.772  26.175  35.325  1.00  0.00    -0.348 N 
ATOM     49  C   UNL     1      10.830  26.508  34.433  1.00  0.00     0.217 C 
ATOM     50  H   UNL     1       9.821  26.544  36.317  1.00  0.00     0.163 HD
ATOM     51  C   UNL     1      11.976  27.338  34.835  1.00  0.00     0.114 C 
ATOM     52  O   UNL     1      10.744  26.064  33.280  1.00  0.00    -0.275 OA
ENDBRANCH   7  48
ENDBRANCH   1   2
BRANCH   1  53
ATOM     53  O   UNL     1       9.932  23.492  34.313  1.00  0.00    -0.388 OA
ATOM     54  H   UNL     1       9.964  22.724  33.705  1.00  0.00     0.211 HD
ENDBRANCH   1  53
BRANCH   1  55
ATOM     55  C   UNL     1      10.618  23.054  36.600  1.00  0.00     0.165 C 
BRANCH  55  56
ATOM     56  O   UNL     1      11.050  21.725  36.573  1.00  0.00    -0.388 OA
ATOM     57  H   UNL     1      11.829  21.580  37.131  1.00  0.00     0.211 HD
ENDBRANCH  55  56
BRANCH  55  58
ATOM     58  C   UNL     1      10.205  23.461  37.994  1.00  0.00     0.154 C 
BRANCH  58  59
ATOM     59  N   UNL     1      10.508  22.505  39.006  1.00  0.00    -0.319 N 
ATOM     60  C   UNL     1       9.534  21.821  39.779  1.00  0.00     0.407 C 
ATOM     61  H   UNL     1      11.518  22.274  39.210  1.00  0.00     0.167 HD
ATOM     62  O   UNL     1       8.325  22.080  39.559  1.00  0.00    -0.225 OA
BRANCH  60  63
ATOM     63  O   UNL     1       9.840  20.900  40.752  1.00  0.00    -0.443 OA
BRANCH  63  64
ATOM     64  C   UNL     1       9.301  20.967  42.071  1.00  0.00     0.294 C 
BRANCH  64  65
ATOM     65  C   UNL     1       8.461  19.798  42.370  1.00  0.00     0.120 A 
ATOM     66  C   UNL     1       7.186  19.626  41.887  1.00  0.00     0.138 A 
ATOM     67  N   UNL     1       8.720  18.717  43.115  1.00  0.00    -0.132 NA
ATOM     68  N   UNL     1       6.705  18.466  42.341  1.00  0.00    -0.248 N 
ATOM     69  N   UNL     1       7.682  17.930  43.097  1.00  0.00    -0.067 NA
BRANCH  68  70
ATOM     70  C   UNL     1       5.415  17.839  42.128  1.00  0.00     0.185 C 
BRANCH  70  71
ATOM     71  C   UNL     1       5.506  16.705  41.203  1.00  0.00     0.016 A 
ATOM     72  C   UNL     1       5.504  16.867  39.861  1.00  0.00     0.135 A 
ATOM     73  C   UNL     1       5.610  15.432  41.773  1.00  0.00     0.009 A 
ATOM     74  C   UNL     1       5.609  15.739  39.045  1.00  0.00     0.047 A 
ATOM     75  C   UNL     1       5.712  14.332  40.962  1.00  0.00     0.001 A 
ATOM     76  C   UNL     1       5.713  14.475  39.593  1.00  0.00     0.004 A 
BRANCH  72  77
ATOM     77  O   UNL     1       5.402  18.101  39.252  1.00  0.00    -0.426 OA
BRANCH  77  78
ATOM     78  C   UNL     1       4.232  18.383  38.538  1.00  0.00     0.308 C 
ATOM     79  O   UNL     1       4.322  18.657  37.322  1.00  0.00    -0.252 OA
ATOM     80  C   UNL     1       2.935  18.352  39.220  1.00  0.00     0.139 C 
ENDBRANCH  77  78
ENDBRANCH  72  77
ENDBRANCH  70  71
ENDBRANCH  68  70
ENDBRANCH  64  65
ENDBRANCH  63  64
ENDBRANCH  60  63
ENDBRANCH  58  59
ENDBRANCH  55  58
ENDBRANCH   1  55
TORSDOF 33
