REMARK VINA RESULT:    -5.244     13.241     17.396
REMARK INTER + INTRA:         -22.552
REMARK INTER:                 -17.416
REMARK INTRA:                  -5.136
REMARK UNBOUND:                -8.417
REMARK SMILES CC(=O)N[C@@H]1[C@@H](O)C[C@](OC[C@H]2O[C@@H](O[C@H]3[C@H](O)[C@@H](O)[C@H](OCCN=[N+]=[N-])O[C@@H]3CO)[C@H](O)[C@@H](O)[C@H]2O)(C(=O)O)O[C@H]1C(O)[C@H](O)CNC(=O)OCc1cn(CCNC(=O)NCc2ccco2)nn1
REMARK SMILES IDX 43 1 42 2 9 3 8 4 41 5 6 6 5 7 10 8 11 9 12 10 14 11 13 12
REMARK SMILES IDX 32 13 34 14 36 15 15 16 16 17 29 18 28 19 21 20 17 21 19 22
REMARK SMILES IDX 30 23 31 24 22 26 23 27 24 28 25 29 26 30 27 31 18 32 20 34
REMARK SMILES IDX 33 36 35 38 37 40 38 42 39 43 40 44 7 46 4 48 2 49 1 51 3 52
REMARK SMILES IDX 44 53 45 55 46 56 47 58 48 59 49 60 50 62 51 63 52 64 53 65
REMARK SMILES IDX 54 66 69 67 55 68 68 69 56 70 57 71 58 72 59 73 60 75 61 76
REMARK SMILES IDX 62 78 63 79 64 80 67 81 65 82 66 83
REMARK H PARENT 31 25 18 33 20 35 33 37 35 39 37 41 40 45 7 47 4 50 44 54
REMARK H PARENT 46 57 48 61 58 74 61 77
REMARK Flexibility Score: inf
ROOT
ATOM      1  C   UNL     1       2.647  23.523  28.277  1.00  0.00     0.176 C 
ENDROOT
BRANCH   1   2
ATOM      2  C   UNL     1       1.159  23.583  28.418  1.00  0.00     0.178 C 
ATOM      3  C   UNL     1       0.524  21.911  29.985  1.00  0.00     0.272 C 
ATOM      4  C   UNL     1       0.700  20.990  28.734  1.00  0.00     0.113 C 
ATOM      5  O   UNL     1       0.701  23.203  29.642  1.00  0.00    -0.332 OA
ATOM      6  C   UNL     1       0.105  21.567  27.512  1.00  0.00     0.145 C 
ATOM      7  C   UNL     1       0.373  23.035  27.283  1.00  0.00     0.142 C 
BRANCH   3   8
ATOM      8  O   UNL     1       1.564  21.531  30.806  1.00  0.00    -0.338 OA
BRANCH   8   9
ATOM      9  C   UNL     1       1.900  22.254  31.871  1.00  0.00     0.199 C 
BRANCH   9  10
ATOM     10  C   UNL     1       3.237  22.556  32.345  1.00  0.00     0.179 C 
ATOM     11  C   UNL     1       4.628  23.443  33.938  1.00  0.00     0.282 C 
ATOM     12  O   UNL     1       3.355  22.938  33.670  1.00  0.00    -0.341 OA
ATOM     13  C   UNL     1       5.689  23.018  32.992  1.00  0.00     0.202 C 
ATOM     14  C   UNL     1       5.514  21.660  32.375  1.00  0.00     0.179 C 
ATOM     15  C   UNL     1       4.073  21.265  32.241  1.00  0.00     0.177 C 
BRANCH  11  16
ATOM     16  O   UNL     1       5.034  23.177  35.236  1.00  0.00    -0.341 OA
BRANCH  16  17
ATOM     17  C   UNL     1       5.485  24.330  35.911  1.00  0.00     0.184 C 
ATOM     18  C   UNL     1       4.787  25.508  35.295  1.00  0.00     0.178 C 
ATOM     19  O   UNL     1       5.588  26.648  35.281  1.00  0.00    -0.341 OA
ATOM     20  C   UNL     1       6.631  26.386  34.401  1.00  0.00     0.281 C 
ATOM     21  C   UNL     1       6.974  24.350  35.828  1.00  0.00     0.180 C 
ATOM     22  C   UNL     1       7.593  25.442  35.040  1.00  0.00     0.202 C 
BRANCH  18  23
ATOM     23  C   UNL     1       3.579  25.850  36.168  1.00  0.00     0.191 C 
BRANCH  23  24
ATOM     24  O   UNL     1       3.936  25.549  37.500  1.00  0.00    -0.394 OA
ATOM     25  H   UNL     1       4.795  25.040  37.417  1.00  0.00     0.210 HD
ENDBRANCH  23  24
ENDBRANCH  18  23
BRANCH  20  26
ATOM     26  O   UNL     1       7.295  27.601  34.212  1.00  0.00    -0.350 OA
BRANCH  26  27
ATOM     27  C   UNL     1       6.410  28.618  33.854  1.00  0.00     0.169 C 
BRANCH  27  28
ATOM     28  C   UNL     1       6.486  28.741  32.330  1.00  0.00     0.119 C 
BRANCH  28  29
ATOM     29  N   UNL     1       5.190  28.335  31.818  1.00  0.00    -0.092 NA
ATOM     30  N   UNL     1       5.097  27.476  30.929  1.00  0.00     0.001 N 
ATOM     31  N   UNL     1       5.016  26.418  30.283  1.00  0.00    -0.003 NA
ENDBRANCH  28  29
ENDBRANCH  27  28
ENDBRANCH  26  27
ENDBRANCH  20  26
BRANCH  21  32
ATOM     32  O   UNL     1       7.464  24.371  37.149  1.00  0.00    -0.387 OA
ATOM     33  H   UNL     1       7.149  23.612  37.672  1.00  0.00     0.211 HD
ENDBRANCH  21  32
BRANCH  22  34
ATOM     34  O   UNL     1       8.329  24.857  33.978  1.00  0.00    -0.385 OA
ATOM     35  H   UNL     1       9.221  25.321  33.994  1.00  0.00     0.211 HD
ENDBRANCH  22  34
ENDBRANCH  16  17
ENDBRANCH  11  16
BRANCH  13  36
ATOM     36  O   UNL     1       5.990  23.996  32.034  1.00  0.00    -0.385 OA
ATOM     37  H   UNL     1       6.936  24.260  32.062  1.00  0.00     0.211 HD
ENDBRANCH  13  36
BRANCH  14  38
ATOM     38  O   UNL     1       6.234  20.677  33.065  1.00  0.00    -0.387 OA
ATOM     39  H   UNL     1       6.064  19.831  32.564  1.00  0.00     0.211 HD
ENDBRANCH  14  38
BRANCH  15  40
ATOM     40  O   UNL     1       3.661  20.329  33.160  1.00  0.00    -0.387 OA
ATOM     41  H   UNL     1       4.119  20.506  34.002  1.00  0.00     0.211 HD
ENDBRANCH  15  40
ENDBRANCH   9  10
ENDBRANCH   8   9
ENDBRANCH   3   8
BRANCH   3  42
ATOM     42  C   UNL     1      -0.771  21.504  30.523  1.00  0.00     0.364 C 
ATOM     43  O   UNL     1      -1.685  22.322  30.702  1.00  0.00    -0.246 OA
BRANCH  42  44
ATOM     44  O   UNL     1      -1.078  20.186  30.875  1.00  0.00    -0.477 OA
ATOM     45  H   UNL     1      -1.175  19.947  31.863  1.00  0.00     0.296 HD
ENDBRANCH  42  44
ENDBRANCH   3  42
BRANCH   6  46
ATOM     46  O   UNL     1       0.609  20.843  26.414  1.00  0.00    -0.391 OA
ATOM     47  H   UNL     1       1.426  20.359  26.696  1.00  0.00     0.211 HD
ENDBRANCH   6  46
BRANCH   7  48
ATOM     48  N   UNL     1      -0.909  23.723  27.133  1.00  0.00    -0.348 N 
ATOM     49  C   UNL     1      -1.076  24.758  26.203  1.00  0.00     0.217 C 
ATOM     50  H   UNL     1      -1.700  23.420  27.740  1.00  0.00     0.163 HD
ATOM     51  C   UNL     1      -2.363  25.491  26.013  1.00  0.00     0.114 C 
ATOM     52  O   UNL     1      -0.068  25.075  25.494  1.00  0.00    -0.275 OA
ENDBRANCH   7  48
ENDBRANCH   1   2
BRANCH   1  53
ATOM     53  O   UNL     1       3.215  24.391  29.276  1.00  0.00    -0.388 OA
ATOM     54  H   UNL     1       3.878  24.921  28.808  1.00  0.00     0.211 HD
ENDBRANCH   1  53
BRANCH   1  55
ATOM     55  C   UNL     1       3.218  24.076  27.004  1.00  0.00     0.165 C 
BRANCH  55  56
ATOM     56  O   UNL     1       4.357  23.475  26.522  1.00  0.00    -0.388 OA
ATOM     57  H   UNL     1       4.562  23.708  25.583  1.00  0.00     0.211 HD
ENDBRANCH  55  56
BRANCH  55  58
ATOM     58  C   UNL     1       3.407  25.593  27.094  1.00  0.00     0.154 C 
BRANCH  58  59
ATOM     59  N   UNL     1       4.728  25.976  26.654  1.00  0.00    -0.319 N 
ATOM     60  C   UNL     1       5.234  27.290  26.774  1.00  0.00     0.407 C 
ATOM     61  H   UNL     1       5.336  25.249  26.231  1.00  0.00     0.167 HD
ATOM     62  O   UNL     1       4.513  28.185  27.288  1.00  0.00    -0.225 OA
BRANCH  60  63
ATOM     63  O   UNL     1       6.511  27.631  26.339  1.00  0.00    -0.443 OA
BRANCH  63  64
ATOM     64  C   UNL     1       7.042  26.976  25.192  1.00  0.00     0.294 C 
BRANCH  64  65
ATOM     65  C   UNL     1       8.406  27.558  25.004  1.00  0.00     0.120 A 
ATOM     66  C   UNL     1       8.671  28.840  24.605  1.00  0.00     0.138 A 
ATOM     67  N   UNL     1       9.593  26.930  25.197  1.00  0.00    -0.132 NA
ATOM     68  N   UNL     1       9.990  28.953  24.565  1.00  0.00    -0.250 N 
ATOM     69  N   UNL     1      10.542  27.794  24.924  1.00  0.00    -0.067 NA
BRANCH  68  70
ATOM     70  C   UNL     1      10.712  30.163  24.174  1.00  0.00     0.167 C 
BRANCH  70  71
ATOM     71  C   UNL     1      12.204  29.833  24.237  1.00  0.00     0.141 C 
BRANCH  71  72
ATOM     72  N   UNL     1      12.544  29.191  23.000  1.00  0.00    -0.336 N 
ATOM     73  C   UNL     1      13.648  29.554  22.203  1.00  0.00     0.315 C 
ATOM     74  H   UNL     1      11.912  28.404  22.692  1.00  0.00     0.165 HD
ATOM     75  O   UNL     1      14.402  30.496  22.530  1.00  0.00    -0.249 OA
ATOM     76  N   UNL     1      13.900  28.817  20.997  1.00  0.00    -0.331 N 
ATOM     77  H   UNL     1      13.240  28.032  20.762  1.00  0.00     0.165 HD
BRANCH  76  78
ATOM     78  C   UNL     1      15.017  29.155  20.160  1.00  0.00     0.193 C 
BRANCH  78  79
ATOM     79  C   UNL     1      14.543  29.718  18.867  1.00  0.00     0.122 A 
ATOM     80  C   UNL     1      13.544  30.676  18.749  1.00  0.00     0.047 A 
ATOM     81  O   UNL     1      14.968  29.420  17.686  1.00  0.00    -0.467 OA
ATOM     82  C   UNL     1      13.412  30.920  17.414  1.00  0.00     0.042 A 
ATOM     83  C   UNL     1      14.319  30.116  16.778  1.00  0.00     0.195 A 
ENDBRANCH  78  79
ENDBRANCH  76  78
ENDBRANCH  71  72
ENDBRANCH  70  71
ENDBRANCH  68  70
ENDBRANCH  64  65
ENDBRANCH  63  64
ENDBRANCH  60  63
ENDBRANCH  58  59
ENDBRANCH  55  58
ENDBRANCH   1  55
TORSDOF 34
