REMARK VINA RESULT:    -6.748      3.589      6.717
REMARK INTER + INTRA:         -21.752
REMARK INTER:                 -13.746
REMARK INTRA:                  -8.006
REMARK UNBOUND:                -4.749
REMARK SMILES CC(=O)N[C@@H]1[C@@H](O)C[C@](OC[C@H]2O[C@@H](O[C@H]3[C@H](O)[C@@H](O)[C@H](OCCN=[N+]=[N-])O[C@@H]3CO)[C@H](O)[C@@H](O)[C@H]2O)(C(=O)O)O[C@H]1C(O)[C@H](O)CNC(=O)OCc1cn(-c2ccccc2C(C)=O)nn1
REMARK SMILES IDX 9 1 8 2 6 3 5 4 42 5 41 6 10 7 11 8 12 9 14 10 13 11 32 12
REMARK SMILES IDX 34 13 36 14 15 15 16 16 29 17 28 18 21 19 17 20 19 21 30 22
REMARK SMILES IDX 31 23 22 25 23 26 24 27 25 28 26 29 27 30 18 31 20 33 33 35
REMARK SMILES IDX 35 37 37 39 38 41 39 42 40 43 7 45 43 47 44 48 45 50 46 51
REMARK SMILES IDX 47 53 48 54 49 55 50 57 51 58 52 59 53 60 54 61 66 62 55 63
REMARK SMILES IDX 65 64 56 65 61 66 57 67 60 68 58 69 59 70 62 71 64 72 63 73
REMARK SMILES IDX 4 74 2 75 1 77 3 78
REMARK H PARENT 31 24 18 32 20 34 33 36 35 38 37 40 40 44 7 46 44 49 46 52
REMARK H PARENT 48 56 4 76
REMARK Flexibility Score: inf
ROOT
ATOM      1  C   UNL     1      18.980  31.953  20.444  1.00  0.00     0.272 C 
ATOM      2  C   UNL     1      18.590  32.108  19.003  1.00  0.00     0.113 C 
ATOM      3  C   UNL     1      19.763  31.696  18.153  1.00  0.00     0.145 C 
ATOM      4  C   UNL     1      19.907  30.204  18.397  1.00  0.00     0.142 C 
ATOM      5  C   UNL     1      20.310  30.075  19.841  1.00  0.00     0.178 C 
ATOM      6  O   UNL     1      20.124  31.145  20.635  1.00  0.00    -0.332 OA
ENDROOT
BRANCH   1   7
ATOM      7  O   UNL     1      18.075  31.521  21.285  1.00  0.00    -0.338 OA
BRANCH   7   8
ATOM      8  C   UNL     1      16.951  31.980  21.739  1.00  0.00     0.199 C 
BRANCH   8   9
ATOM      9  C   UNL     1      15.608  31.398  21.508  1.00  0.00     0.179 C 
ATOM     10  C   UNL     1      14.201  30.822  19.764  1.00  0.00     0.282 C 
ATOM     11  O   UNL     1      15.488  31.203  20.097  1.00  0.00    -0.341 OA
ATOM     12  C   UNL     1      13.336  30.377  20.882  1.00  0.00     0.202 C 
ATOM     13  C   UNL     1      14.017  29.646  21.997  1.00  0.00     0.179 C 
ATOM     14  C   UNL     1      15.494  29.950  22.041  1.00  0.00     0.177 C 
BRANCH  10  15
ATOM     15  O   UNL     1      14.254  29.826  18.790  1.00  0.00    -0.341 OA
BRANCH  15  16
ATOM     16  C   UNL     1      14.860  30.277  17.620  1.00  0.00     0.184 C 
ATOM     17  C   UNL     1      13.810  30.312  16.537  1.00  0.00     0.178 C 
ATOM     18  O   UNL     1      14.064  29.487  15.472  1.00  0.00    -0.341 OA
ATOM     19  C   UNL     1      15.296  29.624  14.882  1.00  0.00     0.281 C 
ATOM     20  C   UNL     1      15.866  29.185  17.229  1.00  0.00     0.180 C 
ATOM     21  C   UNL     1      16.429  29.556  15.895  1.00  0.00     0.202 C 
BRANCH  17  22
ATOM     22  C   UNL     1      13.610  31.758  16.121  1.00  0.00     0.191 C 
BRANCH  22  23
ATOM     23  O   UNL     1      14.703  32.491  16.579  1.00  0.00    -0.394 OA
ATOM     24  H   UNL     1      15.566  32.188  16.242  1.00  0.00     0.210 HD
ENDBRANCH  22  23
ENDBRANCH  17  22
BRANCH  19  25
ATOM     25  O   UNL     1      15.422  30.719  14.051  1.00  0.00    -0.350 OA
BRANCH  25  26
ATOM     26  C   UNL     1      15.384  30.295  12.731  1.00  0.00     0.169 C 
BRANCH  26  27
ATOM     27  C   UNL     1      16.803  30.051  12.242  1.00  0.00     0.119 C 
BRANCH  27  28
ATOM     28  N   UNL     1      17.680  31.143  12.680  1.00  0.00    -0.092 NA
ATOM     29  N   UNL     1      18.658  30.815  13.351  1.00  0.00     0.001 N 
ATOM     30  N   UNL     1      19.595  30.657  14.114  1.00  0.00    -0.003 NA
ENDBRANCH  27  28
ENDBRANCH  26  27
ENDBRANCH  25  26
ENDBRANCH  19  25
BRANCH  20  31
ATOM     31  O   UNL     1      16.817  29.064  18.216  1.00  0.00    -0.387 OA
ATOM     32  H   UNL     1      16.402  28.899  19.119  1.00  0.00     0.211 HD
ENDBRANCH  20  31
BRANCH  21  33
ATOM     33  O   UNL     1      17.445  28.688  15.488  1.00  0.00    -0.385 OA
ATOM     34  H   UNL     1      17.300  27.793  15.923  1.00  0.00     0.211 HD
ENDBRANCH  21  33
ENDBRANCH  15  16
ENDBRANCH  10  15
BRANCH  12  35
ATOM     35  O   UNL     1      12.514  31.413  21.353  1.00  0.00    -0.385 OA
ATOM     36  H   UNL     1      11.827  31.072  21.980  1.00  0.00     0.211 HD
ENDBRANCH  12  35
BRANCH  13  37
ATOM     37  O   UNL     1      13.886  28.253  21.867  1.00  0.00    -0.387 OA
ATOM     38  H   UNL     1      13.910  28.064  20.892  1.00  0.00     0.211 HD
ENDBRANCH  13  37
BRANCH  14  39
ATOM     39  O   UNL     1      16.217  29.093  21.204  1.00  0.00    -0.387 OA
ATOM     40  H   UNL     1      16.346  29.467  20.295  1.00  0.00     0.211 HD
ENDBRANCH  14  39
ENDBRANCH   8   9
ENDBRANCH   7   8
ENDBRANCH   1   7
BRANCH   1  41
ATOM     41  C   UNL     1      19.526  33.286  20.825  1.00  0.00     0.364 C 
ATOM     42  O   UNL     1      20.481  33.373  21.672  1.00  0.00    -0.246 OA
BRANCH  41  43
ATOM     43  O   UNL     1      19.095  34.498  20.348  1.00  0.00    -0.477 OA
ATOM     44  H   UNL     1      19.510  34.950  19.544  1.00  0.00     0.296 HD
ENDBRANCH  41  43
ENDBRANCH   1  41
BRANCH   3  45
ATOM     45  O   UNL     1      19.415  31.967  16.833  1.00  0.00    -0.391 OA
ATOM     46  H   UNL     1      19.067  32.892  16.732  1.00  0.00     0.211 HD
ENDBRANCH   3  45
BRANCH   5  47
ATOM     47  C   UNL     1      19.717  28.753  20.429  1.00  0.00     0.176 C 
BRANCH  47  48
ATOM     48  O   UNL     1      19.403  29.124  21.791  1.00  0.00    -0.388 OA
ATOM     49  H   UNL     1      20.262  29.556  22.088  1.00  0.00     0.211 HD
ENDBRANCH  47  48
BRANCH  47  50
ATOM     50  C   UNL     1      20.736  27.697  20.509  1.00  0.00     0.165 C 
BRANCH  50  51
ATOM     51  O   UNL     1      20.481  26.796  21.573  1.00  0.00    -0.388 OA
ATOM     52  H   UNL     1      21.024  25.983  21.488  1.00  0.00     0.211 HD
ENDBRANCH  50  51
BRANCH  50  53
ATOM     53  C   UNL     1      22.142  27.916  20.177  1.00  0.00     0.154 C 
BRANCH  53  54
ATOM     54  N   UNL     1      23.023  26.819  20.336  1.00  0.00    -0.319 N 
ATOM     55  C   UNL     1      23.132  25.657  19.539  1.00  0.00     0.407 C 
ATOM     56  H   UNL     1      23.715  26.838  21.156  1.00  0.00     0.167 HD
ATOM     57  O   UNL     1      22.356  25.526  18.565  1.00  0.00    -0.225 OA
BRANCH  55  58
ATOM     58  O   UNL     1      24.050  24.641  19.767  1.00  0.00    -0.443 OA
BRANCH  58  59
ATOM     59  C   UNL     1      24.683  24.513  21.013  1.00  0.00     0.294 C 
BRANCH  59  60
ATOM     60  C   UNL     1      23.621  24.649  22.069  1.00  0.00     0.121 A 
ATOM     61  C   UNL     1      23.762  25.188  23.326  1.00  0.00     0.144 A 
ATOM     62  N   UNL     1      22.336  24.273  22.002  1.00  0.00    -0.131 NA
ATOM     63  N   UNL     1      22.551  25.113  23.968  1.00  0.00    -0.220 N 
ATOM     64  N   UNL     1      21.713  24.549  23.125  1.00  0.00    -0.062 NA
BRANCH  63  65
ATOM     65  C   UNL     1      22.335  25.542  25.306  1.00  0.00     0.077 A 
ATOM     66  C   UNL     1      21.803  26.721  25.688  1.00  0.00     0.043 A 
ATOM     67  C   UNL     1      22.719  24.617  26.296  1.00  0.00     0.029 A 
ATOM     68  C   UNL     1      21.662  26.964  27.071  1.00  0.00     0.014 A 
ATOM     69  C   UNL     1      22.570  24.881  27.639  1.00  0.00     0.002 A 
ATOM     70  C   UNL     1      22.029  26.077  28.042  1.00  0.00     0.001 A 
BRANCH  66  71
ATOM     71  C   UNL     1      21.386  27.730  24.743  1.00  0.00     0.161 C 
ATOM     72  O   UNL     1      20.114  27.780  24.527  1.00  0.00    -0.294 OA
ATOM     73  C   UNL     1      22.202  28.696  24.006  1.00  0.00     0.093 C 
ENDBRANCH  66  71
ENDBRANCH  63  65
ENDBRANCH  59  60
ENDBRANCH  58  59
ENDBRANCH  55  58
ENDBRANCH  53  54
ENDBRANCH  50  53
ENDBRANCH  47  50
ENDBRANCH   5  47
BRANCH   4  74
ATOM     74  N   UNL     1      20.832  29.589  17.493  1.00  0.00    -0.348 N 
ATOM     75  C   UNL     1      20.581  28.367  16.822  1.00  0.00     0.217 C 
ATOM     76  H   UNL     1      21.744  30.093  17.334  1.00  0.00     0.163 HD
ATOM     77  C   UNL     1      21.625  27.812  15.891  1.00  0.00     0.114 C 
ATOM     78  O   UNL     1      19.490  27.799  17.035  1.00  0.00    -0.275 OA
ENDBRANCH   4  74
TORSDOF 31
