REMARK VINA RESULT:    -5.617      2.772      9.151
REMARK INTER + INTRA:         -20.863
REMARK INTER:                 -14.407
REMARK INTRA:                  -6.456
REMARK UNBOUND:                -6.052
REMARK SMILES CC(=O)N[C@@H]1[C@@H](O)C[C@](OC[C@H]2O[C@@H](O[C@H]3[C@H](O)[C@@H](O)[C@H](OCCN=[N+]=[N-])O[C@@H]3CO)[C@H](O)[C@@H](O)[C@H]2O)(C(=O)O)O[C@H]1C(O)[C@H](O)CNC(=O)OCc1cn(CC(O)CO)nn1
REMARK SMILES IDX 43 1 42 2 9 3 8 4 41 5 6 6 5 7 10 8 11 9 12 10 14 11 13 12
REMARK SMILES IDX 32 13 34 14 36 15 15 16 16 17 29 18 28 19 21 20 17 21 19 22
REMARK SMILES IDX 30 23 31 24 22 26 23 27 24 28 25 29 26 30 27 31 18 32 20 34
REMARK SMILES IDX 33 36 35 38 37 40 38 42 39 43 40 44 7 46 4 48 2 49 1 51 3 52
REMARK SMILES IDX 44 53 45 55 46 56 47 58 48 59 49 60 50 62 51 63 52 64 53 65
REMARK SMILES IDX 54 66 62 67 55 68 61 69 56 70 57 71 58 72 59 74 60 75
REMARK H PARENT 31 25 18 33 20 35 33 37 35 39 37 41 40 45 7 47 4 50 44 54
REMARK H PARENT 46 57 48 61 58 73 60 76
REMARK Flexibility Score: inf
ROOT
ATOM      1  C   UNL     1       8.594  24.679  33.937  1.00  0.00     0.176 C 
ENDROOT
BRANCH   1   2
ATOM      2  C   UNL     1       7.259  25.081  34.592  1.00  0.00     0.178 C 
ATOM      3  C   UNL     1       5.101  24.268  35.106  1.00  0.00     0.272 C 
ATOM      4  C   UNL     1       4.475  25.487  34.489  1.00  0.00     0.113 C 
ATOM      5  O   UNL     1       6.379  24.085  34.555  1.00  0.00    -0.332 OA
ATOM      6  C   UNL     1       5.343  26.345  33.648  1.00  0.00     0.145 C 
ATOM      7  C   UNL     1       6.791  26.343  33.970  1.00  0.00     0.142 C 
BRANCH   3   8
ATOM      8  O   UNL     1       4.393  23.189  34.842  1.00  0.00    -0.338 OA
BRANCH   8   9
ATOM      9  C   UNL     1       3.321  22.748  34.335  1.00  0.00     0.199 C 
BRANCH   9  10
ATOM     10  C   UNL     1       3.178  22.220  32.945  1.00  0.00     0.179 C 
ATOM     11  C   UNL     1       2.699  22.913  30.818  1.00  0.00     0.282 C 
ATOM     12  O   UNL     1       3.267  23.329  32.018  1.00  0.00    -0.341 OA
ATOM     13  C   UNL     1       2.728  21.444  30.575  1.00  0.00     0.202 C 
ATOM     14  C   UNL     1       3.882  20.710  31.188  1.00  0.00     0.179 C 
ATOM     15  C   UNL     1       4.358  21.370  32.472  1.00  0.00     0.177 C 
BRANCH  11  16
ATOM     16  O   UNL     1       3.174  23.571  29.702  1.00  0.00    -0.341 OA
BRANCH  16  17
ATOM     17  C   UNL     1       2.559  24.797  29.462  1.00  0.00     0.184 C 
ATOM     18  C   UNL     1       1.707  24.695  28.233  1.00  0.00     0.178 C 
ATOM     19  O   UNL     1       2.133  25.513  27.198  1.00  0.00    -0.341 OA
ATOM     20  C   UNL     1       3.530  25.465  27.062  1.00  0.00     0.281 C 
ATOM     21  C   UNL     1       3.557  25.878  29.467  1.00  0.00     0.180 C 
ATOM     22  C   UNL     1       4.066  26.361  28.153  1.00  0.00     0.202 C 
BRANCH  18  23
ATOM     23  C   UNL     1       0.257  25.033  28.515  1.00  0.00     0.191 C 
BRANCH  23  24
ATOM     24  O   UNL     1      -0.040  26.348  28.185  1.00  0.00    -0.394 OA
ATOM     25  H   UNL     1       0.753  26.904  28.473  1.00  0.00     0.210 HD
ENDBRANCH  23  24
ENDBRANCH  18  23
BRANCH  20  26
ATOM     26  O   UNL     1       3.814  25.979  25.807  1.00  0.00    -0.350 OA
BRANCH  26  27
ATOM     27  C   UNL     1       3.414  27.293  25.624  1.00  0.00     0.169 C 
BRANCH  27  28
ATOM     28  C   UNL     1       4.487  28.155  24.997  1.00  0.00     0.119 C 
BRANCH  28  29
ATOM     29  N   UNL     1       5.806  27.610  25.175  1.00  0.00    -0.092 NA
ATOM     30  N   UNL     1       6.856  28.196  24.941  1.00  0.00     0.001 N 
ATOM     31  N   UNL     1       7.824  28.863  24.576  1.00  0.00    -0.003 NA
ENDBRANCH  28  29
ENDBRANCH  27  28
ENDBRANCH  26  27
ENDBRANCH  20  26
BRANCH  21  32
ATOM     32  O   UNL     1       3.105  27.009  30.192  1.00  0.00    -0.387 OA
ATOM     33  H   UNL     1       2.686  26.610  31.021  1.00  0.00     0.211 HD
ENDBRANCH  21  32
BRANCH  22  34
ATOM     34  O   UNL     1       5.453  26.477  28.097  1.00  0.00    -0.385 OA
ATOM     35  H   UNL     1       5.912  25.955  28.775  1.00  0.00     0.211 HD
ENDBRANCH  22  34
ENDBRANCH  16  17
ENDBRANCH  11  16
BRANCH  13  36
ATOM     36  O   UNL     1       1.482  20.835  30.854  1.00  0.00    -0.385 OA
ATOM     37  H   UNL     1       1.456  20.402  31.727  1.00  0.00     0.211 HD
ENDBRANCH  13  36
BRANCH  14  38
ATOM     38  O   UNL     1       4.943  20.509  30.308  1.00  0.00    -0.387 OA
ATOM     39  H   UNL     1       5.716  20.157  30.810  1.00  0.00     0.211 HD
ENDBRANCH  14  38
BRANCH  15  40
ATOM     40  O   UNL     1       5.372  22.290  32.094  1.00  0.00    -0.387 OA
ATOM     41  H   UNL     1       6.251  21.841  32.060  1.00  0.00     0.211 HD
ENDBRANCH  15  40
ENDBRANCH   9  10
ENDBRANCH   8   9
ENDBRANCH   3   8
BRANCH   3  42
ATOM     42  C   UNL     1       5.282  24.445  36.584  1.00  0.00     0.364 C 
ATOM     43  O   UNL     1       4.913  25.561  37.066  1.00  0.00    -0.246 OA
BRANCH  42  44
ATOM     44  O   UNL     1       5.812  23.486  37.407  1.00  0.00    -0.477 OA
ATOM     45  H   UNL     1       6.824  23.362  37.515  1.00  0.00     0.296 HD
ENDBRANCH  42  44
ENDBRANCH   3  42
BRANCH   6  46
ATOM     46  O   UNL     1       5.189  25.906  32.311  1.00  0.00    -0.391 OA
ATOM     47  H   UNL     1       5.645  26.528  31.710  1.00  0.00     0.211 HD
ENDBRANCH   6  46
BRANCH   7  48
ATOM     48  N   UNL     1       7.109  27.533  34.755  1.00  0.00    -0.348 N 
ATOM     49  C   UNL     1       8.006  28.526  34.287  1.00  0.00     0.217 C 
ATOM     50  H   UNL     1       6.687  27.695  35.692  1.00  0.00     0.163 HD
ATOM     51  C   UNL     1       8.333  29.737  35.082  1.00  0.00     0.114 C 
ATOM     52  O   UNL     1       8.528  28.351  33.158  1.00  0.00    -0.275 OA
ENDBRANCH   7  48
ENDBRANCH   1   2
BRANCH   1  53
ATOM     53  O   UNL     1       9.487  25.727  34.045  1.00  0.00    -0.388 OA
ATOM     54  H   UNL     1       9.966  25.690  34.910  1.00  0.00     0.211 HD
ENDBRANCH   1  53
BRANCH   1  55
ATOM     55  C   UNL     1       9.160  23.449  34.630  1.00  0.00     0.165 C 
BRANCH  55  56
ATOM     56  O   UNL     1       8.385  22.372  34.136  1.00  0.00    -0.388 OA
ATOM     57  H   UNL     1       8.080  22.579  33.219  1.00  0.00     0.211 HD
ENDBRANCH  55  56
BRANCH  55  58
ATOM     58  C   UNL     1       9.033  23.478  36.115  1.00  0.00     0.154 C 
BRANCH  58  59
ATOM     59  N   UNL     1      10.222  23.996  36.757  1.00  0.00    -0.319 N 
ATOM     60  C   UNL     1      11.373  23.189  36.908  1.00  0.00     0.407 C 
ATOM     61  H   UNL     1      10.273  24.985  37.129  1.00  0.00     0.167 HD
ATOM     62  O   UNL     1      11.409  22.002  36.510  1.00  0.00    -0.225 OA
BRANCH  60  63
ATOM     63  O   UNL     1      12.518  23.683  37.501  1.00  0.00    -0.443 OA
BRANCH  63  64
ATOM     64  C   UNL     1      12.797  24.994  37.846  1.00  0.00     0.294 C 
BRANCH  64  65
ATOM     65  C   UNL     1      13.010  25.924  36.714  1.00  0.00     0.120 A 
ATOM     66  C   UNL     1      12.299  27.070  36.498  1.00  0.00     0.138 A 
ATOM     67  N   UNL     1      13.929  25.781  35.712  1.00  0.00    -0.132 NA
ATOM     68  N   UNL     1      12.797  27.606  35.369  1.00  0.00    -0.249 N 
ATOM     69  N   UNL     1      13.756  26.832  34.920  1.00  0.00    -0.067 NA
BRANCH  68  70
ATOM     70  C   UNL     1      12.361  28.826  34.725  1.00  0.00     0.180 C 
BRANCH  70  71
ATOM     71  C   UNL     1      12.262  28.526  33.223  1.00  0.00     0.161 C 
BRANCH  71  72
ATOM     72  O   UNL     1      11.441  27.434  33.080  1.00  0.00    -0.389 OA
ATOM     73  H   UNL     1      11.275  26.971  33.938  1.00  0.00     0.211 HD
ENDBRANCH  71  72
BRANCH  71  74
ATOM     74  C   UNL     1      11.720  29.735  32.499  1.00  0.00     0.189 C 
BRANCH  74  75
ATOM     75  O   UNL     1      12.192  29.765  31.206  1.00  0.00    -0.394 OA
ATOM     76  H   UNL     1      13.076  30.214  31.187  1.00  0.00     0.210 HD
ENDBRANCH  74  75
ENDBRANCH  71  74
ENDBRANCH  70  71
ENDBRANCH  68  70
ENDBRANCH  64  65
ENDBRANCH  63  64
ENDBRANCH  60  63
ENDBRANCH  58  59
ENDBRANCH  55  58
ENDBRANCH   1  55
TORSDOF 34
