REMARK VINA RESULT:    -5.591      3.518      8.530
REMARK INTER + INTRA:         -21.505
REMARK INTER:                 -13.715
REMARK INTRA:                  -7.790
REMARK UNBOUND:                -6.761
REMARK SMILES CC(=O)N[C@@H]1[C@@H](O)C[C@](OC[C@H]2O[C@@H](O[C@H]3[C@H](O)[C@@H](O)[C@H](OCCN=[N+]=[N-])O[C@@H]3CO)[C@H](O)[C@@H](O)[C@H]2O)(C(=O)O)O[C@H]1C(O)[C@H](O)CNC(=O)OCc1cn(CCNS(C)(=O)=O)nn1
REMARK SMILES IDX 43 1 42 2 9 3 8 4 41 5 6 6 5 7 10 8 11 9 12 10 14 11 13 12
REMARK SMILES IDX 32 13 34 14 36 15 15 16 16 17 29 18 28 19 21 20 17 21 19 22
REMARK SMILES IDX 30 23 31 24 22 26 23 27 24 28 25 29 26 30 27 31 18 32 20 34
REMARK SMILES IDX 33 36 35 38 37 40 38 42 39 43 40 44 7 46 4 48 2 49 1 51 3 52
REMARK SMILES IDX 44 53 45 55 46 56 47 58 48 59 49 60 50 62 51 63 52 64 53 65
REMARK SMILES IDX 54 66 64 67 55 68 63 69 56 70 57 71 58 72 59 74 61 75 62 76
REMARK SMILES IDX 60 77
REMARK H PARENT 31 25 18 33 20 35 33 37 35 39 37 41 40 45 7 47 4 50 44 54
REMARK H PARENT 46 57 48 61 58 73
REMARK Flexibility Score: inf
ROOT
ATOM      1  C   UNL     1      21.846  28.992  22.232  1.00  0.00     0.176 C 
ENDROOT
BRANCH   1   2
ATOM      2  C   UNL     1      22.286  27.520  22.123  1.00  0.00     0.178 C 
ATOM      3  C   UNL     1      22.469  25.676  23.554  1.00  0.00     0.272 C 
ATOM      4  C   UNL     1      23.933  25.548  23.414  1.00  0.00     0.113 C 
ATOM      5  O   UNL     1      22.032  26.977  23.336  1.00  0.00    -0.332 OA
ATOM      6  C   UNL     1      24.597  26.597  22.565  1.00  0.00     0.145 C 
ATOM      7  C   UNL     1      23.706  27.442  21.721  1.00  0.00     0.142 C 
BRANCH   3   8
ATOM      8  O   UNL     1      21.941  25.347  24.806  1.00  0.00    -0.338 OA
BRANCH   8   9
ATOM      9  C   UNL     1      22.847  24.676  25.609  1.00  0.00     0.199 C 
BRANCH   9  10
ATOM     10  C   UNL     1      22.999  25.376  26.914  1.00  0.00     0.179 C 
ATOM     11  C   UNL     1      22.136  26.971  28.339  1.00  0.00     0.282 C 
ATOM     12  O   UNL     1      21.892  26.144  27.230  1.00  0.00    -0.341 OA
ATOM     13  C   UNL     1      22.404  26.176  29.570  1.00  0.00     0.202 C 
ATOM     14  C   UNL     1      23.660  25.369  29.317  1.00  0.00     0.179 C 
ATOM     15  C   UNL     1      23.517  24.576  28.062  1.00  0.00     0.177 C 
BRANCH  11  16
ATOM     16  O   UNL     1      21.049  27.782  28.475  1.00  0.00    -0.341 OA
BRANCH  16  17
ATOM     17  C   UNL     1      21.245  29.101  28.250  1.00  0.00     0.184 C 
ATOM     18  C   UNL     1      20.099  30.004  28.020  1.00  0.00     0.178 C 
ATOM     19  O   UNL     1      20.543  31.096  27.273  1.00  0.00    -0.341 OA
ATOM     20  C   UNL     1      20.740  30.783  25.959  1.00  0.00     0.281 C 
ATOM     21  C   UNL     1      22.277  29.327  27.111  1.00  0.00     0.180 C 
ATOM     22  C   UNL     1      21.421  29.433  25.866  1.00  0.00     0.202 C 
BRANCH  18  23
ATOM     23  C   UNL     1      19.625  30.612  29.335  1.00  0.00     0.191 C 
BRANCH  23  24
ATOM     24  O   UNL     1      19.617  29.619  30.341  1.00  0.00    -0.394 OA
ATOM     25  H   UNL     1      20.187  29.867  31.101  1.00  0.00     0.210 HD
ENDBRANCH  23  24
ENDBRANCH  18  23
BRANCH  20  26
ATOM     26  O   UNL     1      21.483  31.772  25.298  1.00  0.00    -0.350 OA
BRANCH  26  27
ATOM     27  C   UNL     1      21.039  33.052  25.509  1.00  0.00     0.169 C 
BRANCH  27  28
ATOM     28  C   UNL     1      20.637  33.638  24.193  1.00  0.00     0.119 C 
BRANCH  28  29
ATOM     29  N   UNL     1      21.789  34.031  23.391  1.00  0.00    -0.092 NA
ATOM     30  N   UNL     1      22.108  33.221  22.504  1.00  0.00     0.001 N 
ATOM     31  N   UNL     1      22.688  32.609  21.614  1.00  0.00    -0.003 NA
ENDBRANCH  28  29
ENDBRANCH  27  28
ENDBRANCH  26  27
ENDBRANCH  20  26
BRANCH  21  32
ATOM     32  O   UNL     1      22.916  30.557  27.292  1.00  0.00    -0.387 OA
ATOM     33  H   UNL     1      22.306  31.283  26.994  1.00  0.00     0.211 HD
ENDBRANCH  21  32
BRANCH  22  34
ATOM     34  O   UNL     1      20.531  28.396  25.706  1.00  0.00    -0.385 OA
ATOM     35  H   UNL     1      20.872  27.517  26.013  1.00  0.00     0.211 HD
ENDBRANCH  22  34
ENDBRANCH  16  17
ENDBRANCH  11  16
BRANCH  13  36
ATOM     36  O   UNL     1      22.718  27.012  30.652  1.00  0.00    -0.385 OA
ATOM     37  H   UNL     1      21.946  27.568  30.928  1.00  0.00     0.211 HD
ENDBRANCH  13  36
BRANCH  14  38
ATOM     38  O   UNL     1      24.046  24.644  30.418  1.00  0.00    -0.387 OA
ATOM     39  H   UNL     1      24.404  25.232  31.155  1.00  0.00     0.211 HD
ENDBRANCH  14  38
BRANCH  15  40
ATOM     40  O   UNL     1      22.637  23.524  28.299  1.00  0.00    -0.387 OA
ATOM     41  H   UNL     1      21.899  23.479  27.638  1.00  0.00     0.211 HD
ENDBRANCH  15  40
ENDBRANCH   9  10
ENDBRANCH   8   9
ENDBRANCH   3   8
BRANCH   3  42
ATOM     42  C   UNL     1      21.760  24.776  22.613  1.00  0.00     0.364 C 
ATOM     43  O   UNL     1      22.380  23.904  21.919  1.00  0.00    -0.246 OA
BRANCH  42  44
ATOM     44  O   UNL     1      20.397  24.794  22.400  1.00  0.00    -0.477 OA
ATOM     45  H   UNL     1      19.750  24.154  22.854  1.00  0.00     0.296 HD
ENDBRANCH  42  44
ENDBRANCH   3  42
BRANCH   6  46
ATOM     46  O   UNL     1      25.425  27.408  23.328  1.00  0.00    -0.391 OA
ATOM     47  H   UNL     1      25.559  28.316  22.990  1.00  0.00     0.211 HD
ENDBRANCH   6  46
BRANCH   7  48
ATOM     48  N   UNL     1      23.802  26.951  20.337  1.00  0.00    -0.348 N 
ATOM     49  C   UNL     1      22.739  26.517  19.539  1.00  0.00     0.217 C 
ATOM     50  H   UNL     1      24.773  26.946  19.863  1.00  0.00     0.163 HD
ATOM     51  C   UNL     1      22.966  26.021  18.136  1.00  0.00     0.114 C 
ATOM     52  O   UNL     1      21.549  26.519  19.956  1.00  0.00    -0.275 OA
ENDBRANCH   7  48
ENDBRANCH   1   2
BRANCH   1  53
ATOM     53  O   UNL     1      22.412  29.706  21.160  1.00  0.00    -0.388 OA
ATOM     54  H   UNL     1      21.677  29.996  20.591  1.00  0.00     0.211 HD
ENDBRANCH   1  53
BRANCH   1  55
ATOM     55  C   UNL     1      20.368  29.095  22.135  1.00  0.00     0.165 C 
BRANCH  55  56
ATOM     56  O   UNL     1      19.799  28.564  21.004  1.00  0.00    -0.388 OA
ATOM     57  H   UNL     1      19.382  29.245  20.412  1.00  0.00     0.211 HD
ENDBRANCH  55  56
BRANCH  55  58
ATOM     58  C   UNL     1      19.789  30.436  22.462  1.00  0.00     0.154 C 
BRANCH  58  59
ATOM     59  N   UNL     1      18.488  30.625  21.876  1.00  0.00    -0.319 N 
ATOM     60  C   UNL     1      17.336  30.272  22.677  1.00  0.00     0.407 C 
ATOM     61  H   UNL     1      18.323  30.993  20.926  1.00  0.00     0.167 HD
ATOM     62  O   UNL     1      17.566  29.848  23.839  1.00  0.00    -0.225 OA
BRANCH  60  63
ATOM     63  O   UNL     1      16.066  30.399  22.178  1.00  0.00    -0.443 OA
BRANCH  63  64
ATOM     64  C   UNL     1      15.341  29.259  21.781  1.00  0.00     0.294 C 
BRANCH  64  65
ATOM     65  C   UNL     1      15.858  28.718  20.511  1.00  0.00     0.120 A 
ATOM     66  C   UNL     1      16.070  29.405  19.327  1.00  0.00     0.138 A 
ATOM     67  N   UNL     1      16.254  27.475  20.271  1.00  0.00    -0.132 NA
ATOM     68  N   UNL     1      16.581  28.577  18.415  1.00  0.00    -0.251 N 
ATOM     69  N   UNL     1      16.690  27.387  19.007  1.00  0.00    -0.067 NA
BRANCH  68  70
ATOM     70  C   UNL     1      16.937  28.908  17.045  1.00  0.00     0.162 C 
BRANCH  70  71
ATOM     71  C   UNL     1      18.321  28.346  16.723  1.00  0.00     0.122 C 
BRANCH  71  72
ATOM     72  N   UNL     1      19.175  28.404  17.874  1.00  0.00    -0.214 NA
ATOM     73  H   UNL     1      19.904  27.645  17.798  1.00  0.00     0.141 HD
BRANCH  72  74
ATOM     74  S   UNL     1      20.022  29.896  18.007  1.00  0.00     0.208 S 
ATOM     75  O   UNL     1      19.307  30.813  18.986  1.00  0.00    -0.213 OA
ATOM     76  O   UNL     1      21.387  29.559  18.576  1.00  0.00    -0.213 OA
ATOM     77  C   UNL     1      20.194  30.672  16.430  1.00  0.00     0.176 C 
ENDBRANCH  72  74
ENDBRANCH  71  72
ENDBRANCH  70  71
ENDBRANCH  68  70
ENDBRANCH  64  65
ENDBRANCH  63  64
ENDBRANCH  60  63
ENDBRANCH  58  59
ENDBRANCH  55  58
ENDBRANCH   1  55
TORSDOF 33
