REMARK VINA RESULT:    -6.353      4.623      6.805
REMARK INTER + INTRA:         -21.495
REMARK INTER:                 -16.010
REMARK INTRA:                  -5.485
REMARK UNBOUND:                -5.485
REMARK SMILES CC(=O)N[C@@H]1[C@@H](O)C[C@](OC[C@H]2O[C@@H](O[C@H]3[C@H](O)[C@@H](O)[C@H](OCCN=[N+]=[N-])O[C@@H]3CO)[C@H](O)[C@@H](O)[C@H]2O)(C(=O)O)O[C@H]1C(O)[C@H](O)CNC(=O)OCc1cn(Cc2ccc(Br)cc2)nn1
REMARK SMILES IDX 9 1 8 2 6 3 5 4 42 5 41 6 10 7 11 8 12 9 14 10 13 11 32 12
REMARK SMILES IDX 34 13 36 14 15 15 16 16 29 17 28 18 21 19 17 20 19 21 30 22
REMARK SMILES IDX 31 23 22 25 23 26 24 27 25 28 26 29 27 30 18 31 20 33 33 35
REMARK SMILES IDX 35 37 37 39 38 41 39 42 40 43 7 45 43 47 44 48 45 50 46 51
REMARK SMILES IDX 47 53 48 54 49 55 50 57 51 58 52 59 53 60 54 61 65 62 55 63
REMARK SMILES IDX 64 64 56 65 57 66 58 67 63 68 59 69 62 70 60 71 61 72 4 73
REMARK SMILES IDX 2 74 1 76 3 77
REMARK H PARENT 31 24 18 32 20 34 33 36 35 38 37 40 40 44 7 46 44 49 46 52
REMARK H PARENT 48 56 4 75
REMARK Flexibility Score: inf
ROOT
ATOM      1  C   UNL     1      20.715  28.370  19.377  1.00  0.00     0.272 C 
ATOM      2  C   UNL     1      21.423  29.528  19.981  1.00  0.00     0.113 C 
ATOM      3  C   UNL     1      20.891  30.116  21.227  1.00  0.00     0.145 C 
ATOM      4  C   UNL     1      19.400  29.776  21.495  1.00  0.00     0.142 C 
ATOM      5  C   UNL     1      18.854  29.615  20.103  1.00  0.00     0.178 C 
ATOM      6  O   UNL     1      19.352  28.337  19.721  1.00  0.00    -0.332 OA
ENDROOT
BRANCH   1   7
ATOM      7  O   UNL     1      21.278  27.167  19.347  1.00  0.00    -0.338 OA
BRANCH   7   8
ATOM      8  C   UNL     1      22.433  26.663  19.562  1.00  0.00     0.199 C 
BRANCH   8   9
ATOM      9  C   UNL     1      22.637  25.982  20.895  1.00  0.00     0.179 C 
ATOM     10  C   UNL     1      23.351  26.232  23.033  1.00  0.00     0.282 C 
ATOM     11  O   UNL     1      23.349  26.743  21.783  1.00  0.00    -0.341 OA
ATOM     12  C   UNL     1      22.855  24.806  23.187  1.00  0.00     0.202 C 
ATOM     13  C   UNL     1      21.526  24.600  22.495  1.00  0.00     0.179 C 
ATOM     14  C   UNL     1      21.258  25.748  21.533  1.00  0.00     0.177 C 
BRANCH  10  15
ATOM     15  O   UNL     1      22.774  26.962  24.019  1.00  0.00    -0.341 OA
BRANCH  15  16
ATOM     16  C   UNL     1      23.370  27.266  25.180  1.00  0.00     0.184 C 
ATOM     17  C   UNL     1      23.192  26.299  26.306  1.00  0.00     0.178 C 
ATOM     18  O   UNL     1      22.500  26.805  27.372  1.00  0.00    -0.341 OA
ATOM     19  C   UNL     1      23.101  27.896  27.983  1.00  0.00     0.281 C 
ATOM     20  C   UNL     1      22.912  28.635  25.636  1.00  0.00     0.180 C 
ATOM     21  C   UNL     1      23.561  28.922  26.967  1.00  0.00     0.202 C 
BRANCH  17  22
ATOM     22  C   UNL     1      24.541  25.754  26.713  1.00  0.00     0.191 C 
BRANCH  22  23
ATOM     23  O   UNL     1      24.417  24.503  27.352  1.00  0.00    -0.394 OA
ATOM     24  H   UNL     1      24.257  24.609  28.307  1.00  0.00     0.210 HD
ENDBRANCH  22  23
ENDBRANCH  17  22
BRANCH  19  25
ATOM     25  O   UNL     1      24.123  27.564  28.857  1.00  0.00    -0.350 OA
BRANCH  25  26
ATOM     26  C   UNL     1      23.777  27.514  30.181  1.00  0.00     0.169 C 
BRANCH  26  27
ATOM     27  C   UNL     1      23.537  26.126  30.699  1.00  0.00     0.119 C 
BRANCH  27  28
ATOM     28  N   UNL     1      24.593  25.232  30.240  1.00  0.00    -0.092 NA
ATOM     29  N   UNL     1      25.655  25.169  30.855  1.00  0.00     0.001 N 
ATOM     30  N   UNL     1      26.845  25.168  31.246  1.00  0.00    -0.003 NA
ENDBRANCH  27  28
ENDBRANCH  26  27
ENDBRANCH  25  26
ENDBRANCH  19  25
BRANCH  20  31
ATOM     31  O   UNL     1      23.440  29.561  24.713  1.00  0.00    -0.387 OA
ATOM     32  H   UNL     1      23.859  30.322  25.202  1.00  0.00     0.211 HD
ENDBRANCH  20  31
BRANCH  21  33
ATOM     33  O   UNL     1      23.324  30.222  27.399  1.00  0.00    -0.385 OA
ATOM     34  H   UNL     1      22.923  30.161  28.303  1.00  0.00     0.211 HD
ENDBRANCH  21  33
ENDBRANCH  15  16
ENDBRANCH  10  15
BRANCH  12  35
ATOM     35  O   UNL     1      23.754  23.854  22.739  1.00  0.00    -0.385 OA
ATOM     36  H   UNL     1      23.987  23.163  23.401  1.00  0.00     0.211 HD
ENDBRANCH  12  35
BRANCH  13  37
ATOM     37  O   UNL     1      20.467  24.441  23.381  1.00  0.00    -0.387 OA
ATOM     38  H   UNL     1      20.767  23.807  24.078  1.00  0.00     0.211 HD
ENDBRANCH  13  37
BRANCH  14  39
ATOM     39  O   UNL     1      20.944  26.928  22.218  1.00  0.00    -0.387 OA
ATOM     40  H   UNL     1      21.722  27.230  22.727  1.00  0.00     0.211 HD
ENDBRANCH  14  39
ENDBRANCH   8   9
ENDBRANCH   7   8
ENDBRANCH   1   7
BRANCH   1  41
ATOM     41  C   UNL     1      20.631  28.704  17.878  1.00  0.00     0.364 C 
ATOM     42  O   UNL     1      21.332  29.619  17.452  1.00  0.00    -0.246 OA
BRANCH  41  43
ATOM     43  O   UNL     1      19.814  28.024  17.015  1.00  0.00    -0.477 OA
ATOM     44  H   UNL     1      20.074  27.071  16.713  1.00  0.00     0.296 HD
ENDBRANCH  41  43
ENDBRANCH   1  41
BRANCH   3  45
ATOM     45  O   UNL     1      21.651  29.935  22.371  1.00  0.00    -0.391 OA
ATOM     46  H   UNL     1      21.296  30.517  23.076  1.00  0.00     0.211 HD
ENDBRANCH   3  45
BRANCH   5  47
ATOM     47  C   UNL     1      17.382  29.642  19.930  1.00  0.00     0.176 C 
BRANCH  47  48
ATOM     48  O   UNL     1      16.871  30.896  19.868  1.00  0.00    -0.388 OA
ATOM     49  H   UNL     1      17.378  31.539  20.377  1.00  0.00     0.211 HD
ENDBRANCH  47  48
BRANCH  47  50
ATOM     50  C   UNL     1      16.736  28.675  19.029  1.00  0.00     0.165 C 
BRANCH  50  51
ATOM     51  O   UNL     1      17.091  28.869  17.684  1.00  0.00    -0.388 OA
ATOM     52  H   UNL     1      16.393  28.663  17.044  1.00  0.00     0.211 HD
ENDBRANCH  50  51
BRANCH  50  53
ATOM     53  C   UNL     1      15.298  28.378  19.168  1.00  0.00     0.154 C 
BRANCH  53  54
ATOM     54  N   UNL     1      14.461  29.512  19.518  1.00  0.00    -0.319 N 
ATOM     55  C   UNL     1      13.672  29.522  20.698  1.00  0.00     0.407 C 
ATOM     56  H   UNL     1      14.398  30.376  18.924  1.00  0.00     0.167 HD
ATOM     57  O   UNL     1      13.698  28.523  21.486  1.00  0.00    -0.225 OA
BRANCH  55  58
ATOM     58  O   UNL     1      12.845  30.581  21.060  1.00  0.00    -0.443 OA
BRANCH  58  59
ATOM     59  C   UNL     1      12.887  31.103  22.401  1.00  0.00     0.294 C 
BRANCH  59  60
ATOM     60  C   UNL     1      11.668  30.790  23.163  1.00  0.00     0.120 A 
ATOM     61  C   UNL     1      10.495  31.518  23.124  1.00  0.00     0.138 A 
ATOM     62  N   UNL     1      11.468  29.782  24.013  1.00  0.00    -0.132 NA
ATOM     63  N   UNL     1       9.619  30.932  23.950  1.00  0.00    -0.248 N 
ATOM     64  N   UNL     1      10.234  29.889  24.471  1.00  0.00    -0.067 NA
BRANCH  63  65
ATOM     65  C   UNL     1       8.249  31.313  24.232  1.00  0.00     0.181 C 
BRANCH  65  66
ATOM     66  C   UNL     1       7.462  30.256  24.906  1.00  0.00    -0.026 A 
ATOM     67  C   UNL     1       6.852  30.570  26.123  1.00  0.00     0.007 A 
ATOM     68  C   UNL     1       7.279  28.997  24.409  1.00  0.00     0.007 A 
ATOM     69  C   UNL     1       6.092  29.621  26.787  1.00  0.00     0.016 A 
ATOM     70  C   UNL     1       6.516  28.031  25.067  1.00  0.00     0.016 A 
ATOM     71  C   UNL     1       5.924  28.353  26.258  1.00  0.00     0.017 A 
ATOM     72  Br  UNL     1       4.858  27.063  27.207  1.00  0.00    -0.051 Br
ENDBRANCH  65  66
ENDBRANCH  63  65
ENDBRANCH  59  60
ENDBRANCH  58  59
ENDBRANCH  55  58
ENDBRANCH  53  54
ENDBRANCH  50  53
ENDBRANCH  47  50
ENDBRANCH   5  47
BRANCH   4  73
ATOM     73  N   UNL     1      18.821  30.784  22.306  1.00  0.00    -0.348 N 
ATOM     74  C   UNL     1      18.635  30.573  23.694  1.00  0.00     0.217 C 
ATOM     75  H   UNL     1      18.544  31.692  21.896  1.00  0.00     0.163 HD
ATOM     76  C   UNL     1      18.055  31.543  24.626  1.00  0.00     0.114 C 
ATOM     77  O   UNL     1      19.002  29.446  24.184  1.00  0.00    -0.275 OA
ENDBRANCH   4  73
TORSDOF 31
