REMARK VINA RESULT:    -7.931      3.933     11.866
REMARK INTER + INTRA:         -19.227
REMARK INTER:                 -13.910
REMARK INTRA:                  -5.317
REMARK UNBOUND:                 3.076
REMARK SMILES CC(=O)N[C@@H]1[C@@H](O)C[C@](OC[C@H]2O[C@@H](O[C@H]3[C@H](O)[C@@H](O)[C@H](OCCN=[N+]=[N-])O[C@@H]3CO)[C@H](O)[C@@H](O)[C@H]2O)(C(=O)O)O[C@H]1C(O)[C@H](O)CNC(=O)OCc1cn(C2CC(O)C=C[C@@H](O)C2)nn1
REMARK SMILES IDX 43 1 42 2 9 3 8 4 41 5 6 6 5 7 10 8 11 9 12 10 14 11 13 12
REMARK SMILES IDX 32 13 34 14 36 15 15 16 16 17 29 18 28 19 21 20 17 21 19 22
REMARK SMILES IDX 30 23 31 24 22 26 23 27 24 28 25 29 26 30 27 31 18 32 20 34
REMARK SMILES IDX 33 36 35 38 37 40 38 42 39 43 40 44 7 46 4 48 2 49 1 51 3 52
REMARK SMILES IDX 44 53 45 55 46 56 47 58 48 59 49 60 50 62 51 63 52 64 53 65
REMARK SMILES IDX 54 66 66 67 55 68 65 69 56 70 57 71 58 72 59 74 64 76 62 77
REMARK SMILES IDX 61 78 60 79 63 81
REMARK H PARENT 31 25 18 33 20 35 33 37 35 39 37 41 40 45 7 47 4 50 44 54
REMARK H PARENT 46 57 48 61 59 75 63 82
REMARK Flexibility Score: 90.00
ROOT
ATOM      1  C   UNL     1      22.222  28.472  22.093  1.00  0.00     0.176 C 
ENDROOT
BRANCH   1   2
ATOM      2  C   UNL     1      22.981  27.189  21.803  1.00  0.00     0.178 C 
ATOM      3  C   UNL     1      23.116  25.040  22.750  1.00  0.00     0.272 C 
ATOM      4  C   UNL     1      24.400  24.768  22.057  1.00  0.00     0.113 C 
ATOM      5  O   UNL     1      22.690  26.307  22.883  1.00  0.00    -0.332 OA
ATOM      6  C   UNL     1      24.873  25.860  21.167  1.00  0.00     0.145 C 
ATOM      7  C   UNL     1      24.445  27.247  21.740  1.00  0.00     0.142 C 
BRANCH   3   8
ATOM      8  O   UNL     1      23.142  24.368  23.990  1.00  0.00    -0.338 OA
BRANCH   8   9
ATOM      9  C   UNL     1      22.345  24.911  24.955  1.00  0.00     0.199 C 
BRANCH   9  10
ATOM     10  C   UNL     1      23.134  25.883  25.833  1.00  0.00     0.179 C 
ATOM     11  C   UNL     1      22.495  27.302  27.540  1.00  0.00     0.282 C 
ATOM     12  O   UNL     1      22.289  26.871  26.228  1.00  0.00    -0.341 OA
ATOM     13  C   UNL     1      22.130  26.102  28.394  1.00  0.00     0.202 C 
ATOM     14  C   UNL     1      23.264  25.114  28.232  1.00  0.00     0.179 C 
ATOM     15  C   UNL     1      23.916  25.180  26.889  1.00  0.00     0.177 C 
BRANCH  11  16
ATOM     16  O   UNL     1      21.718  28.410  27.775  1.00  0.00    -0.341 OA
BRANCH  16  17
ATOM     17  C   UNL     1      21.870  29.322  26.727  1.00  0.00     0.184 C 
ATOM     18  C   UNL     1      23.022  30.253  27.009  1.00  0.00     0.178 C 
ATOM     19  O   UNL     1      22.758  31.227  27.938  1.00  0.00    -0.341 OA
ATOM     20  C   UNL     1      21.428  31.277  28.348  1.00  0.00     0.281 C 
ATOM     21  C   UNL     1      20.598  30.058  26.406  1.00  0.00     0.180 C 
ATOM     22  C   UNL     1      20.516  31.374  27.130  1.00  0.00     0.202 C 
BRANCH  18  23
ATOM     23  C   UNL     1      23.531  30.887  25.721  1.00  0.00     0.191 C 
BRANCH  23  24
ATOM     24  O   UNL     1      23.961  29.942  24.809  1.00  0.00    -0.394 OA
ATOM     25  H   UNL     1      24.903  29.727  24.896  1.00  0.00     0.210 HD
ENDBRANCH  23  24
ENDBRANCH  18  23
BRANCH  20  26
ATOM     26  O   UNL     1      21.309  32.422  29.129  1.00  0.00    -0.350 OA
BRANCH  26  27
ATOM     27  C   UNL     1      21.256  32.043  30.466  1.00  0.00     0.169 C 
BRANCH  27  28
ATOM     28  C   UNL     1      20.147  32.775  31.203  1.00  0.00     0.119 C 
BRANCH  28  29
ATOM     29  N   UNL     1      19.146  31.845  31.684  1.00  0.00    -0.092 NA
ATOM     30  N   UNL     1      18.701  30.987  30.904  1.00  0.00     0.001 N 
ATOM     31  N   UNL     1      18.267  30.252  30.006  1.00  0.00    -0.003 NA
ENDBRANCH  28  29
ENDBRANCH  27  28
ENDBRANCH  26  27
ENDBRANCH  20  26
BRANCH  21  32
ATOM     32  O   UNL     1      20.494  30.267  25.031  1.00  0.00    -0.387 OA
ATOM     33  H   UNL     1      19.565  30.456  24.755  1.00  0.00     0.211 HD
ENDBRANCH  21  32
BRANCH  22  34
ATOM     34  O   UNL     1      19.216  31.639  27.543  1.00  0.00    -0.385 OA
ATOM     35  H   UNL     1      18.560  31.161  26.972  1.00  0.00     0.211 HD
ENDBRANCH  22  34
ENDBRANCH  16  17
ENDBRANCH  11  16
BRANCH  13  36
ATOM     36  O   UNL     1      21.932  26.389  29.718  1.00  0.00    -0.385 OA
ATOM     37  H   UNL     1      21.009  26.365  30.016  1.00  0.00     0.211 HD
ENDBRANCH  13  36
BRANCH  14  38
ATOM     38  O   UNL     1      22.741  23.854  28.520  1.00  0.00    -0.387 OA
ATOM     39  H   UNL     1      23.389  23.312  29.051  1.00  0.00     0.211 HD
ENDBRANCH  14  38
BRANCH  15  40
ATOM     40  O   UNL     1      24.170  23.878  26.413  1.00  0.00    -0.387 OA
ATOM     41  H   UNL     1      23.400  23.457  26.006  1.00  0.00     0.211 HD
ENDBRANCH  15  40
ENDBRANCH   9  10
ENDBRANCH   8   9
ENDBRANCH   3   8
BRANCH   3  42
ATOM     42  C   UNL     1      22.055  24.320  21.946  1.00  0.00     0.364 C 
ATOM     43  O   UNL     1      20.825  24.446  22.184  1.00  0.00    -0.246 OA
BRANCH  42  44
ATOM     44  O   UNL     1      22.480  23.499  20.915  1.00  0.00    -0.477 OA
ATOM     45  H   UNL     1      22.237  22.509  20.894  1.00  0.00     0.296 HD
ENDBRANCH  42  44
ENDBRANCH   3  42
BRANCH   6  46
ATOM     46  O   UNL     1      26.234  25.823  20.992  1.00  0.00    -0.391 OA
ATOM     47  H   UNL     1      26.456  25.909  20.040  1.00  0.00     0.211 HD
ENDBRANCH   6  46
BRANCH   7  48
ATOM     48  N   UNL     1      25.115  28.259  21.019  1.00  0.00    -0.348 N 
ATOM     49  C   UNL     1      25.859  29.252  21.706  1.00  0.00     0.217 C 
ATOM     50  H   UNL     1      25.105  28.278  19.983  1.00  0.00     0.163 HD
ATOM     51  C   UNL     1      26.573  30.327  20.968  1.00  0.00     0.114 C 
ATOM     52  O   UNL     1      25.916  29.227  22.958  1.00  0.00    -0.275 OA
ENDBRANCH   7  48
ENDBRANCH   1   2
BRANCH   1  53
ATOM     53  O   UNL     1      21.900  28.271  23.508  1.00  0.00    -0.388 OA
ATOM     54  H   UNL     1      21.880  29.182  23.938  1.00  0.00     0.211 HD
ENDBRANCH   1  53
BRANCH   1  55
ATOM     55  C   UNL     1      20.849  28.526  21.487  1.00  0.00     0.165 C 
BRANCH  55  56
ATOM     56  O   UNL     1      20.354  27.277  21.201  1.00  0.00    -0.388 OA
ATOM     57  H   UNL     1      20.631  26.581  21.838  1.00  0.00     0.211 HD
ENDBRANCH  55  56
BRANCH  55  58
ATOM     58  C   UNL     1      20.870  29.294  20.169  1.00  0.00     0.154 C 
BRANCH  58  59
ATOM     59  N   UNL     1      19.587  29.450  19.562  1.00  0.00    -0.319 N 
ATOM     60  C   UNL     1      19.225  28.812  18.344  1.00  0.00     0.407 C 
ATOM     61  H   UNL     1      18.857  30.068  20.028  1.00  0.00     0.167 HD
ATOM     62  O   UNL     1      20.103  28.084  17.799  1.00  0.00    -0.225 OA
BRANCH  60  63
ATOM     63  O   UNL     1      17.972  28.997  17.807  1.00  0.00    -0.443 OA
BRANCH  63  64
ATOM     64  C   UNL     1      16.963  28.003  17.959  1.00  0.00     0.294 C 
BRANCH  64  65
ATOM     65  C   UNL     1      16.202  28.314  19.190  1.00  0.00     0.120 A 
ATOM     66  C   UNL     1      15.053  29.051  19.317  1.00  0.00     0.138 A 
ATOM     67  N   UNL     1      16.532  27.914  20.430  1.00  0.00    -0.132 NA
ATOM     68  N   UNL     1      14.726  29.074  20.633  1.00  0.00    -0.249 N 
ATOM     69  N   UNL     1      15.639  28.378  21.278  1.00  0.00    -0.067 NA
BRANCH  68  70
ATOM     70  C   UNL     1      13.570  29.753  21.235  1.00  0.00     0.115 C 
BRANCH  70  71
ATOM     71  C   UNL     1      13.615  29.548  22.712  1.00  0.00     0.063 C 
BRANCH  71  72
ATOM     72  C   UNL     1      12.193  29.656  23.272  1.00  0.00     0.139 CG0
ATOM     73  G   UNL     1      11.776  31.068  23.256  1.00  0.00     0.000 G0
BRANCH  72  74
ATOM     74  O   UNL     1      12.149  29.128  24.560  1.00  0.00    -0.389 OA
ATOM     75  H   UNL     1      13.088  29.059  24.894  1.00  0.00     0.211 HD
ENDBRANCH  72  74
ENDBRANCH  71  72
ENDBRANCH  70  71
BRANCH  70  76
ATOM     76  C   UNL     1      13.637  31.206  20.883  1.00  0.00     0.063 C 
BRANCH  76  77
ATOM     77  C   UNL     1      12.194  31.722  20.876  1.00  0.00     0.139 C 
BRANCH  77  78
ATOM     78  C   UNL     1      11.748  31.972  22.273  1.00  0.00     0.002 C 
ATOM     79  C   UNL     1      11.751  31.092  23.264  1.00  0.00     0.002 CG0
ATOM     80  G   UNL     1      12.176  29.683  23.269  1.00  0.00     0.000 G0
ENDBRANCH  77  78
BRANCH  77  81
ATOM     81  O   UNL     1      12.058  32.854  20.089  1.00  0.00    -0.389 OA
ATOM     82  H   UNL     1      12.474  33.614  20.585  1.00  0.00     0.211 HD
ENDBRANCH  77  81
ENDBRANCH  76  77
ENDBRANCH  70  76
ENDBRANCH  68  70
ENDBRANCH  64  65
ENDBRANCH  63  64
ENDBRANCH  60  63
ENDBRANCH  58  59
ENDBRANCH  55  58
ENDBRANCH   1  55
TORSDOF 32
