REMARK VINA RESULT:    -6.085      2.716      4.205
REMARK INTER + INTRA:         -21.022
REMARK INTER:                 -13.229
REMARK INTRA:                  -7.793
REMARK UNBOUND:                -6.043
REMARK SMILES CC(=O)N[C@@H]1[C@@H](O)C[C@](OC[C@H]2O[C@@H](O[C@H]3[C@H](O)[C@@H](O)[C@H](OCCN=[N+]=[N-])O[C@@H]3CO)[C@H](O)[C@@H](O)[C@H]2O)(C(=O)O)O[C@H]1C(O)[C@H](O)CNC(=O)OCc1cn(-c2ccccc2I)nn1
REMARK SMILES IDX 9 1 8 2 6 3 5 4 42 5 41 6 10 7 11 8 12 9 14 10 13 11 32 12
REMARK SMILES IDX 34 13 36 14 15 15 16 16 29 17 28 18 21 19 17 20 19 21 30 22
REMARK SMILES IDX 31 23 22 25 23 26 24 27 25 28 26 29 27 30 18 31 20 33 33 35
REMARK SMILES IDX 35 37 37 39 38 41 39 42 40 43 7 45 43 47 44 48 45 50 46 51
REMARK SMILES IDX 47 53 48 54 49 55 50 57 51 58 52 59 53 60 54 61 64 62 55 63
REMARK SMILES IDX 63 64 56 65 57 66 61 67 58 68 60 69 62 70 59 71 4 72 2 73
REMARK SMILES IDX 1 75 3 76
REMARK H PARENT 31 24 18 32 20 34 33 36 35 38 37 40 40 44 7 46 44 49 46 52
REMARK H PARENT 48 56 4 74
REMARK Flexibility Score: inf
ROOT
ATOM      1  C   UNL     1      15.145  30.169  20.701  1.00  0.00     0.272 C 
ATOM      2  C   UNL     1      14.522  29.066  19.893  1.00  0.00     0.113 C 
ATOM      3  C   UNL     1      15.584  28.067  19.401  1.00  0.00     0.145 C 
ATOM      4  C   UNL     1      16.486  28.893  18.438  1.00  0.00     0.142 C 
ATOM      5  C   UNL     1      16.919  30.144  19.149  1.00  0.00     0.178 C 
ATOM      6  O   UNL     1      16.559  30.020  20.497  1.00  0.00    -0.332 OA
ENDROOT
BRANCH   1   7
ATOM      7  O   UNL     1      15.028  30.116  22.054  1.00  0.00    -0.338 OA
BRANCH   7   8
ATOM      8  C   UNL     1      14.096  30.615  22.810  1.00  0.00     0.199 C 
BRANCH   8   9
ATOM      9  C   UNL     1      14.000  30.289  24.248  1.00  0.00     0.179 C 
ATOM     10  C   UNL     1      15.958  30.758  25.327  1.00  0.00     0.282 C 
ATOM     11  O   UNL     1      15.096  29.797  24.873  1.00  0.00    -0.341 OA
ATOM     12  C   UNL     1      15.415  31.417  26.589  1.00  0.00     0.202 C 
ATOM     13  C   UNL     1      13.871  31.397  26.504  1.00  0.00     0.179 C 
ATOM     14  C   UNL     1      13.494  31.532  25.042  1.00  0.00     0.177 C 
BRANCH  10  15
ATOM     15  O   UNL     1      16.534  31.590  24.422  1.00  0.00    -0.341 OA
BRANCH  15  16
ATOM     16  C   UNL     1      17.910  31.626  24.421  1.00  0.00     0.184 C 
ATOM     17  C   UNL     1      18.532  32.938  24.025  1.00  0.00     0.178 C 
ATOM     18  O   UNL     1      19.823  32.736  23.544  1.00  0.00    -0.341 OA
ATOM     19  C   UNL     1      20.459  31.615  24.091  1.00  0.00     0.281 C 
ATOM     20  C   UNL     1      18.363  30.669  23.297  1.00  0.00     0.180 C 
ATOM     21  C   UNL     1      19.807  30.333  23.644  1.00  0.00     0.202 C 
BRANCH  17  22
ATOM     22  C   UNL     1      18.466  34.011  25.063  1.00  0.00     0.191 C 
BRANCH  22  23
ATOM     23  O   UNL     1      18.249  33.376  26.292  1.00  0.00    -0.394 OA
ATOM     24  H   UNL     1      17.742  34.006  26.873  1.00  0.00     0.210 HD
ENDBRANCH  22  23
ENDBRANCH  17  22
BRANCH  19  25
ATOM     25  O   UNL     1      20.642  31.712  25.436  1.00  0.00    -0.350 OA
BRANCH  25  26
ATOM     26  C   UNL     1      21.097  30.558  25.995  1.00  0.00     0.169 C 
BRANCH  26  27
ATOM     27  C   UNL     1      21.019  30.442  27.484  1.00  0.00     0.119 C 
BRANCH  27  28
ATOM     28  N   UNL     1      19.734  30.111  28.032  1.00  0.00    -0.092 NA
ATOM     29  N   UNL     1      19.054  31.058  28.466  1.00  0.00     0.001 N 
ATOM     30  N   UNL     1      18.255  31.820  29.014  1.00  0.00    -0.003 NA
ENDBRANCH  27  28
ENDBRANCH  26  27
ENDBRANCH  25  26
ENDBRANCH  19  25
BRANCH  20  31
ATOM     31  O   UNL     1      17.571  29.536  23.269  1.00  0.00    -0.387 OA
ATOM     32  H   UNL     1      17.704  29.071  24.137  1.00  0.00     0.211 HD
ENDBRANCH  20  31
BRANCH  21  33
ATOM     33  O   UNL     1      20.454  29.732  22.566  1.00  0.00    -0.385 OA
ATOM     34  H   UNL     1      21.097  29.043  22.935  1.00  0.00     0.211 HD
ENDBRANCH  21  33
ENDBRANCH  15  16
ENDBRANCH  10  15
BRANCH  12  35
ATOM     35  O   UNL     1      15.729  30.712  27.743  1.00  0.00    -0.385 OA
ATOM     36  H   UNL     1      15.507  31.305  28.508  1.00  0.00     0.211 HD
ENDBRANCH  12  35
BRANCH  13  37
ATOM     37  O   UNL     1      13.268  32.336  27.279  1.00  0.00    -0.387 OA
ATOM     38  H   UNL     1      13.886  32.966  27.761  1.00  0.00     0.211 HD
ENDBRANCH  13  37
BRANCH  14  39
ATOM     39  O   UNL     1      14.159  32.620  24.503  1.00  0.00    -0.387 OA
ATOM     40  H   UNL     1      14.059  32.612  23.500  1.00  0.00     0.211 HD
ENDBRANCH  14  39
ENDBRANCH   8   9
ENDBRANCH   7   8
ENDBRANCH   1   7
BRANCH   1  41
ATOM     41  C   UNL     1      14.753  31.480  20.154  1.00  0.00     0.364 C 
ATOM     42  O   UNL     1      15.288  32.564  20.443  1.00  0.00    -0.246 OA
BRANCH  41  43
ATOM     43  O   UNL     1      13.692  31.581  19.228  1.00  0.00    -0.477 OA
ATOM     44  H   UNL     1      13.416  30.745  18.693  1.00  0.00     0.296 HD
ENDBRANCH  41  43
ENDBRANCH   1  41
BRANCH   3  45
ATOM     45  O   UNL     1      16.328  27.540  20.434  1.00  0.00    -0.391 OA
ATOM     46  H   UNL     1      17.095  28.125  20.640  1.00  0.00     0.211 HD
ENDBRANCH   3  45
BRANCH   5  47
ATOM     47  C   UNL     1      18.469  30.184  19.215  1.00  0.00     0.176 C 
BRANCH  47  48
ATOM     48  O   UNL     1      18.889  30.587  17.889  1.00  0.00    -0.388 OA
ATOM     49  H   UNL     1      18.164  30.245  17.281  1.00  0.00     0.211 HD
ENDBRANCH  47  48
BRANCH  47  50
ATOM     50  C   UNL     1      19.059  28.810  19.325  1.00  0.00     0.165 C 
BRANCH  50  51
ATOM     51  O   UNL     1      18.958  28.372  20.671  1.00  0.00    -0.388 OA
ATOM     52  H   UNL     1      18.125  27.856  20.813  1.00  0.00     0.211 HD
ENDBRANCH  50  51
BRANCH  50  53
ATOM     53  C   UNL     1      20.438  28.592  18.869  1.00  0.00     0.154 C 
BRANCH  53  54
ATOM     54  N   UNL     1      21.341  28.011  19.846  1.00  0.00    -0.319 N 
ATOM     55  C   UNL     1      22.177  26.924  19.452  1.00  0.00     0.407 C 
ATOM     56  H   UNL     1      21.422  28.336  20.830  1.00  0.00     0.167 HD
ATOM     57  O   UNL     1      22.102  26.487  18.257  1.00  0.00    -0.225 OA
BRANCH  55  58
ATOM     58  O   UNL     1      23.085  26.287  20.273  1.00  0.00    -0.443 OA
BRANCH  58  59
ATOM     59  C   UNL     1      23.932  27.026  21.142  1.00  0.00     0.294 C 
BRANCH  59  60
ATOM     60  C   UNL     1      23.356  26.938  22.532  1.00  0.00     0.121 A 
ATOM     61  C   UNL     1      23.859  26.263  23.620  1.00  0.00     0.144 A 
ATOM     62  N   UNL     1      22.217  27.521  22.943  1.00  0.00    -0.131 NA
ATOM     63  N   UNL     1      22.987  26.482  24.623  1.00  0.00    -0.219 N 
ATOM     64  N   UNL     1      21.995  27.245  24.207  1.00  0.00    -0.062 NA
BRANCH  63  65
ATOM     65  C   UNL     1      23.077  25.977  25.951  1.00  0.00     0.080 A 
ATOM     66  C   UNL     1      22.544  24.736  26.277  1.00  0.00     0.029 A 
ATOM     67  C   UNL     1      23.685  26.705  26.946  1.00  0.00     0.039 A 
ATOM     68  C   UNL     1      22.650  24.283  27.597  1.00  0.00     0.002 A 
ATOM     69  C   UNL     1      23.782  26.235  28.262  1.00  0.00     0.017 A 
ATOM     70  I   UNL     1      24.503  28.598  26.480  1.00  0.00    -0.042 I 
ATOM     71  C   UNL     1      23.259  25.011  28.591  1.00  0.00     0.001 A 
ENDBRANCH  63  65
ENDBRANCH  59  60
ENDBRANCH  58  59
ENDBRANCH  55  58
ENDBRANCH  53  54
ENDBRANCH  50  53
ENDBRANCH  47  50
ENDBRANCH   5  47
BRANCH   4  72
ATOM     72  N   UNL     1      15.720  29.072  17.259  1.00  0.00    -0.348 N 
ATOM     73  C   UNL     1      16.293  29.013  15.939  1.00  0.00     0.217 C 
ATOM     74  H   UNL     1      14.701  29.255  17.270  1.00  0.00     0.163 HD
ATOM     75  C   UNL     1      15.505  29.199  14.706  1.00  0.00     0.114 C 
ATOM     76  O   UNL     1      17.531  28.792  15.882  1.00  0.00    -0.275 OA
ENDBRANCH   4  72
TORSDOF 30
