REMARK VINA RESULT:    -5.597      4.859      8.378
REMARK INTER + INTRA:         -22.726
REMARK INTER:                 -15.005
REMARK INTRA:                  -7.721
REMARK UNBOUND:                -8.458
REMARK SMILES CC(=O)N[C@@H]1[C@@H](O)C[C@](OC[C@H]2O[C@@H](O[C@H]3[C@H](O)[C@@H](O)[C@H](OCCN=[N+]=[N-])O[C@@H]3CO)[C@H](O)[C@@H](O)[C@H]2O)(C(=O)O)O[C@H]1C(O)[C@H](O)CNC(=O)OCc1cn(-c2ccc(O)c([N+](=O)[O-])c2)nn1
REMARK SMILES IDX 9 1 8 2 6 3 5 4 42 5 41 6 10 7 11 8 12 9 14 10 13 11 32 12
REMARK SMILES IDX 34 13 36 14 15 15 16 16 29 17 28 18 21 19 17 20 19 21 30 22
REMARK SMILES IDX 31 23 22 25 23 26 24 27 25 28 26 29 27 30 18 31 20 33 33 35
REMARK SMILES IDX 35 37 37 39 38 41 39 42 40 43 7 45 43 47 44 48 45 50 46 51
REMARK SMILES IDX 47 53 48 54 49 55 50 57 51 58 52 59 53 60 54 61 67 62 55 63
REMARK SMILES IDX 66 64 56 65 57 66 65 67 58 68 61 69 59 70 62 71 63 72 64 73
REMARK SMILES IDX 60 74 4 76 2 77 1 79 3 80
REMARK H PARENT 31 24 18 32 20 34 33 36 35 38 37 40 40 44 7 46 44 49 46 52
REMARK H PARENT 48 56 60 75 4 78
REMARK Flexibility Score: inf
ROOT
ATOM      1  C   UNL     1      21.446  28.866  23.210  1.00  0.00     0.272 C 
ATOM      2  C   UNL     1      22.066  28.823  21.800  1.00  0.00     0.113 C 
ATOM      3  C   UNL     1      21.313  27.794  20.962  1.00  0.00     0.145 C 
ATOM      4  C   UNL     1      21.685  26.435  21.610  1.00  0.00     0.142 C 
ATOM      5  C   UNL     1      21.672  26.573  23.107  1.00  0.00     0.178 C 
ATOM      6  O   UNL     1      20.862  27.654  23.503  1.00  0.00    -0.332 OA
ENDROOT
BRANCH   1   7
ATOM      7  O   UNL     1      20.466  29.838  23.128  1.00  0.00    -0.338 OA
BRANCH   7   8
ATOM      8  C   UNL     1      19.582  29.909  24.162  1.00  0.00     0.199 C 
BRANCH   8   9
ATOM      9  C   UNL     1      18.301  30.544  23.568  1.00  0.00     0.179 C 
ATOM     10  C   UNL     1      16.162  29.889  23.191  1.00  0.00     0.282 C 
ATOM     11  O   UNL     1      17.499  29.490  23.252  1.00  0.00    -0.341 OA
ATOM     12  C   UNL     1      15.714  30.119  24.593  1.00  0.00     0.202 C 
ATOM     13  C   UNL     1      16.491  31.271  25.176  1.00  0.00     0.179 C 
ATOM     14  C   UNL     1      17.789  31.554  24.517  1.00  0.00     0.177 C 
BRANCH  10  15
ATOM     15  O   UNL     1      15.413  28.924  22.505  1.00  0.00    -0.341 OA
BRANCH  15  16
ATOM     16  C   UNL     1      15.230  29.355  21.205  1.00  0.00     0.184 C 
ATOM     17  C   UNL     1      13.817  29.409  20.739  1.00  0.00     0.178 C 
ATOM     18  O   UNL     1      13.797  30.132  19.553  1.00  0.00    -0.341 OA
ATOM     19  C   UNL     1      14.391  29.371  18.503  1.00  0.00     0.281 C 
ATOM     20  C   UNL     1      15.932  28.366  20.236  1.00  0.00     0.180 C 
ATOM     21  C   UNL     1      15.780  28.981  18.847  1.00  0.00     0.202 C 
BRANCH  17  22
ATOM     22  C   UNL     1      12.834  29.991  21.699  1.00  0.00     0.191 C 
BRANCH  22  23
ATOM     23  O   UNL     1      12.567  29.115  22.736  1.00  0.00    -0.394 OA
ATOM     24  H   UNL     1      13.070  28.260  22.546  1.00  0.00     0.210 HD
ENDBRANCH  22  23
ENDBRANCH  17  22
BRANCH  19  25
ATOM     25  O   UNL     1      14.384  30.252  17.428  1.00  0.00    -0.350 OA
BRANCH  25  26
ATOM     26  C   UNL     1      15.344  31.242  17.512  1.00  0.00     0.169 C 
BRANCH  26  27
ATOM     27  C   UNL     1      14.796  32.585  17.144  1.00  0.00     0.119 C 
BRANCH  27  28
ATOM     28  N   UNL     1      14.411  33.274  18.373  1.00  0.00    -0.092 NA
ATOM     29  N   UNL     1      15.184  33.245  19.357  1.00  0.00     0.001 N 
ATOM     30  N   UNL     1      15.959  33.681  20.228  1.00  0.00    -0.003 NA
ENDBRANCH  27  28
ENDBRANCH  26  27
ENDBRANCH  25  26
ENDBRANCH  19  25
BRANCH  20  31
ATOM     31  O   UNL     1      17.288  28.288  20.509  1.00  0.00    -0.387 OA
ATOM     32  H   UNL     1      17.690  27.438  20.180  1.00  0.00     0.211 HD
ENDBRANCH  20  31
BRANCH  21  33
ATOM     33  O   UNL     1      16.238  28.001  17.969  1.00  0.00    -0.385 OA
ATOM     34  H   UNL     1      15.698  27.963  17.156  1.00  0.00     0.211 HD
ENDBRANCH  21  33
ENDBRANCH  15  16
ENDBRANCH  10  15
BRANCH  12  35
ATOM     35  O   UNL     1      14.349  30.364  24.704  1.00  0.00    -0.385 OA
ATOM     36  H   UNL     1      14.113  30.672  25.626  1.00  0.00     0.211 HD
ENDBRANCH  12  35
BRANCH  13  37
ATOM     37  O   UNL     1      16.581  31.043  26.554  1.00  0.00    -0.387 OA
ATOM     38  H   UNL     1      15.659  31.122  26.919  1.00  0.00     0.211 HD
ENDBRANCH  13  37
BRANCH  14  39
ATOM     39  O   UNL     1      18.730  31.871  25.520  1.00  0.00    -0.387 OA
ATOM     40  H   UNL     1      19.427  32.481  25.202  1.00  0.00     0.211 HD
ENDBRANCH  14  39
ENDBRANCH   8   9
ENDBRANCH   7   8
ENDBRANCH   1   7
BRANCH   1  41
ATOM     41  C   UNL     1      22.514  29.312  24.098  1.00  0.00     0.364 C 
ATOM     42  O   UNL     1      22.639  29.014  25.315  1.00  0.00    -0.246 OA
BRANCH  41  43
ATOM     43  O   UNL     1      23.514  30.146  23.594  1.00  0.00    -0.477 OA
ATOM     44  H   UNL     1      24.467  30.131  23.939  1.00  0.00     0.296 HD
ENDBRANCH  41  43
ENDBRANCH   1  41
BRANCH   3  45
ATOM     45  O   UNL     1      19.959  27.995  21.012  1.00  0.00    -0.391 OA
ATOM     46  H   UNL     1      19.740  28.551  21.797  1.00  0.00     0.211 HD
ENDBRANCH   3  45
BRANCH   5  47
ATOM     47  C   UNL     1      21.055  25.339  23.718  1.00  0.00     0.176 C 
BRANCH  47  48
ATOM     48  O   UNL     1      20.807  24.432  22.700  1.00  0.00    -0.388 OA
ATOM     49  H   UNL     1      19.966  24.622  22.214  1.00  0.00     0.211 HD
ENDBRANCH  47  48
BRANCH  47  50
ATOM     50  C   UNL     1      21.908  24.676  24.770  1.00  0.00     0.165 C 
BRANCH  50  51
ATOM     51  O   UNL     1      21.840  25.556  25.883  1.00  0.00    -0.388 OA
ATOM     52  H   UNL     1      21.410  25.110  26.665  1.00  0.00     0.211 HD
ENDBRANCH  50  51
BRANCH  50  53
ATOM     53  C   UNL     1      23.355  24.629  24.370  1.00  0.00     0.154 C 
BRANCH  53  54
ATOM     54  N   UNL     1      24.189  25.052  25.463  1.00  0.00    -0.319 N 
ATOM     55  C   UNL     1      25.020  26.192  25.473  1.00  0.00     0.407 C 
ATOM     56  H   UNL     1      24.199  24.470  26.357  1.00  0.00     0.167 HD
ATOM     57  O   UNL     1      25.045  26.893  24.454  1.00  0.00    -0.225 OA
BRANCH  55  58
ATOM     58  O   UNL     1      25.802  26.580  26.536  1.00  0.00    -0.443 OA
BRANCH  58  59
ATOM     59  C   UNL     1      25.738  25.907  27.767  1.00  0.00     0.294 C 
BRANCH  59  60
ATOM     60  C   UNL     1      24.322  25.940  28.240  1.00  0.00     0.121 A 
ATOM     61  C   UNL     1      23.614  27.081  28.627  1.00  0.00     0.144 A 
ATOM     62  N   UNL     1      23.435  24.950  28.408  1.00  0.00    -0.131 NA
ATOM     63  N   UNL     1      22.388  26.724  28.993  1.00  0.00    -0.220 N 
ATOM     64  N   UNL     1      22.317  25.409  28.844  1.00  0.00    -0.062 NA
BRANCH  63  65
ATOM     65  C   UNL     1      21.344  27.592  29.465  1.00  0.00     0.073 A 
ATOM     66  C   UNL     1      20.554  27.232  30.515  1.00  0.00     0.033 A 
ATOM     67  C   UNL     1      21.105  28.808  28.885  1.00  0.00     0.118 A 
ATOM     68  C   UNL     1      19.546  28.028  31.005  1.00  0.00     0.056 A 
ATOM     69  C   UNL     1      20.078  29.645  29.364  1.00  0.00     0.312 A 
ATOM     70  C   UNL     1      19.283  29.287  30.421  1.00  0.00     0.194 A 
BRANCH  69  71
ATOM     71  N   UNL     1      19.904  30.878  28.712  1.00  0.00     0.066 N 
ATOM     72  O   UNL     1      20.942  31.585  28.520  1.00  0.00    -0.258 OA
ATOM     73  O   UNL     1      18.685  31.311  28.303  1.00  0.00    -0.258 OA
ENDBRANCH  69  71
BRANCH  70  74
ATOM     74  O   UNL     1      18.258  30.050  30.955  1.00  0.00    -0.502 OA
ATOM     75  H   UNL     1      18.059  30.091  31.902  1.00  0.00     0.293 HD
ENDBRANCH  70  74
ENDBRANCH  63  65
ENDBRANCH  59  60
ENDBRANCH  58  59
ENDBRANCH  55  58
ENDBRANCH  53  54
ENDBRANCH  50  53
ENDBRANCH  47  50
ENDBRANCH   5  47
BRANCH   4  76
ATOM     76  N   UNL     1      23.006  26.147  21.088  1.00  0.00    -0.348 N 
ATOM     77  C   UNL     1      23.281  24.922  20.395  1.00  0.00     0.217 C 
ATOM     78  H   UNL     1      23.787  26.818  21.202  1.00  0.00     0.163 HD
ATOM     79  C   UNL     1      24.639  24.648  19.870  1.00  0.00     0.114 C 
ATOM     80  O   UNL     1      22.337  24.089  20.245  1.00  0.00    -0.275 OA
ENDBRANCH   4  76
TORSDOF 32
