REMARK VINA RESULT:    -5.928     22.080     27.036
REMARK INTER + INTRA:         -23.432
REMARK INTER:                 -15.410
REMARK INTRA:                  -8.023
REMARK UNBOUND:                -6.934
REMARK SMILES CCOCCc1c(-c2ccccc2)nc(N)nc1-n1cc(COC(=O)NC[C@@H](O)C(O)[C@@H]2O[C@@](OC[C@H]3O[C@@H](O[C@H]4[C@H](O)[C@@H](O)[C@H](OCCN=[N+]=[N-])O[C@@H]4CO)[C@H](O)[C@@H](O)[C@H]3O)(C(=O)O)C[C@H](O)[C@H]2NC(C)=O)nn1
REMARK SMILES IDX 30 1 32 2 34 3 66 4 33 5 67 6 69 7 35 8 36 9 37 10 39 11
REMARK SMILES IDX 38 12 57 13 59 14 61 15 40 16 41 17 54 18 53 19 46 20 42 21
REMARK SMILES IDX 44 22 55 23 56 24 47 26 48 27 49 28 50 29 51 30 52 31 43 32
REMARK SMILES IDX 45 34 58 36 60 38 62 40 63 42 64 43 65 44 68 46 70 48 71 49
REMARK SMILES IDX 72 51 73 52 31 53 28 55 29 56 27 58 26 59 24 60 25 62 23 63
REMARK SMILES IDX 22 64 21 65 20 66 74 67 19 68 75 69 18 70 17 71 6 72 15 73
REMARK SMILES IDX 7 74 14 75 5 76 4 77 3 78 2 79 1 80 16 81 8 84 9 85 13 86
REMARK SMILES IDX 10 87 12 88 11 89
REMARK H PARENT 56 25 43 33 45 35 58 37 60 39 62 41 65 45 68 47 70 50 31 54
REMARK H PARENT 29 57 26 61 16 82 16 83
REMARK Flexibility Score: inf
ROOT
ATOM      1  C   UNL     1      21.976  22.388  12.247  1.00  0.00     0.176 C 
ENDROOT
BRANCH   1   2
ATOM      2  C   UNL     1      21.124  21.814  11.156  1.00  0.00     0.178 C 
ATOM      3  C   UNL     1      20.289  19.697  10.607  1.00  0.00     0.272 C 
ATOM      4  C   UNL     1      19.654  20.499   9.469  1.00  0.00     0.113 C 
ATOM      5  O   UNL     1      20.829  20.478  11.564  1.00  0.00    -0.332 OA
ATOM      6  C   UNL     1      20.630  21.423   8.806  1.00  0.00     0.145 C 
ATOM      7  C   UNL     1      21.738  21.711   9.802  1.00  0.00     0.142 C 
BRANCH   3   8
ATOM      8  O   UNL     1      21.152  18.793  10.030  1.00  0.00    -0.338 OA
BRANCH   8   9
ATOM      9  C   UNL     1      22.082  18.232  10.865  1.00  0.00     0.199 C 
BRANCH   9  10
ATOM     10  C   UNL     1      23.194  17.529  10.103  1.00  0.00     0.179 C 
ATOM     11  C   UNL     1      25.221  16.557  10.731  1.00  0.00     0.282 C 
ATOM     12  O   UNL     1      24.327  17.582  10.862  1.00  0.00    -0.341 OA
ATOM     13  C   UNL     1      24.458  15.274  11.087  1.00  0.00     0.202 C 
ATOM     14  C   UNL     1      23.561  15.030   9.874  1.00  0.00     0.179 C 
ATOM     15  C   UNL     1      22.818  16.253   9.466  1.00  0.00     0.177 C 
BRANCH  11  16
ATOM     16  O   UNL     1      26.306  16.766  11.549  1.00  0.00    -0.341 OA
BRANCH  16  17
ATOM     17  C   UNL     1      26.468  18.101  11.882  1.00  0.00     0.184 C 
ATOM     18  C   UNL     1      27.747  18.645  11.345  1.00  0.00     0.178 C 
ATOM     19  O   UNL     1      28.713  18.950  12.251  1.00  0.00    -0.341 OA
ATOM     20  C   UNL     1      28.365  19.605  13.390  1.00  0.00     0.281 C 
ATOM     21  C   UNL     1      26.281  18.330  13.352  1.00  0.00     0.180 C 
ATOM     22  C   UNL     1      26.914  19.640  13.739  1.00  0.00     0.202 C 
BRANCH  18  23
ATOM     23  C   UNL     1      27.505  19.780  10.348  1.00  0.00     0.191 C 
BRANCH  23  24
ATOM     24  O   UNL     1      26.156  20.059  10.219  1.00  0.00    -0.394 OA
ATOM     25  H   UNL     1      26.076  21.011   9.956  1.00  0.00     0.210 HD
ENDBRANCH  23  24
ENDBRANCH  18  23
BRANCH  20  26
ATOM     26  O   UNL     1      28.840  20.908  13.292  1.00  0.00    -0.350 OA
BRANCH  26  27
ATOM     27  C   UNL     1      27.861  21.856  13.121  1.00  0.00     0.169 C 
BRANCH  27  28
ATOM     28  C   UNL     1      28.277  23.252  13.515  1.00  0.00     0.119 C 
BRANCH  28  29
ATOM     29  N   UNL     1      28.448  23.300  14.966  1.00  0.00    -0.092 NA
ATOM     30  N   UNL     1      27.557  22.917  15.734  1.00  0.00     0.001 N 
ATOM     31  N   UNL     1      26.540  22.624  16.362  1.00  0.00    -0.003 NA
ENDBRANCH  28  29
ENDBRANCH  27  28
ENDBRANCH  26  27
ENDBRANCH  20  26
BRANCH  21  32
ATOM     32  O   UNL     1      24.932  18.378  13.717  1.00  0.00    -0.387 OA
ATOM     33  H   UNL     1      24.721  19.198  14.239  1.00  0.00     0.211 HD
ENDBRANCH  21  32
BRANCH  22  34
ATOM     34  O   UNL     1      26.795  19.773  15.121  1.00  0.00    -0.385 OA
ATOM     35  H   UNL     1      26.310  19.013  15.532  1.00  0.00     0.211 HD
ENDBRANCH  22  34
ENDBRANCH  16  17
ENDBRANCH  11  16
BRANCH  13  36
ATOM     36  O   UNL     1      25.289  14.198  11.278  1.00  0.00    -0.385 OA
ATOM     37  H   UNL     1      24.870  13.505  11.859  1.00  0.00     0.211 HD
ENDBRANCH  13  36
BRANCH  14  38
ATOM     38  O   UNL     1      22.798  13.890   9.985  1.00  0.00    -0.387 OA
ATOM     39  H   UNL     1      22.046  14.007  10.643  1.00  0.00     0.211 HD
ENDBRANCH  14  38
BRANCH  15  40
ATOM     40  O   UNL     1      21.447  16.014   9.707  1.00  0.00    -0.387 OA
ATOM     41  H   UNL     1      21.035  15.641   8.886  1.00  0.00     0.211 HD
ENDBRANCH  15  40
ENDBRANCH   9  10
ENDBRANCH   8   9
ENDBRANCH   3   8
BRANCH   3  42
ATOM     42  C   UNL     1      19.126  18.958  11.195  1.00  0.00     0.364 C 
ATOM     43  O   UNL     1      19.049  19.011  12.473  1.00  0.00    -0.246 OA
BRANCH  42  44
ATOM     44  O   UNL     1      18.185  18.266  10.489  1.00  0.00    -0.477 OA
ATOM     45  H   UNL     1      17.299  18.033  10.931  1.00  0.00     0.296 HD
ENDBRANCH  42  44
ENDBRANCH   3  42
BRANCH   6  46
ATOM     46  O   UNL     1      21.116  20.759   7.669  1.00  0.00    -0.391 OA
ATOM     47  H   UNL     1      20.803  21.177   6.843  1.00  0.00     0.211 HD
ENDBRANCH   6  46
BRANCH   7  48
ATOM     48  N   UNL     1      22.557  22.804   9.377  1.00  0.00    -0.348 N 
ATOM     49  C   UNL     1      23.866  22.652   8.849  1.00  0.00     0.217 C 
ATOM     50  H   UNL     1      22.143  23.758   9.451  1.00  0.00     0.163 HD
ATOM     51  C   UNL     1      24.622  23.852   8.438  1.00  0.00     0.114 C 
ATOM     52  O   UNL     1      24.364  21.512   8.734  1.00  0.00    -0.275 OA
ENDBRANCH   7  48
ENDBRANCH   1   2
BRANCH   1  53
ATOM     53  O   UNL     1      22.124  23.778  11.914  1.00  0.00    -0.388 OA
ATOM     54  H   UNL     1      21.451  24.248  12.449  1.00  0.00     0.211 HD
ENDBRANCH   1  53
BRANCH   1  55
ATOM     55  C   UNL     1      23.337  21.854  12.443  1.00  0.00     0.165 C 
BRANCH  55  56
ATOM     56  O   UNL     1      23.267  21.095  13.647  1.00  0.00    -0.388 OA
ATOM     57  H   UNL     1      22.892  20.218  13.429  1.00  0.00     0.211 HD
ENDBRANCH  55  56
BRANCH  55  58
ATOM     58  C   UNL     1      24.447  22.812  12.563  1.00  0.00     0.154 C 
BRANCH  58  59
ATOM     59  N   UNL     1      24.632  23.401  13.832  1.00  0.00    -0.319 N 
ATOM     60  C   UNL     1      24.413  24.752  14.160  1.00  0.00     0.407 C 
ATOM     61  H   UNL     1      24.977  22.813  14.680  1.00  0.00     0.167 HD
ATOM     62  O   UNL     1      24.020  25.590  13.320  1.00  0.00    -0.225 OA
BRANCH  60  63
ATOM     63  O   UNL     1      24.617  25.251  15.451  1.00  0.00    -0.443 OA
BRANCH  63  64
ATOM     64  C   UNL     1      23.600  25.918  16.166  1.00  0.00     0.294 C 
BRANCH  64  65
ATOM     65  C   UNL     1      23.291  25.235  17.445  1.00  0.00     0.121 A 
ATOM     66  C   UNL     1      23.957  25.366  18.635  1.00  0.00     0.146 A 
ATOM     67  N   UNL     1      22.312  24.334  17.686  1.00  0.00    -0.131 NA
ATOM     68  N   UNL     1      23.372  24.539  19.581  1.00  0.00    -0.202 N 
ATOM     69  N   UNL     1      22.399  23.955  18.947  1.00  0.00    -0.060 NA
BRANCH  68  70
ATOM     70  C   UNL     1      23.913  24.498  20.877  1.00  0.00     0.164 A 
ATOM     71  N   UNL     1      25.176  24.030  21.038  1.00  0.00    -0.193 NA
ATOM     72  C   UNL     1      23.264  24.984  22.022  1.00  0.00     0.026 A 
ATOM     73  C   UNL     1      25.815  24.016  22.209  1.00  0.00     0.222 A 
ATOM     74  C   UNL     1      23.898  24.983  23.228  1.00  0.00     0.081 A 
ATOM     75  N   UNL     1      25.179  24.487  23.284  1.00  0.00    -0.213 NA
BRANCH  72  76
ATOM     76  C   UNL     1      21.859  25.367  21.842  1.00  0.00     0.070 C 
BRANCH  76  77
ATOM     77  C   UNL     1      21.657  26.795  21.384  1.00  0.00     0.165 C 
BRANCH  77  78
ATOM     78  O   UNL     1      21.134  26.979  20.141  1.00  0.00    -0.381 OA
BRANCH  78  79
ATOM     79  C   UNL     1      20.542  28.174  19.862  1.00  0.00     0.156 C 
ATOM     80  C   UNL     1      20.384  29.028  21.132  1.00  0.00     0.035 C 
ENDBRANCH  78  79
ENDBRANCH  77  78
ENDBRANCH  76  77
ENDBRANCH  72  76
BRANCH  73  81
ATOM     81  N   UNL     1      27.148  23.509  22.327  1.00  0.00    -0.368 N 
ATOM     82  H   UNL     1      27.902  23.870  21.708  1.00  0.00     0.159 HD
ATOM     83  H   UNL     1      27.412  22.783  23.013  1.00  0.00     0.159 HD
ENDBRANCH  73  81
BRANCH  74  84
ATOM     84  C   UNL     1      23.309  25.489  24.448  1.00  0.00     0.001 A 
ATOM     85  C   UNL     1      22.813  24.565  25.364  1.00  0.00     0.010 A 
ATOM     86  C   UNL     1      23.248  26.839  24.741  1.00  0.00     0.010 A 
ATOM     87  C   UNL     1      22.258  24.971  26.570  1.00  0.00     0.001 A 
ATOM     88  C   UNL     1      22.694  27.220  25.939  1.00  0.00     0.001 A 
ATOM     89  C   UNL     1      22.204  26.317  26.849  1.00  0.00     0.000 A 
ENDBRANCH  74  84
ENDBRANCH  68  70
ENDBRANCH  64  65
ENDBRANCH  63  64
ENDBRANCH  60  63
ENDBRANCH  58  59
ENDBRANCH  55  58
ENDBRANCH   1  55
TORSDOF 36
