REMARK VINA RESULT:    -5.995     12.988     18.220
REMARK INTER + INTRA:         -22.410
REMARK INTER:                 -15.835
REMARK INTRA:                  -6.575
REMARK UNBOUND:                -7.652
REMARK SMILES CC(=O)N[C@@H]1[C@@H](O)C[C@](OC[C@H]2O[C@@H](O[C@H]3[C@H](O)[C@@H](O)[C@H](OCCN=[N+]=[N-])O[C@@H]3CO)[C@H](O)[C@@H](O)[C@H]2O)(C(=O)O)O[C@H]1C(O)[C@H](O)CNC(=O)OCc1cn(-c2ccc(Br)cc2)nn1
REMARK SMILES IDX 9 1 8 2 6 3 5 4 42 5 41 6 10 7 11 8 12 9 14 10 13 11 32 12
REMARK SMILES IDX 34 13 36 14 15 15 16 16 29 17 28 18 21 19 17 20 19 21 30 22
REMARK SMILES IDX 31 23 22 25 23 26 24 27 25 28 26 29 27 30 18 31 20 33 33 35
REMARK SMILES IDX 35 37 37 39 38 41 39 42 40 43 7 45 43 47 44 48 45 50 46 51
REMARK SMILES IDX 47 53 48 54 49 55 50 57 51 58 52 59 53 60 54 61 64 62 55 63
REMARK SMILES IDX 63 64 56 65 57 66 62 67 58 68 61 69 59 70 60 71 4 72 2 73
REMARK SMILES IDX 1 75 3 76
REMARK H PARENT 31 24 18 32 20 34 33 36 35 38 37 40 40 44 7 46 44 49 46 52
REMARK H PARENT 48 56 4 74
REMARK Flexibility Score: inf
ROOT
ATOM      1  C   UNL     1      21.923  30.353  23.741  1.00  0.00     0.272 C 
ATOM      2  C   UNL     1      21.252  30.095  25.118  1.00  0.00     0.113 C 
ATOM      3  C   UNL     1      20.054  30.965  25.212  1.00  0.00     0.145 C 
ATOM      4  C   UNL     1      19.148  30.608  24.016  1.00  0.00     0.142 C 
ATOM      5  C   UNL     1      19.912  31.086  22.804  1.00  0.00     0.178 C 
ATOM      6  O   UNL     1      21.023  30.276  22.718  1.00  0.00    -0.332 OA
ENDROOT
BRANCH   1   7
ATOM      7  O   UNL     1      22.808  29.275  23.636  1.00  0.00    -0.338 OA
BRANCH   7   8
ATOM      8  C   UNL     1      22.869  28.674  22.416  1.00  0.00     0.199 C 
BRANCH   8   9
ATOM      9  C   UNL     1      23.023  27.161  22.677  1.00  0.00     0.179 C 
ATOM     10  C   UNL     1      23.405  25.776  24.505  1.00  0.00     0.282 C 
ATOM     11  O   UNL     1      23.725  26.925  23.824  1.00  0.00    -0.341 OA
ATOM     12  C   UNL     1      22.791  24.722  23.677  1.00  0.00     0.202 C 
ATOM     13  C   UNL     1      21.654  25.148  22.803  1.00  0.00     0.179 C 
ATOM     14  C   UNL     1      21.597  26.640  22.747  1.00  0.00     0.177 C 
BRANCH  10  15
ATOM     15  O   UNL     1      22.697  26.172  25.639  1.00  0.00    -0.341 OA
BRANCH  15  16
ATOM     16  C   UNL     1      23.512  26.274  26.752  1.00  0.00     0.184 C 
ATOM     17  C   UNL     1      22.911  25.610  27.949  1.00  0.00     0.178 C 
ATOM     18  O   UNL     1      23.811  25.595  28.976  1.00  0.00    -0.341 OA
ATOM     19  C   UNL     1      24.872  26.445  28.932  1.00  0.00     0.281 C 
ATOM     20  C   UNL     1      23.680  27.746  27.160  1.00  0.00     0.180 C 
ATOM     21  C   UNL     1      24.590  27.820  28.368  1.00  0.00     0.202 C 
BRANCH  17  22
ATOM     22  C   UNL     1      22.562  24.174  27.608  1.00  0.00     0.191 C 
BRANCH  22  23
ATOM     23  O   UNL     1      23.018  23.316  28.582  1.00  0.00    -0.394 OA
ATOM     24  H   UNL     1      23.890  22.949  28.352  1.00  0.00     0.210 HD
ENDBRANCH  22  23
ENDBRANCH  17  22
BRANCH  19  25
ATOM     25  O   UNL     1      26.010  25.876  28.369  1.00  0.00    -0.350 OA
BRANCH  25  26
ATOM     26  C   UNL     1      27.197  26.330  28.910  1.00  0.00     0.169 C 
BRANCH  26  27
ATOM     27  C   UNL     1      27.508  25.787  30.265  1.00  0.00     0.119 C 
BRANCH  27  28
ATOM     28  N   UNL     1      28.678  24.928  30.195  1.00  0.00    -0.092 NA
ATOM     29  N   UNL     1      29.622  25.317  29.503  1.00  0.00     0.001 N 
ATOM     30  N   UNL     1      30.669  25.686  28.930  1.00  0.00    -0.003 NA
ENDBRANCH  27  28
ENDBRANCH  26  27
ENDBRANCH  25  26
ENDBRANCH  19  25
BRANCH  20  31
ATOM     31  O   UNL     1      24.121  28.496  26.085  1.00  0.00    -0.387 OA
ATOM     32  H   UNL     1      24.934  28.099  25.671  1.00  0.00     0.211 HD
ENDBRANCH  20  31
BRANCH  21  33
ATOM     33  O   UNL     1      24.135  28.662  29.357  1.00  0.00    -0.385 OA
ATOM     34  H   UNL     1      23.193  28.886  29.167  1.00  0.00     0.211 HD
ENDBRANCH  21  33
ENDBRANCH  15  16
ENDBRANCH  10  15
BRANCH  12  35
ATOM     35  O   UNL     1      23.837  24.152  22.900  1.00  0.00    -0.385 OA
ATOM     36  H   UNL     1      23.674  23.170  22.799  1.00  0.00     0.211 HD
ENDBRANCH  12  35
BRANCH  13  37
ATOM     37  O   UNL     1      20.426  24.668  23.316  1.00  0.00    -0.387 OA
ATOM     38  H   UNL     1      19.757  24.860  22.612  1.00  0.00     0.211 HD
ENDBRANCH  13  37
BRANCH  14  39
ATOM     39  O   UNL     1      20.899  27.186  23.821  1.00  0.00    -0.387 OA
ATOM     40  H   UNL     1      21.455  27.185  24.640  1.00  0.00     0.211 HD
ENDBRANCH  14  39
ENDBRANCH   8   9
ENDBRANCH   7   8
ENDBRANCH   1   7
BRANCH   1  41
ATOM     41  C   UNL     1      22.689  31.589  23.879  1.00  0.00     0.364 C 
ATOM     42  O   UNL     1      22.784  32.453  22.975  1.00  0.00    -0.246 OA
BRANCH  41  43
ATOM     43  O   UNL     1      23.360  31.868  25.054  1.00  0.00    -0.477 OA
ATOM     44  H   UNL     1      23.153  32.666  25.653  1.00  0.00     0.296 HD
ENDBRANCH  41  43
ENDBRANCH   1  41
BRANCH   3  45
ATOM     45  O   UNL     1      19.294  30.687  26.339  1.00  0.00    -0.391 OA
ATOM     46  H   UNL     1      19.405  31.408  26.994  1.00  0.00     0.211 HD
ENDBRANCH   3  45
BRANCH   5  47
ATOM     47  C   UNL     1      19.178  30.978  21.511  1.00  0.00     0.176 C 
BRANCH  47  48
ATOM     48  O   UNL     1      18.577  29.688  21.532  1.00  0.00    -0.388 OA
ATOM     49  H   UNL     1      19.010  29.134  20.834  1.00  0.00     0.211 HD
ENDBRANCH  47  48
BRANCH  47  50
ATOM     50  C   UNL     1      20.070  30.931  20.279  1.00  0.00     0.165 C 
BRANCH  50  51
ATOM     51  O   UNL     1      20.971  32.011  20.490  1.00  0.00    -0.388 OA
ATOM     52  H   UNL     1      20.529  32.868  20.194  1.00  0.00     0.211 HD
ENDBRANCH  50  51
BRANCH  50  53
ATOM     53  C   UNL     1      19.316  31.249  19.034  1.00  0.00     0.154 C 
BRANCH  53  54
ATOM     54  N   UNL     1      18.563  30.130  18.564  1.00  0.00    -0.319 N 
ATOM     55  C   UNL     1      19.111  29.002  17.878  1.00  0.00     0.407 C 
ATOM     56  H   UNL     1      17.504  30.091  18.714  1.00  0.00     0.167 HD
ATOM     57  O   UNL     1      20.344  28.974  17.655  1.00  0.00    -0.225 OA
BRANCH  55  58
ATOM     58  O   UNL     1      18.329  27.950  17.460  1.00  0.00    -0.443 OA
BRANCH  58  59
ATOM     59  C   UNL     1      16.937  28.103  17.356  1.00  0.00     0.294 C 
BRANCH  59  60
ATOM     60  C   UNL     1      16.364  28.196  18.717  1.00  0.00     0.121 A 
ATOM     61  C   UNL     1      15.277  29.009  19.061  1.00  0.00     0.144 A 
ATOM     62  N   UNL     1      16.714  27.586  19.860  1.00  0.00    -0.131 NA
ATOM     63  N   UNL     1      15.025  28.856  20.373  1.00  0.00    -0.220 N 
ATOM     64  N   UNL     1      15.910  27.990  20.826  1.00  0.00    -0.062 NA
BRANCH  63  65
ATOM     65  C   UNL     1      13.985  29.541  21.058  1.00  0.00     0.066 A 
ATOM     66  C   UNL     1      13.366  29.096  22.182  1.00  0.00     0.029 A 
ATOM     67  C   UNL     1      13.599  30.764  20.518  1.00  0.00     0.029 A 
ATOM     68  C   UNL     1      12.375  29.865  22.756  1.00  0.00     0.018 A 
ATOM     69  C   UNL     1      12.608  31.520  21.103  1.00  0.00     0.018 A 
ATOM     70  C   UNL     1      11.975  31.074  22.244  1.00  0.00     0.018 A 
ATOM     71  Br  UNL     1      10.602  32.109  23.072  1.00  0.00    -0.051 Br
ENDBRANCH  63  65
ENDBRANCH  59  60
ENDBRANCH  58  59
ENDBRANCH  55  58
ENDBRANCH  53  54
ENDBRANCH  50  53
ENDBRANCH  47  50
ENDBRANCH   5  47
BRANCH   4  72
ATOM     72  N   UNL     1      17.898  31.266  24.247  1.00  0.00    -0.348 N 
ATOM     73  C   UNL     1      16.652  30.596  24.116  1.00  0.00     0.217 C 
ATOM     74  H   UNL     1      17.892  32.265  24.519  1.00  0.00     0.163 HD
ATOM     75  C   UNL     1      15.342  31.251  24.346  1.00  0.00     0.114 C 
ATOM     76  O   UNL     1      16.632  29.367  23.782  1.00  0.00    -0.275 OA
ENDBRANCH   4  72
TORSDOF 30
