REMARK VINA RESULT:    -6.398      8.908     14.264
REMARK INTER + INTRA:         -20.944
REMARK INTER:                 -16.427
REMARK INTRA:                  -4.517
REMARK UNBOUND:                -4.822
REMARK SMILES CC(=O)N[C@@H]1[C@@H](O)C[C@](OC[C@H]2O[C@@H](O[C@H]3[C@H](O)[C@@H](O)[C@H](OCCN=[N+]=[N-])O[C@@H]3CO)[C@H](O)[C@@H](O)[C@H]2O)(C(=O)O)O[C@H]1C(O)[C@H](O)CNC(=O)OCc1cn(Cc2ccccc2Br)nn1
REMARK SMILES IDX 9 1 8 2 6 3 5 4 42 5 41 6 10 7 11 8 12 9 14 10 13 11 32 12
REMARK SMILES IDX 34 13 36 14 15 15 16 16 29 17 28 18 21 19 17 20 19 21 30 22
REMARK SMILES IDX 31 23 22 25 23 26 24 27 25 28 26 29 27 30 18 31 20 33 33 35
REMARK SMILES IDX 35 37 37 39 38 41 39 42 40 43 7 45 43 47 44 48 45 50 46 51
REMARK SMILES IDX 47 53 48 54 49 55 50 57 51 58 52 59 53 60 54 61 65 62 55 63
REMARK SMILES IDX 64 64 56 65 57 66 58 67 62 68 59 69 61 70 63 71 60 72 4 73
REMARK SMILES IDX 2 74 1 76 3 77
REMARK H PARENT 31 24 18 32 20 34 33 36 35 38 37 40 40 44 7 46 44 49 46 52
REMARK H PARENT 48 56 4 75
REMARK Flexibility Score: inf
ROOT
ATOM      1  C   UNL     1      17.791  28.987  19.843  1.00  0.00     0.272 C 
ATOM      2  C   UNL     1      17.960  30.413  19.495  1.00  0.00     0.113 C 
ATOM      3  C   UNL     1      16.652  31.080  19.265  1.00  0.00     0.145 C 
ATOM      4  C   UNL     1      15.792  30.923  20.488  1.00  0.00     0.142 C 
ATOM      5  C   UNL     1      15.969  29.634  21.194  1.00  0.00     0.178 C 
ATOM      6  O   UNL     1      17.187  29.052  21.186  1.00  0.00    -0.332 OA
ENDROOT
BRANCH   1   7
ATOM      7  O   UNL     1      18.926  28.293  20.042  1.00  0.00    -0.338 OA
BRANCH   7   8
ATOM      8  C   UNL     1      19.914  28.499  20.852  1.00  0.00     0.199 C 
BRANCH   8   9
ATOM      9  C   UNL     1      21.072  27.664  21.177  1.00  0.00     0.179 C 
ATOM     10  C   UNL     1      22.050  25.995  22.409  1.00  0.00     0.282 C 
ATOM     11  O   UNL     1      20.832  26.471  21.866  1.00  0.00    -0.341 OA
ATOM     12  C   UNL     1      22.797  25.361  21.268  1.00  0.00     0.202 C 
ATOM     13  C   UNL     1      22.876  26.271  20.092  1.00  0.00     0.179 C 
ATOM     14  C   UNL     1      22.217  27.614  20.233  1.00  0.00     0.177 C 
BRANCH  10  15
ATOM     15  O   UNL     1      21.718  25.117  23.396  1.00  0.00    -0.341 OA
BRANCH  15  16
ATOM     16  C   UNL     1      21.842  25.526  24.689  1.00  0.00     0.184 C 
ATOM     17  C   UNL     1      22.301  26.926  24.899  1.00  0.00     0.178 C 
ATOM     18  O   UNL     1      23.342  26.912  25.823  1.00  0.00    -0.341 OA
ATOM     19  C   UNL     1      24.403  26.208  25.198  1.00  0.00     0.281 C 
ATOM     20  C   UNL     1      22.657  24.566  25.544  1.00  0.00     0.180 C 
ATOM     21  C   UNL     1      24.140  24.728  25.279  1.00  0.00     0.202 C 
BRANCH  17  22
ATOM     22  C   UNL     1      21.208  27.810  25.498  1.00  0.00     0.191 C 
BRANCH  22  23
ATOM     23  O   UNL     1      20.132  27.922  24.617  1.00  0.00    -0.394 OA
ATOM     24  H   UNL     1      19.768  28.836  24.581  1.00  0.00     0.210 HD
ENDBRANCH  22  23
ENDBRANCH  17  22
BRANCH  19  25
ATOM     25  O   UNL     1      25.560  26.600  25.864  1.00  0.00    -0.350 OA
BRANCH  25  26
ATOM     26  C   UNL     1      25.631  26.052  27.145  1.00  0.00     0.169 C 
BRANCH  26  27
ATOM     27  C   UNL     1      26.424  27.011  28.016  1.00  0.00     0.119 C 
BRANCH  27  28
ATOM     28  N   UNL     1      27.272  26.231  28.881  1.00  0.00    -0.092 NA
ATOM     29  N   UNL     1      26.813  25.578  29.824  1.00  0.00     0.001 N 
ATOM     30  N   UNL     1      26.313  25.341  30.943  1.00  0.00    -0.003 NA
ENDBRANCH  27  28
ENDBRANCH  26  27
ENDBRANCH  25  26
ENDBRANCH  19  25
BRANCH  20  31
ATOM     31  O   UNL     1      22.473  24.834  26.902  1.00  0.00    -0.387 OA
ATOM     32  H   UNL     1      23.122  25.555  27.135  1.00  0.00     0.211 HD
ENDBRANCH  20  31
BRANCH  21  33
ATOM     33  O   UNL     1      24.577  24.017  24.191  1.00  0.00    -0.385 OA
ATOM     34  H   UNL     1      24.514  23.052  24.380  1.00  0.00     0.211 HD
ENDBRANCH  21  33
ENDBRANCH  15  16
ENDBRANCH  10  15
BRANCH  12  35
ATOM     35  O   UNL     1      24.122  25.067  21.629  1.00  0.00    -0.385 OA
ATOM     36  H   UNL     1      24.542  24.654  20.841  1.00  0.00     0.211 HD
ENDBRANCH  12  35
BRANCH  13  37
ATOM     37  O   UNL     1      22.313  25.627  18.981  1.00  0.00    -0.387 OA
ATOM     38  H   UNL     1      21.717  24.895  19.238  1.00  0.00     0.211 HD
ENDBRANCH  13  37
BRANCH  14  39
ATOM     39  O   UNL     1      21.885  28.030  18.952  1.00  0.00    -0.387 OA
ATOM     40  H   UNL     1      22.336  27.579  18.224  1.00  0.00     0.211 HD
ENDBRANCH  14  39
ENDBRANCH   8   9
ENDBRANCH   7   8
ENDBRANCH   1   7
BRANCH   1  41
ATOM     41  C   UNL     1      16.750  28.220  19.127  1.00  0.00     0.364 C 
ATOM     42  O   UNL     1      16.154  27.204  19.549  1.00  0.00    -0.246 OA
BRANCH  41  43
ATOM     43  O   UNL     1      16.378  28.633  17.859  1.00  0.00    -0.477 OA
ATOM     44  H   UNL     1      17.019  28.583  17.066  1.00  0.00     0.296 HD
ENDBRANCH  41  43
ENDBRANCH   1  41
BRANCH   3  45
ATOM     45  O   UNL     1      16.961  32.472  19.122  1.00  0.00    -0.391 OA
ATOM     46  H   UNL     1      17.772  32.697  19.620  1.00  0.00     0.211 HD
ENDBRANCH   3  45
BRANCH   5  47
ATOM     47  C   UNL     1      15.578  29.803  22.665  1.00  0.00     0.176 C 
BRANCH  47  48
ATOM     48  O   UNL     1      16.639  29.341  23.429  1.00  0.00    -0.388 OA
ATOM     49  H   UNL     1      16.391  29.095  24.337  1.00  0.00     0.211 HD
ENDBRANCH  47  48
BRANCH  47  50
ATOM     50  C   UNL     1      14.344  29.052  23.023  1.00  0.00     0.165 C 
BRANCH  50  51
ATOM     51  O   UNL     1      13.771  28.418  21.907  1.00  0.00    -0.388 OA
ATOM     52  H   UNL     1      13.816  27.433  22.012  1.00  0.00     0.211 HD
ENDBRANCH  50  51
BRANCH  50  53
ATOM     53  C   UNL     1      13.285  29.989  23.543  1.00  0.00     0.154 C 
BRANCH  53  54
ATOM     54  N   UNL     1      13.785  30.769  24.618  1.00  0.00    -0.319 N 
ATOM     55  C   UNL     1      13.073  31.816  25.238  1.00  0.00     0.407 C 
ATOM     56  H   UNL     1      14.761  30.545  24.974  1.00  0.00     0.167 HD
ATOM     57  O   UNL     1      11.914  32.131  24.867  1.00  0.00    -0.225 OA
BRANCH  55  58
ATOM     58  O   UNL     1      13.627  32.550  26.295  1.00  0.00    -0.443 OA
BRANCH  58  59
ATOM     59  C   UNL     1      13.767  32.005  27.580  1.00  0.00     0.294 C 
BRANCH  59  60
ATOM     60  C   UNL     1      15.146  31.585  27.916  1.00  0.00     0.120 A 
ATOM     61  C   UNL     1      15.738  31.783  29.173  1.00  0.00     0.138 A 
ATOM     62  N   UNL     1      16.075  30.975  27.175  1.00  0.00    -0.132 NA
ATOM     63  N   UNL     1      16.971  31.292  29.130  1.00  0.00    -0.248 N 
ATOM     64  N   UNL     1      17.159  30.803  27.900  1.00  0.00    -0.067 NA
BRANCH  63  65
ATOM     65  C   UNL     1      17.986  31.241  30.182  1.00  0.00     0.182 C 
BRANCH  65  66
ATOM     66  C   UNL     1      18.514  29.882  30.427  1.00  0.00    -0.012 A 
ATOM     67  C   UNL     1      17.693  28.996  31.144  1.00  0.00     0.007 A 
ATOM     68  C   UNL     1      19.749  29.449  30.028  1.00  0.00     0.023 A 
ATOM     69  C   UNL     1      18.153  27.744  31.417  1.00  0.00     0.000 A 
ATOM     70  C   UNL     1      20.203  28.171  30.315  1.00  0.00     0.016 A 
ATOM     71  Br  UNL     1      20.884  30.577  29.004  1.00  0.00    -0.050 Br
ATOM     72  C   UNL     1      19.390  27.320  31.016  1.00  0.00     0.001 A 
ENDBRANCH  65  66
ENDBRANCH  63  65
ENDBRANCH  59  60
ENDBRANCH  58  59
ENDBRANCH  55  58
ENDBRANCH  53  54
ENDBRANCH  50  53
ENDBRANCH  47  50
ENDBRANCH   5  47
BRANCH   4  73
ATOM     73  N   UNL     1      14.413  31.103  20.116  1.00  0.00    -0.348 N 
ATOM     74  C   UNL     1      13.566  32.095  20.697  1.00  0.00     0.217 C 
ATOM     75  H   UNL     1      13.954  30.508  19.394  1.00  0.00     0.163 HD
ATOM     76  C   UNL     1      12.140  32.226  20.263  1.00  0.00     0.114 C 
ATOM     77  O   UNL     1      14.045  32.838  21.563  1.00  0.00    -0.275 OA
ENDBRANCH   4  73
TORSDOF 31
