REMARK VINA RESULT:    -5.792      3.526     10.726
REMARK INTER + INTRA:         -20.855
REMARK INTER:                 -15.049
REMARK INTRA:                  -5.805
REMARK UNBOUND:                -6.597
REMARK SMILES CC(=O)N[C@@H]1[C@@H](O)C[C@](OC[C@H]2O[C@@H](O[C@H]3[C@H](O)[C@@H](O)[C@H](OCCN=[N+]=[N-])O[C@@H]3CO)[C@H](O)[C@@H](O)[C@H]2O)(C(=O)O)O[C@H]1C(O)[C@H](O)CNC(=O)OCc1cn(-c2ccccc2)nn1
REMARK SMILES IDX 9 1 8 2 6 3 5 4 42 5 41 6 10 7 11 8 12 9 14 10 13 11 32 12
REMARK SMILES IDX 34 13 36 14 15 15 16 16 29 17 28 18 21 19 17 20 19 21 30 22
REMARK SMILES IDX 31 23 22 25 23 26 24 27 25 28 26 29 27 30 18 31 20 33 33 35
REMARK SMILES IDX 35 37 37 39 38 41 39 42 40 43 7 45 43 47 44 48 45 50 46 51
REMARK SMILES IDX 47 53 48 54 49 55 50 57 51 58 52 59 53 60 54 61 63 62 55 63
REMARK SMILES IDX 62 64 56 65 57 66 61 67 58 68 60 69 59 70 4 71 2 72 1 74
REMARK SMILES IDX 3 75
REMARK H PARENT 31 24 18 32 20 34 33 36 35 38 37 40 40 44 7 46 44 49 46 52
REMARK H PARENT 48 56 4 73
REMARK Flexibility Score: inf
ROOT
ATOM      1  C   UNL     1      21.105  29.976  28.411  1.00  0.00     0.272 C 
ATOM      2  C   UNL     1      20.794  29.715  29.838  1.00  0.00     0.113 C 
ATOM      3  C   UNL     1      19.698  30.537  30.408  1.00  0.00     0.145 C 
ATOM      4  C   UNL     1      18.556  30.661  29.417  1.00  0.00     0.142 C 
ATOM      5  C   UNL     1      19.149  31.279  28.170  1.00  0.00     0.178 C 
ATOM      6  O   UNL     1      19.958  30.314  27.629  1.00  0.00    -0.332 OA
ENDROOT
BRANCH   1   7
ATOM      7  O   UNL     1      21.610  28.915  27.719  1.00  0.00    -0.338 OA
BRANCH   7   8
ATOM      8  C   UNL     1      21.165  27.676  27.812  1.00  0.00     0.199 C 
BRANCH   8   9
ATOM      9  C   UNL     1      22.018  26.486  27.604  1.00  0.00     0.179 C 
ATOM     10  C   UNL     1      22.400  24.862  25.972  1.00  0.00     0.282 C 
ATOM     11  O   UNL     1      21.531  25.890  26.396  1.00  0.00    -0.341 OA
ATOM     12  C   UNL     1      23.475  24.523  26.952  1.00  0.00     0.202 C 
ATOM     13  C   UNL     1      24.328  25.731  27.271  1.00  0.00     0.179 C 
ATOM     14  C   UNL     1      23.444  26.944  27.274  1.00  0.00     0.177 C 
BRANCH  10  15
ATOM     15  O   UNL     1      22.965  25.252  24.814  1.00  0.00    -0.341 OA
BRANCH  15  16
ATOM     16  C   UNL     1      22.544  24.798  23.619  1.00  0.00     0.184 C 
ATOM     17  C   UNL     1      23.525  24.963  22.482  1.00  0.00     0.178 C 
ATOM     18  O   UNL     1      22.746  24.975  21.309  1.00  0.00    -0.341 OA
ATOM     19  C   UNL     1      22.284  26.304  21.190  1.00  0.00     0.281 C 
ATOM     20  C   UNL     1      21.208  25.405  23.186  1.00  0.00     0.180 C 
ATOM     21  C   UNL     1      21.447  26.675  22.397  1.00  0.00     0.202 C 
BRANCH  17  22
ATOM     22  C   UNL     1      24.474  23.790  22.364  1.00  0.00     0.191 C 
BRANCH  22  23
ATOM     23  O   UNL     1      25.298  23.774  23.492  1.00  0.00    -0.394 OA
ATOM     24  H   UNL     1      24.933  24.369  24.220  1.00  0.00     0.210 HD
ENDBRANCH  22  23
ENDBRANCH  17  22
BRANCH  19  25
ATOM     25  O   UNL     1      21.543  26.496  20.065  1.00  0.00    -0.350 OA
BRANCH  25  26
ATOM     26  C   UNL     1      21.912  27.507  19.222  1.00  0.00     0.169 C 
BRANCH  26  27
ATOM     27  C   UNL     1      20.864  28.545  18.972  1.00  0.00     0.119 C 
BRANCH  27  28
ATOM     28  N   UNL     1      19.696  28.321  19.742  1.00  0.00    -0.092 NA
ATOM     29  N   UNL     1      19.387  29.053  20.701  1.00  0.00     0.001 N 
ATOM     30  N   UNL     1      19.418  29.651  21.788  1.00  0.00    -0.003 NA
ENDBRANCH  27  28
ENDBRANCH  26  27
ENDBRANCH  25  26
ENDBRANCH  19  25
BRANCH  20  31
ATOM     31  O   UNL     1      20.463  24.556  22.379  1.00  0.00    -0.387 OA
ATOM     32  H   UNL     1      20.867  24.458  21.483  1.00  0.00     0.211 HD
ENDBRANCH  20  31
BRANCH  21  33
ATOM     33  O   UNL     1      22.065  27.656  23.145  1.00  0.00    -0.385 OA
ATOM     34  H   UNL     1      21.765  27.687  24.081  1.00  0.00     0.211 HD
ENDBRANCH  21  33
ENDBRANCH  15  16
ENDBRANCH  10  15
BRANCH  12  35
ATOM     35  O   UNL     1      23.042  23.832  28.076  1.00  0.00    -0.385 OA
ATOM     36  H   UNL     1      23.828  23.705  28.667  1.00  0.00     0.211 HD
ENDBRANCH  12  35
BRANCH  13  37
ATOM     37  O   UNL     1      25.279  25.877  26.278  1.00  0.00    -0.387 OA
ATOM     38  H   UNL     1      24.911  26.150  25.400  1.00  0.00     0.211 HD
ENDBRANCH  13  37
BRANCH  14  39
ATOM     39  O   UNL     1      23.367  27.517  25.984  1.00  0.00    -0.387 OA
ATOM     40  H   UNL     1      22.985  26.889  25.337  1.00  0.00     0.211 HD
ENDBRANCH  14  39
ENDBRANCH   8   9
ENDBRANCH   7   8
ENDBRANCH   1   7
BRANCH   1  41
ATOM     41  C   UNL     1      21.925  31.202  28.291  1.00  0.00     0.364 C 
ATOM     42  O   UNL     1      22.500  31.699  29.260  1.00  0.00    -0.246 OA
BRANCH  41  43
ATOM     43  O   UNL     1      22.065  31.841  27.041  1.00  0.00    -0.477 OA
ATOM     44  H   UNL     1      22.997  32.126  26.750  1.00  0.00     0.296 HD
ENDBRANCH  41  43
ENDBRANCH   1  41
BRANCH   3  45
ATOM     45  O   UNL     1      19.272  29.979  31.611  1.00  0.00    -0.391 OA
ATOM     46  H   UNL     1      19.240  30.698  32.265  1.00  0.00     0.211 HD
ENDBRANCH   3  45
BRANCH   5  47
ATOM     47  C   UNL     1      18.069  31.569  27.133  1.00  0.00     0.176 C 
BRANCH  47  48
ATOM     48  O   UNL     1      17.543  32.802  27.410  1.00  0.00    -0.388 OA
ATOM     49  H   UNL     1      16.888  33.126  26.753  1.00  0.00     0.211 HD
ENDBRANCH  47  48
BRANCH  47  50
ATOM     50  C   UNL     1      18.474  31.423  25.726  1.00  0.00     0.165 C 
BRANCH  50  51
ATOM     51  O   UNL     1      19.535  32.361  25.519  1.00  0.00    -0.388 OA
ATOM     52  H   UNL     1      19.271  32.899  24.751  1.00  0.00     0.211 HD
ENDBRANCH  50  51
BRANCH  50  53
ATOM     53  C   UNL     1      17.383  31.911  24.759  1.00  0.00     0.154 C 
BRANCH  53  54
ATOM     54  N   UNL     1      17.253  31.046  23.613  1.00  0.00    -0.319 N 
ATOM     55  C   UNL     1      16.316  29.955  23.594  1.00  0.00     0.407 C 
ATOM     56  H   UNL     1      17.817  31.159  22.746  1.00  0.00     0.167 HD
ATOM     57  O   UNL     1      15.573  29.731  24.577  1.00  0.00    -0.225 OA
BRANCH  55  58
ATOM     58  O   UNL     1      16.211  29.128  22.491  1.00  0.00    -0.443 OA
BRANCH  58  59
ATOM     59  C   UNL     1      15.288  29.405  21.444  1.00  0.00     0.294 C 
BRANCH  59  60
ATOM     60  C   UNL     1      15.841  28.729  20.234  1.00  0.00     0.121 A 
ATOM     61  C   UNL     1      16.010  29.368  19.013  1.00  0.00     0.144 A 
ATOM     62  N   UNL     1      16.264  27.476  20.045  1.00  0.00    -0.131 NA
ATOM     63  N   UNL     1      16.530  28.486  18.121  1.00  0.00    -0.220 N 
ATOM     64  N   UNL     1      16.670  27.356  18.777  1.00  0.00    -0.062 NA
BRANCH  63  65
ATOM     65  C   UNL     1      16.848  28.738  16.761  1.00  0.00     0.066 A 
ATOM     66  C   UNL     1      15.872  28.956  15.817  1.00  0.00     0.028 A 
ATOM     67  C   UNL     1      18.165  28.779  16.359  1.00  0.00     0.028 A 
ATOM     68  C   UNL     1      16.174  29.210  14.495  1.00  0.00     0.002 A 
ATOM     69  C   UNL     1      18.463  29.034  15.029  1.00  0.00     0.002 A 
ATOM     70  C   UNL     1      17.503  29.253  14.072  1.00  0.00     0.000 A 
ENDBRANCH  63  65
ENDBRANCH  59  60
ENDBRANCH  58  59
ENDBRANCH  55  58
ENDBRANCH  53  54
ENDBRANCH  50  53
ENDBRANCH  47  50
ENDBRANCH   5  47
BRANCH   4  71
ATOM     71  N   UNL     1      17.433  31.323  29.977  1.00  0.00    -0.348 N 
ATOM     72  C   UNL     1      16.382  30.550  30.537  1.00  0.00     0.217 C 
ATOM     73  H   UNL     1      17.353  32.356  30.009  1.00  0.00     0.163 HD
ATOM     74  C   UNL     1      15.188  31.221  31.135  1.00  0.00     0.114 C 
ATOM     75  O   UNL     1      16.407  29.282  30.557  1.00  0.00    -0.275 OA
ENDBRANCH   4  71
TORSDOF 30
