REMARK VINA RESULT:    -5.830      8.242     13.234
REMARK INTER + INTRA:         -23.760
REMARK INTER:                 -14.754
REMARK INTRA:                  -9.007
REMARK UNBOUND:                -7.877
REMARK SMILES CC(=O)N[C@@H]1[C@@H](O)C[C@](OC[C@H]2O[C@@H](O[C@H]3[C@H](O)[C@@H](O)[C@H](OCCN=[N+]=[N-])O[C@@H]3CO)[C@H](O)[C@@H](O)[C@H]2O)(C(=O)O)O[C@H]1C(O)[C@H](O)CNC(=O)OCc1cn(CC(O)CCc2ccccc2)nn1
REMARK SMILES IDX 43 1 42 2 9 3 8 4 41 5 6 6 5 7 10 8 11 9 12 10 14 11 13 12
REMARK SMILES IDX 32 13 34 14 36 15 15 16 16 17 29 18 28 19 21 20 17 21 19 22
REMARK SMILES IDX 30 23 31 24 22 26 23 27 24 28 25 29 26 30 27 31 18 32 20 34
REMARK SMILES IDX 33 36 35 38 37 40 38 42 39 43 40 44 7 46 4 48 2 49 1 51 3 52
REMARK SMILES IDX 44 53 45 55 46 56 47 58 48 59 49 60 50 62 51 63 52 64 53 65
REMARK SMILES IDX 54 66 68 67 55 68 67 69 56 70 57 71 58 72 59 74 60 75 61 76
REMARK SMILES IDX 62 77 66 78 63 79 65 80 64 81
REMARK H PARENT 31 25 18 33 20 35 33 37 35 39 37 41 40 45 7 47 4 50 44 54
REMARK H PARENT 46 57 48 61 58 73
REMARK Flexibility Score: inf
ROOT
ATOM      1  C   UNL     1      13.555  30.507  23.776  1.00  0.00     0.176 C 
ENDROOT
BRANCH   1   2
ATOM      2  C   UNL     1      13.302  31.965  23.351  1.00  0.00     0.178 C 
ATOM      3  C   UNL     1      13.868  32.967  21.277  1.00  0.00     0.272 C 
ATOM      4  C   UNL     1      15.223  33.207  21.855  1.00  0.00     0.113 C 
ATOM      5  O   UNL     1      13.222  32.016  22.021  1.00  0.00    -0.332 OA
ATOM      6  C   UNL     1      15.134  33.678  23.262  1.00  0.00     0.145 C 
ATOM      7  C   UNL     1      14.224  32.841  24.110  1.00  0.00     0.142 C 
BRANCH   3   8
ATOM      8  O   UNL     1      13.965  32.593  19.921  1.00  0.00    -0.338 OA
BRANCH   8   9
ATOM      9  C   UNL     1      13.966  31.271  19.654  1.00  0.00     0.199 C 
BRANCH   9  10
ATOM     10  C   UNL     1      15.335  30.813  19.097  1.00  0.00     0.179 C 
ATOM     11  C   UNL     1      17.227  29.635  19.522  1.00  0.00     0.282 C 
ATOM     12  O   UNL     1      16.099  30.220  20.037  1.00  0.00    -0.341 OA
ATOM     13  C   UNL     1      16.700  28.534  18.560  1.00  0.00     0.202 C 
ATOM     14  C   UNL     1      16.268  29.355  17.340  1.00  0.00     0.179 C 
ATOM     15  C   UNL     1      15.061  30.115  17.816  1.00  0.00     0.177 C 
BRANCH  11  16
ATOM     16  O   UNL     1      17.951  29.020  20.481  1.00  0.00    -0.341 OA
BRANCH  16  17
ATOM     17  C   UNL     1      19.257  29.395  20.692  1.00  0.00     0.184 C 
ATOM     18  C   UNL     1      19.733  30.461  19.763  1.00  0.00     0.178 C 
ATOM     19  O   UNL     1      20.837  30.192  19.017  1.00  0.00    -0.341 OA
ATOM     20  C   UNL     1      21.785  29.362  19.537  1.00  0.00     0.281 C 
ATOM     21  C   UNL     1      20.074  28.136  20.739  1.00  0.00     0.180 C 
ATOM     22  C   UNL     1      21.150  28.005  19.723  1.00  0.00     0.202 C 
BRANCH  18  23
ATOM     23  C   UNL     1      20.012  31.722  20.552  1.00  0.00     0.191 C 
BRANCH  23  24
ATOM     24  O   UNL     1      18.857  32.205  21.165  1.00  0.00    -0.394 OA
ATOM     25  H   UNL     1      18.266  31.405  21.303  1.00  0.00     0.210 HD
ENDBRANCH  23  24
ENDBRANCH  18  23
BRANCH  20  26
ATOM     26  O   UNL     1      22.382  29.836  20.693  1.00  0.00    -0.350 OA
BRANCH  26  27
ATOM     27  C   UNL     1      23.638  29.246  20.845  1.00  0.00     0.169 C 
BRANCH  27  28
ATOM     28  C   UNL     1      24.059  29.474  22.295  1.00  0.00     0.119 C 
BRANCH  28  29
ATOM     29  N   UNL     1      25.389  28.987  22.537  1.00  0.00    -0.092 NA
ATOM     30  N   UNL     1      25.556  28.047  23.342  1.00  0.00     0.001 N 
ATOM     31  N   UNL     1      25.740  27.324  24.339  1.00  0.00    -0.003 NA
ENDBRANCH  28  29
ENDBRANCH  27  28
ENDBRANCH  26  27
ENDBRANCH  20  26
BRANCH  21  32
ATOM     32  O   UNL     1      20.712  27.987  22.000  1.00  0.00    -0.387 OA
ATOM     33  H   UNL     1      21.688  27.897  21.911  1.00  0.00     0.211 HD
ENDBRANCH  21  32
BRANCH  22  34
ATOM     34  O   UNL     1      20.629  27.608  18.488  1.00  0.00    -0.385 OA
ATOM     35  H   UNL     1      21.078  28.046  17.736  1.00  0.00     0.211 HD
ENDBRANCH  22  34
ENDBRANCH  16  17
ENDBRANCH  11  16
BRANCH  13  36
ATOM     36  O   UNL     1      17.612  27.573  18.279  1.00  0.00    -0.385 OA
ATOM     37  H   UNL     1      17.998  27.553  17.388  1.00  0.00     0.211 HD
ENDBRANCH  13  36
BRANCH  14  38
ATOM     38  O   UNL     1      15.982  28.528  16.257  1.00  0.00    -0.387 OA
ATOM     39  H   UNL     1      16.691  27.855  16.143  1.00  0.00     0.211 HD
ENDBRANCH  14  38
BRANCH  15  40
ATOM     40  O   UNL     1      14.047  29.168  17.994  1.00  0.00    -0.387 OA
ATOM     41  H   UNL     1      13.450  29.417  18.737  1.00  0.00     0.211 HD
ENDBRANCH  15  40
ENDBRANCH   9  10
ENDBRANCH   8   9
ENDBRANCH   3   8
BRANCH   3  42
ATOM     42  C   UNL     1      13.132  34.254  21.223  1.00  0.00     0.364 C 
ATOM     43  O   UNL     1      13.632  35.215  20.573  1.00  0.00    -0.246 OA
BRANCH  42  44
ATOM     44  O   UNL     1      11.931  34.462  21.843  1.00  0.00    -0.477 OA
ATOM     45  H   UNL     1      11.156  33.844  21.652  1.00  0.00     0.296 HD
ENDBRANCH  42  44
ENDBRANCH   3  42
BRANCH   6  46
ATOM     46  O   UNL     1      16.467  33.663  23.757  1.00  0.00    -0.391 OA
ATOM     47  H   UNL     1      16.760  34.551  24.045  1.00  0.00     0.211 HD
ENDBRANCH   6  46
BRANCH   7  48
ATOM     48  N   UNL     1      13.549  33.597  25.134  1.00  0.00    -0.348 N 
ATOM     49  C   UNL     1      14.130  33.924  26.389  1.00  0.00     0.217 C 
ATOM     50  H   UNL     1      12.555  33.943  24.979  1.00  0.00     0.163 HD
ATOM     51  C   UNL     1      13.335  34.712  27.355  1.00  0.00     0.114 C 
ATOM     52  O   UNL     1      15.277  33.560  26.670  1.00  0.00    -0.275 OA
ENDBRANCH   7  48
ENDBRANCH   1   2
BRANCH   1  53
ATOM     53  O   UNL     1      14.040  30.469  25.069  1.00  0.00    -0.388 OA
ATOM     54  H   UNL     1      13.359  30.195  25.730  1.00  0.00     0.211 HD
ENDBRANCH   1  53
BRANCH   1  55
ATOM     55  C   UNL     1      14.276  29.680  22.780  1.00  0.00     0.165 C 
BRANCH  55  56
ATOM     56  O   UNL     1      13.468  28.666  22.331  1.00  0.00    -0.388 OA
ATOM     57  H   UNL     1      13.680  28.367  21.424  1.00  0.00     0.211 HD
ENDBRANCH  55  56
BRANCH  55  58
ATOM     58  C   UNL     1      15.515  29.139  23.456  1.00  0.00     0.154 C 
BRANCH  58  59
ATOM     59  N   UNL     1      16.718  29.855  23.256  1.00  0.00    -0.319 N 
ATOM     60  C   UNL     1      17.360  30.745  24.158  1.00  0.00     0.407 C 
ATOM     61  H   UNL     1      17.253  29.747  22.325  1.00  0.00     0.167 HD
ATOM     62  O   UNL     1      16.878  30.957  25.277  1.00  0.00    -0.225 OA
BRANCH  60  63
ATOM     63  O   UNL     1      18.534  31.393  23.807  1.00  0.00    -0.443 OA
BRANCH  63  64
ATOM     64  C   UNL     1      19.762  31.316  24.429  1.00  0.00     0.294 C 
BRANCH  64  65
ATOM     65  C   UNL     1      20.253  29.977  24.790  1.00  0.00     0.120 A 
ATOM     66  C   UNL     1      21.422  29.666  25.473  1.00  0.00     0.138 A 
ATOM     67  N   UNL     1      19.663  28.802  24.485  1.00  0.00    -0.132 NA
ATOM     68  N   UNL     1      21.478  28.339  25.543  1.00  0.00    -0.250 N 
ATOM     69  N   UNL     1      20.424  27.835  24.952  1.00  0.00    -0.067 NA
BRANCH  68  70
ATOM     70  C   UNL     1      22.601  27.606  26.186  1.00  0.00     0.177 C 
BRANCH  70  71
ATOM     71  C   UNL     1      21.978  26.625  27.120  1.00  0.00     0.136 C 
BRANCH  71  72
ATOM     72  O   UNL     1      22.226  26.954  28.464  1.00  0.00    -0.391 OA
ATOM     73  H   UNL     1      22.812  26.301  28.902  1.00  0.00     0.211 HD
ENDBRANCH  71  72
BRANCH  71  74
ATOM     74  C   UNL     1      22.305  25.208  26.859  1.00  0.00     0.038 C 
BRANCH  74  75
ATOM     75  C   UNL     1      23.228  24.801  25.805  1.00  0.00     0.038 C 
BRANCH  75  76
ATOM     76  C   UNL     1      22.759  24.643  24.444  1.00  0.00    -0.048 A 
ATOM     77  C   UNL     1      23.656  24.581  23.382  1.00  0.00     0.004 A 
ATOM     78  C   UNL     1      21.398  24.626  24.137  1.00  0.00     0.004 A 
ATOM     79  C   UNL     1      23.210  24.507  22.095  1.00  0.00     0.000 A 
ATOM     80  C   UNL     1      20.981  24.552  22.830  1.00  0.00     0.000 A 
ATOM     81  C   UNL     1      21.875  24.491  21.770  1.00  0.00     0.000 A 
ENDBRANCH  75  76
ENDBRANCH  74  75
ENDBRANCH  71  74
ENDBRANCH  70  71
ENDBRANCH  68  70
ENDBRANCH  64  65
ENDBRANCH  63  64
ENDBRANCH  60  63
ENDBRANCH  58  59
ENDBRANCH  55  58
ENDBRANCH   1  55
TORSDOF 35
