REMARK VINA RESULT:    -5.730      6.092      9.868
REMARK INTER + INTRA:         -23.337
REMARK INTER:                 -16.114
REMARK INTRA:                  -7.223
REMARK UNBOUND:                -8.562
REMARK SMILES CC(=O)N[C@@H]1[C@@H](O)C[C@](OC[C@H]2O[C@@H](O[C@H]3[C@H](O)[C@@H](O)[C@H](OCCN=[N+]=[N-])O[C@@H]3CO)[C@H](O)[C@@H](O)[C@H]2O)(C(=O)O)O[C@H]1C(O)[C@H](O)CNC(=O)OCc1cn(Cc2ccc(C#N)cc2)nn1
REMARK SMILES IDX 9 1 8 2 6 3 5 4 42 5 41 6 10 7 11 8 12 9 14 10 13 11 32 12
REMARK SMILES IDX 34 13 36 14 15 15 16 16 29 17 28 18 21 19 17 20 19 21 30 22
REMARK SMILES IDX 31 23 22 25 23 26 24 27 25 28 26 29 27 30 18 31 20 33 33 35
REMARK SMILES IDX 35 37 37 39 38 41 39 42 40 43 7 45 43 47 44 48 45 50 46 51
REMARK SMILES IDX 47 53 48 54 49 55 50 57 51 58 52 59 53 60 54 61 66 62 55 63
REMARK SMILES IDX 65 64 56 65 57 66 58 67 64 68 59 69 63 70 60 71 61 72 62 73
REMARK SMILES IDX 4 74 2 75 1 77 3 78
REMARK H PARENT 31 24 18 32 20 34 33 36 35 38 37 40 40 44 7 46 44 49 46 52
REMARK H PARENT 48 56 4 76
REMARK Flexibility Score: inf
ROOT
ATOM      1  C   UNL     1      17.288  29.356  18.827  1.00  0.00     0.272 C 
ATOM      2  C   UNL     1      16.422  28.164  19.041  1.00  0.00     0.113 C 
ATOM      3  C   UNL     1      15.148  28.424  19.762  1.00  0.00     0.145 C 
ATOM      4  C   UNL     1      15.383  29.599  20.726  1.00  0.00     0.142 C 
ATOM      5  C   UNL     1      16.842  29.571  21.068  1.00  0.00     0.178 C 
ATOM      6  O   UNL     1      17.580  30.039  20.019  1.00  0.00    -0.332 OA
ENDROOT
BRANCH   1   7
ATOM      7  O   UNL     1      16.869  30.245  17.862  1.00  0.00    -0.338 OA
BRANCH   7   8
ATOM      8  C   UNL     1      17.535  31.424  17.836  1.00  0.00     0.199 C 
BRANCH   8   9
ATOM      9  C   UNL     1      16.671  32.565  17.271  1.00  0.00     0.179 C 
ATOM     10  C   UNL     1      14.851  32.866  15.884  1.00  0.00     0.282 C 
ATOM     11  O   UNL     1      15.827  31.976  16.329  1.00  0.00    -0.341 OA
ATOM     12  C   UNL     1      13.943  33.336  16.973  1.00  0.00     0.202 C 
ATOM     13  C   UNL     1      14.396  32.751  18.290  1.00  0.00     0.179 C 
ATOM     14  C   UNL     1      15.867  33.117  18.419  1.00  0.00     0.177 C 
BRANCH  10  15
ATOM     15  O   UNL     1      14.083  32.185  14.942  1.00  0.00    -0.341 OA
BRANCH  15  16
ATOM     16  C   UNL     1      14.577  30.916  14.644  1.00  0.00     0.184 C 
ATOM     17  C   UNL     1      14.573  30.712  13.171  1.00  0.00     0.178 C 
ATOM     18  O   UNL     1      13.500  30.045  12.652  1.00  0.00    -0.341 OA
ATOM     19  C   UNL     1      12.445  29.823  13.500  1.00  0.00     0.281 C 
ATOM     20  C   UNL     1      13.919  29.839  15.444  1.00  0.00     0.180 C 
ATOM     21  C   UNL     1      12.929  29.005  14.676  1.00  0.00     0.202 C 
BRANCH  17  22
ATOM     22  C   UNL     1      15.900  30.087  12.748  1.00  0.00     0.191 C 
BRANCH  22  23
ATOM     23  O   UNL     1      15.644  29.247  11.663  1.00  0.00    -0.394 OA
ATOM     24  H   UNL     1      15.735  28.281  11.926  1.00  0.00     0.210 HD
ENDBRANCH  22  23
ENDBRANCH  17  22
BRANCH  19  25
ATOM     25  O   UNL     1      11.522  29.035  12.783  1.00  0.00    -0.350 OA
BRANCH  25  26
ATOM     26  C   UNL     1      12.170  28.008  12.110  1.00  0.00     0.169 C 
BRANCH  26  27
ATOM     27  C   UNL     1      11.610  27.839  10.712  1.00  0.00     0.119 C 
BRANCH  27  28
ATOM     28  N   UNL     1      10.168  27.997  10.676  1.00  0.00    -0.092 NA
ATOM     29  N   UNL     1       9.442  27.065  10.979  1.00  0.00     0.001 N 
ATOM     30  N   UNL     1       8.590  26.428  11.618  1.00  0.00    -0.003 NA
ENDBRANCH  27  28
ENDBRANCH  26  27
ENDBRANCH  25  26
ENDBRANCH  19  25
BRANCH  20  31
ATOM     31  O   UNL     1      14.835  29.025  16.121  1.00  0.00    -0.387 OA
ATOM     32  H   UNL     1      15.240  29.529  16.887  1.00  0.00     0.211 HD
ENDBRANCH  20  31
BRANCH  21  33
ATOM     33  O   UNL     1      11.857  28.601  15.475  1.00  0.00    -0.385 OA
ATOM     34  H   UNL     1      12.179  27.834  16.016  1.00  0.00     0.211 HD
ENDBRANCH  21  33
ENDBRANCH  15  16
ENDBRANCH  10  15
BRANCH  12  35
ATOM     35  O   UNL     1      13.864  34.704  17.107  1.00  0.00    -0.385 OA
ATOM     36  H   UNL     1      13.230  34.934  17.844  1.00  0.00     0.211 HD
ENDBRANCH  12  35
BRANCH  13  37
ATOM     37  O   UNL     1      14.193  31.381  18.249  1.00  0.00    -0.387 OA
ATOM     38  H   UNL     1      13.645  31.068  17.497  1.00  0.00     0.211 HD
ENDBRANCH  13  37
BRANCH  14  39
ATOM     39  O   UNL     1      16.400  32.811  19.648  1.00  0.00    -0.387 OA
ATOM     40  H   UNL     1      17.283  33.228  19.745  1.00  0.00     0.211 HD
ENDBRANCH  14  39
ENDBRANCH   8   9
ENDBRANCH   7   8
ENDBRANCH   1   7
BRANCH   1  41
ATOM     41  C   UNL     1      18.630  28.830  18.406  1.00  0.00     0.364 C 
ATOM     42  O   UNL     1      19.640  29.110  19.060  1.00  0.00    -0.246 OA
BRANCH  41  43
ATOM     43  O   UNL     1      18.705  28.036  17.287  1.00  0.00    -0.477 OA
ATOM     44  H   UNL     1      19.081  28.344  16.399  1.00  0.00     0.296 HD
ENDBRANCH  41  43
ENDBRANCH   1  41
BRANCH   3  45
ATOM     45  O   UNL     1      14.032  28.585  18.991  1.00  0.00    -0.391 OA
ATOM     46  H   UNL     1      13.452  27.797  19.031  1.00  0.00     0.211 HD
ENDBRANCH   3  45
BRANCH   5  47
ATOM     47  C   UNL     1      17.170  30.326  22.363  1.00  0.00     0.176 C 
BRANCH  47  48
ATOM     48  O   UNL     1      16.976  29.371  23.389  1.00  0.00    -0.388 OA
ATOM     49  H   UNL     1      17.313  28.500  23.061  1.00  0.00     0.211 HD
ENDBRANCH  47  48
BRANCH  47  50
ATOM     50  C   UNL     1      18.559  30.785  22.393  1.00  0.00     0.165 C 
BRANCH  50  51
ATOM     51  O   UNL     1      19.456  29.726  22.056  1.00  0.00    -0.388 OA
ATOM     52  H   UNL     1      20.335  30.200  21.910  1.00  0.00     0.211 HD
ENDBRANCH  50  51
BRANCH  50  53
ATOM     53  C   UNL     1      19.035  31.456  23.620  1.00  0.00     0.154 C 
BRANCH  53  54
ATOM     54  N   UNL     1      19.307  30.765  24.802  1.00  0.00    -0.319 N 
ATOM     55  C   UNL     1      20.426  29.992  25.166  1.00  0.00     0.407 C 
ATOM     56  H   UNL     1      18.556  30.816  25.576  1.00  0.00     0.167 HD
ATOM     57  O   UNL     1      21.410  29.829  24.432  1.00  0.00    -0.225 OA
BRANCH  55  58
ATOM     58  O   UNL     1      20.487  29.354  26.415  1.00  0.00    -0.443 OA
BRANCH  58  59
ATOM     59  C   UNL     1      21.658  29.459  27.208  1.00  0.00     0.294 C 
BRANCH  59  60
ATOM     60  C   UNL     1      22.366  28.130  27.172  1.00  0.00     0.120 A 
ATOM     61  C   UNL     1      21.794  26.962  26.714  1.00  0.00     0.138 A 
ATOM     62  N   UNL     1      23.615  27.814  27.560  1.00  0.00    -0.132 NA
ATOM     63  N   UNL     1      22.714  25.970  26.839  1.00  0.00    -0.248 N 
ATOM     64  N   UNL     1      23.767  26.527  27.341  1.00  0.00    -0.067 NA
BRANCH  63  65
ATOM     65  C   UNL     1      22.433  24.593  26.465  1.00  0.00     0.181 C 
BRANCH  65  66
ATOM     66  C   UNL     1      22.476  24.590  24.956  1.00  0.00    -0.026 A 
ATOM     67  C   UNL     1      21.285  24.580  24.273  1.00  0.00     0.007 A 
ATOM     68  C   UNL     1      23.705  24.596  24.293  1.00  0.00     0.007 A 
ATOM     69  C   UNL     1      21.226  24.573  22.898  1.00  0.00     0.020 A 
ATOM     70  C   UNL     1      23.646  24.589  22.922  1.00  0.00     0.020 A 
ATOM     71  C   UNL     1      22.467  24.577  22.251  1.00  0.00     0.052 A 
BRANCH  71  72
ATOM     72  C   UNL     1      22.432  24.549  20.793  1.00  0.00     0.099 C 
ATOM     73  N   UNL     1      22.392  24.510  19.631  1.00  0.00    -0.192 NA
ENDBRANCH  71  72
ENDBRANCH  65  66
ENDBRANCH  63  65
ENDBRANCH  59  60
ENDBRANCH  58  59
ENDBRANCH  55  58
ENDBRANCH  53  54
ENDBRANCH  50  53
ENDBRANCH  47  50
ENDBRANCH   5  47
BRANCH   4  74
ATOM     74  N   UNL     1      14.494  29.496  21.857  1.00  0.00    -0.348 N 
ATOM     75  C   UNL     1      13.228  30.134  21.788  1.00  0.00     0.217 C 
ATOM     76  H   UNL     1      14.740  28.975  22.713  1.00  0.00     0.163 HD
ATOM     77  C   UNL     1      12.267  30.072  22.903  1.00  0.00     0.114 C 
ATOM     78  O   UNL     1      12.880  30.787  20.748  1.00  0.00    -0.275 OA
ENDBRANCH   4  74
TORSDOF 32
