REMARK VINA RESULT:    -5.682      2.518      3.591
REMARK INTER + INTRA:         -21.533
REMARK INTER:                 -15.605
REMARK INTRA:                  -5.928
REMARK UNBOUND:                -7.546
REMARK SMILES CC(=O)N[C@@H]1[C@@H](O)C[C@](OC[C@H]2O[C@@H](O[C@H]3[C@H](O)[C@@H](O)[C@H](OCCN=[N+]=[N-])O[C@@H]3CO)[C@H](O)[C@@H](O)[C@H]2O)(C(=O)O)O[C@H]1C(O)[C@H](O)CNC(=O)OCc1cn(-c2ccc3[nH]ncc3c2)nn1
REMARK SMILES IDX 9 1 8 2 6 3 5 4 42 5 41 6 10 7 11 8 12 9 14 10 13 11 32 12
REMARK SMILES IDX 34 13 36 14 15 15 16 16 29 17 28 18 21 19 17 20 19 21 30 22
REMARK SMILES IDX 31 23 22 25 23 26 24 27 25 28 26 29 27 30 18 31 20 33 33 35
REMARK SMILES IDX 35 37 37 39 38 41 39 42 40 43 7 45 43 47 44 48 45 50 46 51
REMARK SMILES IDX 47 53 48 54 49 55 50 57 51 58 52 59 53 60 54 61 66 62 55 63
REMARK SMILES IDX 65 64 56 65 57 66 64 67 58 68 63 69 59 70 62 71 60 72 61 73
REMARK SMILES IDX 4 75 2 76 1 78 3 79
REMARK H PARENT 31 24 18 32 20 34 33 36 35 38 37 40 40 44 7 46 44 49 46 52
REMARK H PARENT 48 56 60 74 4 77
REMARK Flexibility Score: inf
ROOT
ATOM      1  C   UNL     1      15.507  29.532  19.266  1.00  0.00     0.272 C 
ATOM      2  C   UNL     1      15.601  30.870  19.905  1.00  0.00     0.113 C 
ATOM      3  C   UNL     1      16.924  31.188  20.554  1.00  0.00     0.145 C 
ATOM      4  C   UNL     1      17.961  31.063  19.406  1.00  0.00     0.142 C 
ATOM      5  C   UNL     1      17.778  29.695  18.873  1.00  0.00     0.178 C 
ATOM      6  O   UNL     1      16.569  29.339  18.386  1.00  0.00    -0.332 OA
ENDROOT
BRANCH   1   7
ATOM      7  O   UNL     1      14.307  29.481  18.525  1.00  0.00    -0.338 OA
BRANCH   7   8
ATOM      8  C   UNL     1      14.195  30.398  17.533  1.00  0.00     0.199 C 
BRANCH   8   9
ATOM      9  C   UNL     1      13.417  29.842  16.318  1.00  0.00     0.179 C 
ATOM     10  C   UNL     1      12.551  31.068  14.553  1.00  0.00     0.282 C 
ATOM     11  O   UNL     1      12.451  30.712  15.909  1.00  0.00    -0.341 OA
ATOM     12  C   UNL     1      13.859  31.775  14.400  1.00  0.00     0.202 C 
ATOM     13  C   UNL     1      14.950  30.702  14.540  1.00  0.00     0.179 C 
ATOM     14  C   UNL     1      14.401  29.479  15.223  1.00  0.00     0.177 C 
BRANCH  10  15
ATOM     15  O   UNL     1      11.434  31.795  14.184  1.00  0.00    -0.341 OA
BRANCH  15  16
ATOM     16  C   UNL     1      10.508  30.954  13.582  1.00  0.00     0.184 C 
ATOM     17  C   UNL     1      10.025  31.412  12.240  1.00  0.00     0.178 C 
ATOM     18  O   UNL     1       9.203  30.509  11.680  1.00  0.00    -0.341 OA
ATOM     19  C   UNL     1       8.590  29.549  12.420  1.00  0.00     0.281 C 
ATOM     20  C   UNL     1       9.220  30.927  14.428  1.00  0.00     0.180 C 
ATOM     21  C   UNL     1       8.347  29.864  13.856  1.00  0.00     0.202 C 
BRANCH  17  22
ATOM     22  C   UNL     1      11.131  31.760  11.265  1.00  0.00     0.191 C 
BRANCH  22  23
ATOM     23  O   UNL     1      11.663  33.014  11.506  1.00  0.00    -0.394 OA
ATOM     24  H   UNL     1      10.918  33.546  11.921  1.00  0.00     0.210 HD
ENDBRANCH  22  23
ENDBRANCH  17  22
BRANCH  19  25
ATOM     25  O   UNL     1       9.322  28.394  12.291  1.00  0.00    -0.350 OA
BRANCH  25  26
ATOM     26  C   UNL     1       9.556  27.944  11.039  1.00  0.00     0.169 C 
BRANCH  26  27
ATOM     27  C   UNL     1      11.002  27.761  10.705  1.00  0.00     0.119 C 
BRANCH  27  28
ATOM     28  N   UNL     1      11.929  28.289  11.661  1.00  0.00    -0.092 NA
ATOM     29  N   UNL     1      12.176  27.763  12.729  1.00  0.00     0.001 N 
ATOM     30  N   UNL     1      12.169  27.447  13.939  1.00  0.00    -0.003 NA
ENDBRANCH  27  28
ENDBRANCH  26  27
ENDBRANCH  25  26
ENDBRANCH  19  25
BRANCH  20  31
ATOM     31  O   UNL     1       9.487  30.735  15.757  1.00  0.00    -0.387 OA
ATOM     32  H   UNL     1       8.735  30.333  16.264  1.00  0.00     0.211 HD
ENDBRANCH  20  31
BRANCH  21  33
ATOM     33  O   UNL     1       7.014  30.259  14.075  1.00  0.00    -0.385 OA
ATOM     34  H   UNL     1       6.587  29.716  14.785  1.00  0.00     0.211 HD
ENDBRANCH  21  33
ENDBRANCH  15  16
ENDBRANCH  10  15
BRANCH  12  35
ATOM     35  O   UNL     1      14.022  32.496  13.245  1.00  0.00    -0.385 OA
ATOM     36  H   UNL     1      13.892  33.482  13.395  1.00  0.00     0.211 HD
ENDBRANCH  12  35
BRANCH  13  37
ATOM     37  O   UNL     1      16.100  31.208  15.108  1.00  0.00    -0.387 OA
ATOM     38  H   UNL     1      16.619  31.651  14.371  1.00  0.00     0.211 HD
ENDBRANCH  13  37
BRANCH  14  39
ATOM     39  O   UNL     1      15.503  28.846  15.852  1.00  0.00    -0.387 OA
ATOM     40  H   UNL     1      15.235  28.275  16.589  1.00  0.00     0.211 HD
ENDBRANCH  14  39
ENDBRANCH   8   9
ENDBRANCH   7   8
ENDBRANCH   1   7
BRANCH   1  41
ATOM     41  C   UNL     1      15.568  28.389  20.216  1.00  0.00     0.364 C 
ATOM     42  O   UNL     1      14.797  28.446  21.231  1.00  0.00    -0.246 OA
BRANCH  41  43
ATOM     43  O   UNL     1      16.358  27.285  20.130  1.00  0.00    -0.477 OA
ATOM     44  H   UNL     1      16.354  26.647  19.334  1.00  0.00     0.296 HD
ENDBRANCH  41  43
ENDBRANCH   1  41
BRANCH   3  45
ATOM     45  O   UNL     1      16.881  32.490  21.014  1.00  0.00    -0.391 OA
ATOM     46  H   UNL     1      17.312  32.582  21.916  1.00  0.00     0.211 HD
ENDBRANCH   3  45
BRANCH   5  47
ATOM     47  C   UNL     1      18.933  29.277  18.012  1.00  0.00     0.176 C 
BRANCH  47  48
ATOM     48  O   UNL     1      18.612  27.917  17.653  1.00  0.00    -0.388 OA
ATOM     49  H   UNL     1      19.418  27.363  17.665  1.00  0.00     0.211 HD
ENDBRANCH  47  48
BRANCH  47  50
ATOM     50  C   UNL     1      19.056  29.993  16.690  1.00  0.00     0.165 C 
BRANCH  50  51
ATOM     51  O   UNL     1      18.173  29.304  15.813  1.00  0.00    -0.388 OA
ATOM     52  H   UNL     1      17.580  29.910  15.335  1.00  0.00     0.211 HD
ENDBRANCH  50  51
BRANCH  50  53
ATOM     53  C   UNL     1      20.409  30.011  16.086  1.00  0.00     0.154 C 
BRANCH  53  54
ATOM     54  N   UNL     1      21.467  29.391  16.802  1.00  0.00    -0.319 N 
ATOM     55  C   UNL     1      21.818  28.020  16.801  1.00  0.00     0.407 C 
ATOM     56  H   UNL     1      22.091  30.000  17.422  1.00  0.00     0.167 HD
ATOM     57  O   UNL     1      21.200  27.197  16.120  1.00  0.00    -0.225 OA
BRANCH  55  58
ATOM     58  O   UNL     1      22.883  27.576  17.579  1.00  0.00    -0.443 OA
BRANCH  58  59
ATOM     59  C   UNL     1      23.405  26.282  17.589  1.00  0.00     0.294 C 
BRANCH  59  60
ATOM     60  C   UNL     1      23.015  25.464  18.745  1.00  0.00     0.121 A 
ATOM     61  C   UNL     1      23.082  25.834  20.070  1.00  0.00     0.144 A 
ATOM     62  N   UNL     1      22.536  24.203  18.706  1.00  0.00    -0.131 NA
ATOM     63  N   UNL     1      22.641  24.781  20.762  1.00  0.00    -0.220 N 
ATOM     64  N   UNL     1      22.317  23.813  19.925  1.00  0.00    -0.062 NA
BRANCH  63  65
ATOM     65  C   UNL     1      22.543  24.727  22.185  1.00  0.00     0.067 A 
ATOM     66  C   UNL     1      21.317  24.703  22.813  1.00  0.00     0.030 A 
ATOM     67  C   UNL     1      23.681  24.702  22.959  1.00  0.00     0.040 A 
ATOM     68  C   UNL     1      21.226  24.655  24.182  1.00  0.00     0.030 A 
ATOM     69  C   UNL     1      23.570  24.653  24.347  1.00  0.00     0.022 A 
ATOM     70  C   UNL     1      22.345  24.629  24.991  1.00  0.00     0.065 A 
ATOM     71  C   UNL     1      24.543  24.619  25.318  1.00  0.00     0.143 A 
ATOM     72  N   UNL     1      22.580  24.581  26.314  1.00  0.00    -0.278 N 
ATOM     73  N   UNL     1      23.882  24.576  26.486  1.00  0.00    -0.183 NA
ATOM     74  H   UNL     1      21.832  24.554  27.049  1.00  0.00     0.190 HD
ENDBRANCH  63  65
ENDBRANCH  59  60
ENDBRANCH  58  59
ENDBRANCH  55  58
ENDBRANCH  53  54
ENDBRANCH  50  53
ENDBRANCH  47  50
ENDBRANCH   5  47
BRANCH   4  75
ATOM     75  N   UNL     1      19.235  31.132  20.129  1.00  0.00    -0.348 N 
ATOM     76  C   UNL     1      19.984  32.309  20.072  1.00  0.00     0.217 C 
ATOM     77  H   UNL     1      19.597  30.334  20.677  1.00  0.00     0.163 HD
ATOM     78  C   UNL     1      21.300  32.459  20.777  1.00  0.00     0.114 C 
ATOM     79  O   UNL     1      19.543  33.301  19.403  1.00  0.00    -0.275 OA
ENDBRANCH   4  75
TORSDOF 30
