REMARK VINA RESULT:    -5.720      2.744      6.619
REMARK INTER + INTRA:         -21.498
REMARK INTER:                 -15.435
REMARK INTRA:                  -6.064
REMARK UNBOUND:                -7.419
REMARK SMILES CC(=O)N[C@@H]1[C@@H](O)C[C@](OC[C@H]2O[C@@H](O[C@H]3[C@H](O)[C@@H](O)[C@H](OCCN=[N+]=[N-])O[C@@H]3CO)[C@H](O)[C@@H](O)[C@H]2O)(C(=O)O)O[C@H]1C(O)[C@H](O)CNC(=O)OCc1cn(-c2ccc(C)cc2)nn1
REMARK SMILES IDX 9 1 8 2 6 3 5 4 42 5 41 6 10 7 11 8 12 9 14 10 13 11 32 12
REMARK SMILES IDX 34 13 36 14 15 15 16 16 29 17 28 18 21 19 17 20 19 21 30 22
REMARK SMILES IDX 31 23 22 25 23 26 24 27 25 28 26 29 27 30 18 31 20 33 33 35
REMARK SMILES IDX 35 37 37 39 38 41 39 42 40 43 7 45 43 47 44 48 45 50 46 51
REMARK SMILES IDX 47 53 48 54 49 55 50 57 51 58 52 59 53 60 54 61 64 62 55 63
REMARK SMILES IDX 63 64 56 65 57 66 62 67 58 68 61 69 59 70 60 71 4 72 2 73
REMARK SMILES IDX 1 75 3 76
REMARK H PARENT 31 24 18 32 20 34 33 36 35 38 37 40 40 44 7 46 44 49 46 52
REMARK H PARENT 48 56 4 74
REMARK Flexibility Score: inf
ROOT
ATOM      1  C   UNL     1      24.505  19.447  11.586  1.00  0.00     0.272 C 
ATOM      2  C   UNL     1      23.930  20.489  10.632  1.00  0.00     0.113 C 
ATOM      3  C   UNL     1      22.487  20.723  10.873  1.00  0.00     0.145 C 
ATOM      4  C   UNL     1      22.040  20.579  12.284  1.00  0.00     0.142 C 
ATOM      5  C   UNL     1      23.141  20.368  13.317  1.00  0.00     0.178 C 
ATOM      6  O   UNL     1      24.135  19.584  12.837  1.00  0.00    -0.332 OA
ENDROOT
BRANCH   1   7
ATOM      7  O   UNL     1      25.914  19.682  11.527  1.00  0.00    -0.338 OA
BRANCH   7   8
ATOM      8  C   UNL     1      26.528  18.884  12.495  1.00  0.00     0.199 C 
BRANCH   8   9
ATOM      9  C   UNL     1      27.758  19.501  13.044  1.00  0.00     0.179 C 
ATOM     10  C   UNL     1      28.753  20.312  14.943  1.00  0.00     0.282 C 
ATOM     11  O   UNL     1      27.718  19.531  14.439  1.00  0.00    -0.341 OA
ATOM     12  C   UNL     1      30.055  19.636  14.735  1.00  0.00     0.202 C 
ATOM     13  C   UNL     1      29.916  18.511  13.747  1.00  0.00     0.179 C 
ATOM     14  C   UNL     1      29.030  18.854  12.567  1.00  0.00     0.177 C 
BRANCH  10  15
ATOM     15  O   UNL     1      28.550  20.520  16.305  1.00  0.00    -0.341 OA
BRANCH  15  16
ATOM     16  C   UNL     1      28.517  21.881  16.614  1.00  0.00     0.184 C 
ATOM     17  C   UNL     1      29.828  22.442  17.088  1.00  0.00     0.178 C 
ATOM     18  O   UNL     1      29.712  22.901  18.404  1.00  0.00    -0.341 OA
ATOM     19  C   UNL     1      29.452  21.827  19.237  1.00  0.00     0.281 C 
ATOM     20  C   UNL     1      27.519  22.018  17.743  1.00  0.00     0.180 C 
ATOM     21  C   UNL     1      28.106  21.211  18.911  1.00  0.00     0.202 C 
BRANCH  17  22
ATOM     22  C   UNL     1      30.189  23.699  16.279  1.00  0.00     0.191 C 
BRANCH  22  23
ATOM     23  O   UNL     1      30.549  23.356  14.978  1.00  0.00    -0.394 OA
ATOM     24  H   UNL     1      30.581  22.353  14.945  1.00  0.00     0.210 HD
ENDBRANCH  22  23
ENDBRANCH  17  22
BRANCH  19  25
ATOM     25  O   UNL     1      29.504  22.167  20.580  1.00  0.00    -0.350 OA
BRANCH  25  26
ATOM     26  C   UNL     1      28.578  21.513  21.353  1.00  0.00     0.169 C 
BRANCH  26  27
ATOM     27  C   UNL     1      29.084  21.019  22.679  1.00  0.00     0.119 C 
BRANCH  27  28
ATOM     28  N   UNL     1      29.636  19.689  22.584  1.00  0.00    -0.092 NA
ATOM     29  N   UNL     1      29.272  18.937  21.697  1.00  0.00     0.001 N 
ATOM     30  N   UNL     1      28.983  18.199  20.753  1.00  0.00    -0.003 NA
ENDBRANCH  27  28
ENDBRANCH  26  27
ENDBRANCH  25  26
ENDBRANCH  19  25
BRANCH  20  31
ATOM     31  O   UNL     1      27.322  23.335  18.133  1.00  0.00    -0.387 OA
ATOM     32  H   UNL     1      27.822  23.903  17.498  1.00  0.00     0.211 HD
ENDBRANCH  20  31
BRANCH  21  33
ATOM     33  O   UNL     1      28.362  19.935  18.369  1.00  0.00    -0.385 OA
ATOM     34  H   UNL     1      27.611  19.596  17.832  1.00  0.00     0.211 HD
ENDBRANCH  21  33
ENDBRANCH  15  16
ENDBRANCH  10  15
BRANCH  12  35
ATOM     35  O   UNL     1      31.059  20.533  14.324  1.00  0.00    -0.385 OA
ATOM     36  H   UNL     1      30.700  21.443  14.584  1.00  0.00     0.211 HD
ENDBRANCH  12  35
BRANCH  13  37
ATOM     37  O   UNL     1      29.551  17.366  14.410  1.00  0.00    -0.387 OA
ATOM     38  H   UNL     1      29.199  17.524  15.344  1.00  0.00     0.211 HD
ENDBRANCH  13  37
BRANCH  14  39
ATOM     39  O   UNL     1      28.698  17.689  11.902  1.00  0.00    -0.387 OA
ATOM     40  H   UNL     1      29.189  17.536  11.069  1.00  0.00     0.211 HD
ENDBRANCH  14  39
ENDBRANCH   8   9
ENDBRANCH   7   8
ENDBRANCH   1   7
BRANCH   1  41
ATOM     41  C   UNL     1      24.187  18.144  10.970  1.00  0.00     0.364 C 
ATOM     42  O   UNL     1      23.529  17.247  11.546  1.00  0.00    -0.246 OA
BRANCH  41  43
ATOM     43  O   UNL     1      24.650  17.913   9.661  1.00  0.00    -0.477 OA
ATOM     44  H   UNL     1      25.495  18.396   9.352  1.00  0.00     0.296 HD
ENDBRANCH  41  43
ENDBRANCH   1  41
BRANCH   3  45
ATOM     45  O   UNL     1      22.077  21.945  10.294  1.00  0.00    -0.391 OA
ATOM     46  H   UNL     1      21.080  21.984  10.455  1.00  0.00     0.211 HD
ENDBRANCH   3  45
BRANCH   5  47
ATOM     47  C   UNL     1      23.616  21.721  13.805  1.00  0.00     0.176 C 
BRANCH  47  48
ATOM     48  O   UNL     1      22.702  22.387  14.608  1.00  0.00    -0.388 OA
ATOM     49  H   UNL     1      23.240  22.838  15.311  1.00  0.00     0.211 HD
ENDBRANCH  47  48
BRANCH  47  50
ATOM     50  C   UNL     1      24.994  21.902  14.235  1.00  0.00     0.165 C 
BRANCH  50  51
ATOM     51  O   UNL     1      25.491  20.948  15.147  1.00  0.00    -0.388 OA
ATOM     52  H   UNL     1      26.418  20.691  14.899  1.00  0.00     0.211 HD
ENDBRANCH  50  51
BRANCH  50  53
ATOM     53  C   UNL     1      25.521  23.228  14.657  1.00  0.00     0.154 C 
BRANCH  53  54
ATOM     54  N   UNL     1      25.004  23.709  15.911  1.00  0.00    -0.319 N 
ATOM     55  C   UNL     1      24.313  24.953  15.996  1.00  0.00     0.407 C 
ATOM     56  H   UNL     1      25.132  23.146  16.783  1.00  0.00     0.167 HD
ATOM     57  O   UNL     1      24.143  25.626  14.950  1.00  0.00    -0.225 OA
BRANCH  55  58
ATOM     58  O   UNL     1      23.850  25.398  17.216  1.00  0.00    -0.443 OA
BRANCH  58  59
ATOM     59  C   UNL     1      24.605  25.386  18.379  1.00  0.00     0.294 C 
BRANCH  59  60
ATOM     60  C   UNL     1      23.817  24.941  19.530  1.00  0.00     0.121 A 
ATOM     61  C   UNL     1      24.140  25.139  20.885  1.00  0.00     0.144 A 
ATOM     62  N   UNL     1      22.671  24.276  19.552  1.00  0.00    -0.131 NA
ATOM     63  N   UNL     1      23.181  24.588  21.628  1.00  0.00    -0.220 N 
ATOM     64  N   UNL     1      22.299  24.069  20.800  1.00  0.00    -0.062 NA
BRANCH  63  65
ATOM     65  C   UNL     1      23.177  24.590  23.067  1.00  0.00     0.066 A 
ATOM     66  C   UNL     1      21.983  24.611  23.752  1.00  0.00     0.029 A 
ATOM     67  C   UNL     1      24.343  24.556  23.803  1.00  0.00     0.029 A 
ATOM     68  C   UNL     1      21.967  24.597  25.150  1.00  0.00     0.005 A 
ATOM     69  C   UNL     1      24.329  24.543  25.202  1.00  0.00     0.005 A 
ATOM     70  C   UNL     1      23.133  24.563  25.881  1.00  0.00    -0.051 A 
ATOM     71  C   UNL     1      23.117  24.537  27.379  1.00  0.00     0.044 C 
ENDBRANCH  63  65
ENDBRANCH  59  60
ENDBRANCH  58  59
ENDBRANCH  55  58
ENDBRANCH  53  54
ENDBRANCH  50  53
ENDBRANCH  47  50
ENDBRANCH   5  47
BRANCH   4  72
ATOM     72  N   UNL     1      20.951  19.633  12.435  1.00  0.00    -0.348 N 
ATOM     73  C   UNL     1      19.657  19.814  11.859  1.00  0.00     0.217 C 
ATOM     74  H   UNL     1      21.074  18.764  12.991  1.00  0.00     0.163 HD
ATOM     75  C   UNL     1      18.565  18.811  12.054  1.00  0.00     0.114 C 
ATOM     76  O   UNL     1      19.511  20.865  11.186  1.00  0.00    -0.275 OA
ENDBRANCH   4  72
TORSDOF 30
