REMARK VINA RESULT:    -5.574      3.349      9.073
REMARK INTER + INTRA:         -20.318
REMARK INTER:                 -13.721
REMARK INTRA:                  -6.597
REMARK UNBOUND:                -6.597
REMARK SMILES CC(=O)N[C@@H]1[C@@H](O)C[C@](OC[C@H]2O[C@@H](O[C@H]3[C@H](O)[C@@H](O)[C@H](OCCN=[N+]=[N-])O[C@@H]3CO)[C@H](O)[C@@H](O)[C@H]2O)(C(=O)O)O[C@H]1C(O)[C@H](O)CNC(=O)OCc1cn(-c2ccccc2)nn1
REMARK SMILES IDX 9 1 8 2 6 3 5 4 42 5 41 6 10 7 11 8 12 9 14 10 13 11 32 12
REMARK SMILES IDX 34 13 36 14 15 15 16 16 29 17 28 18 21 19 17 20 19 21 30 22
REMARK SMILES IDX 31 23 22 25 23 26 24 27 25 28 26 29 27 30 18 31 20 33 33 35
REMARK SMILES IDX 35 37 37 39 38 41 39 42 40 43 7 45 43 47 44 48 45 50 46 51
REMARK SMILES IDX 47 53 48 54 49 55 50 57 51 58 52 59 53 60 54 61 63 62 55 63
REMARK SMILES IDX 62 64 56 65 57 66 61 67 58 68 60 69 59 70 4 71 2 72 1 74
REMARK SMILES IDX 3 75
REMARK H PARENT 31 24 18 32 20 34 33 36 35 38 37 40 40 44 7 46 44 49 46 52
REMARK H PARENT 48 56 4 73
REMARK Flexibility Score: inf
ROOT
ATOM      1  C   UNL     1      21.234  29.849  20.866  1.00  0.00     0.272 C 
ATOM      2  C   UNL     1      22.312  30.761  21.320  1.00  0.00     0.113 C 
ATOM      3  C   UNL     1      21.881  31.837  22.246  1.00  0.00     0.145 C 
ATOM      4  C   UNL     1      20.893  31.300  23.264  1.00  0.00     0.142 C 
ATOM      5  C   UNL     1      19.740  30.730  22.469  1.00  0.00     0.178 C 
ATOM      6  O   UNL     1      20.233  29.608  21.856  1.00  0.00    -0.332 OA
ENDROOT
BRANCH   1   7
ATOM      7  O   UNL     1      21.632  28.581  20.559  1.00  0.00    -0.338 OA
BRANCH   7   8
ATOM      8  C   UNL     1      22.737  28.012  21.002  1.00  0.00     0.199 C 
BRANCH   8   9
ATOM      9  C   UNL     1      22.771  26.670  21.624  1.00  0.00     0.179 C 
ATOM     10  C   UNL     1      23.283  25.701  23.684  1.00  0.00     0.282 C 
ATOM     11  O   UNL     1      23.384  26.872  22.902  1.00  0.00    -0.341 OA
ATOM     12  C   UNL     1      22.753  24.515  22.948  1.00  0.00     0.202 C 
ATOM     13  C   UNL     1      21.381  24.792  22.374  1.00  0.00     0.179 C 
ATOM     14  C   UNL     1      21.336  26.228  21.937  1.00  0.00     0.177 C 
BRANCH  10  15
ATOM     15  O   UNL     1      22.475  25.972  24.727  1.00  0.00    -0.341 OA
BRANCH  15  16
ATOM     16  C   UNL     1      22.954  26.294  25.943  1.00  0.00     0.184 C 
ATOM     17  C   UNL     1      22.329  25.553  27.101  1.00  0.00     0.178 C 
ATOM     18  O   UNL     1      22.518  26.379  28.226  1.00  0.00    -0.341 OA
ATOM     19  C   UNL     1      21.464  27.317  28.171  1.00  0.00     0.281 C 
ATOM     20  C   UNL     1      22.874  27.792  26.238  1.00  0.00     0.180 C 
ATOM     21  C   UNL     1      21.547  28.122  26.891  1.00  0.00     0.202 C 
BRANCH  17  22
ATOM     22  C   UNL     1      23.032  24.245  27.397  1.00  0.00     0.191 C 
BRANCH  22  23
ATOM     23  O   UNL     1      24.235  24.222  26.686  1.00  0.00    -0.394 OA
ATOM     24  H   UNL     1      24.694  25.119  26.713  1.00  0.00     0.210 HD
ENDBRANCH  22  23
ENDBRANCH  17  22
BRANCH  19  25
ATOM     25  O   UNL     1      21.478  28.172  29.230  1.00  0.00    -0.350 OA
BRANCH  25  26
ATOM     26  C   UNL     1      21.255  29.499  28.983  1.00  0.00     0.169 C 
BRANCH  26  27
ATOM     27  C   UNL     1      22.169  30.444  29.694  1.00  0.00     0.119 C 
BRANCH  27  28
ATOM     28  N   UNL     1      23.270  30.830  28.890  1.00  0.00    -0.092 NA
ATOM     29  N   UNL     1      24.444  30.757  29.299  1.00  0.00     0.001 N 
ATOM     30  N   UNL     1      25.475  30.934  29.967  1.00  0.00    -0.003 NA
ENDBRANCH  27  28
ENDBRANCH  26  27
ENDBRANCH  25  26
ENDBRANCH  19  25
BRANCH  20  31
ATOM     31  O   UNL     1      23.872  28.231  27.097  1.00  0.00    -0.387 OA
ATOM     32  H   UNL     1      23.497  28.702  27.881  1.00  0.00     0.211 HD
ENDBRANCH  20  31
BRANCH  21  33
ATOM     33  O   UNL     1      20.471  27.856  26.069  1.00  0.00    -0.385 OA
ATOM     34  H   UNL     1      20.429  28.434  25.274  1.00  0.00     0.211 HD
ENDBRANCH  21  33
ENDBRANCH  15  16
ENDBRANCH  10  15
BRANCH  12  35
ATOM     35  O   UNL     1      23.637  23.951  22.037  1.00  0.00    -0.385 OA
ATOM     36  H   UNL     1      24.501  23.819  22.505  1.00  0.00     0.211 HD
ENDBRANCH  12  35
BRANCH  13  37
ATOM     37  O   UNL     1      20.438  24.601  23.365  1.00  0.00    -0.387 OA
ATOM     38  H   UNL     1      19.500  24.664  23.053  1.00  0.00     0.211 HD
ENDBRANCH  13  37
BRANCH  14  39
ATOM     39  O   UNL     1      20.906  27.065  22.993  1.00  0.00    -0.387 OA
ATOM     40  H   UNL     1      20.222  26.626  23.539  1.00  0.00     0.211 HD
ENDBRANCH  14  39
ENDBRANCH   8   9
ENDBRANCH   7   8
ENDBRANCH   1   7
BRANCH   1  41
ATOM     41  C   UNL     1      20.448  30.495  19.791  1.00  0.00     0.364 C 
ATOM     42  O   UNL     1      20.870  31.471  19.172  1.00  0.00    -0.246 OA
BRANCH  41  43
ATOM     43  O   UNL     1      19.172  29.999  19.452  1.00  0.00    -0.477 OA
ATOM     44  H   UNL     1      18.969  29.021  19.651  1.00  0.00     0.296 HD
ENDBRANCH  41  43
ENDBRANCH   1  41
BRANCH   3  45
ATOM     45  O   UNL     1      22.996  32.399  22.863  1.00  0.00    -0.391 OA
ATOM     46  H   UNL     1      22.695  32.786  23.703  1.00  0.00     0.211 HD
ENDBRANCH   3  45
BRANCH   5  47
ATOM     47  C   UNL     1      18.616  30.263  23.388  1.00  0.00     0.176 C 
BRANCH  47  48
ATOM     48  O   UNL     1      19.132  29.320  24.235  1.00  0.00    -0.388 OA
ATOM     49  H   UNL     1      18.555  29.093  24.997  1.00  0.00     0.211 HD
ENDBRANCH  47  48
BRANCH  47  50
ATOM     50  C   UNL     1      17.880  31.324  24.093  1.00  0.00     0.165 C 
BRANCH  50  51
ATOM     51  O   UNL     1      17.944  30.994  25.484  1.00  0.00    -0.388 OA
ATOM     52  H   UNL     1      18.836  31.249  25.780  1.00  0.00     0.211 HD
ENDBRANCH  50  51
BRANCH  50  53
ATOM     53  C   UNL     1      16.373  31.278  23.791  1.00  0.00     0.154 C 
BRANCH  53  54
ATOM     54  N   UNL     1      16.059  30.323  22.759  1.00  0.00    -0.319 N 
ATOM     55  C   UNL     1      14.926  29.444  22.866  1.00  0.00     0.407 C 
ATOM     56  H   UNL     1      16.621  30.215  21.890  1.00  0.00     0.167 HD
ATOM     57  O   UNL     1      14.167  29.493  23.861  1.00  0.00    -0.225 OA
BRANCH  55  58
ATOM     58  O   UNL     1      14.643  28.525  21.872  1.00  0.00    -0.443 OA
BRANCH  58  59
ATOM     59  C   UNL     1      14.235  28.941  20.574  1.00  0.00     0.294 C 
BRANCH  59  60
ATOM     60  C   UNL     1      15.341  28.536  19.657  1.00  0.00     0.121 A 
ATOM     61  C   UNL     1      15.531  29.091  18.399  1.00  0.00     0.144 A 
ATOM     62  N   UNL     1      16.319  27.638  19.805  1.00  0.00    -0.131 NA
ATOM     63  N   UNL     1      16.616  28.513  17.820  1.00  0.00    -0.220 N 
ATOM     64  N   UNL     1      17.064  27.643  18.696  1.00  0.00    -0.062 NA
BRANCH  63  65
ATOM     65  C   UNL     1      17.144  28.794  16.534  1.00  0.00     0.066 A 
ATOM     66  C   UNL     1      18.498  28.837  16.300  1.00  0.00     0.028 A 
ATOM     67  C   UNL     1      16.292  29.024  15.476  1.00  0.00     0.028 A 
ATOM     68  C   UNL     1      19.019  29.102  15.051  1.00  0.00     0.002 A 
ATOM     69  C   UNL     1      16.820  29.291  14.221  1.00  0.00     0.002 A 
ATOM     70  C   UNL     1      18.169  29.339  13.969  1.00  0.00     0.000 A 
ENDBRANCH  63  65
ENDBRANCH  59  60
ENDBRANCH  58  59
ENDBRANCH  55  58
ENDBRANCH  53  54
ENDBRANCH  50  53
ENDBRANCH  47  50
ENDBRANCH   5  47
BRANCH   4  71
ATOM     71  N   UNL     1      20.564  32.266  24.251  1.00  0.00    -0.348 N 
ATOM     72  C   UNL     1      21.233  32.231  25.503  1.00  0.00     0.217 C 
ATOM     73  H   UNL     1      19.861  33.010  24.090  1.00  0.00     0.163 HD
ATOM     74  C   UNL     1      20.907  33.237  26.559  1.00  0.00     0.114 C 
ATOM     75  O   UNL     1      22.119  31.366  25.778  1.00  0.00    -0.275 OA
ENDBRANCH   4  71
TORSDOF 30
