REMARK VINA RESULT:    -6.166     14.484     19.188
REMARK INTER + INTRA:         -22.566
REMARK INTER:                 -17.346
REMARK INTRA:                  -5.219
REMARK UNBOUND:                -7.387
REMARK SMILES CC(=O)N[C@@H]1[C@@H](O)C[C@](OC[C@H]2O[C@@H](O[C@H]3[C@H](O)[C@@H](O)[C@H](OCCN=[N+]=[N-])O[C@@H]3CO)[C@H](O)[C@@H](O)[C@H]2O)(C(=O)O)O[C@H]1C(O)[C@H](O)CNC(=O)OCc1cn(C23CC4CC(CC(C4)C2)C3)nn1
REMARK SMILES IDX 9 1 8 2 6 3 5 4 42 5 41 6 10 7 11 8 12 9 14 10 13 11 32 12
REMARK SMILES IDX 34 13 36 14 15 15 16 16 29 17 28 18 21 19 17 20 19 21 30 22
REMARK SMILES IDX 31 23 22 25 23 26 24 27 25 28 26 29 27 30 18 31 20 33 33 35
REMARK SMILES IDX 35 37 37 39 38 41 39 42 40 43 7 45 43 47 44 48 45 50 46 51
REMARK SMILES IDX 47 53 48 54 49 55 50 57 51 58 52 59 53 60 54 61 67 62 55 63
REMARK SMILES IDX 66 64 56 65 65 66 64 67 57 68 60 69 62 70 58 71 59 72 61 73
REMARK SMILES IDX 63 74 4 75 2 76 1 78 3 79
REMARK H PARENT 31 24 18 32 20 34 33 36 35 38 37 40 40 44 7 46 44 49 46 52
REMARK H PARENT 48 56 4 77
REMARK Flexibility Score: inf
ROOT
ATOM      1  C   UNL     1       4.435  23.856  34.038  1.00  0.00     0.272 C 
ATOM      2  C   UNL     1       3.100  24.193  34.608  1.00  0.00     0.113 C 
ATOM      3  C   UNL     1       2.491  22.987  35.295  1.00  0.00     0.145 C 
ATOM      4  C   UNL     1       2.050  22.060  34.153  1.00  0.00     0.142 C 
ATOM      5  C   UNL     1       3.210  22.018  33.203  1.00  0.00     0.178 C 
ATOM      6  O   UNL     1       4.408  22.452  33.713  1.00  0.00    -0.332 OA
ENDROOT
BRANCH   1   7
ATOM      7  O   UNL     1       5.494  23.982  34.826  1.00  0.00    -0.338 OA
BRANCH   7   8
ATOM      8  C   UNL     1       5.791  24.902  35.708  1.00  0.00     0.199 C 
BRANCH   8   9
ATOM      9  C   UNL     1       6.941  25.844  35.576  1.00  0.00     0.179 C 
ATOM     10  C   UNL     1       8.816  26.372  34.456  1.00  0.00     0.282 C 
ATOM     11  O   UNL     1       7.769  25.427  34.473  1.00  0.00    -0.341 OA
ATOM     12  C   UNL     1       8.336  27.489  33.588  1.00  0.00     0.202 C 
ATOM     13  C   UNL     1       6.852  27.665  33.852  1.00  0.00     0.179 C 
ATOM     14  C   UNL     1       6.486  27.266  35.261  1.00  0.00     0.177 C 
BRANCH  10  15
ATOM     15  O   UNL     1      10.008  25.789  34.045  1.00  0.00    -0.341 OA
BRANCH  15  16
ATOM     16  C   UNL     1      10.659  25.269  35.125  1.00  0.00     0.184 C 
ATOM     17  C   UNL     1      12.075  25.667  35.328  1.00  0.00     0.178 C 
ATOM     18  O   UNL     1      12.371  25.378  36.680  1.00  0.00    -0.341 OA
ATOM     19  C   UNL     1      12.456  23.981  36.887  1.00  0.00     0.281 C 
ATOM     20  C   UNL     1      10.673  23.736  35.105  1.00  0.00     0.180 C 
ATOM     21  C   UNL     1      11.234  23.274  36.405  1.00  0.00     0.202 C 
BRANCH  17  22
ATOM     22  C   UNL     1      12.436  27.061  34.979  1.00  0.00     0.191 C 
BRANCH  22  23
ATOM     23  O   UNL     1      12.499  27.145  33.578  1.00  0.00    -0.394 OA
ATOM     24  H   UNL     1      12.608  28.083  33.273  1.00  0.00     0.210 HD
ENDBRANCH  22  23
ENDBRANCH  17  22
BRANCH  19  25
ATOM     25  O   UNL     1      12.543  23.833  38.252  1.00  0.00    -0.350 OA
BRANCH  25  26
ATOM     26  C   UNL     1      11.577  24.409  38.993  1.00  0.00     0.169 C 
BRANCH  26  27
ATOM     27  C   UNL     1      10.945  23.464  39.964  1.00  0.00     0.119 C 
BRANCH  27  28
ATOM     28  N   UNL     1      10.285  22.363  39.252  1.00  0.00    -0.092 NA
ATOM     29  N   UNL     1       9.390  21.769  39.839  1.00  0.00     0.001 N 
ATOM     30  N   UNL     1       8.658  20.897  40.353  1.00  0.00    -0.003 NA
ENDBRANCH  27  28
ENDBRANCH  26  27
ENDBRANCH  25  26
ENDBRANCH  19  25
BRANCH  20  31
ATOM     31  O   UNL     1       9.386  23.219  34.964  1.00  0.00    -0.387 OA
ATOM     32  H   UNL     1       8.960  23.180  35.848  1.00  0.00     0.211 HD
ENDBRANCH  20  31
BRANCH  21  33
ATOM     33  O   UNL     1      11.520  21.917  36.266  1.00  0.00    -0.385 OA
ATOM     34  H   UNL     1      11.639  21.496  37.139  1.00  0.00     0.211 HD
ENDBRANCH  21  33
ENDBRANCH  15  16
ENDBRANCH  10  15
BRANCH  12  35
ATOM     35  O   UNL     1       9.024  28.670  33.703  1.00  0.00    -0.385 OA
ATOM     36  H   UNL     1       8.624  29.234  34.407  1.00  0.00     0.211 HD
ENDBRANCH  12  35
BRANCH  13  37
ATOM     37  O   UNL     1       6.062  27.009  32.916  1.00  0.00    -0.387 OA
ATOM     38  H   UNL     1       6.612  26.283  32.477  1.00  0.00     0.211 HD
ENDBRANCH  13  37
BRANCH  14  39
ATOM     39  O   UNL     1       5.103  27.298  35.368  1.00  0.00    -0.387 OA
ATOM     40  H   UNL     1       4.776  26.710  36.098  1.00  0.00     0.211 HD
ENDBRANCH  14  39
ENDBRANCH   8   9
ENDBRANCH   7   8
ENDBRANCH   1   7
BRANCH   1  41
ATOM     41  C   UNL     1       4.586  24.474  32.710  1.00  0.00     0.364 C 
ATOM     42  O   UNL     1       3.740  25.156  32.117  1.00  0.00    -0.246 OA
BRANCH  41  43
ATOM     43  O   UNL     1       5.841  24.237  32.076  1.00  0.00    -0.477 OA
ATOM     44  H   UNL     1       6.554  24.928  32.166  1.00  0.00     0.296 HD
ENDBRANCH  41  43
ENDBRANCH   1  41
BRANCH   3  45
ATOM     45  O   UNL     1       3.475  22.317  36.011  1.00  0.00    -0.391 OA
ATOM     46  H   UNL     1       3.673  22.861  36.815  1.00  0.00     0.211 HD
ENDBRANCH   3  45
BRANCH   5  47
ATOM     47  C   UNL     1       3.519  20.534  32.772  1.00  0.00     0.176 C 
BRANCH  47  48
ATOM     48  O   UNL     1       4.423  20.151  33.785  1.00  0.00    -0.388 OA
ATOM     49  H   UNL     1       4.427  19.162  33.768  1.00  0.00     0.211 HD
ENDBRANCH  47  48
BRANCH  47  50
ATOM     50  C   UNL     1       4.187  20.515  31.472  1.00  0.00     0.165 C 
BRANCH  50  51
ATOM     51  O   UNL     1       5.220  21.455  31.306  1.00  0.00    -0.388 OA
ATOM     52  H   UNL     1       5.734  21.228  30.474  1.00  0.00     0.211 HD
ENDBRANCH  50  51
BRANCH  50  53
ATOM     53  C   UNL     1       3.341  20.520  30.257  1.00  0.00     0.154 C 
BRANCH  53  54
ATOM     54  N   UNL     1       3.223  21.778  29.615  1.00  0.00    -0.319 N 
ATOM     55  C   UNL     1       2.482  22.099  28.469  1.00  0.00     0.407 C 
ATOM     56  H   UNL     1       3.788  22.592  30.083  1.00  0.00     0.167 HD
ATOM     57  O   UNL     1       1.830  21.234  27.864  1.00  0.00    -0.225 OA
BRANCH  55  58
ATOM     58  O   UNL     1       2.491  23.440  28.012  1.00  0.00    -0.443 OA
BRANCH  58  59
ATOM     59  C   UNL     1       3.209  23.728  26.839  1.00  0.00     0.294 C 
BRANCH  59  60
ATOM     60  C   UNL     1       3.855  25.044  26.965  1.00  0.00     0.120 A 
ATOM     61  C   UNL     1       4.403  25.762  25.934  1.00  0.00     0.138 A 
ATOM     62  N   UNL     1       4.031  25.782  28.076  1.00  0.00    -0.132 NA
ATOM     63  N   UNL     1       4.886  26.897  26.446  1.00  0.00    -0.246 N 
ATOM     64  N   UNL     1       4.648  26.881  27.742  1.00  0.00    -0.066 NA
BRANCH  63  65
ATOM     65  C   UNL     1       5.543  27.914  25.649  1.00  0.00     0.065 C 
ATOM     66  C   UNL     1       6.735  27.306  24.981  1.00  0.00     0.034 C 
ATOM     67  C   UNL     1       4.558  28.525  24.672  1.00  0.00     0.034 C 
ATOM     68  C   UNL     1       6.028  29.035  26.551  1.00  0.00     0.034 C 
ATOM     69  C   UNL     1       7.431  28.322  24.111  1.00  0.00    -0.008 C 
ATOM     70  C   UNL     1       5.284  29.484  23.776  1.00  0.00    -0.008 C 
ATOM     71  C   UNL     1       6.697  30.066  25.673  1.00  0.00    -0.008 C 
ATOM     72  C   UNL     1       7.889  29.470  24.977  1.00  0.00     0.007 C 
ATOM     73  C   UNL     1       6.433  28.814  23.088  1.00  0.00     0.007 C 
ATOM     74  C   UNL     1       5.774  30.640  24.635  1.00  0.00     0.007 C 
ENDBRANCH  63  65
ENDBRANCH  59  60
ENDBRANCH  58  59
ENDBRANCH  55  58
ENDBRANCH  53  54
ENDBRANCH  50  53
ENDBRANCH  47  50
ENDBRANCH   5  47
BRANCH   4  75
ATOM     75  N   UNL     1       0.888  22.675  33.502  1.00  0.00    -0.348 N 
ATOM     76  C   UNL     1      -0.432  22.443  33.978  1.00  0.00     0.217 C 
ATOM     77  H   UNL     1       1.020  23.297  32.666  1.00  0.00     0.163 HD
ATOM     78  C   UNL     1      -1.614  23.078  33.291  1.00  0.00     0.114 C 
ATOM     79  O   UNL     1      -0.580  21.702  34.974  1.00  0.00    -0.275 OA
ENDBRANCH   4  75
TORSDOF 30
