REMARK VINA RESULT:    -5.867     17.298     22.093
REMARK INTER + INTRA:         -21.133
REMARK INTER:                 -13.505
REMARK INTRA:                  -7.628
REMARK UNBOUND:                -6.520
REMARK SMILES CC(=O)N[C@@H]1[C@@H](O)C[C@](OC[C@H]2O[C@@H](O[C@H]3[C@H](O)[C@@H](O)[C@H](OCCN=[N+]=[N-])O[C@@H]3CO)[C@H](O)[C@@H](O)[C@H]2O)(C(=O)O)O[C@H]1C(O)[C@H](O)CNC(=O)OCc1cn(-c2nc(C)nc(N)n2)nn1
REMARK SMILES IDX 9 1 8 2 6 3 5 4 42 5 41 6 10 7 11 8 12 9 14 10 13 11 32 12
REMARK SMILES IDX 34 13 36 14 15 15 16 16 29 17 28 18 21 19 17 20 19 21 30 22
REMARK SMILES IDX 31 23 22 25 23 26 24 27 25 28 26 29 27 30 18 31 20 33 33 35
REMARK SMILES IDX 35 37 37 39 38 41 39 42 40 43 7 45 43 47 44 48 45 50 46 51
REMARK SMILES IDX 47 53 48 54 49 55 50 57 51 58 52 59 53 60 54 61 65 62 55 63
REMARK SMILES IDX 64 64 56 65 63 66 57 67 61 68 58 69 60 70 59 71 62 72 4 75
REMARK SMILES IDX 2 76 1 78 3 79
REMARK H PARENT 31 24 18 32 20 34 33 36 35 38 37 40 40 44 7 46 44 49 46 52
REMARK H PARENT 48 56 62 73 62 74 4 77
REMARK Flexibility Score: inf
ROOT
ATOM      1  C   UNL     1       3.157  21.431  31.561  1.00  0.00     0.272 C 
ATOM      2  C   UNL     1       2.095  20.614  32.213  1.00  0.00     0.113 C 
ATOM      3  C   UNL     1       1.693  21.189  33.536  1.00  0.00     0.145 C 
ATOM      4  C   UNL     1       2.921  21.308  34.401  1.00  0.00     0.142 C 
ATOM      5  C   UNL     1       4.105  21.899  33.671  1.00  0.00     0.178 C 
ATOM      6  O   UNL     1       4.286  21.436  32.424  1.00  0.00    -0.332 OA
ENDROOT
BRANCH   1   7
ATOM      7  O   UNL     1       2.860  22.579  31.062  1.00  0.00    -0.338 OA
BRANCH   7   8
ATOM      8  C   UNL     1       2.010  23.210  30.348  1.00  0.00     0.199 C 
BRANCH   8   9
ATOM      9  C   UNL     1       2.255  24.132  29.203  1.00  0.00     0.179 C 
ATOM     10  C   UNL     1       3.023  26.087  28.475  1.00  0.00     0.282 C 
ATOM     11  O   UNL     1       3.084  25.151  29.543  1.00  0.00    -0.341 OA
ATOM     12  C   UNL     1       3.931  25.495  27.427  1.00  0.00     0.202 C 
ATOM     13  C   UNL     1       3.325  24.210  26.918  1.00  0.00     0.179 C 
ATOM     14  C   UNL     1       2.437  23.499  27.863  1.00  0.00     0.177 C 
BRANCH  10  15
ATOM     15  O   UNL     1       3.452  27.325  28.869  1.00  0.00    -0.341 OA
BRANCH  15  16
ATOM     16  C   UNL     1       3.515  27.489  30.242  1.00  0.00     0.184 C 
ATOM     17  C   UNL     1       2.796  28.681  30.775  1.00  0.00     0.178 C 
ATOM     18  O   UNL     1       3.596  29.502  31.559  1.00  0.00    -0.341 OA
ATOM     19  C   UNL     1       4.276  28.838  32.572  1.00  0.00     0.281 C 
ATOM     20  C   UNL     1       5.016  27.636  30.555  1.00  0.00     0.180 C 
ATOM     21  C   UNL     1       5.140  27.724  32.058  1.00  0.00     0.202 C 
BRANCH  17  22
ATOM     22  C   UNL     1       1.488  28.378  31.458  1.00  0.00     0.191 C 
BRANCH  22  23
ATOM     23  O   UNL     1       1.461  26.983  31.678  1.00  0.00    -0.394 OA
ATOM     24  H   UNL     1       2.039  26.493  31.054  1.00  0.00     0.210 HD
ENDBRANCH  22  23
ENDBRANCH  17  22
BRANCH  19  25
ATOM     25  O   UNL     1       3.458  28.353  33.553  1.00  0.00    -0.350 OA
BRANCH  25  26
ATOM     26  C   UNL     1       3.950  27.366  34.355  1.00  0.00     0.169 C 
BRANCH  26  27
ATOM     27  C   UNL     1       2.955  26.849  35.356  1.00  0.00     0.119 C 
BRANCH  27  28
ATOM     28  N   UNL     1       1.953  26.053  34.633  1.00  0.00    -0.092 NA
ATOM     29  N   UNL     1       1.187  25.377  35.316  1.00  0.00     0.001 N 
ATOM     30  N   UNL     1       0.610  24.323  35.662  1.00  0.00    -0.003 NA
ENDBRANCH  27  28
ENDBRANCH  26  27
ENDBRANCH  25  26
ENDBRANCH  19  25
BRANCH  20  31
ATOM     31  O   UNL     1       5.712  26.574  30.019  1.00  0.00    -0.387 OA
ATOM     32  H   UNL     1       6.382  26.881  29.348  1.00  0.00     0.211 HD
ENDBRANCH  20  31
BRANCH  21  33
ATOM     33  O   UNL     1       6.489  27.933  32.346  1.00  0.00    -0.385 OA
ATOM     34  H   UNL     1       6.692  28.897  32.436  1.00  0.00     0.211 HD
ENDBRANCH  21  33
ENDBRANCH  15  16
ENDBRANCH  10  15
BRANCH  12  35
ATOM     35  O   UNL     1       4.190  26.373  26.377  1.00  0.00    -0.385 OA
ATOM     36  H   UNL     1       3.996  27.290  26.696  1.00  0.00     0.211 HD
ENDBRANCH  12  35
BRANCH  13  37
ATOM     37  O   UNL     1       4.379  23.428  26.438  1.00  0.00    -0.387 OA
ATOM     38  H   UNL     1       5.055  23.226  27.132  1.00  0.00     0.211 HD
ENDBRANCH  13  37
BRANCH  14  39
ATOM     39  O   UNL     1       2.753  22.145  27.886  1.00  0.00    -0.387 OA
ATOM     40  H   UNL     1       2.802  21.861  26.924  1.00  0.00     0.211 HD
ENDBRANCH  14  39
ENDBRANCH   8   9
ENDBRANCH   7   8
ENDBRANCH   1   7
BRANCH   1  41
ATOM     41  C   UNL     1       3.691  20.467  30.463  1.00  0.00     0.364 C 
ATOM     42  O   UNL     1       2.851  19.794  29.879  1.00  0.00    -0.246 OA
BRANCH  41  43
ATOM     43  O   UNL     1       5.022  20.401  30.195  1.00  0.00    -0.477 OA
ATOM     44  H   UNL     1       5.497  21.006  29.511  1.00  0.00     0.296 HD
ENDBRANCH  41  43
ENDBRANCH   1  41
BRANCH   3  45
ATOM     45  O   UNL     1       1.129  22.442  33.464  1.00  0.00    -0.391 OA
ATOM     46  H   UNL     1       0.980  22.844  34.337  1.00  0.00     0.211 HD
ENDBRANCH   3  45
BRANCH   5  47
ATOM     47  C   UNL     1       4.212  23.398  33.814  1.00  0.00     0.176 C 
BRANCH  47  48
ATOM     48  O   UNL     1       4.179  23.768  35.147  1.00  0.00    -0.388 OA
ATOM     49  H   UNL     1       4.403  23.064  35.782  1.00  0.00     0.211 HD
ENDBRANCH  47  48
BRANCH  47  50
ATOM     50  C   UNL     1       5.467  23.868  33.150  1.00  0.00     0.165 C 
BRANCH  50  51
ATOM     51  O   UNL     1       5.176  24.184  31.810  1.00  0.00    -0.388 OA
ATOM     52  H   UNL     1       4.465  24.848  31.798  1.00  0.00     0.211 HD
ENDBRANCH  50  51
BRANCH  50  53
ATOM     53  C   UNL     1       6.598  22.896  33.158  1.00  0.00     0.154 C 
BRANCH  53  54
ATOM     54  N   UNL     1       7.825  23.479  33.654  1.00  0.00    -0.319 N 
ATOM     55  C   UNL     1       8.029  23.887  34.986  1.00  0.00     0.407 C 
ATOM     56  H   UNL     1       8.648  23.622  32.996  1.00  0.00     0.167 HD
ATOM     57  O   UNL     1       7.133  23.759  35.826  1.00  0.00    -0.225 OA
BRANCH  55  58
ATOM     58  O   UNL     1       9.231  24.447  35.409  1.00  0.00    -0.443 OA
BRANCH  58  59
ATOM     59  C   UNL     1       9.338  25.715  36.004  1.00  0.00     0.294 C 
BRANCH  59  60
ATOM     60  C   UNL     1       9.648  26.775  34.999  1.00  0.00     0.121 A 
ATOM     61  C   UNL     1      10.853  27.427  34.842  1.00  0.00     0.148 A 
ATOM     62  N   UNL     1       8.817  27.287  34.070  1.00  0.00    -0.131 NA
ATOM     63  N   UNL     1      10.721  28.307  33.835  1.00  0.00    -0.185 N 
ATOM     64  N   UNL     1       9.486  28.200  33.389  1.00  0.00    -0.059 NA
BRANCH  63  65
ATOM     65  C   UNL     1      11.762  29.162  33.384  1.00  0.00     0.257 A 
ATOM     66  N   UNL     1      11.843  29.473  32.076  1.00  0.00    -0.175 NA
ATOM     67  N   UNL     1      12.695  29.699  34.191  1.00  0.00    -0.196 NA
ATOM     68  C   UNL     1      12.815  30.287  31.590  1.00  0.00     0.225 A 
ATOM     69  C   UNL     1      13.666  30.505  33.748  1.00  0.00     0.133 A 
ATOM     70  N   UNL     1      13.722  30.795  32.452  1.00  0.00    -0.198 NA
ATOM     71  C   UNL     1      14.689  31.083  34.688  1.00  0.00     0.090 C 
BRANCH  68  72
ATOM     72  N   UNL     1      12.854  30.582  30.208  1.00  0.00    -0.368 N 
ATOM     73  H   UNL     1      12.073  31.078  29.736  1.00  0.00     0.159 HD
ATOM     74  H   UNL     1      13.672  30.305  29.632  1.00  0.00     0.159 HD
ENDBRANCH  68  72
ENDBRANCH  63  65
ENDBRANCH  59  60
ENDBRANCH  58  59
ENDBRANCH  55  58
ENDBRANCH  53  54
ENDBRANCH  50  53
ENDBRANCH  47  50
ENDBRANCH   5  47
BRANCH   4  75
ATOM     75  N   UNL     1       3.256  19.997  34.914  1.00  0.00    -0.348 N 
ATOM     76  C   UNL     1       3.320  19.755  36.316  1.00  0.00     0.217 C 
ATOM     77  H   UNL     1       3.462  19.181  34.284  1.00  0.00     0.163 HD
ATOM     78  C   UNL     1       3.662  18.419  36.819  1.00  0.00     0.114 C 
ATOM     79  O   UNL     1       3.084  20.688  37.113  1.00  0.00    -0.275 OA
ENDBRANCH   4  75
TORSDOF 31
