REMARK VINA RESULT:    -5.361      3.337      7.217
REMARK INTER + INTRA:         -21.848
REMARK INTER:                 -13.698
REMARK INTRA:                  -8.151
REMARK UNBOUND:                -8.339
REMARK SMILES CC(=O)N[C@@H]1[C@@H](O)C[C@](OC[C@H]2O[C@@H](O[C@H]3[C@H](O)[C@@H](O)[C@H](OCCN=[N+]=[N-])O[C@@H]3CO)[C@H](O)[C@@H](O)[C@H]2O)(C(=O)O)O[C@H]1C(O)[C@H](O)CNC(=O)OCc1cn(Cc2ccccc2)nn1
REMARK SMILES IDX 9 1 8 2 6 3 5 4 42 5 41 6 10 7 11 8 12 9 14 10 13 11 32 12
REMARK SMILES IDX 34 13 36 14 15 15 16 16 29 17 28 18 21 19 17 20 19 21 30 22
REMARK SMILES IDX 31 23 22 25 23 26 24 27 25 28 26 29 27 30 18 31 20 33 33 35
REMARK SMILES IDX 35 37 37 39 38 41 39 42 40 43 7 45 43 47 44 48 45 50 46 51
REMARK SMILES IDX 47 53 48 54 49 55 50 57 51 58 52 59 53 60 54 61 64 62 55 63
REMARK SMILES IDX 63 64 56 65 57 66 58 67 62 68 59 69 61 70 60 71 4 72 2 73
REMARK SMILES IDX 1 75 3 76
REMARK H PARENT 31 24 18 32 20 34 33 36 35 38 37 40 40 44 7 46 44 49 46 52
REMARK H PARENT 48 56 4 74
REMARK Flexibility Score: inf
ROOT
ATOM      1  C   UNL     1      19.528  30.348  20.399  1.00  0.00     0.272 C 
ATOM      2  C   UNL     1      20.405  31.127  21.308  1.00  0.00     0.113 C 
ATOM      3  C   UNL     1      20.325  32.564  20.961  1.00  0.00     0.145 C 
ATOM      4  C   UNL     1      19.479  32.862  19.712  1.00  0.00     0.142 C 
ATOM      5  C   UNL     1      19.738  31.884  18.647  1.00  0.00     0.178 C 
ATOM      6  O   UNL     1      19.995  30.574  19.091  1.00  0.00    -0.332 OA
ENDROOT
BRANCH   1   7
ATOM      7  O   UNL     1      18.174  30.591  20.500  1.00  0.00    -0.338 OA
BRANCH   7   8
ATOM      8  C   UNL     1      17.751  30.398  21.805  1.00  0.00     0.199 C 
BRANCH   8   9
ATOM      9  C   UNL     1      16.254  30.543  21.951  1.00  0.00     0.179 C 
ATOM     10  C   UNL     1      14.387  31.067  20.654  1.00  0.00     0.282 C 
ATOM     11  O   UNL     1      15.705  31.373  21.000  1.00  0.00    -0.341 OA
ATOM     12  C   UNL     1      13.561  30.649  21.813  1.00  0.00     0.202 C 
ATOM     13  C   UNL     1      14.106  29.396  22.421  1.00  0.00     0.179 C 
ATOM     14  C   UNL     1      15.557  29.211  22.041  1.00  0.00     0.177 C 
BRANCH  10  15
ATOM     15  O   UNL     1      14.340  30.118  19.646  1.00  0.00    -0.341 OA
BRANCH  15  16
ATOM     16  C   UNL     1      14.705  30.608  18.398  1.00  0.00     0.184 C 
ATOM     17  C   UNL     1      13.505  30.838  17.557  1.00  0.00     0.178 C 
ATOM     18  O   UNL     1      13.956  31.286  16.297  1.00  0.00    -0.341 OA
ATOM     19  C   UNL     1      14.407  30.124  15.637  1.00  0.00     0.281 C 
ATOM     20  C   UNL     1      15.523  29.475  17.758  1.00  0.00     0.180 C 
ATOM     21  C   UNL     1      15.699  29.651  16.286  1.00  0.00     0.202 C 
BRANCH  17  22
ATOM     22  C   UNL     1      12.566  31.880  18.154  1.00  0.00     0.191 C 
BRANCH  22  23
ATOM     23  O   UNL     1      11.479  32.006  17.261  1.00  0.00    -0.394 OA
ATOM     24  H   UNL     1      10.773  31.375  17.537  1.00  0.00     0.210 HD
ENDBRANCH  22  23
ENDBRANCH  17  22
BRANCH  19  25
ATOM     25  O   UNL     1      14.622  30.414  14.313  1.00  0.00    -0.350 OA
BRANCH  25  26
ATOM     26  C   UNL     1      13.584  29.919  13.547  1.00  0.00     0.169 C 
BRANCH  26  27
ATOM     27  C   UNL     1      12.976  28.646  14.052  1.00  0.00     0.119 C 
BRANCH  27  28
ATOM     28  N   UNL     1      11.518  28.820  13.961  1.00  0.00    -0.092 NA
ATOM     29  N   UNL     1      10.991  29.529  14.818  1.00  0.00     0.001 N 
ATOM     30  N   UNL     1      10.203  30.286  15.401  1.00  0.00    -0.003 NA
ENDBRANCH  27  28
ENDBRANCH  26  27
ENDBRANCH  25  26
ENDBRANCH  19  25
BRANCH  20  31
ATOM     31  O   UNL     1      16.789  29.560  18.374  1.00  0.00    -0.387 OA
ATOM     32  H   UNL     1      16.718  29.763  19.345  1.00  0.00     0.211 HD
ENDBRANCH  20  31
BRANCH  21  33
ATOM     33  O   UNL     1      16.030  28.425  15.710  1.00  0.00    -0.385 OA
ATOM     34  H   UNL     1      15.989  28.445  14.717  1.00  0.00     0.211 HD
ENDBRANCH  21  33
ENDBRANCH  15  16
ENDBRANCH  10  15
BRANCH  12  35
ATOM     35  O   UNL     1      13.424  31.672  22.768  1.00  0.00    -0.385 OA
ATOM     36  H   UNL     1      13.811  31.314  23.607  1.00  0.00     0.211 HD
ENDBRANCH  12  35
BRANCH  13  37
ATOM     37  O   UNL     1      13.348  28.317  21.983  1.00  0.00    -0.387 OA
ATOM     38  H   UNL     1      13.709  27.913  21.148  1.00  0.00     0.211 HD
ENDBRANCH  13  37
BRANCH  14  39
ATOM     39  O   UNL     1      15.753  28.377  20.975  1.00  0.00    -0.387 OA
ATOM     40  H   UNL     1      16.214  27.531  21.146  1.00  0.00     0.211 HD
ENDBRANCH  14  39
ENDBRANCH   8   9
ENDBRANCH   7   8
ENDBRANCH   1   7
BRANCH   1  41
ATOM     41  C   UNL     1      19.724  28.865  20.555  1.00  0.00     0.364 C 
ATOM     42  O   UNL     1      20.428  28.439  21.470  1.00  0.00    -0.246 OA
BRANCH  41  43
ATOM     43  O   UNL     1      19.114  27.997  19.677  1.00  0.00    -0.477 OA
ATOM     44  H   UNL     1      19.593  27.620  18.857  1.00  0.00     0.296 HD
ENDBRANCH  41  43
ENDBRANCH   1  41
BRANCH   3  45
ATOM     45  O   UNL     1      19.787  33.374  21.979  1.00  0.00    -0.391 OA
ATOM     46  H   UNL     1      18.943  33.784  21.737  1.00  0.00     0.211 HD
ENDBRANCH   3  45
BRANCH   5  47
ATOM     47  C   UNL     1      18.788  31.742  17.532  1.00  0.00     0.176 C 
BRANCH  47  48
ATOM     48  O   UNL     1      17.631  32.482  17.637  1.00  0.00    -0.388 OA
ATOM     49  H   UNL     1      17.022  32.414  16.869  1.00  0.00     0.211 HD
ENDBRANCH  47  48
BRANCH  47  50
ATOM     50  C   UNL     1      19.316  31.840  16.130  1.00  0.00     0.165 C 
BRANCH  50  51
ATOM     51  O   UNL     1      18.806  32.878  15.413  1.00  0.00    -0.388 OA
ATOM     52  H   UNL     1      18.861  32.772  14.443  1.00  0.00     0.211 HD
ENDBRANCH  50  51
BRANCH  50  53
ATOM     53  C   UNL     1      19.412  30.505  15.452  1.00  0.00     0.154 C 
BRANCH  53  54
ATOM     54  N   UNL     1      20.343  29.591  16.060  1.00  0.00    -0.319 N 
ATOM     55  C   UNL     1      19.979  28.369  16.713  1.00  0.00     0.407 C 
ATOM     56  H   UNL     1      21.392  29.771  16.060  1.00  0.00     0.167 HD
ATOM     57  O   UNL     1      18.772  28.045  16.784  1.00  0.00    -0.225 OA
BRANCH  55  58
ATOM     58  O   UNL     1      20.931  27.537  17.273  1.00  0.00    -0.443 OA
BRANCH  58  59
ATOM     59  C   UNL     1      22.190  28.061  17.618  1.00  0.00     0.294 C 
BRANCH  59  60
ATOM     60  C   UNL     1      22.716  27.430  18.848  1.00  0.00     0.120 A 
ATOM     61  C   UNL     1      22.644  26.055  19.113  1.00  0.00     0.138 A 
ATOM     62  N   UNL     1      23.335  27.954  19.911  1.00  0.00    -0.132 NA
ATOM     63  N   UNL     1      23.215  25.822  20.305  1.00  0.00    -0.248 N 
ATOM     64  N   UNL     1      23.623  26.966  20.771  1.00  0.00    -0.067 NA
BRANCH  63  65
ATOM     65  C   UNL     1      23.344  24.524  20.929  1.00  0.00     0.181 C 
BRANCH  65  66
ATOM     66  C   UNL     1      22.763  24.574  22.293  1.00  0.00    -0.026 A 
ATOM     67  C   UNL     1      21.396  24.618  22.506  1.00  0.00     0.005 A 
ATOM     68  C   UNL     1      23.620  24.574  23.382  1.00  0.00     0.005 A 
ATOM     69  C   UNL     1      20.902  24.664  23.798  1.00  0.00     0.000 A 
ATOM     70  C   UNL     1      23.115  24.620  24.668  1.00  0.00     0.000 A 
ATOM     71  C   UNL     1      21.760  24.664  24.870  1.00  0.00     0.000 A 
ENDBRANCH  65  66
ENDBRANCH  63  65
ENDBRANCH  59  60
ENDBRANCH  58  59
ENDBRANCH  55  58
ENDBRANCH  53  54
ENDBRANCH  50  53
ENDBRANCH  47  50
ENDBRANCH   5  47
BRANCH   4  72
ATOM     72  N   UNL     1      20.011  34.185  19.328  1.00  0.00    -0.348 N 
ATOM     73  C   UNL     1      19.187  35.270  18.951  1.00  0.00     0.217 C 
ATOM     74  H   UNL     1      21.043  34.334  19.329  1.00  0.00     0.163 HD
ATOM     75  C   UNL     1      19.754  36.596  18.561  1.00  0.00     0.114 C 
ATOM     76  O   UNL     1      17.943  35.103  18.948  1.00  0.00    -0.275 OA
ENDBRANCH   4  72
TORSDOF 31
