REMARK VINA RESULT:    -5.908      1.479      2.389
REMARK INTER + INTRA:         -21.482
REMARK INTER:                 -16.267
REMARK INTRA:                  -5.216
REMARK UNBOUND:                -6.939
REMARK SMILES CC(=O)N[C@@H]1[C@@H](O)C[C@](OC[C@H]2O[C@@H](O[C@H]3[C@H](O)[C@@H](O)[C@H](OCCN=[N+]=[N-])O[C@@H]3CO)[C@H](O)[C@@H](O)[C@H]2O)(C(=O)O)O[C@H]1C(O)[C@H](O)CNC(=O)OCc1cn([C@H]2C[C@H]3CC[C@@H](C2)N3C)nn1
REMARK SMILES IDX 9 1 8 2 6 3 5 4 42 5 41 6 10 7 11 8 12 9 14 10 13 11 32 12
REMARK SMILES IDX 34 13 36 14 15 15 16 16 29 17 28 18 21 19 17 20 19 21 30 22
REMARK SMILES IDX 31 23 22 25 23 26 24 27 25 28 26 29 27 30 18 31 20 33 33 35
REMARK SMILES IDX 35 37 37 39 38 41 39 42 40 43 7 45 43 47 44 48 45 50 46 51
REMARK SMILES IDX 47 53 48 54 49 55 50 57 51 58 52 59 53 60 54 61 66 62 55 63
REMARK SMILES IDX 65 64 56 65 62 66 57 67 61 68 58 69 63 70 60 71 59 72 64 73
REMARK SMILES IDX 4 74 2 75 1 77 3 78
REMARK H PARENT 31 24 18 32 20 34 33 36 35 38 37 40 40 44 7 46 44 49 46 52
REMARK H PARENT 48 56 4 76
REMARK Flexibility Score: inf
ROOT
ATOM      1  C   UNL     1      16.287  29.433  19.002  1.00  0.00     0.272 C 
ATOM      2  C   UNL     1      15.341  29.444  17.814  1.00  0.00     0.113 C 
ATOM      3  C   UNL     1      14.690  30.765  17.541  1.00  0.00     0.145 C 
ATOM      4  C   UNL     1      14.508  31.476  18.830  1.00  0.00     0.142 C 
ATOM      5  C   UNL     1      14.374  30.413  19.924  1.00  0.00     0.178 C 
ATOM      6  O   UNL     1      15.765  30.032  20.115  1.00  0.00    -0.332 OA
ENDROOT
BRANCH   1   7
ATOM      7  O   UNL     1      17.483  29.941  18.594  1.00  0.00    -0.338 OA
BRANCH   7   8
ATOM      8  C   UNL     1      18.547  29.921  19.420  1.00  0.00     0.199 C 
BRANCH   8   9
ATOM      9  C   UNL     1      19.784  29.224  18.993  1.00  0.00     0.179 C 
ATOM     10  C   UNL     1      21.179  27.630  19.775  1.00  0.00     0.282 C 
ATOM     11  O   UNL     1      19.822  27.942  19.631  1.00  0.00    -0.341 OA
ATOM     12  C   UNL     1      21.944  27.686  18.521  1.00  0.00     0.202 C 
ATOM     13  C   UNL     1      21.330  28.347  17.346  1.00  0.00     0.179 C 
ATOM     14  C   UNL     1      19.930  28.884  17.546  1.00  0.00     0.177 C 
BRANCH  10  15
ATOM     15  O   UNL     1      21.226  26.406  20.399  1.00  0.00    -0.341 OA
BRANCH  15  16
ATOM     16  C   UNL     1      21.465  26.513  21.772  1.00  0.00     0.184 C 
ATOM     17  C   UNL     1      22.869  26.864  22.137  1.00  0.00     0.178 C 
ATOM     18  O   UNL     1      23.796  25.873  22.071  1.00  0.00    -0.341 OA
ATOM     19  C   UNL     1      23.409  24.680  22.575  1.00  0.00     0.281 C 
ATOM     20  C   UNL     1      21.065  25.172  22.346  1.00  0.00     0.180 C 
ATOM     21  C   UNL     1      22.142  24.198  21.871  1.00  0.00     0.202 C 
BRANCH  17  22
ATOM     22  C   UNL     1      22.918  27.689  23.429  1.00  0.00     0.191 C 
BRANCH  22  23
ATOM     23  O   UNL     1      21.695  28.190  23.811  1.00  0.00    -0.394 OA
ATOM     24  H   UNL     1      20.954  27.574  23.630  1.00  0.00     0.210 HD
ENDBRANCH  22  23
ENDBRANCH  17  22
BRANCH  19  25
ATOM     25  O   UNL     1      23.334  24.549  23.929  1.00  0.00    -0.350 OA
BRANCH  25  26
ATOM     26  C   UNL     1      24.493  24.525  24.641  1.00  0.00     0.169 C 
BRANCH  26  27
ATOM     27  C   UNL     1      24.268  24.662  26.108  1.00  0.00     0.119 C 
BRANCH  27  28
ATOM     28  N   UNL     1      23.839  26.022  26.466  1.00  0.00    -0.092 NA
ATOM     29  N   UNL     1      22.736  26.202  27.010  1.00  0.00     0.001 N 
ATOM     30  N   UNL     1      21.924  26.172  27.956  1.00  0.00    -0.003 NA
ENDBRANCH  27  28
ENDBRANCH  26  27
ENDBRANCH  25  26
ENDBRANCH  19  25
BRANCH  20  31
ATOM     31  O   UNL     1      21.010  25.150  23.719  1.00  0.00    -0.387 OA
ATOM     32  H   UNL     1      21.150  24.268  24.099  1.00  0.00     0.211 HD
ENDBRANCH  20  31
BRANCH  21  33
ATOM     33  O   UNL     1      22.310  24.273  20.490  1.00  0.00    -0.385 OA
ATOM     34  H   UNL     1      21.470  23.935  20.081  1.00  0.00     0.211 HD
ENDBRANCH  21  33
ENDBRANCH  15  16
ENDBRANCH  10  15
BRANCH  12  35
ATOM     35  O   UNL     1      23.161  28.358  18.802  1.00  0.00    -0.385 OA
ATOM     36  H   UNL     1      23.354  28.393  19.763  1.00  0.00     0.211 HD
ENDBRANCH  12  35
BRANCH  13  37
ATOM     37  O   UNL     1      21.258  27.464  16.239  1.00  0.00    -0.387 OA
ATOM     38  H   UNL     1      21.866  26.684  16.449  1.00  0.00     0.211 HD
ENDBRANCH  13  37
BRANCH  14  39
ATOM     39  O   UNL     1      19.062  27.813  17.226  1.00  0.00    -0.387 OA
ATOM     40  H   UNL     1      18.288  27.949  17.857  1.00  0.00     0.211 HD
ENDBRANCH  14  39
ENDBRANCH   8   9
ENDBRANCH   7   8
ENDBRANCH   1   7
BRANCH   1  41
ATOM     41  C   UNL     1      16.433  27.979  19.328  1.00  0.00     0.364 C 
ATOM     42  O   UNL     1      16.312  27.554  20.473  1.00  0.00    -0.246 OA
BRANCH  41  43
ATOM     43  O   UNL     1      16.715  27.050  18.317  1.00  0.00    -0.477 OA
ATOM     44  H   UNL     1      16.535  26.061  18.536  1.00  0.00     0.296 HD
ENDBRANCH  41  43
ENDBRANCH   1  41
BRANCH   3  45
ATOM     45  O   UNL     1      15.553  31.459  16.660  1.00  0.00    -0.391 OA
ATOM     46  H   UNL     1      15.053  32.164  16.177  1.00  0.00     0.211 HD
ENDBRANCH   3  45
BRANCH   5  47
ATOM     47  C   UNL     1      13.898  30.922  21.226  1.00  0.00     0.176 C 
BRANCH  47  48
ATOM     48  O   UNL     1      14.848  31.959  21.622  1.00  0.00    -0.388 OA
ATOM     49  H   UNL     1      14.659  32.181  22.569  1.00  0.00     0.211 HD
ENDBRANCH  47  48
BRANCH  47  50
ATOM     50  C   UNL     1      14.084  29.986  22.412  1.00  0.00     0.165 C 
BRANCH  50  51
ATOM     51  O   UNL     1      12.965  29.119  22.389  1.00  0.00    -0.388 OA
ATOM     52  H   UNL     1      12.117  29.628  22.406  1.00  0.00     0.211 HD
ENDBRANCH  50  51
BRANCH  50  53
ATOM     53  C   UNL     1      14.232  30.593  23.748  1.00  0.00     0.154 C 
BRANCH  53  54
ATOM     54  N   UNL     1      12.868  30.772  24.285  1.00  0.00    -0.319 N 
ATOM     55  C   UNL     1      12.223  32.034  24.256  1.00  0.00     0.407 C 
ATOM     56  H   UNL     1      12.386  29.950  24.691  1.00  0.00     0.167 HD
ATOM     57  O   UNL     1      12.836  33.022  23.740  1.00  0.00    -0.225 OA
BRANCH  55  58
ATOM     58  O   UNL     1      10.948  32.186  24.776  1.00  0.00    -0.443 OA
BRANCH  58  59
ATOM     59  C   UNL     1       9.853  31.749  24.003  1.00  0.00     0.294 C 
BRANCH  59  60
ATOM     60  C   UNL     1       9.472  30.345  24.261  1.00  0.00     0.120 A 
ATOM     61  C   UNL     1       8.178  29.904  24.445  1.00  0.00     0.138 A 
ATOM     62  N   UNL     1      10.241  29.259  24.387  1.00  0.00    -0.132 NA
ATOM     63  N   UNL     1       8.185  28.586  24.676  1.00  0.00    -0.249 N 
ATOM     64  N   UNL     1       9.462  28.202  24.637  1.00  0.00    -0.067 NA
BRANCH  63  65
ATOM     65  C   UNL     1       6.993  27.788  24.925  1.00  0.00     0.112 C 
ATOM     66  C   UNL     1       5.829  28.565  24.413  1.00  0.00     0.046 C 
ATOM     67  C   UNL     1       6.958  27.438  26.377  1.00  0.00     0.046 C 
ATOM     68  C   UNL     1       4.633  28.574  25.311  1.00  0.00     0.058 C 
ATOM     69  C   UNL     1       5.608  27.504  27.021  1.00  0.00     0.058 C 
ATOM     70  N   UNL     1       4.519  27.372  26.076  1.00  0.00    -0.300 NA
ATOM     71  C   UNL     1       4.841  29.638  26.386  1.00  0.00     0.021 C 
ATOM     72  C   UNL     1       5.409  28.900  27.574  1.00  0.00     0.021 C 
ATOM     73  C   UNL     1       4.586  26.152  25.309  1.00  0.00     0.105 C 
ENDBRANCH  63  65
ENDBRANCH  59  60
ENDBRANCH  58  59
ENDBRANCH  55  58
ENDBRANCH  53  54
ENDBRANCH  50  53
ENDBRANCH  47  50
ENDBRANCH   5  47
BRANCH   4  74
ATOM     74  N   UNL     1      13.640  32.576  18.842  1.00  0.00    -0.348 N 
ATOM     75  C   UNL     1      14.080  33.909  19.146  1.00  0.00     0.217 C 
ATOM     76  H   UNL     1      12.631  32.476  18.592  1.00  0.00     0.163 HD
ATOM     77  C   UNL     1      13.077  35.025  19.119  1.00  0.00     0.114 C 
ATOM     78  O   UNL     1      15.260  34.152  19.426  1.00  0.00    -0.275 OA
ENDBRANCH   4  74
TORSDOF 30
