REMARK VINA RESULT:    -5.317     13.884     19.670
REMARK INTER + INTRA:         -22.272
REMARK INTER:                 -15.803
REMARK INTRA:                  -6.469
REMARK UNBOUND:                -8.562
REMARK SMILES CC(=O)N[C@@H]1[C@@H](O)C[C@](OC[C@H]2O[C@@H](O[C@H]3[C@H](O)[C@@H](O)[C@H](OCCN=[N+]=[N-])O[C@@H]3CO)[C@H](O)[C@@H](O)[C@H]2O)(C(=O)O)O[C@H]1C(O)[C@H](O)CNC(=O)OCc1cn(Cc2ccc(C#N)cc2)nn1
REMARK SMILES IDX 9 1 8 2 6 3 5 4 42 5 41 6 10 7 11 8 12 9 14 10 13 11 32 12
REMARK SMILES IDX 34 13 36 14 15 15 16 16 29 17 28 18 21 19 17 20 19 21 30 22
REMARK SMILES IDX 31 23 22 25 23 26 24 27 25 28 26 29 27 30 18 31 20 33 33 35
REMARK SMILES IDX 35 37 37 39 38 41 39 42 40 43 7 45 43 47 44 48 45 50 46 51
REMARK SMILES IDX 47 53 48 54 49 55 50 57 51 58 52 59 53 60 54 61 66 62 55 63
REMARK SMILES IDX 65 64 56 65 57 66 58 67 64 68 59 69 63 70 60 71 61 72 62 73
REMARK SMILES IDX 4 74 2 75 1 77 3 78
REMARK H PARENT 31 24 18 32 20 34 33 36 35 38 37 40 40 44 7 46 44 49 46 52
REMARK H PARENT 48 56 4 76
REMARK Flexibility Score: inf
ROOT
ATOM      1  C   UNL     1      10.806  24.763  36.202  1.00  0.00     0.272 C 
ATOM      2  C   UNL     1      11.918  23.842  36.563  1.00  0.00     0.113 C 
ATOM      3  C   UNL     1      12.967  24.423  37.444  1.00  0.00     0.145 C 
ATOM      4  C   UNL     1      13.055  25.928  37.141  1.00  0.00     0.142 C 
ATOM      5  C   UNL     1      12.613  26.094  35.718  1.00  0.00     0.178 C 
ATOM      6  O   UNL     1      11.256  25.963  35.629  1.00  0.00    -0.332 OA
ENDROOT
BRANCH   1   7
ATOM      7  O   UNL     1       9.890  25.027  37.198  1.00  0.00    -0.338 OA
BRANCH   7   8
ATOM      8  C   UNL     1       9.172  26.163  37.034  1.00  0.00     0.199 C 
BRANCH   8   9
ATOM      9  C   UNL     1       7.673  25.946  37.305  1.00  0.00     0.179 C 
ATOM     10  C   UNL     1       5.967  24.521  36.686  1.00  0.00     0.282 C 
ATOM     11  O   UNL     1       7.262  24.958  36.410  1.00  0.00    -0.341 OA
ATOM     12  C   UNL     1       5.832  23.897  38.037  1.00  0.00     0.202 C 
ATOM     13  C   UNL     1       7.154  23.983  38.763  1.00  0.00     0.179 C 
ATOM     14  C   UNL     1       7.552  25.451  38.723  1.00  0.00     0.177 C 
BRANCH  10  15
ATOM     15  O   UNL     1       5.654  23.558  35.730  1.00  0.00    -0.341 OA
BRANCH  15  16
ATOM     16  C   UNL     1       5.919  23.971  34.426  1.00  0.00     0.184 C 
ATOM     17  C   UNL     1       4.722  24.653  33.865  1.00  0.00     0.178 C 
ATOM     18  O   UNL     1       3.893  23.890  33.094  1.00  0.00    -0.341 OA
ATOM     19  C   UNL     1       4.126  22.539  33.091  1.00  0.00     0.281 C 
ATOM     20  C   UNL     1       6.492  22.879  33.580  1.00  0.00     0.180 C 
ATOM     21  C   UNL     1       5.529  22.287  32.585  1.00  0.00     0.202 C 
BRANCH  17  22
ATOM     22  C   UNL     1       5.162  25.929  33.151  1.00  0.00     0.191 C 
BRANCH  22  23
ATOM     23  O   UNL     1       6.471  26.205  33.547  1.00  0.00    -0.394 OA
ATOM     24  H   UNL     1       6.486  26.719  34.411  1.00  0.00     0.210 HD
ENDBRANCH  22  23
ENDBRANCH  17  22
BRANCH  19  25
ATOM     25  O   UNL     1       3.231  21.987  32.152  1.00  0.00    -0.350 OA
BRANCH  25  26
ATOM     26  C   UNL     1       2.203  21.307  32.792  1.00  0.00     0.169 C 
BRANCH  26  27
ATOM     27  C   UNL     1       2.215  19.837  32.422  1.00  0.00     0.119 C 
BRANCH  27  28
ATOM     28  N   UNL     1       2.261  18.978  33.589  1.00  0.00    -0.092 NA
ATOM     29  N   UNL     1       3.247  18.971  34.308  1.00  0.00     0.001 N 
ATOM     30  N   UNL     1       3.924  19.120  35.337  1.00  0.00    -0.003 NA
ENDBRANCH  27  28
ENDBRANCH  26  27
ENDBRANCH  25  26
ENDBRANCH  19  25
BRANCH  20  31
ATOM     31  O   UNL     1       7.691  23.244  32.956  1.00  0.00    -0.387 OA
ATOM     32  H   UNL     1       7.541  23.368  31.973  1.00  0.00     0.211 HD
ENDBRANCH  20  31
BRANCH  21  33
ATOM     33  O   UNL     1       5.751  20.922  32.394  1.00  0.00    -0.385 OA
ATOM     34  H   UNL     1       6.507  20.672  32.987  1.00  0.00     0.211 HD
ENDBRANCH  21  33
ENDBRANCH  15  16
ENDBRANCH  10  15
BRANCH  12  35
ATOM     35  O   UNL     1       4.859  24.456  38.835  1.00  0.00    -0.385 OA
ATOM     36  H   UNL     1       5.250  24.703  39.720  1.00  0.00     0.211 HD
ENDBRANCH  12  35
BRANCH  13  37
ATOM     37  O   UNL     1       8.063  23.170  38.105  1.00  0.00    -0.387 OA
ATOM     38  H   UNL     1       7.832  22.962  37.173  1.00  0.00     0.211 HD
ENDBRANCH  13  37
BRANCH  14  39
ATOM     39  O   UNL     1       8.654  25.739  39.492  1.00  0.00    -0.387 OA
ATOM     40  H   UNL     1       9.378  26.080  38.925  1.00  0.00     0.211 HD
ENDBRANCH  14  39
ENDBRANCH   8   9
ENDBRANCH   7   8
ENDBRANCH   1   7
BRANCH   1  41
ATOM     41  C   UNL     1      10.068  24.108  35.070  1.00  0.00     0.364 C 
ATOM     42  O   UNL     1      10.098  24.605  33.940  1.00  0.00    -0.246 OA
BRANCH  41  43
ATOM     43  O   UNL     1       9.368  22.953  35.321  1.00  0.00    -0.477 OA
ATOM     44  H   UNL     1       9.367  22.147  34.709  1.00  0.00     0.296 HD
ENDBRANCH  41  43
ENDBRANCH   1  41
BRANCH   3  45
ATOM     45  O   UNL     1      12.861  24.156  38.779  1.00  0.00    -0.391 OA
ATOM     46  H   UNL     1      12.367  23.326  38.940  1.00  0.00     0.211 HD
ENDBRANCH   3  45
BRANCH   5  47
ATOM     47  C   UNL     1      13.090  27.409  35.089  1.00  0.00     0.176 C 
BRANCH  47  48
ATOM     48  O   UNL     1      14.351  27.097  34.529  1.00  0.00    -0.388 OA
ATOM     49  H   UNL     1      14.579  26.170  34.792  1.00  0.00     0.211 HD
ENDBRANCH  47  48
BRANCH  47  50
ATOM     50  C   UNL     1      12.193  27.866  34.027  1.00  0.00     0.165 C 
BRANCH  50  51
ATOM     51  O   UNL     1      11.927  26.818  33.094  1.00  0.00    -0.388 OA
ATOM     52  H   UNL     1      11.501  26.101  33.661  1.00  0.00     0.211 HD
ENDBRANCH  50  51
BRANCH  50  53
ATOM     53  C   UNL     1      12.568  29.091  33.291  1.00  0.00     0.154 C 
BRANCH  53  54
ATOM     54  N   UNL     1      13.411  29.076  32.178  1.00  0.00    -0.319 N 
ATOM     55  C   UNL     1      14.801  29.281  32.089  1.00  0.00     0.407 C 
ATOM     56  H   UNL     1      12.949  28.878  31.224  1.00  0.00     0.167 HD
ATOM     57  O   UNL     1      15.523  29.498  33.073  1.00  0.00    -0.225 OA
BRANCH  55  58
ATOM     58  O   UNL     1      15.457  29.246  30.849  1.00  0.00    -0.443 OA
BRANCH  58  59
ATOM     59  C   UNL     1      16.494  30.171  30.569  1.00  0.00     0.294 C 
BRANCH  59  60
ATOM     60  C   UNL     1      16.275  30.713  29.181  1.00  0.00     0.120 A 
ATOM     61  C   UNL     1      15.096  31.288  28.754  1.00  0.00     0.138 A 
ATOM     62  N   UNL     1      17.113  30.742  28.130  1.00  0.00    -0.132 NA
ATOM     63  N   UNL     1      15.256  31.648  27.454  1.00  0.00    -0.248 N 
ATOM     64  N   UNL     1      16.460  31.305  27.137  1.00  0.00    -0.067 NA
BRANCH  63  65
ATOM     65  C   UNL     1      14.193  32.271  26.681  1.00  0.00     0.181 C 
BRANCH  65  66
ATOM     66  C   UNL     1      14.138  31.479  25.398  1.00  0.00    -0.026 A 
ATOM     67  C   UNL     1      13.382  30.333  25.373  1.00  0.00     0.007 A 
ATOM     68  C   UNL     1      14.846  31.917  24.276  1.00  0.00     0.007 A 
ATOM     69  C   UNL     1      13.276  29.545  24.249  1.00  0.00     0.020 A 
ATOM     70  C   UNL     1      14.740  31.132  23.156  1.00  0.00     0.020 A 
ATOM     71  C   UNL     1      13.993  29.999  23.137  1.00  0.00     0.052 A 
BRANCH  71  72
ATOM     72  C   UNL     1      13.914  29.171  21.939  1.00  0.00     0.099 C 
ATOM     73  N   UNL     1      13.836  28.499  20.992  1.00  0.00    -0.192 NA
ENDBRANCH  71  72
ENDBRANCH  65  66
ENDBRANCH  63  65
ENDBRANCH  59  60
ENDBRANCH  58  59
ENDBRANCH  55  58
ENDBRANCH  53  54
ENDBRANCH  50  53
ENDBRANCH  47  50
ENDBRANCH   5  47
BRANCH   4  74
ATOM     74  N   UNL     1      14.383  26.412  37.421  1.00  0.00    -0.348 N 
ATOM     75  C   UNL     1      14.576  27.263  38.540  1.00  0.00     0.217 C 
ATOM     76  H   UNL     1      15.200  26.163  36.843  1.00  0.00     0.163 HD
ATOM     77  C   UNL     1      15.904  27.797  38.891  1.00  0.00     0.114 C 
ATOM     78  O   UNL     1      13.595  27.597  39.287  1.00  0.00    -0.275 OA
ENDBRANCH   4  74
TORSDOF 32
