REMARK VINA RESULT:    -6.652      7.627     13.810
REMARK INTER + INTRA:         -22.238
REMARK INTER:                 -15.152
REMARK INTRA:                  -7.086
REMARK UNBOUND:                -5.087
REMARK SMILES CC(=O)N[C@@H]1[C@@H](O)C[C@](OC[C@H]2O[C@@H](O[C@H]3[C@H](O)[C@@H](O)[C@H](OCCN=[N+]=[N-])O[C@@H]3CO)[C@H](O)[C@@H](O)[C@H]2O)(C(=O)O)O[C@H]1C(O)[C@H](O)CNC(=O)OCc1cn(CS(=O)(=O)c2ccccc2)nn1
REMARK SMILES IDX 9 1 8 2 6 3 5 4 42 5 41 6 10 7 11 8 12 9 14 10 13 11 32 12
REMARK SMILES IDX 34 13 36 14 15 15 16 16 29 17 28 18 21 19 17 20 19 21 30 22
REMARK SMILES IDX 31 23 22 25 23 26 24 27 25 28 26 29 27 30 18 31 20 33 33 35
REMARK SMILES IDX 35 37 37 39 38 41 39 42 40 43 7 45 43 47 44 48 45 50 46 51
REMARK SMILES IDX 47 53 48 54 49 55 50 57 51 58 52 59 53 60 54 61 67 62 55 63
REMARK SMILES IDX 66 64 56 65 57 66 58 67 59 68 60 69 61 70 65 71 62 72 64 73
REMARK SMILES IDX 63 74 4 75 2 76 1 78 3 79
REMARK H PARENT 31 24 18 32 20 34 33 36 35 38 37 40 40 44 7 46 44 49 46 52
REMARK H PARENT 48 56 4 77
REMARK Flexibility Score: inf
ROOT
ATOM      1  C   UNL     1      24.950  24.606  13.238  1.00  0.00     0.272 C 
ATOM      2  C   UNL     1      25.662  25.897  13.223  1.00  0.00     0.113 C 
ATOM      3  C   UNL     1      27.131  25.824  13.587  1.00  0.00     0.145 C 
ATOM      4  C   UNL     1      27.220  25.053  14.857  1.00  0.00     0.142 C 
ATOM      5  C   UNL     1      26.465  23.753  14.820  1.00  0.00     0.178 C 
ATOM      6  O   UNL     1      25.218  23.772  14.311  1.00  0.00    -0.332 OA
ENDROOT
BRANCH   1   7
ATOM      7  O   UNL     1      24.979  23.944  12.029  1.00  0.00    -0.338 OA
BRANCH   7   8
ATOM      8  C   UNL     1      24.712  24.668  10.914  1.00  0.00     0.199 C 
BRANCH   8   9
ATOM      9  C   UNL     1      24.085  23.778   9.820  1.00  0.00     0.179 C 
ATOM     10  C   UNL     1      21.991  22.813  10.352  1.00  0.00     0.282 C 
ATOM     11  O   UNL     1      23.354  22.839  10.435  1.00  0.00    -0.341 OA
ATOM     12  C   UNL     1      21.415  24.170  10.206  1.00  0.00     0.202 C 
ATOM     13  C   UNL     1      22.046  24.934   9.082  1.00  0.00     0.179 C 
ATOM     14  C   UNL     1      23.419  24.522   8.737  1.00  0.00     0.177 C 
BRANCH  10  15
ATOM     15  O   UNL     1      21.570  22.169  11.527  1.00  0.00    -0.341 OA
BRANCH  15  16
ATOM     16  C   UNL     1      21.971  20.887  11.692  1.00  0.00     0.184 C 
ATOM     17  C   UNL     1      20.845  19.967  12.062  1.00  0.00     0.178 C 
ATOM     18  O   UNL     1      21.262  18.670  11.777  1.00  0.00    -0.341 OA
ATOM     19  C   UNL     1      22.511  18.347  12.231  1.00  0.00     0.281 C 
ATOM     20  C   UNL     1      22.944  20.752  12.890  1.00  0.00     0.180 C 
ATOM     21  C   UNL     1      23.137  19.312  13.161  1.00  0.00     0.202 C 
BRANCH  17  22
ATOM     22  C   UNL     1      19.547  20.215  11.377  1.00  0.00     0.191 C 
BRANCH  22  23
ATOM     23  O   UNL     1      19.745  20.216  10.002  1.00  0.00    -0.394 OA
ATOM     24  H   UNL     1      20.520  19.653   9.773  1.00  0.00     0.210 HD
ENDBRANCH  22  23
ENDBRANCH  17  22
BRANCH  19  25
ATOM     25  O   UNL     1      23.321  18.209  11.107  1.00  0.00    -0.350 OA
BRANCH  25  26
ATOM     26  C   UNL     1      24.613  17.751  11.456  1.00  0.00     0.169 C 
BRANCH  26  27
ATOM     27  C   UNL     1      24.861  16.416  10.789  1.00  0.00     0.119 C 
BRANCH  27  28
ATOM     28  N   UNL     1      24.478  15.372  11.736  1.00  0.00    -0.092 NA
ATOM     29  N   UNL     1      23.705  14.480  11.331  1.00  0.00     0.001 N 
ATOM     30  N   UNL     1      22.744  13.785  10.952  1.00  0.00    -0.003 NA
ENDBRANCH  27  28
ENDBRANCH  26  27
ENDBRANCH  25  26
ENDBRANCH  19  25
BRANCH  20  31
ATOM     31  O   UNL     1      24.152  21.361  12.596  1.00  0.00    -0.387 OA
ATOM     32  H   UNL     1      24.844  20.972  13.191  1.00  0.00     0.211 HD
ENDBRANCH  20  31
BRANCH  21  33
ATOM     33  O   UNL     1      22.609  19.044  14.449  1.00  0.00    -0.385 OA
ATOM     34  H   UNL     1      21.998  18.277  14.450  1.00  0.00     0.211 HD
ENDBRANCH  21  33
ENDBRANCH  15  16
ENDBRANCH  10  15
BRANCH  12  35
ATOM     35  O   UNL     1      20.031  24.103   9.846  1.00  0.00    -0.385 OA
ATOM     36  H   UNL     1      20.031  24.018   8.863  1.00  0.00     0.211 HD
ENDBRANCH  12  35
BRANCH  13  37
ATOM     37  O   UNL     1      21.979  26.328   9.327  1.00  0.00    -0.387 OA
ATOM     38  H   UNL     1      22.021  26.817   8.456  1.00  0.00     0.211 HD
ENDBRANCH  13  37
BRANCH  14  39
ATOM     39  O   UNL     1      24.152  25.652   8.327  1.00  0.00    -0.387 OA
ATOM     40  H   UNL     1      24.569  26.047   9.135  1.00  0.00     0.211 HD
ENDBRANCH  14  39
ENDBRANCH   8   9
ENDBRANCH   7   8
ENDBRANCH   1   7
BRANCH   1  41
ATOM     41  C   UNL     1      23.493  24.962  13.490  1.00  0.00     0.364 C 
ATOM     42  O   UNL     1      22.708  24.039  13.762  1.00  0.00    -0.246 OA
BRANCH  41  43
ATOM     43  O   UNL     1      23.070  26.279  13.416  1.00  0.00    -0.477 OA
ATOM     44  H   UNL     1      23.595  26.959  12.846  1.00  0.00     0.296 HD
ENDBRANCH  41  43
ENDBRANCH   1  41
BRANCH   3  45
ATOM     45  O   UNL     1      27.826  25.295  12.534  1.00  0.00    -0.391 OA
ATOM     46  H   UNL     1      27.618  24.321  12.492  1.00  0.00     0.211 HD
ENDBRANCH   3  45
BRANCH   5  47
ATOM     47  C   UNL     1      27.311  22.600  14.332  1.00  0.00     0.176 C 
BRANCH  47  48
ATOM     48  O   UNL     1      28.676  22.782  14.539  1.00  0.00    -0.388 OA
ATOM     49  H   UNL     1      29.022  23.634  14.237  1.00  0.00     0.211 HD
ENDBRANCH  47  48
BRANCH  47  50
ATOM     50  C   UNL     1      26.885  21.265  14.924  1.00  0.00     0.165 C 
BRANCH  50  51
ATOM     51  O   UNL     1      25.532  21.190  15.161  1.00  0.00    -0.388 OA
ATOM     52  H   UNL     1      25.231  21.568  16.002  1.00  0.00     0.211 HD
ENDBRANCH  50  51
BRANCH  50  53
ATOM     53  C   UNL     1      27.683  20.830  16.093  1.00  0.00     0.154 C 
BRANCH  53  54
ATOM     54  N   UNL     1      27.533  21.571  17.308  1.00  0.00    -0.319 N 
ATOM     55  C   UNL     1      27.873  21.132  18.607  1.00  0.00     0.407 C 
ATOM     56  H   UNL     1      27.123  22.553  17.232  1.00  0.00     0.167 HD
ATOM     57  O   UNL     1      28.368  20.005  18.798  1.00  0.00    -0.225 OA
BRANCH  55  58
ATOM     58  O   UNL     1      27.644  21.982  19.677  1.00  0.00    -0.443 OA
BRANCH  58  59
ATOM     59  C   UNL     1      27.799  23.370  19.635  1.00  0.00     0.294 C 
BRANCH  59  60
ATOM     60  C   UNL     1      26.476  24.014  19.527  1.00  0.00     0.120 A 
ATOM     61  C   UNL     1      25.886  24.745  20.544  1.00  0.00     0.139 A 
ATOM     62  N   UNL     1      25.602  24.053  18.510  1.00  0.00    -0.132 NA
ATOM     63  N   UNL     1      24.691  25.200  20.124  1.00  0.00    -0.237 N 
ATOM     64  N   UNL     1      24.552  24.757  18.879  1.00  0.00    -0.066 NA
BRANCH  63  65
ATOM     65  C   UNL     1      23.763  26.004  20.868  1.00  0.00     0.287 C 
BRANCH  65  66
ATOM     66  S   UNL     1      22.586  24.875  21.612  1.00  0.00     0.198 S 
ATOM     67  O   UNL     1      22.642  23.549  20.956  1.00  0.00    -0.222 OA
ATOM     68  O   UNL     1      21.215  25.515  21.464  1.00  0.00    -0.222 OA
BRANCH  66  69
ATOM     69  C   UNL     1      22.985  24.751  23.305  1.00  0.00     0.069 A 
ATOM     70  C   UNL     1      24.289  24.678  23.747  1.00  0.00     0.020 A 
ATOM     71  C   UNL     1      21.998  24.723  24.266  1.00  0.00     0.020 A 
ATOM     72  C   UNL     1      24.604  24.579  25.077  1.00  0.00     0.001 A 
ATOM     73  C   UNL     1      22.297  24.624  25.601  1.00  0.00     0.001 A 
ATOM     74  C   UNL     1      23.606  24.552  26.004  1.00  0.00     0.000 A 
ENDBRANCH  66  69
ENDBRANCH  65  66
ENDBRANCH  63  65
ENDBRANCH  59  60
ENDBRANCH  58  59
ENDBRANCH  55  58
ENDBRANCH  53  54
ENDBRANCH  50  53
ENDBRANCH  47  50
ENDBRANCH   5  47
BRANCH   4  75
ATOM     75  N   UNL     1      26.637  25.854  15.926  1.00  0.00    -0.348 N 
ATOM     76  C   UNL     1      27.447  26.584  16.841  1.00  0.00     0.217 C 
ATOM     77  H   UNL     1      25.584  25.926  16.072  1.00  0.00     0.163 HD
ATOM     78  C   UNL     1      26.794  27.396  17.929  1.00  0.00     0.114 C 
ATOM     79  O   UNL     1      28.708  26.559  16.750  1.00  0.00    -0.275 OA
ENDBRANCH   4  75
TORSDOF 32
