REMARK VINA RESULT:    -4.668      4.077      7.915
REMARK INTER + INTRA:         -20.881
REMARK INTER:                 -14.789
REMARK INTRA:                  -6.092
REMARK UNBOUND:                -9.390
REMARK SMILES CC(=O)N[C@@H]1[C@@H](O)C[C@](OC[C@H]2O[C@@H](O[C@H]3[C@H](O)[C@@H](O)[C@H](OCCN=[N+]=[N-])O[C@@H]3CO)[C@H](O)[C@@H](O)[C@H]2O)(C(=O)O)O[C@H]1C(O)[C@H](O)CNC(=O)OCc1cn(-c2ccncc2)nn1
REMARK SMILES IDX 9 1 8 2 6 3 5 4 42 5 41 6 10 7 11 8 12 9 14 10 13 11 32 12
REMARK SMILES IDX 34 13 36 14 15 15 16 16 29 17 28 18 21 19 17 20 19 21 30 22
REMARK SMILES IDX 31 23 22 25 23 26 24 27 25 28 26 29 27 30 18 31 20 33 33 35
REMARK SMILES IDX 35 37 37 39 38 41 39 42 40 43 7 45 43 47 44 48 45 50 46 51
REMARK SMILES IDX 47 53 48 54 49 55 50 57 51 58 52 59 53 60 54 61 63 62 55 63
REMARK SMILES IDX 62 64 56 65 57 66 61 67 58 68 60 69 59 70 4 71 2 72 1 74
REMARK SMILES IDX 3 75
REMARK H PARENT 31 24 18 32 20 34 33 36 35 38 37 40 40 44 7 46 44 49 46 52
REMARK H PARENT 48 56 4 73
REMARK Flexibility Score: inf
ROOT
ATOM      1  C   UNL     1      20.478  29.311  23.229  1.00  0.00     0.272 C 
ATOM      2  C   UNL     1      21.596  30.372  23.156  1.00  0.00     0.113 C 
ATOM      3  C   UNL     1      22.416  30.185  21.875  1.00  0.00     0.145 C 
ATOM      4  C   UNL     1      23.196  28.840  22.063  1.00  0.00     0.142 C 
ATOM      5  C   UNL     1      22.161  27.820  22.437  1.00  0.00     0.178 C 
ATOM      6  O   UNL     1      20.901  28.378  22.263  1.00  0.00    -0.332 OA
ENDROOT
BRANCH   1   7
ATOM      7  O   UNL     1      19.343  29.798  22.768  1.00  0.00    -0.338 OA
BRANCH   7   8
ATOM      8  C   UNL     1      18.556  30.779  22.838  1.00  0.00     0.199 C 
BRANCH   8   9
ATOM      9  C   UNL     1      17.122  30.668  22.420  1.00  0.00     0.179 C 
ATOM     10  C   UNL     1      15.861  29.225  21.059  1.00  0.00     0.282 C 
ATOM     11  O   UNL     1      17.104  29.516  21.571  1.00  0.00    -0.341 OA
ATOM     12  C   UNL     1      14.899  28.872  22.151  1.00  0.00     0.202 C 
ATOM     13  C   UNL     1      14.873  29.993  23.192  1.00  0.00     0.179 C 
ATOM     14  C   UNL     1      16.283  30.250  23.632  1.00  0.00     0.177 C 
BRANCH  10  15
ATOM     15  O   UNL     1      16.094  28.089  20.242  1.00  0.00    -0.341 OA
BRANCH  15  16
ATOM     16  C   UNL     1      16.041  28.360  18.916  1.00  0.00     0.184 C 
ATOM     17  C   UNL     1      17.251  29.006  18.373  1.00  0.00     0.178 C 
ATOM     18  O   UNL     1      17.146  29.142  16.973  1.00  0.00    -0.341 OA
ATOM     19  C   UNL     1      16.283  30.296  16.852  1.00  0.00     0.281 C 
ATOM     20  C   UNL     1      14.834  29.320  18.679  1.00  0.00     0.180 C 
ATOM     21  C   UNL     1      14.930  29.851  17.261  1.00  0.00     0.202 C 
BRANCH  17  22
ATOM     22  C   UNL     1      18.508  28.298  18.708  1.00  0.00     0.191 C 
BRANCH  22  23
ATOM     23  O   UNL     1      19.108  28.790  19.877  1.00  0.00    -0.394 OA
ATOM     24  H   UNL     1      19.938  29.270  19.587  1.00  0.00     0.210 HD
ENDBRANCH  22  23
ENDBRANCH  17  22
BRANCH  19  25
ATOM     25  O   UNL     1      16.333  30.626  15.525  1.00  0.00    -0.350 OA
BRANCH  25  26
ATOM     26  C   UNL     1      15.940  29.613  14.706  1.00  0.00     0.169 C 
BRANCH  26  27
ATOM     27  C   UNL     1      15.001  29.972  13.600  1.00  0.00     0.119 C 
BRANCH  27  28
ATOM     28  N   UNL     1      13.608  29.864  13.984  1.00  0.00    -0.092 NA
ATOM     29  N   UNL     1      13.022  28.804  14.157  1.00  0.00     0.001 N 
ATOM     30  N   UNL     1      12.459  27.710  14.047  1.00  0.00    -0.003 NA
ENDBRANCH  27  28
ENDBRANCH  26  27
ENDBRANCH  25  26
ENDBRANCH  19  25
BRANCH  20  31
ATOM     31  O   UNL     1      13.702  28.547  18.781  1.00  0.00    -0.387 OA
ATOM     32  H   UNL     1      13.401  28.214  17.877  1.00  0.00     0.211 HD
ENDBRANCH  20  31
BRANCH  21  33
ATOM     33  O   UNL     1      14.011  30.872  17.069  1.00  0.00    -0.385 OA
ATOM     34  H   UNL     1      13.736  31.226  17.954  1.00  0.00     0.211 HD
ENDBRANCH  21  33
ENDBRANCH  15  16
ENDBRANCH  10  15
BRANCH  12  35
ATOM     35  O   UNL     1      13.581  28.761  21.647  1.00  0.00    -0.385 OA
ATOM     36  H   UNL     1      13.637  28.109  20.910  1.00  0.00     0.211 HD
ENDBRANCH  12  35
BRANCH  13  37
ATOM     37  O   UNL     1      14.088  29.691  24.280  1.00  0.00    -0.387 OA
ATOM     38  H   UNL     1      13.225  29.259  23.988  1.00  0.00     0.211 HD
ENDBRANCH  13  37
BRANCH  14  39
ATOM     39  O   UNL     1      16.882  29.078  24.119  1.00  0.00    -0.387 OA
ATOM     40  H   UNL     1      16.206  28.557  24.650  1.00  0.00     0.211 HD
ENDBRANCH  14  39
ENDBRANCH   8   9
ENDBRANCH   7   8
ENDBRANCH   1   7
BRANCH   1  41
ATOM     41  C   UNL     1      20.401  28.724  24.571  1.00  0.00     0.364 C 
ATOM     42  O   UNL     1      20.039  27.517  24.757  1.00  0.00    -0.246 OA
BRANCH  41  43
ATOM     43  O   UNL     1      20.708  29.418  25.717  1.00  0.00    -0.477 OA
ATOM     44  H   UNL     1      20.068  29.890  26.318  1.00  0.00     0.296 HD
ENDBRANCH  41  43
ENDBRANCH   1  41
BRANCH   3  45
ATOM     45  O   UNL     1      21.575  30.019  20.808  1.00  0.00    -0.391 OA
ATOM     46  H   UNL     1      21.366  30.863  20.363  1.00  0.00     0.211 HD
ENDBRANCH   3  45
BRANCH   5  47
ATOM     47  C   UNL     1      22.115  26.620  21.481  1.00  0.00     0.176 C 
BRANCH  47  48
ATOM     48  O   UNL     1      21.111  27.085  20.523  1.00  0.00    -0.388 OA
ATOM     49  H   UNL     1      20.628  26.265  20.205  1.00  0.00     0.211 HD
ENDBRANCH  47  48
BRANCH  47  50
ATOM     50  C   UNL     1      21.630  25.347  22.022  1.00  0.00     0.165 C 
BRANCH  50  51
ATOM     51  O   UNL     1      20.354  25.295  22.529  1.00  0.00    -0.388 OA
ATOM     52  H   UNL     1      19.837  26.111  22.295  1.00  0.00     0.211 HD
ENDBRANCH  50  51
BRANCH  50  53
ATOM     53  C   UNL     1      22.644  24.481  22.664  1.00  0.00     0.154 C 
BRANCH  53  54
ATOM     54  N   UNL     1      22.619  24.438  24.102  1.00  0.00    -0.319 N 
ATOM     55  C   UNL     1      23.760  24.788  24.863  1.00  0.00     0.407 C 
ATOM     56  H   UNL     1      21.742  24.128  24.555  1.00  0.00     0.167 HD
ATOM     57  O   UNL     1      24.783  25.138  24.232  1.00  0.00    -0.225 OA
BRANCH  55  58
ATOM     58  O   UNL     1      23.810  24.767  26.228  1.00  0.00    -0.443 OA
BRANCH  58  59
ATOM     59  C   UNL     1      22.713  24.604  27.101  1.00  0.00     0.294 C 
BRANCH  59  60
ATOM     60  C   UNL     1      22.979  25.208  28.448  1.00  0.00     0.121 A 
ATOM     61  C   UNL     1      24.103  25.124  29.240  1.00  0.00     0.144 A 
ATOM     62  N   UNL     1      22.108  25.974  29.146  1.00  0.00    -0.131 NA
ATOM     63  N   UNL     1      23.892  25.824  30.369  1.00  0.00    -0.220 N 
ATOM     64  N   UNL     1      22.662  26.335  30.289  1.00  0.00    -0.062 NA
BRANCH  63  65
ATOM     65  C   UNL     1      24.823  25.970  31.432  1.00  0.00     0.069 A 
ATOM     66  C   UNL     1      24.497  26.428  32.691  1.00  0.00     0.048 A 
ATOM     67  C   UNL     1      26.136  25.629  31.193  1.00  0.00     0.048 A 
ATOM     68  C   UNL     1      25.437  26.550  33.700  1.00  0.00     0.113 A 
ATOM     69  C   UNL     1      27.069  25.754  32.208  1.00  0.00     0.113 A 
ATOM     70  N   UNL     1      26.714  26.202  33.418  1.00  0.00    -0.265 NA
ENDBRANCH  63  65
ENDBRANCH  59  60
ENDBRANCH  58  59
ENDBRANCH  55  58
ENDBRANCH  53  54
ENDBRANCH  50  53
ENDBRANCH  47  50
ENDBRANCH   5  47
BRANCH   4  71
ATOM     71  N   UNL     1      24.118  29.156  23.127  1.00  0.00    -0.348 N 
ATOM     72  C   UNL     1      25.411  28.606  23.264  1.00  0.00     0.217 C 
ATOM     73  H   UNL     1      23.825  29.835  23.854  1.00  0.00     0.163 HD
ATOM     74  C   UNL     1      26.263  29.005  24.394  1.00  0.00     0.114 C 
ATOM     75  O   UNL     1      25.833  27.783  22.428  1.00  0.00    -0.275 OA
ENDBRANCH   4  71
TORSDOF 30
