REMARK VINA RESULT:    -6.151      0.000      0.000
REMARK INTER + INTRA:         -24.636
REMARK INTER:                 -16.703
REMARK INTRA:                  -7.933
REMARK UNBOUND:                -7.877
REMARK SMILES CC(=O)N[C@@H]1[C@@H](O)C[C@](OC[C@H]2O[C@@H](O[C@H]3[C@H](O)[C@@H](O)[C@H](OCCN=[N+]=[N-])O[C@@H]3CO)[C@H](O)[C@@H](O)[C@H]2O)(C(=O)O)O[C@H]1C(O)[C@H](O)CNC(=O)OCc1cn(CC(O)CCc2ccccc2)nn1
REMARK SMILES IDX 43 1 42 2 9 3 8 4 41 5 6 6 5 7 10 8 11 9 12 10 14 11 13 12
REMARK SMILES IDX 32 13 34 14 36 15 15 16 16 17 29 18 28 19 21 20 17 21 19 22
REMARK SMILES IDX 30 23 31 24 22 26 23 27 24 28 25 29 26 30 27 31 18 32 20 34
REMARK SMILES IDX 33 36 35 38 37 40 38 42 39 43 40 44 7 46 4 48 2 49 1 51 3 52
REMARK SMILES IDX 44 53 45 55 46 56 47 58 48 59 49 60 50 62 51 63 52 64 53 65
REMARK SMILES IDX 54 66 68 67 55 68 67 69 56 70 57 71 58 72 59 74 60 75 61 76
REMARK SMILES IDX 62 77 66 78 63 79 65 80 64 81
REMARK H PARENT 31 25 18 33 20 35 33 37 35 39 37 41 40 45 7 47 4 50 44 54
REMARK H PARENT 46 57 48 61 58 73
REMARK Flexibility Score: inf
ROOT
ATOM      1  C   UNL     1      25.890  26.130  15.017  1.00  0.00     0.176 C 
ENDROOT
BRANCH   1   2
ATOM      2  C   UNL     1      25.344  24.716  15.292  1.00  0.00     0.178 C 
ATOM      3  C   UNL     1      23.930  23.433  13.885  1.00  0.00     0.272 C 
ATOM      4  C   UNL     1      22.785  24.164  14.506  1.00  0.00     0.113 C 
ATOM      5  O   UNL     1      25.088  24.121  14.126  1.00  0.00    -0.332 OA
ATOM      6  C   UNL     1      22.966  24.300  15.975  1.00  0.00     0.145 C 
ATOM      7  C   UNL     1      24.323  24.808  16.361  1.00  0.00     0.142 C 
BRANCH   3   8
ATOM      8  O   UNL     1      23.711  23.244  12.506  1.00  0.00    -0.338 OA
BRANCH   8   9
ATOM      9  C   UNL     1      22.473  23.517  12.044  1.00  0.00     0.199 C 
BRANCH   9  10
ATOM     10  C   UNL     1      21.908  22.335  11.222  1.00  0.00     0.179 C 
ATOM     11  C   UNL     1      22.202  20.168  10.617  1.00  0.00     0.282 C 
ATOM     12  O   UNL     1      22.761  21.291  11.171  1.00  0.00    -0.341 OA
ATOM     13  C   UNL     1      21.036  19.793  11.574  1.00  0.00     0.202 C 
ATOM     14  C   UNL     1      19.964  20.816  11.187  1.00  0.00     0.179 C 
ATOM     15  C   UNL     1      20.511  22.127  11.682  1.00  0.00     0.177 C 
BRANCH  11  16
ATOM     16  O   UNL     1      23.069  19.133  10.613  1.00  0.00    -0.341 OA
BRANCH  16  17
ATOM     17  C   UNL     1      24.225  19.212  11.353  1.00  0.00     0.184 C 
ATOM     18  C   UNL     1      25.469  19.184  10.529  1.00  0.00     0.178 C 
ATOM     19  O   UNL     1      26.381  18.215  10.806  1.00  0.00    -0.341 OA
ATOM     20  C   UNL     1      26.486  17.772  12.090  1.00  0.00     0.281 C 
ATOM     21  C   UNL     1      24.123  18.182  12.441  1.00  0.00     0.180 C 
ATOM     22  C   UNL     1      25.171  17.129  12.460  1.00  0.00     0.202 C 
BRANCH  18  23
ATOM     23  C   UNL     1      26.172  20.519  10.643  1.00  0.00     0.191 C 
BRANCH  23  24
ATOM     24  O   UNL     1      25.721  21.240  11.747  1.00  0.00    -0.394 OA
ATOM     25  H   UNL     1      26.538  21.434  12.298  1.00  0.00     0.210 HD
ENDBRANCH  23  24
ENDBRANCH  18  23
BRANCH  20  26
ATOM     26  O   UNL     1      26.879  18.743  12.997  1.00  0.00    -0.350 OA
BRANCH  26  27
ATOM     27  C   UNL     1      28.115  18.396  13.545  1.00  0.00     0.169 C 
BRANCH  27  28
ATOM     28  C   UNL     1      28.369  19.362  14.700  1.00  0.00     0.119 C 
BRANCH  28  29
ATOM     29  N   UNL     1      28.145  18.729  15.971  1.00  0.00    -0.092 NA
ATOM     30  N   UNL     1      28.240  19.408  17.014  1.00  0.00     0.001 N 
ATOM     31  N   UNL     1      28.614  20.008  18.040  1.00  0.00    -0.003 NA
ENDBRANCH  28  29
ENDBRANCH  27  28
ENDBRANCH  26  27
ENDBRANCH  20  26
BRANCH  21  32
ATOM     32  O   UNL     1      24.162  18.790  13.725  1.00  0.00    -0.387 OA
ATOM     33  H   UNL     1      23.272  19.094  14.015  1.00  0.00     0.211 HD
ENDBRANCH  21  32
BRANCH  22  34
ATOM     34  O   UNL     1      24.903  16.138  11.511  1.00  0.00    -0.385 OA
ATOM     35  H   UNL     1      24.037  16.264  11.073  1.00  0.00     0.211 HD
ENDBRANCH  22  34
ENDBRANCH  16  17
ENDBRANCH  11  16
BRANCH  13  36
ATOM     36  O   UNL     1      20.631  18.505  11.460  1.00  0.00    -0.385 OA
ATOM     37  H   UNL     1      20.096  18.260  10.688  1.00  0.00     0.211 HD
ENDBRANCH  13  36
BRANCH  14  38
ATOM     38  O   UNL     1      18.739  20.500  11.768  1.00  0.00    -0.387 OA
ATOM     39  H   UNL     1      18.015  21.015  11.344  1.00  0.00     0.211 HD
ENDBRANCH  14  38
BRANCH  15  40
ATOM     40  O   UNL     1      20.470  22.068  13.079  1.00  0.00    -0.387 OA
ATOM     41  H   UNL     1      21.024  21.329  13.423  1.00  0.00     0.211 HD
ENDBRANCH  15  40
ENDBRANCH   9  10
ENDBRANCH   8   9
ENDBRANCH   3   8
BRANCH   3  42
ATOM     42  C   UNL     1      23.963  22.048  14.417  1.00  0.00     0.364 C 
ATOM     43  O   UNL     1      25.082  21.527  14.690  1.00  0.00    -0.246 OA
BRANCH  42  44
ATOM     44  O   UNL     1      22.842  21.295  14.631  1.00  0.00    -0.477 OA
ATOM     45  H   UNL     1      22.764  20.382  14.207  1.00  0.00     0.296 HD
ENDBRANCH  42  44
ENDBRANCH   3  42
BRANCH   6  46
ATOM     46  O   UNL     1      21.937  25.183  16.406  1.00  0.00    -0.391 OA
ATOM     47  H   UNL     1      21.290  25.365  15.697  1.00  0.00     0.211 HD
ENDBRANCH   6  46
BRANCH   7  48
ATOM     48  N   UNL     1      24.790  24.278  17.617  1.00  0.00    -0.348 N 
ATOM     49  C   UNL     1      24.859  25.036  18.817  1.00  0.00     0.217 C 
ATOM     50  H   UNL     1      25.115  23.268  17.687  1.00  0.00     0.163 HD
ATOM     51  C   UNL     1      25.352  24.375  20.045  1.00  0.00     0.114 C 
ATOM     52  O   UNL     1      24.514  26.222  18.838  1.00  0.00    -0.275 OA
ENDBRANCH   7  48
ENDBRANCH   1   2
BRANCH   1  53
ATOM     53  O   UNL     1      25.673  26.940  16.114  1.00  0.00    -0.388 OA
ATOM     54  H   UNL     1      24.753  27.298  16.156  1.00  0.00     0.211 HD
ENDBRANCH   1  53
BRANCH   1  55
ATOM     55  C   UNL     1      25.523  26.698  13.698  1.00  0.00     0.165 C 
BRANCH  55  56
ATOM     56  O   UNL     1      26.649  26.908  12.943  1.00  0.00    -0.388 OA
ATOM     57  H   UNL     1      27.154  27.704  13.204  1.00  0.00     0.211 HD
ENDBRANCH  55  56
BRANCH  55  58
ATOM     58  C   UNL     1      24.782  27.990  13.954  1.00  0.00     0.154 C 
BRANCH  58  59
ATOM     59  N   UNL     1      23.378  27.904  14.098  1.00  0.00    -0.319 N 
ATOM     60  C   UNL     1      22.612  28.088  15.280  1.00  0.00     0.407 C 
ATOM     61  H   UNL     1      22.767  27.677  13.237  1.00  0.00     0.167 HD
ATOM     62  O   UNL     1      23.168  28.375  16.347  1.00  0.00    -0.225 OA
BRANCH  60  63
ATOM     63  O   UNL     1      21.233  27.950  15.266  1.00  0.00    -0.443 OA
BRANCH  63  64
ATOM     64  C   UNL     1      20.283  28.909  15.552  1.00  0.00     0.294 C 
BRANCH  64  65
ATOM     65  C   UNL     1      19.316  28.603  16.617  1.00  0.00     0.120 A 
ATOM     66  C   UNL     1      17.939  28.790  16.582  1.00  0.00     0.138 A 
ATOM     67  N   UNL     1      19.605  28.116  17.841  1.00  0.00    -0.132 NA
ATOM     68  N   UNL     1      17.475  28.414  17.770  1.00  0.00    -0.250 N 
ATOM     69  N   UNL     1      18.477  28.012  18.512  1.00  0.00    -0.067 NA
BRANCH  68  70
ATOM     70  C   UNL     1      16.037  28.484  18.139  1.00  0.00     0.177 C 
BRANCH  70  71
ATOM     71  C   UNL     1      15.995  28.756  19.605  1.00  0.00     0.136 C 
BRANCH  71  72
ATOM     72  O   UNL     1      16.307  27.610  20.357  1.00  0.00    -0.391 OA
ATOM     73  H   UNL     1      17.239  27.331  20.235  1.00  0.00     0.211 HD
ENDBRANCH  71  72
BRANCH  71  74
ATOM     74  C   UNL     1      14.750  29.381  20.096  1.00  0.00     0.038 C 
BRANCH  74  75
ATOM     75  C   UNL     1      13.886  28.735  21.078  1.00  0.00     0.038 C 
BRANCH  75  76
ATOM     76  C   UNL     1      13.653  29.354  22.366  1.00  0.00    -0.048 A 
ATOM     77  C   UNL     1      14.663  29.413  23.323  1.00  0.00     0.004 A 
ATOM     78  C   UNL     1      12.396  29.839  22.728  1.00  0.00     0.004 A 
ATOM     79  C   UNL     1      14.419  29.929  24.562  1.00  0.00     0.000 A 
ATOM     80  C   UNL     1      12.184  30.352  23.984  1.00  0.00     0.000 A 
ATOM     81  C   UNL     1      13.190  30.411  24.939  1.00  0.00     0.000 A 
ENDBRANCH  75  76
ENDBRANCH  74  75
ENDBRANCH  71  74
ENDBRANCH  70  71
ENDBRANCH  68  70
ENDBRANCH  64  65
ENDBRANCH  63  64
ENDBRANCH  60  63
ENDBRANCH  58  59
ENDBRANCH  55  58
ENDBRANCH   1  55
TORSDOF 35
