REMARK VINA RESULT:    -4.695     13.644     18.583
REMARK INTER + INTRA:         -24.052
REMARK INTER:                 -13.006
REMARK INTRA:                 -11.046
REMARK UNBOUND:               -10.710
REMARK SMILES CC(=O)N[C@@H]1[C@@H](O)C[C@](OC[C@H]2O[C@@H](O[C@H]3[C@H](O)[C@@H](O)[C@H](OCCN=[N+]=[N-])O[C@@H]3CO)[C@H](O)[C@@H](O)[C@H]2O)(C(=O)O)O[C@H]1C(O)[C@H](O)CNC(=O)OCc1cn(CC(=O)NCC(O)Cn2ccnc2[N+](=O)[O-])nn1
REMARK SMILES IDX 47 1 45 2 43 3 42 4 9 5 8 6 41 7 6 8 5 9 10 10 11 11 12 12
REMARK SMILES IDX 14 13 13 14 32 15 34 16 36 17 15 18 16 19 29 20 28 21 21 22
REMARK SMILES IDX 17 23 19 24 30 25 31 26 22 28 23 29 24 30 25 31 26 32 27 33
REMARK SMILES IDX 18 34 20 36 33 38 35 40 37 42 38 44 39 45 40 46 7 48 4 50
REMARK SMILES IDX 2 51 1 53 3 54 44 55 46 57 48 59 49 60 50 62 51 63 52 64
REMARK SMILES IDX 53 65 54 66 73 67 55 68 72 69 56 70 57 71 58 72 59 73 60 75
REMARK SMILES IDX 61 76 62 77 63 79 64 80 65 81 68 82 66 83 67 84 69 85 70 86
REMARK SMILES IDX 71 87
REMARK H PARENT 31 27 18 35 20 37 33 39 35 41 37 43 40 47 7 49 4 52 44 56
REMARK H PARENT 46 58 48 61 59 74 62 78
REMARK Flexibility Score: inf
ROOT
ATOM      1  C   UNL     1      13.890  33.137  20.209  1.00  0.00     0.154 C 
ENDROOT
BRANCH   1   2
ATOM      2  C   UNL     1      14.035  32.473  18.882  1.00  0.00     0.165 C 
BRANCH   2   3
ATOM      3  C   UNL     1      15.375  31.924  18.564  1.00  0.00     0.176 C 
BRANCH   3   4
ATOM      4  C   UNL     1      15.844  30.716  19.264  1.00  0.00     0.178 C 
ATOM      5  C   UNL     1      17.213  29.852  20.931  1.00  0.00     0.272 C 
ATOM      6  C   UNL     1      16.242  28.730  20.813  1.00  0.00     0.113 C 
ATOM      7  O   UNL     1      16.862  30.973  20.157  1.00  0.00    -0.332 OA
ATOM      8  C   UNL     1      15.929  28.314  19.415  1.00  0.00     0.145 C 
ATOM      9  C   UNL     1      16.164  29.516  18.456  1.00  0.00     0.142 C 
BRANCH   5  10
ATOM     10  O   UNL     1      18.521  29.566  20.674  1.00  0.00    -0.338 OA
BRANCH  10  11
ATOM     11  C   UNL     1      19.263  30.506  20.029  1.00  0.00     0.199 C 
BRANCH  11  12
ATOM     12  C   UNL     1      20.385  29.910  19.200  1.00  0.00     0.179 C 
ATOM     13  C   UNL     1      22.147  28.391  19.330  1.00  0.00     0.282 C 
ATOM     14  O   UNL     1      21.398  29.396  19.929  1.00  0.00    -0.341 OA
ATOM     15  C   UNL     1      22.305  28.617  17.846  1.00  0.00     0.202 C 
ATOM     16  C   UNL     1      20.965  28.722  17.156  1.00  0.00     0.179 C 
ATOM     17  C   UNL     1      19.866  28.933  18.180  1.00  0.00     0.177 C 
BRANCH  13  18
ATOM     18  O   UNL     1      21.684  27.144  19.551  1.00  0.00    -0.341 OA
BRANCH  18  19
ATOM     19  C   UNL     1      22.038  26.429  20.632  1.00  0.00     0.184 C 
ATOM     20  C   UNL     1      22.275  24.956  20.443  1.00  0.00     0.178 C 
ATOM     21  O   UNL     1      23.037  24.540  21.537  1.00  0.00    -0.341 OA
ATOM     22  C   UNL     1      22.287  24.559  22.708  1.00  0.00     0.281 C 
ATOM     23  C   UNL     1      20.988  26.495  21.752  1.00  0.00     0.180 C 
ATOM     24  C   UNL     1      21.648  25.889  22.970  1.00  0.00     0.202 C 
BRANCH  20  25
ATOM     25  C   UNL     1      23.104  24.724  19.214  1.00  0.00     0.191 C 
BRANCH  25  26
ATOM     26  O   UNL     1      22.309  24.593  18.068  1.00  0.00    -0.394 OA
ATOM     27  H   UNL     1      22.955  24.308  17.347  1.00  0.00     0.210 HD
ENDBRANCH  25  26
ENDBRANCH  20  25
BRANCH  22  28
ATOM     28  O   UNL     1      23.161  24.298  23.761  1.00  0.00    -0.350 OA
BRANCH  28  29
ATOM     29  C   UNL     1      24.454  24.735  23.468  1.00  0.00     0.169 C 
BRANCH  29  30
ATOM     30  C   UNL     1      24.941  25.479  24.714  1.00  0.00     0.119 C 
BRANCH  30  31
ATOM     31  N   UNL     1      24.378  24.879  25.911  1.00  0.00    -0.092 NA
ATOM     32  N   UNL     1      24.783  25.327  27.005  1.00  0.00     0.001 N 
ATOM     33  N   UNL     1      24.911  25.904  28.077  1.00  0.00    -0.003 NA
ENDBRANCH  30  31
ENDBRANCH  29  30
ENDBRANCH  28  29
ENDBRANCH  22  28
BRANCH  23  34
ATOM     34  O   UNL     1      20.676  27.811  22.074  1.00  0.00    -0.387 OA
ATOM     35  H   UNL     1      19.694  27.900  21.862  1.00  0.00     0.211 HD
ENDBRANCH  23  34
BRANCH  24  36
ATOM     36  O   UNL     1      20.769  25.739  24.042  1.00  0.00    -0.385 OA
ATOM     37  H   UNL     1      21.286  25.884  24.887  1.00  0.00     0.211 HD
ENDBRANCH  24  36
ENDBRANCH  18  19
ENDBRANCH  13  18
BRANCH  15  38
ATOM     38  O   UNL     1      23.109  29.733  17.576  1.00  0.00    -0.385 OA
ATOM     39  H   UNL     1      23.088  29.828  16.573  1.00  0.00     0.211 HD
ENDBRANCH  15  38
BRANCH  16  40
ATOM     40  O   UNL     1      20.664  27.552  16.464  1.00  0.00    -0.387 OA
ATOM     41  H   UNL     1      21.489  27.046  16.201  1.00  0.00     0.211 HD
ENDBRANCH  16  40
BRANCH  17  42
ATOM     42  O   UNL     1      19.361  27.771  18.711  1.00  0.00    -0.387 OA
ATOM     43  H   UNL     1      18.946  27.901  19.608  1.00  0.00     0.211 HD
ENDBRANCH  17  42
ENDBRANCH  11  12
ENDBRANCH  10  11
ENDBRANCH   5  10
BRANCH   5  44
ATOM     44  C   UNL     1      17.093  30.376  22.342  1.00  0.00     0.364 C 
ATOM     45  O   UNL     1      17.054  29.530  23.254  1.00  0.00    -0.246 OA
BRANCH  44  46
ATOM     46  O   UNL     1      17.026  31.714  22.648  1.00  0.00    -0.477 OA
ATOM     47  H   UNL     1      17.689  32.133  23.325  1.00  0.00     0.296 HD
ENDBRANCH  44  46
ENDBRANCH   5  44
BRANCH   8  48
ATOM     48  O   UNL     1      16.541  27.199  18.941  1.00  0.00    -0.391 OA
ATOM     49  H   UNL     1      16.139  26.774  18.170  1.00  0.00     0.211 HD
ENDBRANCH   8  48
BRANCH   9  50
ATOM     50  N   UNL     1      15.390  29.267  17.298  1.00  0.00    -0.348 N 
ATOM     51  C   UNL     1      16.012  29.077  16.012  1.00  0.00     0.217 C 
ATOM     52  H   UNL     1      14.365  29.202  17.335  1.00  0.00     0.163 HD
ATOM     53  C   UNL     1      15.216  28.823  14.782  1.00  0.00     0.114 C 
ATOM     54  O   UNL     1      17.258  29.135  15.951  1.00  0.00    -0.275 OA
ENDBRANCH   9  50
ENDBRANCH   3   4
BRANCH   3  55
ATOM     55  O   UNL     1      16.299  32.993  18.685  1.00  0.00    -0.388 OA
ATOM     56  H   UNL     1      16.836  33.006  17.876  1.00  0.00     0.211 HD
ENDBRANCH   3  55
ENDBRANCH   2   3
BRANCH   2  57
ATOM     57  O   UNL     1      13.373  33.127  17.870  1.00  0.00    -0.388 OA
ATOM     58  H   UNL     1      13.925  33.438  17.130  1.00  0.00     0.211 HD
ENDBRANCH   2  57
ENDBRANCH   1   2
BRANCH   1  59
ATOM     59  N   UNL     1      14.214  32.223  21.271  1.00  0.00    -0.319 N 
ATOM     60  C   UNL     1      13.266  31.362  21.878  1.00  0.00     0.407 C 
ATOM     61  H   UNL     1      15.207  32.166  21.645  1.00  0.00     0.167 HD
ATOM     62  O   UNL     1      12.084  31.376  21.474  1.00  0.00    -0.225 OA
BRANCH  60  63
ATOM     63  O   UNL     1      13.556  30.490  22.906  1.00  0.00    -0.443 OA
BRANCH  63  64
ATOM     64  C   UNL     1      13.443  30.865  24.253  1.00  0.00     0.294 C 
BRANCH  64  65
ATOM     65  C   UNL     1      14.580  31.577  24.833  1.00  0.00     0.120 A 
ATOM     66  C   UNL     1      15.392  31.187  25.868  1.00  0.00     0.138 A 
ATOM     67  N   UNL     1      15.044  32.781  24.463  1.00  0.00    -0.132 NA
ATOM     68  N   UNL     1      16.313  32.153  26.093  1.00  0.00    -0.243 N 
ATOM     69  N   UNL     1      16.090  33.104  25.241  1.00  0.00    -0.067 NA
BRANCH  68  70
ATOM     70  C   UNL     1      17.375  32.112  27.091  1.00  0.00     0.245 C 
BRANCH  70  71
ATOM     71  C   UNL     1      18.548  31.419  26.519  1.00  0.00     0.241 C 
ATOM     72  O   UNL     1      19.303  30.687  27.245  1.00  0.00    -0.273 OA
ATOM     73  N   UNL     1      18.907  31.513  25.141  1.00  0.00    -0.352 N 
ATOM     74  H   UNL     1      18.327  32.094  24.512  1.00  0.00     0.163 HD
BRANCH  73  75
ATOM     75  C   UNL     1      20.076  30.793  24.673  1.00  0.00     0.151 C 
BRANCH  75  76
ATOM     76  C   UNL     1      20.471  31.188  23.284  1.00  0.00     0.168 C 
BRANCH  76  77
ATOM     77  O   UNL     1      21.532  30.441  22.802  1.00  0.00    -0.388 OA
ATOM     78  H   UNL     1      21.554  30.553  21.823  1.00  0.00     0.211 HD
ENDBRANCH  76  77
BRANCH  76  79
ATOM     79  C   UNL     1      20.827  32.667  23.316  1.00  0.00     0.239 C 
BRANCH  79  80
ATOM     80  N   UNL     1      20.659  33.282  22.031  1.00  0.00    -0.227 N 
ATOM     81  C   UNL     1      19.503  33.839  21.584  1.00  0.00     0.204 A 
ATOM     82  C   UNL     1      21.545  33.431  21.015  1.00  0.00     0.434 A 
ATOM     83  C   UNL     1      19.692  34.317  20.311  1.00  0.00     0.245 A 
ATOM     84  N   UNL     1      20.952  34.057  19.979  1.00  0.00    -0.074 NA
BRANCH  82  85
ATOM     85  N   UNL     1      22.905  33.002  21.042  1.00  0.00    -0.047 N 
ATOM     86  O   UNL     1      23.282  31.881  20.701  1.00  0.00    -0.390 OA
ATOM     87  O   UNL     1      23.865  33.900  21.489  1.00  0.00    -0.390 OA
ENDBRANCH  82  85
ENDBRANCH  79  80
ENDBRANCH  76  79
ENDBRANCH  75  76
ENDBRANCH  73  75
ENDBRANCH  70  71
ENDBRANCH  68  70
ENDBRANCH  64  65
ENDBRANCH  63  64
ENDBRANCH  60  63
ENDBRANCH   1  59
TORSDOF 37
