REMARK VINA RESULT:    -5.471      6.369      9.876
REMARK INTER + INTRA:         -21.709
REMARK INTER:                 -13.587
REMARK INTRA:                  -8.121
REMARK UNBOUND:                -7.602
REMARK SMILES CC(=O)N[C@@H]1[C@@H](O)C[C@](OC[C@H]2O[C@@H](O[C@H]3[C@H](O)[C@@H](O)[C@H](OCCN=[N+]=[N-])O[C@@H]3CO)[C@H](O)[C@@H](O)[C@H]2O)(C(=O)O)O[C@H]1C(O)[C@H](O)CNC(=O)OCc1cn(CC(=O)Nc2ncccn2)nn1
REMARK SMILES IDX 9 1 8 2 6 3 5 4 42 5 41 6 10 7 11 8 12 9 14 10 13 11 32 12
REMARK SMILES IDX 34 13 36 14 15 15 16 16 29 17 28 18 21 19 17 20 19 21 30 22
REMARK SMILES IDX 31 23 22 25 23 26 24 27 25 28 26 29 27 30 18 31 20 33 33 35
REMARK SMILES IDX 35 37 37 39 38 41 39 42 40 43 7 45 43 47 44 48 45 50 46 51
REMARK SMILES IDX 47 53 48 54 49 55 50 57 51 58 52 59 53 60 54 61 67 62 55 63
REMARK SMILES IDX 66 64 56 65 57 66 58 67 59 68 60 70 61 71 65 72 62 73 64 74
REMARK SMILES IDX 63 75 4 76 2 77 1 79 3 80
REMARK H PARENT 31 24 18 32 20 34 33 36 35 38 37 40 40 44 7 46 44 49 46 52
REMARK H PARENT 48 56 59 69 4 78
REMARK Flexibility Score: inf
ROOT
ATOM      1  C   UNL     1      23.338  23.559  11.078  1.00  0.00     0.272 C 
ATOM      2  C   UNL     1      21.997  23.957  10.485  1.00  0.00     0.113 C 
ATOM      3  C   UNL     1      21.366  22.815   9.798  1.00  0.00     0.145 C 
ATOM      4  C   UNL     1      21.396  21.494  10.552  1.00  0.00     0.142 C 
ATOM      5  C   UNL     1      22.521  21.373  11.477  1.00  0.00     0.178 C 
ATOM      6  O   UNL     1      22.885  22.585  12.047  1.00  0.00    -0.332 OA
ENDROOT
BRANCH   1   7
ATOM      7  O   UNL     1      23.816  24.578  11.780  1.00  0.00    -0.338 OA
BRANCH   7   8
ATOM      8  C   UNL     1      23.409  25.571  12.462  1.00  0.00     0.199 C 
BRANCH   8   9
ATOM      9  C   UNL     1      23.741  25.928  13.873  1.00  0.00     0.179 C 
ATOM     10  C   UNL     1      22.602  26.318  15.873  1.00  0.00     0.282 C 
ATOM     11  O   UNL     1      22.453  26.110  14.538  1.00  0.00    -0.341 OA
ATOM     12  C   UNL     1      22.857  24.950  16.586  1.00  0.00     0.202 C 
ATOM     13  C   UNL     1      23.308  24.070  15.438  1.00  0.00     0.179 C 
ATOM     14  C   UNL     1      24.396  24.898  14.717  1.00  0.00     0.177 C 
BRANCH  10  15
ATOM     15  O   UNL     1      21.411  26.832  16.403  1.00  0.00    -0.341 OA
BRANCH  15  16
ATOM     16  C   UNL     1      21.536  28.151  16.822  1.00  0.00     0.184 C 
ATOM     17  C   UNL     1      22.175  28.135  18.216  1.00  0.00     0.178 C 
ATOM     18  O   UNL     1      21.429  28.880  19.117  1.00  0.00    -0.341 OA
ATOM     19  C   UNL     1      20.153  28.326  19.297  1.00  0.00     0.281 C 
ATOM     20  C   UNL     1      20.212  28.820  16.823  1.00  0.00     0.180 C 
ATOM     21  C   UNL     1      19.373  28.642  18.052  1.00  0.00     0.202 C 
BRANCH  17  22
ATOM     22  C   UNL     1      23.554  28.770  18.152  1.00  0.00     0.191 C 
BRANCH  22  23
ATOM     23  O   UNL     1      24.554  27.799  18.228  1.00  0.00    -0.394 OA
ATOM     24  H   UNL     1      25.423  28.128  17.869  1.00  0.00     0.210 HD
ENDBRANCH  22  23
ENDBRANCH  17  22
BRANCH  19  25
ATOM     25  O   UNL     1      19.613  28.973  20.392  1.00  0.00    -0.350 OA
BRANCH  25  26
ATOM     26  C   UNL     1      18.675  29.930  20.068  1.00  0.00     0.169 C 
BRANCH  26  27
ATOM     27  C   UNL     1      17.369  29.798  20.822  1.00  0.00     0.119 C 
BRANCH  27  28
ATOM     28  N   UNL     1      16.574  28.685  20.330  1.00  0.00    -0.092 NA
ATOM     29  N   UNL     1      15.395  28.527  20.664  1.00  0.00     0.001 N 
ATOM     30  N   UNL     1      14.298  28.460  21.209  1.00  0.00    -0.003 NA
ENDBRANCH  27  28
ENDBRANCH  26  27
ENDBRANCH  25  26
ENDBRANCH  19  25
BRANCH  20  31
ATOM     31  O   UNL     1      20.409  30.223  16.698  1.00  0.00    -0.387 OA
ATOM     32  H   UNL     1      19.654  30.701  17.147  1.00  0.00     0.211 HD
ENDBRANCH  20  31
BRANCH  21  33
ATOM     33  O   UNL     1      18.444  27.634  17.817  1.00  0.00    -0.385 OA
ATOM     34  H   UNL     1      18.900  26.844  17.440  1.00  0.00     0.211 HD
ENDBRANCH  21  33
ENDBRANCH  15  16
ENDBRANCH  10  15
BRANCH  12  35
ATOM     35  O   UNL     1      23.978  25.104  17.411  1.00  0.00    -0.385 OA
ATOM     36  H   UNL     1      23.785  24.588  18.239  1.00  0.00     0.211 HD
ENDBRANCH  12  35
BRANCH  13  37
ATOM     37  O   UNL     1      22.293  23.682  14.607  1.00  0.00    -0.387 OA
ATOM     38  H   UNL     1      21.557  23.228  15.062  1.00  0.00     0.211 HD
ENDBRANCH  13  37
BRANCH  14  39
ATOM     39  O   UNL     1      25.293  24.040  14.189  1.00  0.00    -0.387 OA
ATOM     40  H   UNL     1      26.177  24.098  14.628  1.00  0.00     0.211 HD
ENDBRANCH  14  39
ENDBRANCH   8   9
ENDBRANCH   7   8
ENDBRANCH   1   7
BRANCH   1  41
ATOM     41  C   UNL     1      24.265  22.909  10.177  1.00  0.00     0.364 C 
ATOM     42  O   UNL     1      25.277  22.285  10.645  1.00  0.00    -0.246 OA
BRANCH  41  43
ATOM     43  O   UNL     1      24.172  22.897   8.805  1.00  0.00    -0.477 OA
ATOM     44  H   UNL     1      23.617  22.278   8.265  1.00  0.00     0.296 HD
ENDBRANCH  41  43
ENDBRANCH   1  41
BRANCH   3  45
ATOM     45  O   UNL     1      20.018  23.179   9.548  1.00  0.00    -0.391 OA
ATOM     46  H   UNL     1      19.967  23.617   8.645  1.00  0.00     0.211 HD
ENDBRANCH   3  45
BRANCH   5  47
ATOM     47  C   UNL     1      22.261  20.458  12.702  1.00  0.00     0.176 C 
BRANCH  47  48
ATOM     48  O   UNL     1      21.008  19.993  12.823  1.00  0.00    -0.388 OA
ATOM     49  H   UNL     1      20.928  19.048  13.133  1.00  0.00     0.211 HD
ENDBRANCH  47  48
BRANCH  47  50
ATOM     50  C   UNL     1      23.393  19.683  13.170  1.00  0.00     0.165 C 
BRANCH  50  51
ATOM     51  O   UNL     1      22.937  19.179  14.505  1.00  0.00    -0.388 OA
ATOM     52  H   UNL     1      23.674  19.285  15.127  1.00  0.00     0.211 HD
ENDBRANCH  50  51
BRANCH  50  53
ATOM     53  C   UNL     1      24.748  20.155  13.367  1.00  0.00     0.154 C 
BRANCH  53  54
ATOM     54  N   UNL     1      25.222  21.062  14.305  1.00  0.00    -0.319 N 
ATOM     55  C   UNL     1      26.308  21.084  15.204  1.00  0.00     0.407 C 
ATOM     56  H   UNL     1      24.600  21.990  14.363  1.00  0.00     0.167 HD
ATOM     57  O   UNL     1      27.099  20.126  15.283  1.00  0.00    -0.225 OA
BRANCH  55  58
ATOM     58  O   UNL     1      26.540  22.162  16.020  1.00  0.00    -0.443 OA
BRANCH  58  59
ATOM     59  C   UNL     1      27.684  22.852  16.252  1.00  0.00     0.294 C 
BRANCH  59  60
ATOM     60  C   UNL     1      27.504  24.085  17.051  1.00  0.00     0.120 A 
ATOM     61  C   UNL     1      27.817  24.250  18.407  1.00  0.00     0.138 A 
ATOM     62  N   UNL     1      26.953  25.282  16.705  1.00  0.00    -0.132 NA
ATOM     63  N   UNL     1      27.466  25.472  18.821  1.00  0.00    -0.243 N 
ATOM     64  N   UNL     1      26.947  26.065  17.760  1.00  0.00    -0.067 NA
BRANCH  63  65
ATOM     65  C   UNL     1      27.597  26.079  20.131  1.00  0.00     0.246 C 
BRANCH  65  66
ATOM     66  C   UNL     1      26.336  25.765  20.908  1.00  0.00     0.248 C 
ATOM     67  O   UNL     1      26.371  25.408  22.110  1.00  0.00    -0.272 OA
ATOM     68  N   UNL     1      25.072  25.873  20.277  1.00  0.00    -0.293 N 
ATOM     69  H   UNL     1      25.102  26.175  19.271  1.00  0.00     0.173 HD
BRANCH  68  70
ATOM     70  C   UNL     1      23.817  25.626  20.874  1.00  0.00     0.229 A 
ATOM     71  N   UNL     1      23.000  26.581  21.353  1.00  0.00    -0.221 NA
ATOM     72  N   UNL     1      23.409  24.346  20.982  1.00  0.00    -0.221 NA
ATOM     73  C   UNL     1      21.797  26.300  21.934  1.00  0.00     0.117 A 
ATOM     74  C   UNL     1      22.244  24.014  21.538  1.00  0.00     0.117 A 
ATOM     75  C   UNL     1      21.409  24.981  22.029  1.00  0.00     0.040 A 
ENDBRANCH  68  70
ENDBRANCH  65  66
ENDBRANCH  63  65
ENDBRANCH  59  60
ENDBRANCH  58  59
ENDBRANCH  55  58
ENDBRANCH  53  54
ENDBRANCH  50  53
ENDBRANCH  47  50
ENDBRANCH   5  47
BRANCH   4  76
ATOM     76  N   UNL     1      21.238  20.474   9.559  1.00  0.00    -0.348 N 
ATOM     77  C   UNL     1      20.070  19.623   9.536  1.00  0.00     0.217 C 
ATOM     78  H   UNL     1      21.961  20.304   8.811  1.00  0.00     0.163 HD
ATOM     79  C   UNL     1      19.969  18.594   8.480  1.00  0.00     0.114 C 
ATOM     80  O   UNL     1      19.176  19.762  10.395  1.00  0.00    -0.275 OA
ENDBRANCH   4  76
TORSDOF 32
