REMARK VINA RESULT:    -4.843     13.345     19.390
REMARK INTER + INTRA:         -22.939
REMARK INTER:                 -15.013
REMARK INTRA:                  -7.926
REMARK UNBOUND:                -9.744
REMARK SMILES CC(=O)N[C@@H]1[C@@H](O)C[C@](OC[C@H]2O[C@@H](O[C@H]3[C@H](O)[C@@H](O)[C@H](OCCN=[N+]=[N-])O[C@@H]3CO)[C@H](O)[C@@H](O)[C@H]2O)(C(=O)O)O[C@H]1C(O)[C@H](O)CNC(=O)OCc1cn(CC(O)Cn2ccnc2[N+](=O)[O-])nn1
REMARK SMILES IDX 43 1 42 2 9 3 8 4 41 5 6 6 5 7 10 8 11 9 12 10 14 11 13 12
REMARK SMILES IDX 32 13 34 14 36 15 15 16 16 17 29 18 28 19 21 20 17 21 19 22
REMARK SMILES IDX 30 23 31 24 22 26 23 27 24 28 25 29 26 30 27 31 18 32 20 34
REMARK SMILES IDX 33 36 35 38 37 40 38 42 39 43 40 44 7 46 4 48 2 49 1 51 3 52
REMARK SMILES IDX 44 53 45 55 46 56 47 58 48 59 49 60 50 62 51 63 52 64 53 65
REMARK SMILES IDX 54 66 69 67 55 68 68 69 56 70 57 71 58 72 59 74 60 75 61 76
REMARK SMILES IDX 64 77 62 78 63 79 65 80 66 81 67 82
REMARK H PARENT 31 25 18 33 20 35 33 37 35 39 37 41 40 45 7 47 4 50 44 54
REMARK H PARENT 46 57 48 61 58 73
REMARK Flexibility Score: inf
ROOT
ATOM      1  C   UNL     1       8.830  24.237  38.553  1.00  0.00     0.176 C 
ENDROOT
BRANCH   1   2
ATOM      2  C   UNL     1      10.018  24.534  37.588  1.00  0.00     0.178 C 
ATOM      3  C   UNL     1      10.302  24.492  35.293  1.00  0.00     0.272 C 
ATOM      4  C   UNL     1      11.649  23.854  35.460  1.00  0.00     0.113 C 
ATOM      5  O   UNL     1       9.472  24.159  36.359  1.00  0.00    -0.332 OA
ATOM      6  C   UNL     1      11.678  22.921  36.664  1.00  0.00     0.145 C 
ATOM      7  C   UNL     1      11.142  23.636  37.898  1.00  0.00     0.142 C 
BRANCH   3   8
ATOM      8  O   UNL     1       9.610  24.022  34.183  1.00  0.00    -0.338 OA
BRANCH   8   9
ATOM      9  C   UNL     1       8.670  23.075  34.346  1.00  0.00     0.199 C 
BRANCH   9  10
ATOM     10  C   UNL     1       7.357  23.397  33.659  1.00  0.00     0.179 C 
ATOM     11  C   UNL     1       5.509  22.490  32.795  1.00  0.00     0.282 C 
ATOM     12  O   UNL     1       6.385  22.389  33.903  1.00  0.00    -0.341 OA
ATOM     13  C   UNL     1       4.879  23.860  32.740  1.00  0.00     0.202 C 
ATOM     14  C   UNL     1       5.173  24.537  34.077  1.00  0.00     0.179 C 
ATOM     15  C   UNL     1       6.697  24.656  34.174  1.00  0.00     0.177 C 
BRANCH  11  16
ATOM     16  O   UNL     1       4.525  21.523  32.828  1.00  0.00    -0.341 OA
BRANCH  16  17
ATOM     17  C   UNL     1       3.595  21.844  31.866  1.00  0.00     0.184 C 
ATOM     18  C   UNL     1       2.164  21.882  32.381  1.00  0.00     0.178 C 
ATOM     19  O   UNL     1       1.462  22.595  31.403  1.00  0.00    -0.341 OA
ATOM     20  C   UNL     1       1.349  21.947  30.204  1.00  0.00     0.281 C 
ATOM     21  C   UNL     1       3.568  20.829  30.732  1.00  0.00     0.180 C 
ATOM     22  C   UNL     1       2.512  21.149  29.742  1.00  0.00     0.202 C 
BRANCH  18  23
ATOM     23  C   UNL     1       2.015  22.511  33.719  1.00  0.00     0.191 C 
BRANCH  23  24
ATOM     24  O   UNL     1       2.550  21.651  34.669  1.00  0.00    -0.394 OA
ATOM     25  H   UNL     1       1.859  21.213  35.227  1.00  0.00     0.210 HD
ENDBRANCH  23  24
ENDBRANCH  18  23
BRANCH  20  26
ATOM     26  O   UNL     1       1.137  22.962  29.233  1.00  0.00    -0.350 OA
BRANCH  26  27
ATOM     27  C   UNL     1       2.241  23.755  29.045  1.00  0.00     0.169 C 
BRANCH  27  28
ATOM     28  C   UNL     1       2.267  24.099  27.549  1.00  0.00     0.119 C 
BRANCH  28  29
ATOM     29  N   UNL     1       2.900  23.079  26.771  1.00  0.00    -0.092 NA
ATOM     30  N   UNL     1       2.247  22.133  26.273  1.00  0.00     0.001 N 
ATOM     31  N   UNL     1       1.779  21.403  25.415  1.00  0.00    -0.003 NA
ENDBRANCH  28  29
ENDBRANCH  27  28
ENDBRANCH  26  27
ENDBRANCH  20  26
BRANCH  21  32
ATOM     32  O   UNL     1       4.819  20.836  30.081  1.00  0.00    -0.387 OA
ATOM     33  H   UNL     1       4.766  20.154  29.387  1.00  0.00     0.211 HD
ENDBRANCH  21  32
BRANCH  22  34
ATOM     34  O   UNL     1       1.997  19.903  29.301  1.00  0.00    -0.385 OA
ATOM     35  H   UNL     1       2.426  19.627  28.450  1.00  0.00     0.211 HD
ENDBRANCH  22  34
ENDBRANCH  16  17
ENDBRANCH  11  16
BRANCH  13  36
ATOM     36  O   UNL     1       5.454  24.571  31.687  1.00  0.00    -0.385 OA
ATOM     37  H   UNL     1       5.157  24.217  30.803  1.00  0.00     0.211 HD
ENDBRANCH  13  36
BRANCH  14  38
ATOM     38  O   UNL     1       4.794  23.659  35.075  1.00  0.00    -0.387 OA
ATOM     39  H   UNL     1       5.379  23.752  35.847  1.00  0.00     0.211 HD
ENDBRANCH  14  38
BRANCH  15  40
ATOM     40  O   UNL     1       6.966  24.896  35.503  1.00  0.00    -0.387 OA
ATOM     41  H   UNL     1       7.931  24.825  35.712  1.00  0.00     0.211 HD
ENDBRANCH  15  40
ENDBRANCH   9  10
ENDBRANCH   8   9
ENDBRANCH   3   8
BRANCH   3  42
ATOM     42  C   UNL     1      10.413  25.954  35.214  1.00  0.00     0.364 C 
ATOM     43  O   UNL     1       9.383  26.711  35.156  1.00  0.00    -0.246 OA
BRANCH  42  44
ATOM     44  O   UNL     1      11.615  26.635  35.192  1.00  0.00    -0.477 OA
ATOM     45  H   UNL     1      11.685  27.654  35.132  1.00  0.00     0.296 HD
ENDBRANCH  42  44
ENDBRANCH   3  42
BRANCH   6  46
ATOM     46  O   UNL     1      11.004  21.740  36.420  1.00  0.00    -0.391 OA
ATOM     47  H   UNL     1      10.352  21.535  37.136  1.00  0.00     0.211 HD
ENDBRANCH   6  46
BRANCH   7  48
ATOM     48  N   UNL     1      12.215  24.141  38.695  1.00  0.00    -0.348 N 
ATOM     49  C   UNL     1      12.875  25.360  38.591  1.00  0.00     0.217 C 
ATOM     50  H   UNL     1      12.581  23.498  39.518  1.00  0.00     0.163 HD
ATOM     51  C   UNL     1      13.982  25.741  39.561  1.00  0.00     0.114 C 
ATOM     52  O   UNL     1      12.624  26.210  37.734  1.00  0.00    -0.275 OA
ENDBRANCH   7  48
ENDBRANCH   1   2
BRANCH   1  53
ATOM     53  O   UNL     1       7.811  23.643  37.766  1.00  0.00    -0.388 OA
ATOM     54  H   UNL     1       7.405  24.271  37.151  1.00  0.00     0.211 HD
ENDBRANCH   1  53
BRANCH   1  55
ATOM     55  C   UNL     1       8.312  25.387  39.280  1.00  0.00     0.165 C 
BRANCH  55  56
ATOM     56  O   UNL     1       8.507  25.425  40.637  1.00  0.00    -0.388 OA
ATOM     57  H   UNL     1       8.258  26.279  41.057  1.00  0.00     0.211 HD
ENDBRANCH  55  56
BRANCH  55  58
ATOM     58  C   UNL     1       6.818  25.666  38.985  1.00  0.00     0.154 C 
BRANCH  58  59
ATOM     59  N   UNL     1       6.807  26.725  37.984  1.00  0.00    -0.319 N 
ATOM     60  C   UNL     1       5.706  26.897  37.082  1.00  0.00     0.407 C 
ATOM     61  H   UNL     1       7.612  27.387  37.905  1.00  0.00     0.167 HD
ATOM     62  O   UNL     1       4.726  26.126  37.152  1.00  0.00    -0.225 OA
BRANCH  60  63
ATOM     63  O   UNL     1       5.705  27.898  36.133  1.00  0.00    -0.443 OA
BRANCH  63  64
ATOM     64  C   UNL     1       4.617  28.353  35.389  1.00  0.00     0.294 C 
BRANCH  64  65
ATOM     65  C   UNL     1       4.847  28.096  33.945  1.00  0.00     0.120 A 
ATOM     66  C   UNL     1       3.881  27.893  32.977  1.00  0.00     0.138 A 
ATOM     67  N   UNL     1       6.011  28.014  33.284  1.00  0.00    -0.132 NA
ATOM     68  N   UNL     1       4.495  27.700  31.783  1.00  0.00    -0.249 N 
ATOM     69  N   UNL     1       5.782  27.778  32.000  1.00  0.00    -0.067 NA
BRANCH  68  70
ATOM     70  C   UNL     1       3.764  27.497  30.536  1.00  0.00     0.181 C 
BRANCH  70  71
ATOM     71  C   UNL     1       4.836  27.424  29.451  1.00  0.00     0.170 C 
BRANCH  71  72
ATOM     72  O   UNL     1       5.449  26.196  29.524  1.00  0.00    -0.388 OA
ATOM     73  H   UNL     1       5.423  25.749  28.644  1.00  0.00     0.211 HD
ENDBRANCH  71  72
BRANCH  71  74
ATOM     74  C   UNL     1       4.239  27.714  28.108  1.00  0.00     0.239 C 
BRANCH  74  75
ATOM     75  N   UNL     1       5.163  28.520  27.326  1.00  0.00    -0.227 N 
ATOM     76  C   UNL     1       5.401  29.840  27.618  1.00  0.00     0.204 A 
ATOM     77  C   UNL     1       5.908  28.157  26.282  1.00  0.00     0.434 A 
ATOM     78  C   UNL     1       6.331  30.292  26.710  1.00  0.00     0.245 A 
ATOM     79  N   UNL     1       6.627  29.252  25.906  1.00  0.00    -0.074 NA
BRANCH  77  80
ATOM     80  N   UNL     1       5.943  26.883  25.664  1.00  0.00    -0.047 N 
ATOM     81  O   UNL     1       7.049  26.348  25.336  1.00  0.00    -0.390 OA
ATOM     82  O   UNL     1       4.825  26.152  25.371  1.00  0.00    -0.390 OA
ENDBRANCH  77  80
ENDBRANCH  74  75
ENDBRANCH  71  74
ENDBRANCH  70  71
ENDBRANCH  68  70
ENDBRANCH  64  65
ENDBRANCH  63  64
ENDBRANCH  60  63
ENDBRANCH  58  59
ENDBRANCH  55  58
ENDBRANCH   1  55
TORSDOF 35
