REMARK VINA RESULT:    -5.670      7.685     12.133
REMARK INTER + INTRA:         -24.743
REMARK INTER:                 -15.779
REMARK INTRA:                  -8.963
REMARK UNBOUND:                -8.963
REMARK SMILES CC(=O)N[C@@H]1[C@@H](O)C[C@](OC[C@H]2O[C@@H](O[C@H]3[C@H](O)[C@@H](O)[C@H](OCCN=[N+]=[N-])O[C@@H]3CO)[C@H](O)[C@@H](O)[C@H]2O)(C(=O)O)O[C@H]1C(O)[C@H](O)CNC(=O)OCc1cn(C[C@@H](C(=O)O)C(c2ccccc2)c2ccccc2)nn1
REMARK SMILES IDX 43 1 42 2 9 3 8 4 41 5 6 6 5 7 10 8 11 9 12 10 14 11 13 12
REMARK SMILES IDX 32 13 34 14 36 15 15 16 16 17 29 18 28 19 21 20 17 21 19 22
REMARK SMILES IDX 30 23 31 24 22 26 23 27 24 28 25 29 26 30 27 31 18 32 20 34
REMARK SMILES IDX 33 36 35 38 37 40 38 42 39 43 40 44 7 46 4 48 2 49 1 51 3 52
REMARK SMILES IDX 44 53 45 55 46 56 47 58 48 59 49 60 50 62 51 63 52 64 53 65
REMARK SMILES IDX 54 66 75 67 55 68 74 69 56 70 57 71 58 72 59 73 60 74 61 76
REMARK SMILES IDX 62 77 63 78 67 79 64 80 66 81 65 82 68 83 69 84 73 85 70 86
REMARK SMILES IDX 72 87 71 88
REMARK H PARENT 31 25 18 33 20 35 33 37 35 39 37 41 40 45 7 47 4 50 44 54
REMARK H PARENT 46 57 48 61 60 75
REMARK Flexibility Score: inf
ROOT
ATOM      1  C   UNL     1      12.500  32.183  18.944  1.00  0.00     0.176 C 
ENDROOT
BRANCH   1   2
ATOM      2  C   UNL     1      13.961  31.693  19.047  1.00  0.00     0.178 C 
ATOM      3  C   UNL     1      15.991  31.324  18.006  1.00  0.00     0.272 C 
ATOM      4  C   UNL     1      16.273  31.026  19.516  1.00  0.00     0.113 C 
ATOM      5  O   UNL     1      14.637  31.687  17.883  1.00  0.00    -0.332 OA
ATOM      6  C   UNL     1      15.340  30.004  20.067  1.00  0.00     0.145 C 
ATOM      7  C   UNL     1      13.920  30.379  19.790  1.00  0.00     0.142 C 
BRANCH   3   8
ATOM      8  O   UNL     1      16.387  30.305  17.318  1.00  0.00    -0.338 OA
BRANCH   8   9
ATOM      9  C   UNL     1      17.451  29.736  16.908  1.00  0.00     0.199 C 
BRANCH   9  10
ATOM     10  C   UNL     1      17.674  29.208  15.515  1.00  0.00     0.179 C 
ATOM     11  C   UNL     1      16.214  28.720  13.711  1.00  0.00     0.282 C 
ATOM     12  O   UNL     1      16.524  28.678  15.015  1.00  0.00    -0.341 OA
ATOM     13  C   UNL     1      17.195  29.231  12.728  1.00  0.00     0.202 C 
ATOM     14  C   UNL     1      18.419  29.875  13.313  1.00  0.00     0.179 C 
ATOM     15  C   UNL     1      18.011  30.435  14.638  1.00  0.00     0.177 C 
BRANCH  11  16
ATOM     16  O   UNL     1      15.082  29.584  13.631  1.00  0.00    -0.341 OA
BRANCH  16  17
ATOM     17  C   UNL     1      13.970  28.980  13.118  1.00  0.00     0.184 C 
ATOM     18  C   UNL     1      13.176  30.000  12.351  1.00  0.00     0.178 C 
ATOM     19  O   UNL     1      12.307  30.722  13.161  1.00  0.00    -0.341 OA
ATOM     20  C   UNL     1      12.733  30.815  14.494  1.00  0.00     0.281 C 
ATOM     21  C   UNL     1      13.062  28.414  14.202  1.00  0.00     0.180 C 
ATOM     22  C   UNL     1      12.695  29.500  15.194  1.00  0.00     0.202 C 
BRANCH  18  23
ATOM     23  C   UNL     1      12.409  29.441  11.187  1.00  0.00     0.191 C 
BRANCH  23  24
ATOM     24  O   UNL     1      12.917  28.243  10.726  1.00  0.00    -0.394 OA
ATOM     25  H   UNL     1      13.155  28.382   9.761  1.00  0.00     0.210 HD
ENDBRANCH  23  24
ENDBRANCH  18  23
BRANCH  20  26
ATOM     26  O   UNL     1      11.889  31.680  15.154  1.00  0.00    -0.350 OA
BRANCH  26  27
ATOM     27  C   UNL     1      10.787  32.104  14.480  1.00  0.00     0.169 C 
BRANCH  27  28
ATOM     28  C   UNL     1       9.507  31.458  14.903  1.00  0.00     0.119 C 
BRANCH  28  29
ATOM     29  N   UNL     1       9.348  31.767  16.338  1.00  0.00    -0.092 NA
ATOM     30  N   UNL     1       8.360  31.290  16.902  1.00  0.00     0.001 N 
ATOM     31  N   UNL     1       7.311  30.945  17.442  1.00  0.00    -0.003 NA
ENDBRANCH  28  29
ENDBRANCH  27  28
ENDBRANCH  26  27
ENDBRANCH  20  26
BRANCH  21  32
ATOM     32  O   UNL     1      11.888  28.003  13.578  1.00  0.00    -0.387 OA
ATOM     33  H   UNL     1      11.293  27.493  14.174  1.00  0.00     0.211 HD
ENDBRANCH  21  32
BRANCH  22  34
ATOM     34  O   UNL     1      13.601  29.511  16.246  1.00  0.00    -0.385 OA
ATOM     35  H   UNL     1      13.499  30.405  16.705  1.00  0.00     0.211 HD
ENDBRANCH  22  34
ENDBRANCH  16  17
ENDBRANCH  11  16
BRANCH  13  36
ATOM     36  O   UNL     1      17.668  28.174  11.915  1.00  0.00    -0.385 OA
ATOM     37  H   UNL     1      18.488  28.460  11.421  1.00  0.00     0.211 HD
ENDBRANCH  13  36
BRANCH  14  38
ATOM     38  O   UNL     1      18.879  30.871  12.475  1.00  0.00    -0.387 OA
ATOM     39  H   UNL     1      18.224  31.003  11.739  1.00  0.00     0.211 HD
ENDBRANCH  14  38
BRANCH  15  40
ATOM     40  O   UNL     1      16.892  31.238  14.462  1.00  0.00    -0.387 OA
ATOM     41  H   UNL     1      16.198  30.930  15.082  1.00  0.00     0.211 HD
ENDBRANCH  15  40
ENDBRANCH   9  10
ENDBRANCH   8   9
ENDBRANCH   3   8
BRANCH   3  42
ATOM     42  C   UNL     1      16.737  32.581  17.795  1.00  0.00     0.364 C 
ATOM     43  O   UNL     1      17.543  33.085  18.604  1.00  0.00    -0.246 OA
BRANCH  42  44
ATOM     44  O   UNL     1      16.552  33.299  16.594  1.00  0.00    -0.477 OA
ATOM     45  H   UNL     1      15.791  33.943  16.560  1.00  0.00     0.296 HD
ENDBRANCH  42  44
ENDBRANCH   3  42
BRANCH   6  46
ATOM     46  O   UNL     1      15.623  28.714  19.596  1.00  0.00    -0.391 OA
ATOM     47  H   UNL     1      14.816  28.258  19.260  1.00  0.00     0.211 HD
ENDBRANCH   6  46
BRANCH   7  48
ATOM     48  N   UNL     1      13.230  30.592  21.041  1.00  0.00    -0.348 N 
ATOM     49  C   UNL     1      12.976  29.522  21.935  1.00  0.00     0.217 C 
ATOM     50  H   UNL     1      12.913  31.574  21.283  1.00  0.00     0.163 HD
ATOM     51  C   UNL     1      12.259  29.739  23.239  1.00  0.00     0.114 C 
ATOM     52  O   UNL     1      13.375  28.379  21.595  1.00  0.00    -0.275 OA
ENDBRANCH   7  48
ENDBRANCH   1   2
BRANCH   1  53
ATOM     53  O   UNL     1      11.877  31.644  17.852  1.00  0.00    -0.388 OA
ATOM     54  H   UNL     1      12.165  30.729  17.631  1.00  0.00     0.211 HD
ENDBRANCH   1  53
BRANCH   1  55
ATOM     55  C   UNL     1      12.448  33.660  18.891  1.00  0.00     0.165 C 
BRANCH  55  56
ATOM     56  O   UNL     1      13.330  34.216  17.942  1.00  0.00    -0.388 OA
ATOM     57  H   UNL     1      14.244  34.074  18.342  1.00  0.00     0.211 HD
ENDBRANCH  55  56
BRANCH  55  58
ATOM     58  C   UNL     1      12.500  34.467  20.133  1.00  0.00     0.154 C 
BRANCH  58  59
ATOM     59  N   UNL     1      11.285  34.639  20.840  1.00  0.00    -0.319 N 
ATOM     60  C   UNL     1      10.789  33.818  21.876  1.00  0.00     0.407 C 
ATOM     61  H   UNL     1      10.663  35.495  20.562  1.00  0.00     0.167 HD
ATOM     62  O   UNL     1      11.373  32.792  22.264  1.00  0.00    -0.225 OA
BRANCH  60  63
ATOM     63  O   UNL     1       9.606  34.184  22.481  1.00  0.00    -0.443 OA
BRANCH  63  64
ATOM     64  C   UNL     1       8.412  34.268  21.785  1.00  0.00     0.294 C 
BRANCH  64  65
ATOM     65  C   UNL     1       7.661  33.008  21.695  1.00  0.00     0.120 A 
ATOM     66  C   UNL     1       7.513  32.009  22.628  1.00  0.00     0.138 A 
ATOM     67  N   UNL     1       6.966  32.563  20.603  1.00  0.00    -0.132 NA
ATOM     68  N   UNL     1       6.770  31.025  22.111  1.00  0.00    -0.251 N 
ATOM     69  N   UNL     1       6.452  31.387  20.883  1.00  0.00    -0.067 NA
BRANCH  68  70
ATOM     70  C   UNL     1       6.354  29.760  22.749  1.00  0.00     0.162 C 
BRANCH  70  71
ATOM     71  C   UNL     1       5.566  30.051  23.984  1.00  0.00     0.132 C 
BRANCH  71  72
ATOM     72  C   UNL     1       4.099  29.973  23.710  1.00  0.00     0.309 C 
ATOM     73  O   UNL     1       3.533  30.675  22.856  1.00  0.00    -0.252 OA
BRANCH  72  74
ATOM     74  O   UNL     1       3.322  29.083  24.431  1.00  0.00    -0.481 OA
ATOM     75  H   UNL     1       2.392  28.832  24.084  1.00  0.00     0.296 HD
ENDBRANCH  72  74
ENDBRANCH  71  72
BRANCH  71  76
ATOM     76  C   UNL     1       5.953  29.362  25.240  1.00  0.00     0.065 C 
BRANCH  76  77
ATOM     77  C   UNL     1       7.029  28.372  25.172  1.00  0.00    -0.040 A 
ATOM     78  C   UNL     1       8.361  28.765  24.973  1.00  0.00     0.004 A 
ATOM     79  C   UNL     1       6.825  26.995  25.289  1.00  0.00     0.004 A 
ATOM     80  C   UNL     1       9.391  27.882  24.899  1.00  0.00     0.000 A 
ATOM     81  C   UNL     1       7.874  26.111  25.212  1.00  0.00     0.000 A 
ATOM     82  C   UNL     1       9.169  26.545  25.015  1.00  0.00     0.000 A 
ENDBRANCH  76  77
BRANCH  76  83
ATOM     83  C   UNL     1       6.002  30.261  26.423  1.00  0.00    -0.040 A 
ATOM     84  C   UNL     1       6.524  31.522  26.224  1.00  0.00     0.004 A 
ATOM     85  C   UNL     1       5.549  29.886  27.659  1.00  0.00     0.004 A 
ATOM     86  C   UNL     1       6.599  32.419  27.251  1.00  0.00     0.000 A 
ATOM     87  C   UNL     1       5.630  30.810  28.696  1.00  0.00     0.000 A 
ATOM     88  C   UNL     1       6.151  32.071  28.504  1.00  0.00     0.000 A 
ENDBRANCH  76  83
ENDBRANCH  71  76
ENDBRANCH  70  71
ENDBRANCH  68  70
ENDBRANCH  64  65
ENDBRANCH  63  64
ENDBRANCH  60  63
ENDBRANCH  58  59
ENDBRANCH  55  58
ENDBRANCH   1  55
TORSDOF 36
