REMARK VINA RESULT:    -6.561      2.319      5.131
REMARK INTER + INTRA:         -21.744
REMARK INTER:                 -13.737
REMARK INTRA:                  -8.007
REMARK UNBOUND:                -4.828
REMARK SMILES CC(=O)N[C@@H]1[C@@H](O)C[C@](OC[C@H]2O[C@@H](O[C@H]3[C@H](O)[C@@H](O)[C@H](OCCN=[N+]=[N-])O[C@@H]3CO)[C@H](O)[C@@H](O)[C@H]2O)(C(=O)O)O[C@H]1C(O)[C@H](O)CNC(=O)OCc1cn(CCN2CCCC2)nn1
REMARK SMILES IDX 9 1 8 2 6 3 5 4 42 5 41 6 10 7 11 8 12 9 14 10 13 11 32 12
REMARK SMILES IDX 34 13 36 14 15 15 16 16 29 17 28 18 21 19 17 20 19 21 30 22
REMARK SMILES IDX 31 23 22 25 23 26 24 27 25 28 26 29 27 30 18 31 20 33 33 35
REMARK SMILES IDX 35 37 37 39 38 41 39 42 40 43 7 45 43 47 44 48 45 50 46 51
REMARK SMILES IDX 47 53 48 54 49 55 50 57 51 58 52 59 53 60 54 61 64 62 55 63
REMARK SMILES IDX 63 64 56 65 57 66 58 67 59 68 62 69 60 70 61 71 4 72 2 73
REMARK SMILES IDX 1 75 3 76
REMARK H PARENT 31 24 18 32 20 34 33 36 35 38 37 40 40 44 7 46 44 49 46 52
REMARK H PARENT 48 56 4 74
REMARK Flexibility Score: inf
ROOT
ATOM      1  C   UNL     1      24.013  29.870  20.283  1.00  0.00     0.272 C 
ATOM      2  C   UNL     1      24.752  29.826  21.583  1.00  0.00     0.113 C 
ATOM      3  C   UNL     1      24.117  28.802  22.534  1.00  0.00     0.145 C 
ATOM      4  C   UNL     1      22.697  29.355  22.842  1.00  0.00     0.142 C 
ATOM      5  C   UNL     1      22.029  29.565  21.533  1.00  0.00     0.178 C 
ATOM      6  O   UNL     1      22.834  29.138  20.472  1.00  0.00    -0.332 OA
ENDROOT
BRANCH   1   7
ATOM      7  O   UNL     1      24.670  29.147  19.285  1.00  0.00    -0.338 OA
BRANCH   7   8
ATOM      8  C   UNL     1      23.918  28.535  18.349  1.00  0.00     0.199 C 
BRANCH   8   9
ATOM      9  C   UNL     1      24.274  27.062  18.165  1.00  0.00     0.179 C 
ATOM     10  C   UNL     1      24.771  25.131  19.298  1.00  0.00     0.282 C 
ATOM     11  O   UNL     1      24.057  26.300  19.299  1.00  0.00    -0.341 OA
ATOM     12  C   UNL     1      24.799  24.533  17.933  1.00  0.00     0.202 C 
ATOM     13  C   UNL     1      23.566  24.983  17.169  1.00  0.00     0.179 C 
ATOM     14  C   UNL     1      23.565  26.483  16.957  1.00  0.00     0.177 C 
BRANCH  10  15
ATOM     15  O   UNL     1      24.478  24.262  20.306  1.00  0.00    -0.341 OA
BRANCH  15  16
ATOM     16  C   UNL     1      23.845  24.632  21.414  1.00  0.00     0.184 C 
ATOM     17  C   UNL     1      24.507  24.320  22.740  1.00  0.00     0.178 C 
ATOM     18  O   UNL     1      23.996  25.230  23.671  1.00  0.00    -0.341 OA
ATOM     19  C   UNL     1      22.691  24.755  23.987  1.00  0.00     0.281 C 
ATOM     20  C   UNL     1      22.414  24.145  21.565  1.00  0.00     0.180 C 
ATOM     21  C   UNL     1      21.861  24.937  22.733  1.00  0.00     0.202 C 
BRANCH  17  22
ATOM     22  C   UNL     1      25.997  24.352  22.712  1.00  0.00     0.191 C 
BRANCH  22  23
ATOM     23  O   UNL     1      26.394  25.624  22.310  1.00  0.00    -0.394 OA
ATOM     24  H   UNL     1      27.268  25.574  21.834  1.00  0.00     0.210 HD
ENDBRANCH  22  23
ENDBRANCH  17  22
BRANCH  19  25
ATOM     25  O   UNL     1      22.212  25.607  24.931  1.00  0.00    -0.350 OA
BRANCH  25  26
ATOM     26  C   UNL     1      22.840  25.723  26.123  1.00  0.00     0.169 C 
BRANCH  26  27
ATOM     27  C   UNL     1      22.902  24.523  27.002  1.00  0.00     0.119 C 
BRANCH  27  28
ATOM     28  N   UNL     1      22.720  24.798  28.407  1.00  0.00    -0.092 NA
ATOM     29  N   UNL     1      23.555  25.464  29.002  1.00  0.00     0.001 N 
ATOM     30  N   UNL     1      24.421  26.216  29.463  1.00  0.00    -0.003 NA
ENDBRANCH  27  28
ENDBRANCH  26  27
ENDBRANCH  25  26
ENDBRANCH  19  25
BRANCH  20  31
ATOM     31  O   UNL     1      21.645  24.483  20.461  1.00  0.00    -0.387 OA
ATOM     32  H   UNL     1      21.020  25.217  20.613  1.00  0.00     0.211 HD
ENDBRANCH  20  31
BRANCH  21  33
ATOM     33  O   UNL     1      20.518  24.728  22.943  1.00  0.00    -0.385 OA
ATOM     34  H   UNL     1      20.210  24.766  23.864  1.00  0.00     0.211 HD
ENDBRANCH  21  33
ENDBRANCH  15  16
ENDBRANCH  10  15
BRANCH  12  35
ATOM     35  O   UNL     1      25.909  24.927  17.176  1.00  0.00    -0.385 OA
ATOM     36  H   UNL     1      26.202  25.847  17.442  1.00  0.00     0.211 HD
ENDBRANCH  12  35
BRANCH  13  37
ATOM     37  O   UNL     1      22.417  24.676  17.903  1.00  0.00    -0.387 OA
ATOM     38  H   UNL     1      21.826  24.056  17.368  1.00  0.00     0.211 HD
ENDBRANCH  13  37
BRANCH  14  39
ATOM     39  O   UNL     1      22.229  26.876  16.903  1.00  0.00    -0.387 OA
ATOM     40  H   UNL     1      22.170  27.495  16.117  1.00  0.00     0.211 HD
ENDBRANCH  14  39
ENDBRANCH   8   9
ENDBRANCH   7   8
ENDBRANCH   1   7
BRANCH   1  41
ATOM     41  C   UNL     1      23.686  31.243  19.816  1.00  0.00     0.364 C 
ATOM     42  O   UNL     1      24.327  32.209  20.331  1.00  0.00    -0.246 OA
BRANCH  41  43
ATOM     43  O   UNL     1      22.747  31.572  18.874  1.00  0.00    -0.477 OA
ATOM     44  H   UNL     1      22.682  31.256  17.934  1.00  0.00     0.296 HD
ENDBRANCH  41  43
ENDBRANCH   1  41
BRANCH   3  45
ATOM     45  O   UNL     1      23.937  27.589  21.918  1.00  0.00    -0.391 OA
ATOM     46  H   UNL     1      23.494  26.916  22.503  1.00  0.00     0.211 HD
ENDBRANCH   3  45
BRANCH   5  47
ATOM     47  C   UNL     1      20.797  28.699  21.415  1.00  0.00     0.176 C 
BRANCH  47  48
ATOM     48  O   UNL     1      19.679  29.199  22.054  1.00  0.00    -0.388 OA
ATOM     49  H   UNL     1      18.885  28.620  22.036  1.00  0.00     0.211 HD
ENDBRANCH  47  48
BRANCH  47  50
ATOM     50  C   UNL     1      20.456  28.120  20.097  1.00  0.00     0.165 C 
BRANCH  50  51
ATOM     51  O   UNL     1      21.186  27.027  19.692  1.00  0.00    -0.388 OA
ATOM     52  H   UNL     1      22.013  27.222  19.197  1.00  0.00     0.211 HD
ENDBRANCH  50  51
BRANCH  50  53
ATOM     53  C   UNL     1      19.992  29.068  19.041  1.00  0.00     0.154 C 
BRANCH  53  54
ATOM     54  N   UNL     1      18.636  29.454  19.169  1.00  0.00    -0.319 N 
ATOM     55  C   UNL     1      17.553  28.674  18.633  1.00  0.00     0.407 C 
ATOM     56  H   UNL     1      18.381  30.337  19.675  1.00  0.00     0.167 HD
ATOM     57  O   UNL     1      17.725  27.605  18.018  1.00  0.00    -0.225 OA
BRANCH  55  58
ATOM     58  O   UNL     1      16.235  29.102  18.793  1.00  0.00    -0.443 OA
BRANCH  58  59
ATOM     59  C   UNL     1      15.371  28.429  19.714  1.00  0.00     0.294 C 
BRANCH  59  60
ATOM     60  C   UNL     1      15.600  28.906  21.092  1.00  0.00     0.120 A 
ATOM     61  C   UNL     1      14.754  29.224  22.116  1.00  0.00     0.138 A 
ATOM     62  N   UNL     1      16.847  29.123  21.603  1.00  0.00    -0.132 NA
ATOM     63  N   UNL     1      15.461  29.608  23.178  1.00  0.00    -0.251 N 
ATOM     64  N   UNL     1      16.763  29.537  22.831  1.00  0.00    -0.067 NA
BRANCH  63  65
ATOM     65  C   UNL     1      15.030  30.032  24.472  1.00  0.00     0.161 C 
BRANCH  65  66
ATOM     66  C   UNL     1      14.066  31.160  24.464  1.00  0.00     0.108 C 
BRANCH  66  67
ATOM     67  N   UNL     1      12.731  30.936  24.829  1.00  0.00    -0.301 NA
ATOM     68  C   UNL     1      11.694  31.730  24.301  1.00  0.00     0.084 C 
ATOM     69  C   UNL     1      12.326  29.567  24.932  1.00  0.00     0.084 C 
ATOM     70  C   UNL     1      10.589  30.798  23.826  1.00  0.00     0.017 C 
ATOM     71  C   UNL     1      10.907  29.476  24.463  1.00  0.00     0.017 C 
ENDBRANCH  66  67
ENDBRANCH  65  66
ENDBRANCH  63  65
ENDBRANCH  59  60
ENDBRANCH  58  59
ENDBRANCH  55  58
ENDBRANCH  53  54
ENDBRANCH  50  53
ENDBRANCH  47  50
ENDBRANCH   5  47
BRANCH   4  72
ATOM     72  N   UNL     1      22.902  30.559  23.624  1.00  0.00    -0.348 N 
ATOM     73  C   UNL     1      21.910  31.132  24.472  1.00  0.00     0.217 C 
ATOM     74  H   UNL     1      23.808  31.060  23.592  1.00  0.00     0.163 HD
ATOM     75  C   UNL     1      22.229  32.391  25.231  1.00  0.00     0.114 C 
ATOM     76  O   UNL     1      20.809  30.588  24.568  1.00  0.00    -0.275 OA
ENDBRANCH   4  72
TORSDOF 32
