REMARK VINA RESULT:    -5.537      2.651      7.654
REMARK INTER + INTRA:         -20.665
REMARK INTER:                 -13.883
REMARK INTRA:                  -6.782
REMARK UNBOUND:                -7.035
REMARK SMILES CC(=O)N[C@@H]1[C@@H](O)C[C@](OC[C@H]2O[C@@H](O[C@H]3[C@H](O)[C@@H](O)[C@H](OCCN=[N+]=[N-])O[C@@H]3CO)[C@H](O)[C@@H](O)[C@H]2O)(C(=O)O)O[C@H]1C(O)[C@H](O)CNC(=O)OCc1cn([C@@H]2C[C@H]3CC[C@@H](C2)N3C)nn1
REMARK SMILES IDX 9 1 8 2 6 3 5 4 42 5 41 6 10 7 11 8 12 9 14 10 13 11 32 12
REMARK SMILES IDX 34 13 36 14 15 15 16 16 29 17 28 18 21 19 17 20 19 21 30 22
REMARK SMILES IDX 31 23 22 25 23 26 24 27 25 28 26 29 27 30 18 31 20 33 33 35
REMARK SMILES IDX 35 37 37 39 38 41 39 42 40 43 7 45 43 47 44 48 45 50 46 51
REMARK SMILES IDX 47 53 48 54 49 55 50 57 51 58 52 59 53 60 54 61 66 62 55 63
REMARK SMILES IDX 65 64 56 65 62 66 57 67 61 68 58 69 63 70 60 71 59 72 64 73
REMARK SMILES IDX 4 74 2 75 1 77 3 78
REMARK H PARENT 31 24 18 32 20 34 33 36 35 38 37 40 40 44 7 46 44 49 46 52
REMARK H PARENT 48 56 4 76
REMARK Flexibility Score: inf
ROOT
ATOM      1  C   UNL     1      22.468  25.502  24.529  1.00  0.00     0.272 C 
ATOM      2  C   UNL     1      22.956  24.340  23.762  1.00  0.00     0.113 C 
ATOM      3  C   UNL     1      24.111  24.712  22.843  1.00  0.00     0.145 C 
ATOM      4  C   UNL     1      23.690  25.908  21.957  1.00  0.00     0.142 C 
ATOM      5  C   UNL     1      22.943  26.918  22.733  1.00  0.00     0.178 C 
ATOM      6  O   UNL     1      23.137  26.672  24.077  1.00  0.00    -0.332 OA
ENDROOT
BRANCH   1   7
ATOM      7  O   UNL     1      22.450  25.515  25.878  1.00  0.00    -0.338 OA
BRANCH   7   8
ATOM      8  C   UNL     1      22.995  24.729  26.749  1.00  0.00     0.199 C 
BRANCH   8   9
ATOM      9  C   UNL     1      23.995  25.341  27.718  1.00  0.00     0.179 C 
ATOM     10  C   UNL     1      23.732  27.562  28.442  1.00  0.00     0.282 C 
ATOM     11  O   UNL     1      24.063  26.711  27.428  1.00  0.00    -0.341 OA
ATOM     12  C   UNL     1      24.511  27.350  29.697  1.00  0.00     0.202 C 
ATOM     13  C   UNL     1      24.398  25.917  30.085  1.00  0.00     0.179 C 
ATOM     14  C   UNL     1      23.601  25.088  29.139  1.00  0.00     0.177 C 
BRANCH  10  15
ATOM     15  O   UNL     1      22.368  27.692  28.637  1.00  0.00    -0.341 OA
BRANCH  15  16
ATOM     16  C   UNL     1      21.875  28.958  28.400  1.00  0.00     0.184 C 
ATOM     17  C   UNL     1      20.818  29.337  29.359  1.00  0.00     0.178 C 
ATOM     18  O   UNL     1      20.436  30.676  29.223  1.00  0.00    -0.341 OA
ATOM     19  C   UNL     1      20.869  31.255  28.030  1.00  0.00     0.281 C 
ATOM     20  C   UNL     1      21.148  28.949  27.012  1.00  0.00     0.180 C 
ATOM     21  C   UNL     1      20.698  30.361  26.819  1.00  0.00     0.202 C 
BRANCH  17  22
ATOM     22  C   UNL     1      21.046  29.020  30.795  1.00  0.00     0.191 C 
BRANCH  22  23
ATOM     23  O   UNL     1      21.052  27.643  30.997  1.00  0.00    -0.394 OA
ATOM     24  H   UNL     1      21.987  27.340  31.110  1.00  0.00     0.210 HD
ENDBRANCH  22  23
ENDBRANCH  17  22
BRANCH  19  25
ATOM     25  O   UNL     1      22.105  31.827  28.145  1.00  0.00    -0.350 OA
BRANCH  25  26
ATOM     26  C   UNL     1      22.771  32.226  27.041  1.00  0.00     0.169 C 
BRANCH  26  27
ATOM     27  C   UNL     1      24.192  32.600  27.248  1.00  0.00     0.119 C 
BRANCH  27  28
ATOM     28  N   UNL     1      24.919  32.940  26.074  1.00  0.00    -0.092 NA
ATOM     29  N   UNL     1      24.817  32.336  25.002  1.00  0.00     0.001 N 
ATOM     30  N   UNL     1      25.230  31.697  24.028  1.00  0.00    -0.003 NA
ENDBRANCH  27  28
ENDBRANCH  26  27
ENDBRANCH  25  26
ENDBRANCH  19  25
BRANCH  20  31
ATOM     31  O   UNL     1      22.008  28.588  26.007  1.00  0.00    -0.387 OA
ATOM     32  H   UNL     1      22.899  28.347  26.378  1.00  0.00     0.211 HD
ENDBRANCH  20  31
BRANCH  21  33
ATOM     33  O   UNL     1      19.356  30.401  26.426  1.00  0.00    -0.385 OA
ATOM     34  H   UNL     1      18.897  29.646  26.823  1.00  0.00     0.211 HD
ENDBRANCH  21  33
ENDBRANCH  15  16
ENDBRANCH  10  15
BRANCH  12  35
ATOM     35  O   UNL     1      25.863  27.676  29.464  1.00  0.00    -0.385 OA
ATOM     36  H   UNL     1      26.230  26.989  28.847  1.00  0.00     0.211 HD
ENDBRANCH  12  35
BRANCH  13  37
ATOM     37  O   UNL     1      23.827  25.789  31.374  1.00  0.00    -0.387 OA
ATOM     38  H   UNL     1      22.948  26.238  31.402  1.00  0.00     0.211 HD
ENDBRANCH  13  37
BRANCH  14  39
ATOM     39  O   UNL     1      22.233  25.257  29.388  1.00  0.00    -0.387 OA
ATOM     40  H   UNL     1      22.053  26.232  29.251  1.00  0.00     0.211 HD
ENDBRANCH  14  39
ENDBRANCH   8   9
ENDBRANCH   7   8
ENDBRANCH   1   7
BRANCH   1  41
ATOM     41  C   UNL     1      21.013  25.702  24.154  1.00  0.00     0.364 C 
ATOM     42  O   UNL     1      20.319  26.673  24.497  1.00  0.00    -0.246 OA
BRANCH  41  43
ATOM     43  O   UNL     1      20.368  24.746  23.362  1.00  0.00    -0.477 OA
ATOM     44  H   UNL     1      20.850  24.340  22.551  1.00  0.00     0.296 HD
ENDBRANCH  41  43
ENDBRANCH   1  41
BRANCH   3  45
ATOM     45  O   UNL     1      25.302  24.946  23.493  1.00  0.00    -0.391 OA
ATOM     46  H   UNL     1      25.275  25.877  23.870  1.00  0.00     0.211 HD
ENDBRANCH   3  45
BRANCH   5  47
ATOM     47  C   UNL     1      23.611  28.337  22.589  1.00  0.00     0.176 C 
BRANCH  47  48
ATOM     48  O   UNL     1      24.120  28.582  23.936  1.00  0.00    -0.388 OA
ATOM     49  H   UNL     1      23.299  28.613  24.514  1.00  0.00     0.211 HD
ENDBRANCH  47  48
BRANCH  47  50
ATOM     50  C   UNL     1      22.603  29.426  22.434  1.00  0.00     0.165 C 
BRANCH  50  51
ATOM     51  O   UNL     1      21.609  29.307  23.379  1.00  0.00    -0.388 OA
ATOM     52  H   UNL     1      20.825  28.802  23.113  1.00  0.00     0.211 HD
ENDBRANCH  50  51
BRANCH  50  53
ATOM     53  C   UNL     1      22.117  29.670  21.055  1.00  0.00     0.154 C 
BRANCH  53  54
ATOM     54  N   UNL     1      20.665  29.513  20.985  1.00  0.00    -0.319 N 
ATOM     55  C   UNL     1      20.086  28.369  20.424  1.00  0.00     0.407 C 
ATOM     56  H   UNL     1      20.079  30.272  21.364  1.00  0.00     0.167 HD
ATOM     57  O   UNL     1      20.848  27.463  19.974  1.00  0.00    -0.225 OA
BRANCH  55  58
ATOM     58  O   UNL     1      18.711  28.180  20.338  1.00  0.00    -0.443 OA
BRANCH  58  59
ATOM     59  C   UNL     1      17.893  29.108  19.636  1.00  0.00     0.294 C 
BRANCH  59  60
ATOM     60  C   UNL     1      16.504  29.070  20.190  1.00  0.00     0.120 A 
ATOM     61  C   UNL     1      15.628  30.127  20.322  1.00  0.00     0.138 A 
ATOM     62  N   UNL     1      15.857  28.009  20.661  1.00  0.00    -0.132 NA
ATOM     63  N   UNL     1      14.483  29.690  20.864  1.00  0.00    -0.249 N 
ATOM     64  N   UNL     1      14.664  28.371  21.061  1.00  0.00    -0.067 NA
BRANCH  63  65
ATOM     65  C   UNL     1      13.272  30.399  21.200  1.00  0.00     0.112 C 
ATOM     66  C   UNL     1      12.509  29.787  22.337  1.00  0.00     0.046 C 
ATOM     67  C   UNL     1      13.669  31.811  21.659  1.00  0.00     0.046 C 
ATOM     68  C   UNL     1      13.244  29.976  23.638  1.00  0.00     0.058 C 
ATOM     69  C   UNL     1      14.507  31.720  22.919  1.00  0.00     0.058 C 
ATOM     70  N   UNL     1      14.619  30.325  23.305  1.00  0.00    -0.300 NA
ATOM     71  C   UNL     1      12.754  31.180  24.399  1.00  0.00     0.021 C 
ATOM     72  C   UNL     1      13.729  32.283  24.093  1.00  0.00     0.021 C 
ATOM     73  C   UNL     1      15.416  30.143  24.479  1.00  0.00     0.105 C 
ENDBRANCH  63  65
ENDBRANCH  59  60
ENDBRANCH  58  59
ENDBRANCH  55  58
ENDBRANCH  53  54
ENDBRANCH  50  53
ENDBRANCH  47  50
ENDBRANCH   5  47
BRANCH   4  74
ATOM     74  N   UNL     1      22.984  25.348  20.798  1.00  0.00    -0.348 N 
ATOM     75  C   UNL     1      23.654  25.208  19.524  1.00  0.00     0.217 C 
ATOM     76  H   UNL     1      21.997  25.028  20.809  1.00  0.00     0.163 HD
ATOM     77  C   UNL     1      23.022  24.660  18.321  1.00  0.00     0.114 C 
ATOM     78  O   UNL     1      24.844  25.586  19.481  1.00  0.00    -0.275 OA
ENDBRANCH   4  74
TORSDOF 30
