REMARK VINA RESULT:    -5.665      2.354      7.269
REMARK INTER + INTRA:         -22.425
REMARK INTER:                 -13.682
REMARK INTRA:                  -8.743
REMARK UNBOUND:                -8.149
REMARK SMILES CC(=O)N[C@@H]1[C@@H](O)C[C@](OC[C@H]2O[C@@H](O[C@H]3[C@H](O)[C@@H](O)[C@H](OCCN=[N+]=[N-])O[C@@H]3CO)[C@H](O)[C@@H](O)[C@H]2O)(C(=O)O)O[C@H]1C(O)[C@H](O)CNC(=O)OCc1cn(Cc2ccc3c(c2)OCO3)nn1
REMARK SMILES IDX 9 1 8 2 6 3 5 4 42 5 41 6 10 7 11 8 12 9 14 10 13 11 32 12
REMARK SMILES IDX 34 13 36 14 15 15 16 16 29 17 28 18 21 19 17 20 19 21 30 22
REMARK SMILES IDX 31 23 22 25 23 26 24 27 25 28 26 29 27 30 18 31 20 33 33 35
REMARK SMILES IDX 35 37 37 39 38 41 39 42 40 43 7 45 43 47 44 48 45 50 46 51
REMARK SMILES IDX 47 53 48 54 49 55 50 57 51 58 52 59 53 60 54 61 67 62 55 63
REMARK SMILES IDX 66 64 56 65 57 66 58 67 62 68 59 69 61 70 60 71 63 72 65 73
REMARK SMILES IDX 64 74 4 75 2 76 1 78 3 79
REMARK H PARENT 31 24 18 32 20 34 33 36 35 38 37 40 40 44 7 46 44 49 46 52
REMARK H PARENT 48 56 4 77
REMARK Flexibility Score: inf
ROOT
ATOM      1  C   UNL     1      19.467  30.468  22.997  1.00  0.00     0.272 C 
ATOM      2  C   UNL     1      19.825  31.695  22.182  1.00  0.00     0.113 C 
ATOM      3  C   UNL     1      20.231  31.276  20.802  1.00  0.00     0.145 C 
ATOM      4  C   UNL     1      21.503  30.404  20.973  1.00  0.00     0.142 C 
ATOM      5  C   UNL     1      21.167  29.316  21.929  1.00  0.00     0.178 C 
ATOM      6  O   UNL     1      19.841  29.313  22.355  1.00  0.00    -0.332 OA
ENDROOT
BRANCH   1   7
ATOM      7  O   UNL     1      18.098  30.466  23.307  1.00  0.00    -0.338 OA
BRANCH   7   8
ATOM      8  C   UNL     1      17.482  31.670  23.373  1.00  0.00     0.199 C 
BRANCH   8   9
ATOM      9  C   UNL     1      15.987  31.472  23.079  1.00  0.00     0.179 C 
ATOM     10  C   UNL     1      14.527  30.365  21.688  1.00  0.00     0.282 C 
ATOM     11  O   UNL     1      15.841  30.778  21.907  1.00  0.00    -0.341 OA
ATOM     12  C   UNL     1      14.167  29.328  22.755  1.00  0.00     0.202 C 
ATOM     13  C   UNL     1      14.879  29.519  24.045  1.00  0.00     0.179 C 
ATOM     14  C   UNL     1      15.247  30.948  24.257  1.00  0.00     0.177 C 
BRANCH  10  15
ATOM     15  O   UNL     1      14.448  29.749  20.502  1.00  0.00    -0.341 OA
BRANCH  15  16
ATOM     16  C   UNL     1      15.470  29.804  19.604  1.00  0.00     0.184 C 
ATOM     17  C   UNL     1      15.132  30.511  18.320  1.00  0.00     0.178 C 
ATOM     18  O   UNL     1      15.144  29.693  17.240  1.00  0.00    -0.341 OA
ATOM     19  C   UNL     1      16.376  29.073  16.947  1.00  0.00     0.281 C 
ATOM     20  C   UNL     1      15.953  28.406  19.322  1.00  0.00     0.180 C 
ATOM     21  C   UNL     1      16.973  28.479  18.203  1.00  0.00     0.202 C 
BRANCH  17  22
ATOM     22  C   UNL     1      16.099  31.651  18.119  1.00  0.00     0.191 C 
BRANCH  22  23
ATOM     23  O   UNL     1      16.877  31.852  19.289  1.00  0.00    -0.394 OA
ATOM     24  H   UNL     1      17.408  31.058  19.525  1.00  0.00     0.210 HD
ENDBRANCH  22  23
ENDBRANCH  17  22
BRANCH  19  25
ATOM     25  O   UNL     1      17.203  29.903  16.259  1.00  0.00    -0.350 OA
BRANCH  25  26
ATOM     26  C   UNL     1      18.497  30.051  16.533  1.00  0.00     0.169 C 
BRANCH  26  27
ATOM     27  C   UNL     1      19.459  29.287  15.678  1.00  0.00     0.119 C 
BRANCH  27  28
ATOM     28  N   UNL     1      20.005  28.106  16.247  1.00  0.00    -0.092 NA
ATOM     29  N   UNL     1      21.086  27.617  15.928  1.00  0.00     0.001 N 
ATOM     30  N   UNL     1      21.949  27.062  15.226  1.00  0.00    -0.003 NA
ENDBRANCH  27  28
ENDBRANCH  26  27
ENDBRANCH  25  26
ENDBRANCH  19  25
BRANCH  20  31
ATOM     31  O   UNL     1      16.581  27.927  20.469  1.00  0.00    -0.387 OA
ATOM     32  H   UNL     1      16.673  26.939  20.450  1.00  0.00     0.211 HD
ENDBRANCH  20  31
BRANCH  21  33
ATOM     33  O   UNL     1      17.388  27.170  17.973  1.00  0.00    -0.385 OA
ATOM     34  H   UNL     1      17.727  26.766  18.816  1.00  0.00     0.211 HD
ENDBRANCH  21  33
ENDBRANCH  15  16
ENDBRANCH  10  15
BRANCH  12  35
ATOM     35  O   UNL     1      12.787  29.296  22.948  1.00  0.00    -0.385 OA
ATOM     36  H   UNL     1      12.383  28.578  22.433  1.00  0.00     0.211 HD
ENDBRANCH  12  35
BRANCH  13  37
ATOM     37  O   UNL     1      15.962  28.672  24.214  1.00  0.00    -0.387 OA
ATOM     38  H   UNL     1      16.509  29.002  24.972  1.00  0.00     0.211 HD
ENDBRANCH  13  37
BRANCH  14  39
ATOM     39  O   UNL     1      16.022  31.021  25.423  1.00  0.00    -0.387 OA
ATOM     40  H   UNL     1      15.452  31.338  26.150  1.00  0.00     0.211 HD
ENDBRANCH  14  39
ENDBRANCH   8   9
ENDBRANCH   7   8
ENDBRANCH   1   7
BRANCH   1  41
ATOM     41  C   UNL     1      20.141  30.546  24.306  1.00  0.00     0.364 C 
ATOM     42  O   UNL     1      19.808  29.864  25.283  1.00  0.00    -0.246 OA
BRANCH  41  43
ATOM     43  O   UNL     1      21.216  31.415  24.514  1.00  0.00    -0.477 OA
ATOM     44  H   UNL     1      21.730  31.806  23.706  1.00  0.00     0.296 HD
ENDBRANCH  41  43
ENDBRANCH   1  41
BRANCH   3  45
ATOM     45  O   UNL     1      19.345  30.503  20.110  1.00  0.00    -0.391 OA
ATOM     46  H   UNL     1      19.572  29.539  20.095  1.00  0.00     0.211 HD
ENDBRANCH   3  45
BRANCH   5  47
ATOM     47  C   UNL     1      21.314  27.937  21.242  1.00  0.00     0.176 C 
BRANCH  47  48
ATOM     48  O   UNL     1      20.496  26.990  21.779  1.00  0.00    -0.388 OA
ATOM     49  H   UNL     1      20.296  27.209  22.720  1.00  0.00     0.211 HD
ENDBRANCH  47  48
BRANCH  47  50
ATOM     50  C   UNL     1      21.344  27.958  19.777  1.00  0.00     0.165 C 
BRANCH  50  51
ATOM     51  O   UNL     1      20.105  27.772  19.149  1.00  0.00    -0.388 OA
ATOM     52  H   UNL     1      19.696  26.912  19.427  1.00  0.00     0.211 HD
ENDBRANCH  50  51
BRANCH  50  53
ATOM     53  C   UNL     1      22.327  27.038  19.105  1.00  0.00     0.154 C 
BRANCH  53  54
ATOM     54  N   UNL     1      22.884  26.158  20.146  1.00  0.00    -0.319 N 
ATOM     55  C   UNL     1      22.869  24.739  20.016  1.00  0.00     0.407 C 
ATOM     56  H   UNL     1      23.290  26.597  20.979  1.00  0.00     0.167 HD
ATOM     57  O   UNL     1      22.357  24.265  18.968  1.00  0.00    -0.225 OA
BRANCH  55  58
ATOM     58  O   UNL     1      23.381  23.893  20.970  1.00  0.00    -0.443 OA
BRANCH  58  59
ATOM     59  C   UNL     1      24.554  24.219  21.677  1.00  0.00     0.294 C 
BRANCH  59  60
ATOM     60  C   UNL     1      24.208  24.410  23.104  1.00  0.00     0.120 A 
ATOM     61  C   UNL     1      22.967  24.712  23.655  1.00  0.00     0.138 A 
ATOM     62  N   UNL     1      25.039  24.336  24.163  1.00  0.00    -0.132 NA
ATOM     63  N   UNL     1      23.092  24.806  24.992  1.00  0.00    -0.248 N 
ATOM     64  N   UNL     1      24.350  24.577  25.271  1.00  0.00    -0.067 NA
BRANCH  63  65
ATOM     65  C   UNL     1      22.033  25.098  25.911  1.00  0.00     0.181 C 
BRANCH  65  66
ATOM     66  C   UNL     1      22.121  26.439  26.536  1.00  0.00    -0.023 A 
ATOM     67  C   UNL     1      21.626  26.644  27.786  1.00  0.00     0.010 A 
ATOM     68  C   UNL     1      22.712  27.500  25.840  1.00  0.00     0.056 A 
ATOM     69  C   UNL     1      21.716  27.894  28.344  1.00  0.00     0.051 A 
ATOM     70  C   UNL     1      22.807  28.751  26.385  1.00  0.00     0.166 A 
ATOM     71  C   UNL     1      22.294  28.927  27.658  1.00  0.00     0.165 A 
ATOM     72  O   UNL     1      23.310  29.977  25.992  1.00  0.00    -0.454 OA
ATOM     73  O   UNL     1      22.483  30.261  28.042  1.00  0.00    -0.454 OA
ATOM     74  C   UNL     1      23.438  30.797  27.151  1.00  0.00     0.468 C 
ENDBRANCH  65  66
ENDBRANCH  63  65
ENDBRANCH  59  60
ENDBRANCH  58  59
ENDBRANCH  55  58
ENDBRANCH  53  54
ENDBRANCH  50  53
ENDBRANCH  47  50
ENDBRANCH   5  47
BRANCH   4  75
ATOM     75  N   UNL     1      22.512  31.329  21.405  1.00  0.00    -0.348 N 
ATOM     76  C   UNL     1      23.855  31.135  20.937  1.00  0.00     0.217 C 
ATOM     77  H   UNL     1      22.388  32.146  22.029  1.00  0.00     0.163 HD
ATOM     78  C   UNL     1      24.932  32.086  21.377  1.00  0.00     0.114 C 
ATOM     79  O   UNL     1      24.127  30.181  20.170  1.00  0.00    -0.275 OA
ENDBRANCH   4  75
TORSDOF 31
