REMARK VINA RESULT:    -5.778     14.676     19.471
REMARK INTER + INTRA:         -24.049
REMARK INTER:                 -17.637
REMARK INTRA:                  -6.411
REMARK UNBOUND:                -8.981
REMARK SMILES CC(=O)N[C@@H]1[C@@H](O)C[C@](OC[C@H]2O[C@@H](O[C@H]3[C@H](O)[C@@H](O)[C@H](OCCN=[N+]=[N-])O[C@@H]3CO)[C@H](O)[C@@H](O)[C@H]2O)(C(=O)O)O[C@H]1C(O)[C@H](O)CNC(=O)OCc1cn(-c2cc(C(=O)O)nc(-c3ccccc3)c2)nn1
REMARK SMILES IDX 9 1 8 2 6 3 5 4 42 5 41 6 10 7 11 8 12 9 14 10 13 11 32 12
REMARK SMILES IDX 34 13 36 14 15 15 16 16 29 17 28 18 21 19 17 20 19 21 30 22
REMARK SMILES IDX 31 23 22 25 23 26 24 27 25 28 26 29 27 30 18 31 20 33 33 35
REMARK SMILES IDX 35 37 37 39 38 41 39 42 40 43 7 45 43 47 44 48 45 50 46 51
REMARK SMILES IDX 47 53 48 54 49 55 50 57 51 58 52 59 53 60 54 61 72 62 55 63
REMARK SMILES IDX 71 64 56 65 57 66 70 67 58 68 63 69 62 70 59 71 60 72 61 73
REMARK SMILES IDX 64 75 65 76 69 77 66 78 68 79 67 80 4 81 2 82 1 84 3 85
REMARK H PARENT 31 24 18 32 20 34 33 36 35 38 37 40 40 44 7 46 44 49 46 52
REMARK H PARENT 48 56 61 74 4 83
REMARK Flexibility Score: inf
ROOT
ATOM      1  C   UNL     1       9.910  30.648  15.408  1.00  0.00     0.272 C 
ATOM      2  C   UNL     1       9.217  31.126  14.116  1.00  0.00     0.113 C 
ATOM      3  C   UNL     1       8.833  30.029  13.192  1.00  0.00     0.145 C 
ATOM      4  C   UNL     1       9.888  28.935  13.084  1.00  0.00     0.142 C 
ATOM      5  C   UNL     1      11.082  29.483  13.871  1.00  0.00     0.178 C 
ATOM      6  O   UNL     1      10.676  29.505  15.187  1.00  0.00    -0.332 OA
ENDROOT
BRANCH   1   7
ATOM      7  O   UNL     1       8.900  30.357  16.268  1.00  0.00    -0.338 OA
BRANCH   7   8
ATOM      8  C   UNL     1       7.954  31.292  16.538  1.00  0.00     0.199 C 
BRANCH   8   9
ATOM      9  C   UNL     1       6.912  30.736  17.540  1.00  0.00     0.179 C 
ATOM     10  C   UNL     1       6.155  31.158  19.712  1.00  0.00     0.282 C 
ATOM     11  O   UNL     1       7.032  31.440  18.696  1.00  0.00    -0.341 OA
ATOM     12  C   UNL     1       5.029  30.302  19.165  1.00  0.00     0.202 C 
ATOM     13  C   UNL     1       4.460  30.826  17.869  1.00  0.00     0.179 C 
ATOM     14  C   UNL     1       5.568  31.045  16.901  1.00  0.00     0.177 C 
BRANCH  10  15
ATOM     15  O   UNL     1       5.683  32.359  20.209  1.00  0.00    -0.341 OA
BRANCH  15  16
ATOM     16  C   UNL     1       6.134  32.685  21.477  1.00  0.00     0.184 C 
ATOM     17  C   UNL     1       7.152  31.746  22.009  1.00  0.00     0.178 C 
ATOM     18  O   UNL     1       6.721  31.109  23.160  1.00  0.00    -0.341 OA
ATOM     19  C   UNL     1       5.472  30.513  23.000  1.00  0.00     0.281 C 
ATOM     20  C   UNL     1       4.926  32.855  22.353  1.00  0.00     0.180 C 
ATOM     21  C   UNL     1       4.454  31.631  23.054  1.00  0.00     0.202 C 
BRANCH  17  22
ATOM     22  C   UNL     1       8.406  32.514  22.374  1.00  0.00     0.191 C 
BRANCH  22  23
ATOM     23  O   UNL     1       8.250  33.879  22.212  1.00  0.00    -0.394 OA
ATOM     24  H   UNL     1       8.690  34.162  21.368  1.00  0.00     0.210 HD
ENDBRANCH  22  23
ENDBRANCH  17  22
BRANCH  19  25
ATOM     25  O   UNL     1       5.284  29.674  24.088  1.00  0.00    -0.350 OA
BRANCH  25  26
ATOM     26  C   UNL     1       6.347  28.783  24.250  1.00  0.00     0.169 C 
BRANCH  26  27
ATOM     27  C   UNL     1       6.692  28.632  25.710  1.00  0.00     0.119 C 
BRANCH  27  28
ATOM     28  N   UNL     1       7.461  27.421  25.895  1.00  0.00    -0.092 NA
ATOM     29  N   UNL     1       8.528  27.310  25.308  1.00  0.00     0.001 N 
ATOM     30  N   UNL     1       9.715  27.028  25.072  1.00  0.00    -0.003 NA
ENDBRANCH  27  28
ENDBRANCH  26  27
ENDBRANCH  25  26
ENDBRANCH  19  25
BRANCH  20  31
ATOM     31  O   UNL     1       5.276  33.790  23.356  1.00  0.00    -0.387 OA
ATOM     32  H   UNL     1       5.726  33.334  24.110  1.00  0.00     0.211 HD
ENDBRANCH  20  31
BRANCH  21  33
ATOM     33  O   UNL     1       3.228  31.236  22.479  1.00  0.00    -0.385 OA
ATOM     34  H   UNL     1       3.048  30.268  22.634  1.00  0.00     0.211 HD
ENDBRANCH  21  33
ENDBRANCH  15  16
ENDBRANCH  10  15
BRANCH  12  35
ATOM     35  O   UNL     1       5.390  28.974  18.974  1.00  0.00    -0.385 OA
ATOM     36  H   UNL     1       5.805  28.690  19.837  1.00  0.00     0.211 HD
ENDBRANCH  12  35
BRANCH  13  37
ATOM     37  O   UNL     1       3.768  31.997  18.179  1.00  0.00    -0.387 OA
ATOM     38  H   UNL     1       2.848  31.729  18.433  1.00  0.00     0.211 HD
ENDBRANCH  13  37
BRANCH  14  39
ATOM     39  O   UNL     1       5.552  32.414  16.566  1.00  0.00    -0.387 OA
ATOM     40  H   UNL     1       4.689  32.829  16.724  1.00  0.00     0.211 HD
ENDBRANCH  14  39
ENDBRANCH   8   9
ENDBRANCH   7   8
ENDBRANCH   1   7
BRANCH   1  41
ATOM     41  C   UNL     1      10.844  31.712  15.855  1.00  0.00     0.364 C 
ATOM     42  O   UNL     1      10.726  32.912  15.484  1.00  0.00    -0.246 OA
BRANCH  41  43
ATOM     43  O   UNL     1      11.884  31.416  16.707  1.00  0.00    -0.477 OA
ATOM     44  H   UNL     1      12.237  30.464  16.866  1.00  0.00     0.296 HD
ENDBRANCH  41  43
ENDBRANCH   1  41
BRANCH   3  45
ATOM     45  O   UNL     1       7.569  29.528  13.419  1.00  0.00    -0.391 OA
ATOM     46  H   UNL     1       7.626  28.561  13.552  1.00  0.00     0.211 HD
ENDBRANCH   3  45
BRANCH   5  47
ATOM     47  C   UNL     1      12.360  28.791  13.584  1.00  0.00     0.176 C 
BRANCH  47  48
ATOM     48  O   UNL     1      12.436  27.631  14.389  1.00  0.00    -0.388 OA
ATOM     49  H   UNL     1      12.421  27.895  15.363  1.00  0.00     0.211 HD
ENDBRANCH  47  48
BRANCH  47  50
ATOM     50  C   UNL     1      13.609  29.612  13.748  1.00  0.00     0.165 C 
BRANCH  50  51
ATOM     51  O   UNL     1      13.869  30.301  12.581  1.00  0.00    -0.388 OA
ATOM     52  H   UNL     1      13.048  30.687  12.175  1.00  0.00     0.211 HD
ENDBRANCH  50  51
BRANCH  50  53
ATOM     53  C   UNL     1      14.718  28.651  14.100  1.00  0.00     0.154 C 
BRANCH  53  54
ATOM     54  N   UNL     1      15.264  28.773  15.404  1.00  0.00    -0.319 N 
ATOM     55  C   UNL     1      16.661  28.882  15.624  1.00  0.00     0.407 C 
ATOM     56  H   UNL     1      14.642  28.786  16.249  1.00  0.00     0.167 HD
ATOM     57  O   UNL     1      17.437  28.851  14.650  1.00  0.00    -0.225 OA
BRANCH  55  58
ATOM     58  O   UNL     1      17.180  29.026  16.925  1.00  0.00    -0.443 OA
BRANCH  58  59
ATOM     59  C   UNL     1      17.093  27.936  17.808  1.00  0.00     0.294 C 
BRANCH  59  60
ATOM     60  C   UNL     1      16.272  28.270  18.997  1.00  0.00     0.121 A 
ATOM     61  C   UNL     1      15.206  29.130  19.124  1.00  0.00     0.144 A 
ATOM     62  N   UNL     1      16.446  27.784  20.260  1.00  0.00    -0.131 NA
ATOM     63  N   UNL     1      14.765  29.159  20.400  1.00  0.00    -0.220 N 
ATOM     64  N   UNL     1      15.554  28.317  21.068  1.00  0.00    -0.062 NA
BRANCH  63  65
ATOM     65  C   UNL     1      13.707  29.948  20.916  1.00  0.00     0.071 A 
ATOM     66  C   UNL     1      13.172  29.579  22.140  1.00  0.00     0.064 A 
ATOM     67  C   UNL     1      13.175  31.065  20.305  1.00  0.00     0.057 A 
ATOM     68  C   UNL     1      12.149  30.332  22.685  1.00  0.00     0.151 A 
ATOM     69  C   UNL     1      12.169  31.801  20.848  1.00  0.00     0.073 A 
ATOM     70  N   UNL     1      11.671  31.415  22.039  1.00  0.00    -0.241 NA
BRANCH  68  71
ATOM     71  C   UNL     1      11.569  29.971  23.971  1.00  0.00     0.354 C 
ATOM     72  O   UNL     1      10.683  30.721  24.451  1.00  0.00    -0.245 OA
BRANCH  71  73
ATOM     73  O   UNL     1      11.933  28.858  24.692  1.00  0.00    -0.477 OA
ATOM     74  H   UNL     1      12.913  28.586  24.841  1.00  0.00     0.297 HD
ENDBRANCH  71  73
ENDBRANCH  68  71
BRANCH  69  75
ATOM     75  C   UNL     1      11.626  32.983  20.188  1.00  0.00     0.000 A 
ATOM     76  C   UNL     1      12.283  34.196  20.380  1.00  0.00     0.010 A 
ATOM     77  C   UNL     1      10.515  32.970  19.396  1.00  0.00     0.010 A 
ATOM     78  C   UNL     1      11.846  35.356  19.798  1.00  0.00     0.001 A 
ATOM     79  C   UNL     1      10.081  34.148  18.814  1.00  0.00     0.001 A 
ATOM     80  C   UNL     1      10.719  35.341  18.996  1.00  0.00     0.000 A 
ENDBRANCH  69  75
ENDBRANCH  63  65
ENDBRANCH  59  60
ENDBRANCH  58  59
ENDBRANCH  55  58
ENDBRANCH  53  54
ENDBRANCH  50  53
ENDBRANCH  47  50
ENDBRANCH   5  47
BRANCH   4  81
ATOM     81  N   UNL     1      10.200  28.618  11.728  1.00  0.00    -0.348 N 
ATOM     82  C   UNL     1       9.518  27.564  11.068  1.00  0.00     0.217 C 
ATOM     83  H   UNL     1      10.937  29.174  11.235  1.00  0.00     0.163 HD
ATOM     84  C   UNL     1       9.799  27.190   9.658  1.00  0.00     0.114 C 
ATOM     85  O   UNL     1       8.619  26.890  11.677  1.00  0.00    -0.275 OA
ENDBRANCH   4  81
TORSDOF 33
