REMARK VINA RESULT:    -5.127      6.612     10.657
REMARK INTER + INTRA:         -22.010
REMARK INTER:                 -14.716
REMARK INTRA:                  -7.295
REMARK UNBOUND:                -9.390
REMARK SMILES CC(=O)N[C@@H]1[C@@H](O)C[C@](OC[C@H]2O[C@@H](O[C@H]3[C@H](O)[C@@H](O)[C@H](OCCN=[N+]=[N-])O[C@@H]3CO)[C@H](O)[C@@H](O)[C@H]2O)(C(=O)O)O[C@H]1C(O)[C@H](O)CNC(=O)OCc1cn(-c2ccncc2)nn1
REMARK SMILES IDX 9 1 8 2 6 3 5 4 42 5 41 6 10 7 11 8 12 9 14 10 13 11 32 12
REMARK SMILES IDX 34 13 36 14 15 15 16 16 29 17 28 18 21 19 17 20 19 21 30 22
REMARK SMILES IDX 31 23 22 25 23 26 24 27 25 28 26 29 27 30 18 31 20 33 33 35
REMARK SMILES IDX 35 37 37 39 38 41 39 42 40 43 7 45 43 47 44 48 45 50 46 51
REMARK SMILES IDX 47 53 48 54 49 55 50 57 51 58 52 59 53 60 54 61 63 62 55 63
REMARK SMILES IDX 62 64 56 65 57 66 61 67 58 68 60 69 59 70 4 71 2 72 1 74
REMARK SMILES IDX 3 75
REMARK H PARENT 31 24 18 32 20 34 33 36 35 38 37 40 40 44 7 46 44 49 46 52
REMARK H PARENT 48 56 4 73
REMARK Flexibility Score: inf
ROOT
ATOM      1  C   UNL     1      22.209  21.698  11.534  1.00  0.00     0.272 C 
ATOM      2  C   UNL     1      20.855  21.593  10.803  1.00  0.00     0.113 C 
ATOM      3  C   UNL     1      20.004  20.480  11.424  1.00  0.00     0.145 C 
ATOM      4  C   UNL     1      20.726  19.140  11.056  1.00  0.00     0.142 C 
ATOM      5  C   UNL     1      22.152  19.314  11.490  1.00  0.00     0.178 C 
ATOM      6  O   UNL     1      22.252  20.479  12.239  1.00  0.00    -0.332 OA
ENDROOT
BRANCH   1   7
ATOM      7  O   UNL     1      22.167  22.634  12.461  1.00  0.00    -0.338 OA
BRANCH   7   8
ATOM      8  C   UNL     1      22.513  22.911  13.639  1.00  0.00     0.199 C 
BRANCH   8   9
ATOM      9  C   UNL     1      23.164  24.216  13.982  1.00  0.00     0.179 C 
ATOM     10  C   UNL     1      24.416  25.064  15.780  1.00  0.00     0.282 C 
ATOM     11  O   UNL     1      23.756  23.975  15.263  1.00  0.00    -0.341 OA
ATOM     12  C   UNL     1      25.582  25.445  14.922  1.00  0.00     0.202 C 
ATOM     13  C   UNL     1      25.108  25.659  13.482  1.00  0.00     0.179 C 
ATOM     14  C   UNL     1      24.363  24.431  13.052  1.00  0.00     0.177 C 
BRANCH  10  15
ATOM     15  O   UNL     1      24.881  24.604  17.040  1.00  0.00    -0.341 OA
BRANCH  15  16
ATOM     16  C   UNL     1      24.315  25.246  18.090  1.00  0.00     0.184 C 
ATOM     17  C   UNL     1      25.271  25.701  19.117  1.00  0.00     0.178 C 
ATOM     18  O   UNL     1      24.605  26.454  20.107  1.00  0.00    -0.341 OA
ATOM     19  C   UNL     1      23.996  25.414  20.907  1.00  0.00     0.281 C 
ATOM     20  C   UNL     1      23.317  24.255  18.765  1.00  0.00     0.180 C 
ATOM     21  C   UNL     1      22.891  24.853  20.093  1.00  0.00     0.202 C 
BRANCH  17  22
ATOM     22  C   UNL     1      26.402  26.490  18.574  1.00  0.00     0.191 C 
BRANCH  22  23
ATOM     23  O   UNL     1      27.379  25.685  17.969  1.00  0.00    -0.394 OA
ATOM     24  H   UNL     1      27.317  24.787  18.410  1.00  0.00     0.210 HD
ENDBRANCH  22  23
ENDBRANCH  17  22
BRANCH  19  25
ATOM     25  O   UNL     1      23.532  26.063  22.018  1.00  0.00    -0.350 OA
BRANCH  25  26
ATOM     26  C   UNL     1      24.299  25.851  23.123  1.00  0.00     0.169 C 
BRANCH  26  27
ATOM     27  C   UNL     1      24.071  24.571  23.860  1.00  0.00     0.119 C 
BRANCH  27  28
ATOM     28  N   UNL     1      22.844  24.575  24.631  1.00  0.00    -0.092 NA
ATOM     29  N   UNL     1      21.724  24.516  24.143  1.00  0.00     0.001 N 
ATOM     30  N   UNL     1      20.656  24.721  23.558  1.00  0.00    -0.003 NA
ENDBRANCH  27  28
ENDBRANCH  26  27
ENDBRANCH  25  26
ENDBRANCH  19  25
BRANCH  20  31
ATOM     31  O   UNL     1      22.219  24.194  17.941  1.00  0.00    -0.387 OA
ATOM     32  H   UNL     1      22.262  23.393  17.329  1.00  0.00     0.211 HD
ENDBRANCH  20  31
BRANCH  21  33
ATOM     33  O   UNL     1      22.179  23.920  20.831  1.00  0.00    -0.385 OA
ATOM     34  H   UNL     1      22.816  23.385  21.372  1.00  0.00     0.211 HD
ENDBRANCH  21  33
ENDBRANCH  15  16
ENDBRANCH  10  15
BRANCH  12  35
ATOM     35  O   UNL     1      26.142  26.674  15.346  1.00  0.00    -0.385 OA
ATOM     36  H   UNL     1      25.709  27.364  14.790  1.00  0.00     0.211 HD
ENDBRANCH  12  35
BRANCH  13  37
ATOM     37  O   UNL     1      26.143  25.910  12.612  1.00  0.00    -0.387 OA
ATOM     38  H   UNL     1      26.706  26.679  12.941  1.00  0.00     0.211 HD
ENDBRANCH  13  37
BRANCH  14  39
ATOM     39  O   UNL     1      25.158  23.282  13.191  1.00  0.00    -0.387 OA
ATOM     40  H   UNL     1      26.054  23.447  12.766  1.00  0.00     0.211 HD
ENDBRANCH  14  39
ENDBRANCH   8   9
ENDBRANCH   7   8
ENDBRANCH   1   7
BRANCH   1  41
ATOM     41  C   UNL     1      23.312  21.821  10.576  1.00  0.00     0.364 C 
ATOM     42  O   UNL     1      24.526  21.637  10.919  1.00  0.00    -0.246 OA
BRANCH  41  43
ATOM     43  O   UNL     1      23.129  22.142   9.252  1.00  0.00    -0.477 OA
ATOM     44  H   UNL     1      23.422  22.978   8.794  1.00  0.00     0.296 HD
ENDBRANCH  41  43
ENDBRANCH   1  41
BRANCH   3  45
ATOM     45  O   UNL     1      20.026  20.590  12.788  1.00  0.00    -0.391 OA
ATOM     46  H   UNL     1      20.080  21.518  13.088  1.00  0.00     0.211 HD
ENDBRANCH   3  45
BRANCH   5  47
ATOM     47  C   UNL     1      22.619  18.248  12.489  1.00  0.00     0.176 C 
BRANCH  47  48
ATOM     48  O   UNL     1      21.867  18.654  13.677  1.00  0.00    -0.388 OA
ATOM     49  H   UNL     1      21.020  18.116  13.669  1.00  0.00     0.211 HD
ENDBRANCH  47  48
BRANCH  47  50
ATOM     50  C   UNL     1      24.037  18.250  12.862  1.00  0.00     0.165 C 
BRANCH  50  51
ATOM     51  O   UNL     1      24.439  19.054  13.901  1.00  0.00    -0.388 OA
ATOM     52  H   UNL     1      24.083  18.730  14.770  1.00  0.00     0.211 HD
ENDBRANCH  50  51
BRANCH  50  53
ATOM     53  C   UNL     1      25.002  18.043  11.760  1.00  0.00     0.154 C 
BRANCH  53  54
ATOM     54  N   UNL     1      25.978  19.084  11.571  1.00  0.00    -0.319 N 
ATOM     55  C   UNL     1      27.359  18.833  11.757  1.00  0.00     0.407 C 
ATOM     56  H   UNL     1      25.630  20.023  11.310  1.00  0.00     0.167 HD
ATOM     57  O   UNL     1      27.689  17.672  12.087  1.00  0.00    -0.225 OA
BRANCH  55  58
ATOM     58  O   UNL     1      28.339  19.771  11.599  1.00  0.00    -0.443 OA
BRANCH  58  59
ATOM     59  C   UNL     1      28.395  21.033  12.228  1.00  0.00     0.294 C 
BRANCH  59  60
ATOM     60  C   UNL     1      27.830  20.988  13.617  1.00  0.00     0.121 A 
ATOM     61  C   UNL     1      28.483  20.959  14.829  1.00  0.00     0.144 A 
ATOM     62  N   UNL     1      26.511  20.965  13.922  1.00  0.00    -0.131 NA
ATOM     63  N   UNL     1      27.569  20.919  15.814  1.00  0.00    -0.220 N 
ATOM     64  N   UNL     1      26.367  20.924  15.234  1.00  0.00    -0.062 NA
BRANCH  63  65
ATOM     65  C   UNL     1      27.859  20.879  17.205  1.00  0.00     0.069 A 
ATOM     66  C   UNL     1      27.618  21.918  18.077  1.00  0.00     0.048 A 
ATOM     67  C   UNL     1      28.411  19.725  17.716  1.00  0.00     0.048 A 
ATOM     68  C   UNL     1      27.912  21.833  19.428  1.00  0.00     0.113 A 
ATOM     69  C   UNL     1      28.702  19.649  19.068  1.00  0.00     0.113 A 
ATOM     70  N   UNL     1      28.453  20.680  19.885  1.00  0.00    -0.265 NA
ENDBRANCH  63  65
ENDBRANCH  59  60
ENDBRANCH  58  59
ENDBRANCH  55  58
ENDBRANCH  53  54
ENDBRANCH  50  53
ENDBRANCH  47  50
ENDBRANCH   5  47
BRANCH   4  71
ATOM     71  N   UNL     1      20.552  19.071   9.625  1.00  0.00    -0.348 N 
ATOM     72  C   UNL     1      19.385  18.615   8.975  1.00  0.00     0.217 C 
ATOM     73  H   UNL     1      21.333  19.374   9.014  1.00  0.00     0.163 HD
ATOM     74  C   UNL     1      19.324  18.590   7.506  1.00  0.00     0.114 C 
ATOM     75  O   UNL     1      18.404  18.234   9.644  1.00  0.00    -0.275 OA
ENDBRANCH   4  71
TORSDOF 30
