REMARK VINA RESULT:    -6.244     14.551     19.472
REMARK INTER + INTRA:         -21.952
REMARK INTER:                 -15.803
REMARK INTRA:                  -6.149
REMARK UNBOUND:                -6.033
REMARK SMILES CC(=O)N[C@@H]1[C@@H](O)C[C@](OC[C@H]2O[C@@H](O[C@H]3[C@H](O)[C@@H](O)[C@H](OCCN=[N+]=[N-])O[C@@H]3CO)[C@H](O)[C@@H](O)[C@H]2O)(C(=O)O)O[C@H]1C(O)[C@H](O)CNC(=O)OCc1cn(-c2cccc(S(N)(=O)=O)c2)nn1
REMARK SMILES IDX 9 1 8 2 6 3 5 4 42 5 41 6 10 7 11 8 12 9 14 10 13 11 32 12
REMARK SMILES IDX 34 13 36 14 15 15 16 16 29 17 28 18 21 19 17 20 19 21 30 22
REMARK SMILES IDX 31 23 22 25 23 26 24 27 25 28 26 29 27 30 18 31 20 33 33 35
REMARK SMILES IDX 35 37 37 39 38 41 39 42 40 43 7 45 43 47 44 48 45 50 46 51
REMARK SMILES IDX 47 53 48 54 49 55 50 57 51 58 52 59 53 60 54 61 67 62 55 63
REMARK SMILES IDX 66 64 56 65 65 66 57 67 60 68 58 69 59 70 61 71 63 72 64 73
REMARK SMILES IDX 62 74 4 77 2 78 1 80 3 81
REMARK H PARENT 31 24 18 32 20 34 33 36 35 38 37 40 40 44 7 46 44 49 46 52
REMARK H PARENT 48 56 62 75 62 76 4 79
REMARK Flexibility Score: inf
ROOT
ATOM      1  C   UNL     1      16.443  31.502  26.087  1.00  0.00     0.272 C 
ATOM      2  C   UNL     1      16.333  32.980  25.663  1.00  0.00     0.113 C 
ATOM      3  C   UNL     1      17.501  33.708  26.231  1.00  0.00     0.145 C 
ATOM      4  C   UNL     1      18.781  33.122  25.748  1.00  0.00     0.142 C 
ATOM      5  C   UNL     1      18.704  31.655  25.517  1.00  0.00     0.178 C 
ATOM      6  O   UNL     1      17.546  30.986  25.553  1.00  0.00    -0.332 OA
ENDROOT
BRANCH   1   7
ATOM      7  O   UNL     1      15.271  30.929  25.522  1.00  0.00    -0.338 OA
BRANCH   7   8
ATOM      8  C   UNL     1      14.674  31.856  24.724  1.00  0.00     0.199 C 
BRANCH   8   9
ATOM      9  C   UNL     1      14.114  31.263  23.449  1.00  0.00     0.179 C 
ATOM     10  C   UNL     1      14.499  31.250  21.246  1.00  0.00     0.282 C 
ATOM     11  O   UNL     1      15.112  31.032  22.506  1.00  0.00    -0.341 OA
ATOM     12  C   UNL     1      13.191  30.555  21.139  1.00  0.00     0.202 C 
ATOM     13  C   UNL     1      12.911  29.550  22.227  1.00  0.00     0.179 C 
ATOM     14  C   UNL     1      13.317  30.028  23.609  1.00  0.00     0.177 C 
BRANCH  10  15
ATOM     15  O   UNL     1      15.386  31.051  20.219  1.00  0.00    -0.341 OA
BRANCH  15  16
ATOM     16  C   UNL     1      14.960  30.198  19.228  1.00  0.00     0.184 C 
ATOM     17  C   UNL     1      16.126  29.363  18.758  1.00  0.00     0.178 C 
ATOM     18  O   UNL     1      16.122  29.243  17.363  1.00  0.00    -0.341 OA
ATOM     19  C   UNL     1      16.523  30.447  16.834  1.00  0.00     0.281 C 
ATOM     20  C   UNL     1      14.419  31.060  18.109  1.00  0.00     0.180 C 
ATOM     21  C   UNL     1      15.462  31.461  17.115  1.00  0.00     0.202 C 
BRANCH  17  22
ATOM     22  C   UNL     1      16.137  27.973  19.309  1.00  0.00     0.191 C 
BRANCH  22  23
ATOM     23  O   UNL     1      16.121  27.984  20.718  1.00  0.00    -0.394 OA
ATOM     24  H   UNL     1      16.592  27.199  21.086  1.00  0.00     0.210 HD
ENDBRANCH  22  23
ENDBRANCH  17  22
BRANCH  19  25
ATOM     25  O   UNL     1      16.727  30.385  15.455  1.00  0.00    -0.350 OA
BRANCH  25  26
ATOM     26  C   UNL     1      15.602  30.560  14.696  1.00  0.00     0.169 C 
BRANCH  26  27
ATOM     27  C   UNL     1      15.354  29.468  13.676  1.00  0.00     0.119 C 
BRANCH  27  28
ATOM     28  N   UNL     1      14.528  28.410  14.224  1.00  0.00    -0.092 NA
ATOM     29  N   UNL     1      13.308  28.385  14.084  1.00  0.00     0.001 N 
ATOM     30  N   UNL     1      12.097  28.270  14.013  1.00  0.00    -0.003 NA
ENDBRANCH  27  28
ENDBRANCH  26  27
ENDBRANCH  25  26
ENDBRANCH  19  25
BRANCH  20  31
ATOM     31  O   UNL     1      13.436  30.328  17.420  1.00  0.00    -0.387 OA
ATOM     32  H   UNL     1      12.548  30.396  17.850  1.00  0.00     0.211 HD
ENDBRANCH  20  31
BRANCH  21  33
ATOM     33  O   UNL     1      16.110  32.643  17.543  1.00  0.00    -0.385 OA
ATOM     34  H   UNL     1      16.838  32.821  16.902  1.00  0.00     0.211 HD
ENDBRANCH  21  33
ENDBRANCH  15  16
ENDBRANCH  10  15
BRANCH  12  35
ATOM     35  O   UNL     1      12.099  31.444  20.993  1.00  0.00    -0.385 OA
ATOM     36  H   UNL     1      11.295  30.835  21.047  1.00  0.00     0.211 HD
ENDBRANCH  12  35
BRANCH  13  37
ATOM     37  O   UNL     1      13.396  28.295  21.911  1.00  0.00    -0.387 OA
ATOM     38  H   UNL     1      14.118  28.096  22.589  1.00  0.00     0.211 HD
ENDBRANCH  13  37
BRANCH  14  39
ATOM     39  O   UNL     1      14.130  29.032  24.163  1.00  0.00    -0.387 OA
ATOM     40  H   UNL     1      14.451  28.393  23.479  1.00  0.00     0.211 HD
ENDBRANCH  14  39
ENDBRANCH   8   9
ENDBRANCH   7   8
ENDBRANCH   1   7
BRANCH   1  41
ATOM     41  C   UNL     1      16.330  31.501  27.566  1.00  0.00     0.364 C 
ATOM     42  O   UNL     1      15.350  32.143  28.096  1.00  0.00    -0.246 OA
BRANCH  41  43
ATOM     43  O   UNL     1      17.163  30.882  28.450  1.00  0.00    -0.477 OA
ATOM     44  H   UNL     1      17.550  31.353  29.279  1.00  0.00     0.296 HD
ENDBRANCH  41  43
ENDBRANCH   1  41
BRANCH   3  45
ATOM     45  O   UNL     1      17.362  35.054  25.790  1.00  0.00    -0.391 OA
ATOM     46  H   UNL     1      16.434  35.081  25.397  1.00  0.00     0.211 HD
ENDBRANCH   3  45
BRANCH   5  47
ATOM     47  C   UNL     1      19.431  31.361  24.183  1.00  0.00     0.176 C 
BRANCH  47  48
ATOM     48  O   UNL     1      19.575  32.548  23.491  1.00  0.00    -0.388 OA
ATOM     49  H   UNL     1      19.103  32.605  22.643  1.00  0.00     0.211 HD
ENDBRANCH  47  48
BRANCH  47  50
ATOM     50  C   UNL     1      18.764  30.256  23.459  1.00  0.00     0.165 C 
BRANCH  50  51
ATOM     51  O   UNL     1      19.321  29.045  23.861  1.00  0.00    -0.388 OA
ATOM     52  H   UNL     1      20.132  29.300  24.387  1.00  0.00     0.211 HD
ENDBRANCH  50  51
BRANCH  50  53
ATOM     53  C   UNL     1      18.938  30.357  21.953  1.00  0.00     0.154 C 
BRANCH  53  54
ATOM     54  N   UNL     1      20.245  29.843  21.619  1.00  0.00    -0.319 N 
ATOM     55  C   UNL     1      20.355  28.676  20.774  1.00  0.00     0.407 C 
ATOM     56  H   UNL     1      21.129  30.278  21.969  1.00  0.00     0.167 HD
ATOM     57  O   UNL     1      19.329  28.101  20.325  1.00  0.00    -0.225 OA
BRANCH  55  58
ATOM     58  O   UNL     1      21.634  28.242  20.492  1.00  0.00    -0.443 OA
BRANCH  58  59
ATOM     59  C   UNL     1      21.945  26.881  20.445  1.00  0.00     0.294 C 
BRANCH  59  60
ATOM     60  C   UNL     1      21.594  26.193  21.696  1.00  0.00     0.121 A 
ATOM     61  C   UNL     1      22.139  26.521  22.947  1.00  0.00     0.144 A 
ATOM     62  N   UNL     1      20.750  25.191  21.907  1.00  0.00    -0.131 NA
ATOM     63  N   UNL     1      21.595  25.701  23.838  1.00  0.00    -0.220 N 
ATOM     64  N   UNL     1      20.772  24.919  23.199  1.00  0.00    -0.062 NA
BRANCH  63  65
ATOM     65  C   UNL     1      21.896  25.734  25.240  1.00  0.00     0.068 A 
ATOM     66  C   UNL     1      21.537  26.864  25.979  1.00  0.00     0.050 A 
ATOM     67  C   UNL     1      22.520  24.687  25.849  1.00  0.00     0.028 A 
ATOM     68  C   UNL     1      21.801  26.945  27.323  1.00  0.00     0.084 A 
ATOM     69  C   UNL     1      22.787  24.755  27.178  1.00  0.00     0.004 A 
ATOM     70  C   UNL     1      22.437  25.875  27.937  1.00  0.00     0.022 A 
BRANCH  68  71
ATOM     71  S   UNL     1      21.381  28.320  28.304  1.00  0.00     0.238 S 
ATOM     72  O   UNL     1      20.463  29.211  27.515  1.00  0.00    -0.207 OA
ATOM     73  O   UNL     1      22.606  29.094  28.669  1.00  0.00    -0.207 OA
BRANCH  71  74
ATOM     74  N   UNL     1      20.575  27.752  29.738  1.00  0.00    -0.225 NA
ATOM     75  H   UNL     1      20.539  28.536  30.427  1.00  0.00     0.137 HD
ATOM     76  H   UNL     1      21.008  26.880  30.105  1.00  0.00     0.137 HD
ENDBRANCH  71  74
ENDBRANCH  68  71
ENDBRANCH  63  65
ENDBRANCH  59  60
ENDBRANCH  58  59
ENDBRANCH  55  58
ENDBRANCH  53  54
ENDBRANCH  50  53
ENDBRANCH  47  50
ENDBRANCH   5  47
BRANCH   4  77
ATOM     77  N   UNL     1      19.788  33.379  26.791  1.00  0.00    -0.348 N 
ATOM     78  C   UNL     1      21.059  33.944  26.507  1.00  0.00     0.217 C 
ATOM     79  H   UNL     1      19.566  33.138  27.778  1.00  0.00     0.163 HD
ATOM     80  C   UNL     1      22.033  34.182  27.603  1.00  0.00     0.114 C 
ATOM     81  O   UNL     1      21.326  34.233  25.304  1.00  0.00    -0.275 OA
ENDBRANCH   4  77
TORSDOF 32
