REMARK VINA RESULT:    -5.722      2.477      9.199
REMARK INTER + INTRA:         -21.850
REMARK INTER:                 -15.188
REMARK INTRA:                  -6.662
REMARK UNBOUND:                -6.761
REMARK SMILES CC(=O)N[C@@H]1[C@@H](O)C[C@](OC[C@H]2O[C@@H](O[C@H]3[C@H](O)[C@@H](O)[C@H](OCCN=[N+]=[N-])O[C@@H]3CO)[C@H](O)[C@@H](O)[C@H]2O)(C(=O)O)O[C@H]1C(O)[C@H](O)CNC(=O)OCc1cn(CCNS(C)(=O)=O)nn1
REMARK SMILES IDX 43 1 42 2 9 3 8 4 41 5 6 6 5 7 10 8 11 9 12 10 14 11 13 12
REMARK SMILES IDX 32 13 34 14 36 15 15 16 16 17 29 18 28 19 21 20 17 21 19 22
REMARK SMILES IDX 30 23 31 24 22 26 23 27 24 28 25 29 26 30 27 31 18 32 20 34
REMARK SMILES IDX 33 36 35 38 37 40 38 42 39 43 40 44 7 46 4 48 2 49 1 51 3 52
REMARK SMILES IDX 44 53 45 55 46 56 47 58 48 59 49 60 50 62 51 63 52 64 53 65
REMARK SMILES IDX 54 66 64 67 55 68 63 69 56 70 57 71 58 72 59 74 61 75 62 76
REMARK SMILES IDX 60 77
REMARK H PARENT 31 25 18 33 20 35 33 37 35 39 37 41 40 45 7 47 4 50 44 54
REMARK H PARENT 46 57 48 61 58 73
REMARK Flexibility Score: inf
ROOT
ATOM      1  C   UNL     1      21.936  24.536  21.489  1.00  0.00     0.176 C 
ENDROOT
BRANCH   1   2
ATOM      2  C   UNL     1      22.338  25.873  20.839  1.00  0.00     0.178 C 
ATOM      3  C   UNL     1      21.283  27.571  19.620  1.00  0.00     0.272 C 
ATOM      4  C   UNL     1      22.085  27.369  18.397  1.00  0.00     0.113 C 
ATOM      5  O   UNL     1      21.185  26.412  20.380  1.00  0.00    -0.332 OA
ATOM      6  C   UNL     1      23.066  26.231  18.445  1.00  0.00     0.145 C 
ATOM      7  C   UNL     1      23.347  25.643  19.784  1.00  0.00     0.142 C 
BRANCH   3   8
ATOM      8  O   UNL     1      19.955  27.963  19.427  1.00  0.00    -0.338 OA
BRANCH   8   9
ATOM      9  C   UNL     1      19.760  28.615  18.221  1.00  0.00     0.199 C 
BRANCH   9  10
ATOM     10  C   UNL     1      18.316  28.606  17.856  1.00  0.00     0.179 C 
ATOM     11  C   UNL     1      16.149  28.477  18.634  1.00  0.00     0.282 C 
ATOM     12  O   UNL     1      17.494  28.714  18.964  1.00  0.00    -0.341 OA
ATOM     13  C   UNL     1      15.629  29.496  17.681  1.00  0.00     0.202 C 
ATOM     14  C   UNL     1      16.439  29.373  16.408  1.00  0.00     0.179 C 
ATOM     15  C   UNL     1      17.895  29.469  16.714  1.00  0.00     0.177 C 
BRANCH  11  16
ATOM     16  O   UNL     1      15.452  28.463  19.805  1.00  0.00    -0.341 OA
BRANCH  16  17
ATOM     17  C   UNL     1      15.345  29.640  20.461  1.00  0.00     0.184 C 
ATOM     18  C   UNL     1      15.872  29.788  21.833  1.00  0.00     0.178 C 
ATOM     19  O   UNL     1      15.166  30.810  22.468  1.00  0.00    -0.341 OA
ATOM     20  C   UNL     1      13.912  30.422  22.842  1.00  0.00     0.281 C 
ATOM     21  C   UNL     1      13.880  30.159  20.447  1.00  0.00     0.180 C 
ATOM     22  C   UNL     1      13.290  29.607  21.727  1.00  0.00     0.202 C 
BRANCH  18  23
ATOM     23  C   UNL     1      17.313  30.288  21.801  1.00  0.00     0.191 C 
BRANCH  23  24
ATOM     24  O   UNL     1      18.182  29.209  21.520  1.00  0.00    -0.394 OA
ATOM     25  H   UNL     1      18.235  28.579  22.271  1.00  0.00     0.210 HD
ENDBRANCH  23  24
ENDBRANCH  18  23
BRANCH  20  26
ATOM     26  O   UNL     1      13.108  31.523  23.174  1.00  0.00    -0.350 OA
BRANCH  26  27
ATOM     27  C   UNL     1      12.819  31.633  24.510  1.00  0.00     0.169 C 
BRANCH  27  28
ATOM     28  C   UNL     1      13.716  32.672  25.105  1.00  0.00     0.119 C 
BRANCH  28  29
ATOM     29  N   UNL     1      14.433  32.176  26.273  1.00  0.00    -0.092 NA
ATOM     30  N   UNL     1      13.809  32.265  27.345  1.00  0.00     0.001 N 
ATOM     31  N   UNL     1      13.486  32.278  28.527  1.00  0.00    -0.003 NA
ENDBRANCH  28  29
ENDBRANCH  27  28
ENDBRANCH  26  27
ENDBRANCH  20  26
BRANCH  21  32
ATOM     32  O   UNL     1      13.875  31.554  20.544  1.00  0.00    -0.387 OA
ATOM     33  H   UNL     1      14.023  31.810  21.493  1.00  0.00     0.211 HD
ENDBRANCH  21  32
BRANCH  22  34
ATOM     34  O   UNL     1      13.472  28.252  21.892  1.00  0.00    -0.385 OA
ATOM     35  H   UNL     1      14.307  27.903  21.486  1.00  0.00     0.211 HD
ENDBRANCH  22  34
ENDBRANCH  16  17
ENDBRANCH  11  16
BRANCH  13  36
ATOM     36  O   UNL     1      14.309  29.206  17.303  1.00  0.00    -0.385 OA
ATOM     37  H   UNL     1      14.248  28.366  16.780  1.00  0.00     0.211 HD
ENDBRANCH  13  36
BRANCH  14  38
ATOM     38  O   UNL     1      15.998  30.223  15.424  1.00  0.00    -0.387 OA
ATOM     39  H   UNL     1      15.251  29.821  14.879  1.00  0.00     0.211 HD
ENDBRANCH  14  38
BRANCH  15  40
ATOM     40  O   UNL     1      18.197  30.791  17.027  1.00  0.00    -0.387 OA
ATOM     41  H   UNL     1      17.937  31.428  16.313  1.00  0.00     0.211 HD
ENDBRANCH  15  40
ENDBRANCH   9  10
ENDBRANCH   8   9
ENDBRANCH   3   8
BRANCH   3  42
ATOM     42  C   UNL     1      21.858  28.644  20.466  1.00  0.00     0.364 C 
ATOM     43  O   UNL     1      23.059  29.047  20.319  1.00  0.00    -0.246 OA
BRANCH  42  44
ATOM     44  O   UNL     1      21.170  29.294  21.471  1.00  0.00    -0.477 OA
ATOM     45  H   UNL     1      20.174  29.173  21.636  1.00  0.00     0.296 HD
ENDBRANCH  42  44
ENDBRANCH   3  42
BRANCH   6  46
ATOM     46  O   UNL     1      22.709  25.224  17.558  1.00  0.00    -0.391 OA
ATOM     47  H   UNL     1      23.240  24.405  17.611  1.00  0.00     0.211 HD
ENDBRANCH   6  46
BRANCH   7  48
ATOM     48  N   UNL     1      24.654  26.153  20.231  1.00  0.00    -0.348 N 
ATOM     49  C   UNL     1      25.769  25.381  20.571  1.00  0.00     0.217 C 
ATOM     50  H   UNL     1      24.796  27.223  20.277  1.00  0.00     0.163 HD
ATOM     51  C   UNL     1      27.053  26.020  21.030  1.00  0.00     0.114 C 
ATOM     52  O   UNL     1      25.751  24.121  20.512  1.00  0.00    -0.275 OA
ENDBRANCH   7  48
ENDBRANCH   1   2
BRANCH   1  53
ATOM     53  O   UNL     1      22.993  23.624  21.321  1.00  0.00    -0.388 OA
ATOM     54  H   UNL     1      22.610  22.730  21.367  1.00  0.00     0.211 HD
ENDBRANCH   1  53
BRANCH   1  55
ATOM     55  C   UNL     1      21.704  24.721  22.943  1.00  0.00     0.165 C 
BRANCH  55  56
ATOM     56  O   UNL     1      20.432  25.085  23.311  1.00  0.00    -0.388 OA
ATOM     57  H   UNL     1      20.356  25.358  24.263  1.00  0.00     0.211 HD
ENDBRANCH  55  56
BRANCH  55  58
ATOM     58  C   UNL     1      22.735  25.530  23.667  1.00  0.00     0.154 C 
BRANCH  58  59
ATOM     59  N   UNL     1      22.677  25.338  25.091  1.00  0.00    -0.319 N 
ATOM     60  C   UNL     1      23.828  24.741  25.733  1.00  0.00     0.407 C 
ATOM     61  H   UNL     1      21.872  25.597  25.683  1.00  0.00     0.167 HD
ATOM     62  O   UNL     1      24.803  24.457  24.992  1.00  0.00    -0.225 OA
BRANCH  60  63
ATOM     63  O   UNL     1      23.836  24.502  27.083  1.00  0.00    -0.443 OA
BRANCH  63  64
ATOM     64  C   UNL     1      24.235  25.510  27.982  1.00  0.00     0.294 C 
BRANCH  64  65
ATOM     65  C   UNL     1      23.152  26.487  28.196  1.00  0.00     0.120 A 
ATOM     66  C   UNL     1      23.250  27.869  28.177  1.00  0.00     0.138 A 
ATOM     67  N   UNL     1      21.871  26.228  28.414  1.00  0.00    -0.132 NA
ATOM     68  N   UNL     1      22.045  28.404  28.379  1.00  0.00    -0.251 N 
ATOM     69  N   UNL     1      21.200  27.382  28.525  1.00  0.00    -0.067 NA
BRANCH  68  70
ATOM     70  C   UNL     1      21.723  29.820  28.438  1.00  0.00     0.162 C 
BRANCH  70  71
ATOM     71  C   UNL     1      21.372  30.327  27.040  1.00  0.00     0.122 C 
BRANCH  71  72
ATOM     72  N   UNL     1      20.240  29.621  26.512  1.00  0.00    -0.214 NA
ATOM     73  H   UNL     1      19.494  30.319  26.249  1.00  0.00     0.141 HD
BRANCH  72  74
ATOM     74  S   UNL     1      20.609  28.728  25.089  1.00  0.00     0.208 S 
ATOM     75  O   UNL     1      20.275  27.260  25.297  1.00  0.00    -0.213 OA
ATOM     76  O   UNL     1      19.707  29.274  23.999  1.00  0.00    -0.213 OA
ATOM     77  C   UNL     1      22.304  28.928  24.634  1.00  0.00     0.176 C 
ENDBRANCH  72  74
ENDBRANCH  71  72
ENDBRANCH  70  71
ENDBRANCH  68  70
ENDBRANCH  64  65
ENDBRANCH  63  64
ENDBRANCH  60  63
ENDBRANCH  58  59
ENDBRANCH  55  58
ENDBRANCH   1  55
TORSDOF 33
