REMARK VINA RESULT:    -5.606     12.805     17.887
REMARK INTER + INTRA:         -20.397
REMARK INTER:                 -12.350
REMARK INTRA:                  -8.047
REMARK UNBOUND:                -6.597
REMARK SMILES CC(=O)N[C@@H]1[C@@H](O)C[C@](OC[C@H]2O[C@@H](O[C@H]3[C@H](O)[C@@H](O)[C@H](OCCN=[N+]=[N-])O[C@@H]3CO)[C@H](O)[C@@H](O)[C@H]2O)(C(=O)O)O[C@H]1C(O)[C@H](O)CNC(=O)OCc1cn(-c2ccccc2)nn1
REMARK SMILES IDX 9 1 8 2 6 3 5 4 42 5 41 6 10 7 11 8 12 9 14 10 13 11 32 12
REMARK SMILES IDX 34 13 36 14 15 15 16 16 29 17 28 18 21 19 17 20 19 21 30 22
REMARK SMILES IDX 31 23 22 25 23 26 24 27 25 28 26 29 27 30 18 31 20 33 33 35
REMARK SMILES IDX 35 37 37 39 38 41 39 42 40 43 7 45 43 47 44 48 45 50 46 51
REMARK SMILES IDX 47 53 48 54 49 55 50 57 51 58 52 59 53 60 54 61 63 62 55 63
REMARK SMILES IDX 62 64 56 65 57 66 61 67 58 68 60 69 59 70 4 71 2 72 1 74
REMARK SMILES IDX 3 75
REMARK H PARENT 31 24 18 32 20 34 33 36 35 38 37 40 40 44 7 46 44 49 46 52
REMARK H PARENT 48 56 4 73
REMARK Flexibility Score: inf
ROOT
ATOM      1  C   UNL     1       3.077  21.778  32.374  1.00  0.00     0.272 C 
ATOM      2  C   UNL     1       2.650  21.675  33.791  1.00  0.00     0.113 C 
ATOM      3  C   UNL     1       3.216  22.702  34.699  1.00  0.00     0.145 C 
ATOM      4  C   UNL     1       3.218  24.063  34.028  1.00  0.00     0.142 C 
ATOM      5  C   UNL     1       4.030  23.905  32.762  1.00  0.00     0.178 C 
ATOM      6  O   UNL     1       3.270  23.123  31.932  1.00  0.00    -0.332 OA
ENDROOT
BRANCH   1   7
ATOM      7  O   UNL     1       2.182  21.310  31.457  1.00  0.00    -0.338 OA
BRANCH   7   8
ATOM      8  C   UNL     1       1.143  21.987  31.007  1.00  0.00     0.199 C 
BRANCH   8   9
ATOM      9  C   UNL     1       0.829  22.138  29.570  1.00  0.00     0.179 C 
ATOM     10  C   UNL     1       0.835  23.804  27.935  1.00  0.00     0.282 C 
ATOM     11  O   UNL     1       0.907  23.546  29.321  1.00  0.00    -0.341 OA
ATOM     12  C   UNL     1       0.512  22.607  27.104  1.00  0.00     0.202 C 
ATOM     13  C   UNL     1       1.531  21.506  27.305  1.00  0.00     0.179 C 
ATOM     14  C   UNL     1       1.965  21.525  28.742  1.00  0.00     0.177 C 
BRANCH  10  15
ATOM     15  O   UNL     1       2.025  24.303  27.549  1.00  0.00    -0.341 OA
BRANCH  15  16
ATOM     16  C   UNL     1       2.181  24.978  26.394  1.00  0.00     0.184 C 
ATOM     17  C   UNL     1       3.429  25.824  26.304  1.00  0.00     0.178 C 
ATOM     18  O   UNL     1       3.140  26.824  25.355  1.00  0.00    -0.341 OA
ATOM     19  C   UNL     1       2.438  27.817  26.073  1.00  0.00     0.281 C 
ATOM     20  C   UNL     1       0.981  25.861  26.052  1.00  0.00     0.180 C 
ATOM     21  C   UNL     1       1.163  27.240  26.652  1.00  0.00     0.202 C 
BRANCH  17  22
ATOM     22  C   UNL     1       4.616  25.049  25.774  1.00  0.00     0.191 C 
BRANCH  22  23
ATOM     23  O   UNL     1       4.644  23.802  26.403  1.00  0.00    -0.394 OA
ATOM     24  H   UNL     1       5.395  23.749  27.075  1.00  0.00     0.210 HD
ENDBRANCH  22  23
ENDBRANCH  17  22
BRANCH  19  25
ATOM     25  O   UNL     1       2.122  28.890  25.297  1.00  0.00    -0.350 OA
BRANCH  25  26
ATOM     26  C   UNL     1       1.216  29.789  25.788  1.00  0.00     0.169 C 
BRANCH  26  27
ATOM     27  C   UNL     1       1.764  31.146  26.093  1.00  0.00     0.119 C 
BRANCH  27  28
ATOM     28  N   UNL     1       2.497  31.166  27.305  1.00  0.00    -0.092 NA
ATOM     29  N   UNL     1       2.144  30.509  28.301  1.00  0.00     0.001 N 
ATOM     30  N   UNL     1       1.482  30.081  29.260  1.00  0.00    -0.003 NA
ENDBRANCH  27  28
ENDBRANCH  26  27
ENDBRANCH  25  26
ENDBRANCH  19  25
BRANCH  20  31
ATOM     31  O   UNL     1       0.804  26.031  24.686  1.00  0.00    -0.387 OA
ATOM     32  H   UNL     1       0.658  25.168  24.228  1.00  0.00     0.211 HD
ENDBRANCH  20  31
BRANCH  21  33
ATOM     33  O   UNL     1       1.214  27.216  28.031  1.00  0.00    -0.385 OA
ATOM     34  H   UNL     1       0.343  27.373  28.461  1.00  0.00     0.211 HD
ENDBRANCH  21  33
ENDBRANCH  15  16
ENDBRANCH  10  15
BRANCH  12  35
ATOM     35  O   UNL     1      -0.804  22.173  27.193  1.00  0.00    -0.385 OA
ATOM     36  H   UNL     1      -0.812  21.370  27.776  1.00  0.00     0.211 HD
ENDBRANCH  12  35
BRANCH  13  37
ATOM     37  O   UNL     1       2.629  21.766  26.507  1.00  0.00    -0.387 OA
ATOM     38  H   UNL     1       2.410  21.939  25.557  1.00  0.00     0.211 HD
ENDBRANCH  13  37
BRANCH  14  39
ATOM     39  O   UNL     1       3.072  22.387  28.925  1.00  0.00    -0.387 OA
ATOM     40  H   UNL     1       3.865  22.051  28.460  1.00  0.00     0.211 HD
ENDBRANCH  14  39
ENDBRANCH   8   9
ENDBRANCH   7   8
ENDBRANCH   1   7
BRANCH   1  41
ATOM     41  C   UNL     1       4.435  21.209  32.215  1.00  0.00     0.364 C 
ATOM     42  O   UNL     1       5.166  20.989  33.180  1.00  0.00    -0.246 OA
BRANCH  41  43
ATOM     43  O   UNL     1       4.928  20.906  30.929  1.00  0.00    -0.477 OA
ATOM     44  H   UNL     1       4.415  20.232  30.364  1.00  0.00     0.296 HD
ENDBRANCH  41  43
ENDBRANCH   1  41
BRANCH   3  45
ATOM     45  O   UNL     1       2.496  22.721  35.891  1.00  0.00    -0.391 OA
ATOM     46  H   UNL     1       2.914  23.383  36.468  1.00  0.00     0.211 HD
ENDBRANCH   3  45
BRANCH   5  47
ATOM     47  C   UNL     1       4.208  25.243  32.053  1.00  0.00     0.176 C 
BRANCH  47  48
ATOM     48  O   UNL     1       5.440  25.240  31.456  1.00  0.00    -0.388 OA
ATOM     49  H   UNL     1       5.558  25.919  30.756  1.00  0.00     0.211 HD
ENDBRANCH  47  48
BRANCH  47  50
ATOM     50  C   UNL     1       3.127  25.630  31.132  1.00  0.00     0.165 C 
BRANCH  50  51
ATOM     51  O   UNL     1       3.341  24.881  29.932  1.00  0.00    -0.388 OA
ATOM     52  H   UNL     1       4.057  24.251  30.132  1.00  0.00     0.211 HD
ENDBRANCH  50  51
BRANCH  50  53
ATOM     53  C   UNL     1       3.265  27.088  30.663  1.00  0.00     0.154 C 
BRANCH  53  54
ATOM     54  N   UNL     1       3.900  27.182  29.372  1.00  0.00    -0.319 N 
ATOM     55  C   UNL     1       4.854  28.216  29.075  1.00  0.00     0.407 C 
ATOM     56  H   UNL     1       3.710  26.517  28.594  1.00  0.00     0.167 HD
ATOM     57  O   UNL     1       5.173  29.063  29.940  1.00  0.00    -0.225 OA
BRANCH  55  58
ATOM     58  O   UNL     1       5.447  28.298  27.828  1.00  0.00    -0.443 OA
BRANCH  58  59
ATOM     59  C   UNL     1       5.597  29.547  27.161  1.00  0.00     0.294 C 
BRANCH  59  60
ATOM     60  C   UNL     1       5.937  29.207  25.748  1.00  0.00     0.121 A 
ATOM     61  C   UNL     1       5.527  29.967  24.661  1.00  0.00     0.144 A 
ATOM     62  N   UNL     1       6.645  28.198  25.234  1.00  0.00    -0.131 NA
ATOM     63  N   UNL     1       5.997  29.397  23.521  1.00  0.00    -0.220 N 
ATOM     64  N   UNL     1       6.666  28.334  23.905  1.00  0.00    -0.062 NA
BRANCH  63  65
ATOM     65  C   UNL     1       5.797  29.859  22.195  1.00  0.00     0.066 A 
ATOM     66  C   UNL     1       5.665  31.197  21.905  1.00  0.00     0.028 A 
ATOM     67  C   UNL     1       5.738  28.959  21.154  1.00  0.00     0.028 A 
ATOM     68  C   UNL     1       5.477  31.654  20.618  1.00  0.00     0.002 A 
ATOM     69  C   UNL     1       5.549  29.422  19.861  1.00  0.00     0.002 A 
ATOM     70  C   UNL     1       5.414  30.754  19.553  1.00  0.00     0.000 A 
ENDBRANCH  63  65
ENDBRANCH  59  60
ENDBRANCH  58  59
ENDBRANCH  55  58
ENDBRANCH  53  54
ENDBRANCH  50  53
ENDBRANCH  47  50
ENDBRANCH   5  47
BRANCH   4  71
ATOM     71  N   UNL     1       3.623  25.095  34.914  1.00  0.00    -0.348 N 
ATOM     72  C   UNL     1       2.743  26.181  35.160  1.00  0.00     0.217 C 
ATOM     73  H   UNL     1       4.536  25.081  35.405  1.00  0.00     0.163 HD
ATOM     74  C   UNL     1       3.144  27.281  36.089  1.00  0.00     0.114 C 
ATOM     75  O   UNL     1       1.601  26.268  34.615  1.00  0.00    -0.275 OA
ENDBRANCH   4  71
TORSDOF 30
