REMARK VINA RESULT:    -6.103      2.400      5.965
REMARK INTER + INTRA:         -25.949
REMARK INTER:                 -16.423
REMARK INTRA:                  -9.526
REMARK UNBOUND:                -8.963
REMARK SMILES CC(=O)N[C@@H]1[C@@H](O)C[C@](OC[C@H]2O[C@@H](O[C@H]3[C@H](O)[C@@H](O)[C@H](OCCN=[N+]=[N-])O[C@@H]3CO)[C@H](O)[C@@H](O)[C@H]2O)(C(=O)O)O[C@H]1C(O)[C@H](O)CNC(=O)OCc1cn(C[C@@H](C(=O)O)C(c2ccccc2)c2ccccc2)nn1
REMARK SMILES IDX 43 1 42 2 9 3 8 4 41 5 6 6 5 7 10 8 11 9 12 10 14 11 13 12
REMARK SMILES IDX 32 13 34 14 36 15 15 16 16 17 29 18 28 19 21 20 17 21 19 22
REMARK SMILES IDX 30 23 31 24 22 26 23 27 24 28 25 29 26 30 27 31 18 32 20 34
REMARK SMILES IDX 33 36 35 38 37 40 38 42 39 43 40 44 7 46 4 48 2 49 1 51 3 52
REMARK SMILES IDX 44 53 45 55 46 56 47 58 48 59 49 60 50 62 51 63 52 64 53 65
REMARK SMILES IDX 54 66 75 67 55 68 74 69 56 70 57 71 58 72 59 73 60 74 61 76
REMARK SMILES IDX 62 77 63 78 67 79 64 80 66 81 65 82 68 83 69 84 73 85 70 86
REMARK SMILES IDX 72 87 71 88
REMARK H PARENT 31 25 18 33 20 35 33 37 35 39 37 41 40 45 7 47 4 50 44 54
REMARK H PARENT 46 57 48 61 60 75
REMARK Flexibility Score: inf
ROOT
ATOM      1  C   UNL     1      19.670  30.742  23.101  1.00  0.00     0.176 C 
ENDROOT
BRANCH   1   2
ATOM      2  C   UNL     1      20.161  30.959  24.549  1.00  0.00     0.178 C 
ATOM      3  C   UNL     1      21.622  30.371  26.241  1.00  0.00     0.272 C 
ATOM      4  C   UNL     1      20.862  31.617  26.805  1.00  0.00     0.113 C 
ATOM      5  O   UNL     1      21.121  30.106  24.953  1.00  0.00    -0.332 OA
ATOM      6  C   UNL     1      19.384  31.429  26.778  1.00  0.00     0.145 C 
ATOM      7  C   UNL     1      18.926  31.019  25.416  1.00  0.00     0.142 C 
BRANCH   3   8
ATOM      8  O   UNL     1      21.529  29.421  27.111  1.00  0.00    -0.338 OA
BRANCH   8   9
ATOM      9  C   UNL     1      21.918  29.105  28.283  1.00  0.00     0.199 C 
BRANCH   9  10
ATOM     10  C   UNL     1      22.313  27.721  28.724  1.00  0.00     0.179 C 
ATOM     11  C   UNL     1      22.565  25.660  27.577  1.00  0.00     0.282 C 
ATOM     12  O   UNL     1      21.889  26.792  27.824  1.00  0.00    -0.341 OA
ATOM     13  C   UNL     1      23.747  25.306  28.393  1.00  0.00     0.202 C 
ATOM     14  C   UNL     1      24.233  26.378  29.325  1.00  0.00     0.179 C 
ATOM     15  C   UNL     1      23.858  27.683  28.701  1.00  0.00     0.177 C 
BRANCH  11  16
ATOM     16  O   UNL     1      23.032  25.796  26.237  1.00  0.00    -0.341 OA
BRANCH  16  17
ATOM     17  C   UNL     1      22.032  25.994  25.328  1.00  0.00     0.184 C 
ATOM     18  C   UNL     1      22.046  24.862  24.340  1.00  0.00     0.178 C 
ATOM     19  O   UNL     1      22.929  25.079  23.289  1.00  0.00    -0.341 OA
ATOM     20  C   UNL     1      24.003  25.916  23.624  1.00  0.00     0.281 C 
ATOM     21  C   UNL     1      22.205  27.288  24.544  1.00  0.00     0.180 C 
ATOM     22  C   UNL     1      23.568  27.318  23.882  1.00  0.00     0.202 C 
BRANCH  18  23
ATOM     23  C   UNL     1      20.696  24.511  23.781  1.00  0.00     0.191 C 
BRANCH  23  24
ATOM     24  O   UNL     1      20.539  24.891  22.463  1.00  0.00    -0.394 OA
ATOM     25  H   UNL     1      19.564  24.785  22.246  1.00  0.00     0.210 HD
ENDBRANCH  23  24
ENDBRANCH  18  23
BRANCH  20  26
ATOM     26  O   UNL     1      24.885  25.924  22.568  1.00  0.00    -0.350 OA
BRANCH  26  27
ATOM     27  C   UNL     1      24.393  26.283  21.352  1.00  0.00     0.169 C 
BRANCH  27  28
ATOM     28  C   UNL     1      24.244  25.157  20.381  1.00  0.00     0.119 C 
BRANCH  28  29
ATOM     29  N   UNL     1      22.901  25.305  19.787  1.00  0.00    -0.092 NA
ATOM     30  N   UNL     1      22.772  24.949  18.612  1.00  0.00     0.001 N 
ATOM     31  N   UNL     1      22.660  24.737  17.407  1.00  0.00    -0.003 NA
ENDBRANCH  28  29
ENDBRANCH  27  28
ENDBRANCH  26  27
ENDBRANCH  20  26
BRANCH  21  32
ATOM     32  O   UNL     1      21.249  27.284  23.532  1.00  0.00    -0.387 OA
ATOM     33  H   UNL     1      20.720  28.114  23.499  1.00  0.00     0.211 HD
ENDBRANCH  21  32
BRANCH  22  34
ATOM     34  O   UNL     1      24.490  27.941  24.714  1.00  0.00    -0.385 OA
ATOM     35  H   UNL     1      25.161  28.395  24.113  1.00  0.00     0.211 HD
ENDBRANCH  22  34
ENDBRANCH  16  17
ENDBRANCH  11  16
BRANCH  13  36
ATOM     36  O   UNL     1      23.458  24.187  29.212  1.00  0.00    -0.385 OA
ATOM     37  H   UNL     1      24.084  23.437  29.003  1.00  0.00     0.211 HD
ENDBRANCH  13  36
BRANCH  14  38
ATOM     38  O   UNL     1      25.600  26.282  29.488  1.00  0.00    -0.387 OA
ATOM     39  H   UNL     1      25.813  26.310  30.458  1.00  0.00     0.211 HD
ENDBRANCH  14  38
BRANCH  15  40
ATOM     40  O   UNL     1      24.331  27.712  27.396  1.00  0.00    -0.387 OA
ATOM     41  H   UNL     1      23.569  27.582  26.794  1.00  0.00     0.211 HD
ENDBRANCH  15  40
ENDBRANCH   9  10
ENDBRANCH   8   9
ENDBRANCH   3   8
BRANCH   3  42
ATOM     42  C   UNL     1      22.976  30.914  26.012  1.00  0.00     0.364 C 
ATOM     43  O   UNL     1      24.043  30.324  26.277  1.00  0.00    -0.246 OA
BRANCH  42  44
ATOM     44  O   UNL     1      23.116  32.201  25.450  1.00  0.00    -0.477 OA
ATOM     45  H   UNL     1      22.687  32.960  25.934  1.00  0.00     0.296 HD
ENDBRANCH  42  44
ENDBRANCH   3  42
BRANCH   6  46
ATOM     46  O   UNL     1      18.944  30.522  27.753  1.00  0.00    -0.391 OA
ATOM     47  H   UNL     1      18.144  30.849  28.228  1.00  0.00     0.211 HD
ENDBRANCH   6  46
BRANCH   7  48
ATOM     48  N   UNL     1      18.051  32.036  24.880  1.00  0.00    -0.348 N 
ATOM     49  C   UNL     1      16.655  31.823  24.769  1.00  0.00     0.217 C 
ATOM     50  H   UNL     1      18.475  32.956  24.569  1.00  0.00     0.163 HD
ATOM     51  C   UNL     1      15.739  32.878  24.213  1.00  0.00     0.114 C 
ATOM     52  O   UNL     1      16.208  30.712  25.154  1.00  0.00    -0.275 OA
ENDBRANCH   7  48
ENDBRANCH   1   2
BRANCH   1  53
ATOM     53  O   UNL     1      19.279  29.446  22.905  1.00  0.00    -0.388 OA
ATOM     54  H   UNL     1      18.420  29.213  23.326  1.00  0.00     0.211 HD
ENDBRANCH   1  53
BRANCH   1  55
ATOM     55  C   UNL     1      20.722  31.115  22.131  1.00  0.00     0.165 C 
BRANCH  55  56
ATOM     56  O   UNL     1      20.299  32.080  21.193  1.00  0.00    -0.388 OA
ATOM     57  H   UNL     1      21.058  32.129  20.532  1.00  0.00     0.211 HD
ENDBRANCH  55  56
BRANCH  55  58
ATOM     58  C   UNL     1      21.515  30.075  21.433  1.00  0.00     0.154 C 
BRANCH  58  59
ATOM     59  N   UNL     1      20.967  29.542  20.241  1.00  0.00    -0.319 N 
ATOM     60  C   UNL     1      20.410  28.256  20.071  1.00  0.00     0.407 C 
ATOM     61  H   UNL     1      20.969  30.187  19.358  1.00  0.00     0.167 HD
ATOM     62  O   UNL     1      20.379  27.407  20.978  1.00  0.00    -0.225 OA
BRANCH  60  63
ATOM     63  O   UNL     1      19.875  27.940  18.840  1.00  0.00    -0.443 OA
BRANCH  63  64
ATOM     64  C   UNL     1      18.763  28.587  18.328  1.00  0.00     0.294 C 
BRANCH  64  65
ATOM     65  C   UNL     1      17.670  28.789  19.289  1.00  0.00     0.120 A 
ATOM     66  C   UNL     1      17.083  29.957  19.713  1.00  0.00     0.138 A 
ATOM     67  N   UNL     1      17.029  27.806  19.995  1.00  0.00    -0.132 NA
ATOM     68  N   UNL     1      16.144  29.678  20.624  1.00  0.00    -0.251 N 
ATOM     69  N   UNL     1      16.133  28.367  20.775  1.00  0.00    -0.067 NA
BRANCH  68  70
ATOM     70  C   UNL     1      15.263  30.615  21.347  1.00  0.00     0.162 C 
BRANCH  70  71
ATOM     71  C   UNL     1      13.856  30.457  20.872  1.00  0.00     0.132 C 
BRANCH  71  72
ATOM     72  C   UNL     1      13.041  29.696  21.866  1.00  0.00     0.309 C 
ATOM     73  O   UNL     1      12.190  30.232  22.595  1.00  0.00    -0.252 OA
BRANCH  72  74
ATOM     74  O   UNL     1      13.228  28.330  21.992  1.00  0.00    -0.481 OA
ATOM     75  H   UNL     1      14.178  27.950  21.998  1.00  0.00     0.296 HD
ENDBRANCH  72  74
ENDBRANCH  71  72
BRANCH  71  76
ATOM     76  C   UNL     1      13.154  31.655  20.351  1.00  0.00     0.065 C 
BRANCH  76  77
ATOM     77  C   UNL     1      13.608  32.967  20.813  1.00  0.00    -0.040 A 
ATOM     78  C   UNL     1      12.931  33.647  21.837  1.00  0.00     0.004 A 
ATOM     79  C   UNL     1      14.714  33.637  20.285  1.00  0.00     0.004 A 
ATOM     80  C   UNL     1      13.312  34.868  22.295  1.00  0.00     0.000 A 
ATOM     81  C   UNL     1      15.090  34.872  20.754  1.00  0.00     0.000 A 
ATOM     82  C   UNL     1      14.393  35.502  21.765  1.00  0.00     0.000 A 
ENDBRANCH  76  77
BRANCH  76  83
ATOM     83  C   UNL     1      12.837  31.578  18.900  1.00  0.00    -0.040 A 
ATOM     84  C   UNL     1      11.853  32.424  18.434  1.00  0.00     0.004 A 
ATOM     85  C   UNL     1      13.481  30.726  18.044  1.00  0.00     0.004 A 
ATOM     86  C   UNL     1      11.503  32.431  17.113  1.00  0.00     0.000 A 
ATOM     87  C   UNL     1      13.115  30.744  16.701  1.00  0.00     0.000 A 
ATOM     88  C   UNL     1      12.134  31.586  16.229  1.00  0.00     0.000 A 
ENDBRANCH  76  83
ENDBRANCH  71  76
ENDBRANCH  70  71
ENDBRANCH  68  70
ENDBRANCH  64  65
ENDBRANCH  63  64
ENDBRANCH  60  63
ENDBRANCH  58  59
ENDBRANCH  55  58
ENDBRANCH   1  55
TORSDOF 36
