REMARK VINA RESULT:    -6.585      1.721      1.989
REMARK INTER + INTRA:         -22.066
REMARK INTER:                 -14.626
REMARK INTRA:                  -7.441
REMARK UNBOUND:                -5.087
REMARK SMILES CC(=O)N[C@@H]1[C@@H](O)C[C@](OC[C@H]2O[C@@H](O[C@H]3[C@H](O)[C@@H](O)[C@H](OCCN=[N+]=[N-])O[C@@H]3CO)[C@H](O)[C@@H](O)[C@H]2O)(C(=O)O)O[C@H]1C(O)[C@H](O)CNC(=O)OCc1cn(CS(=O)(=O)c2ccccc2)nn1
REMARK SMILES IDX 9 1 8 2 6 3 5 4 42 5 41 6 10 7 11 8 12 9 14 10 13 11 32 12
REMARK SMILES IDX 34 13 36 14 15 15 16 16 29 17 28 18 21 19 17 20 19 21 30 22
REMARK SMILES IDX 31 23 22 25 23 26 24 27 25 28 26 29 27 30 18 31 20 33 33 35
REMARK SMILES IDX 35 37 37 39 38 41 39 42 40 43 7 45 43 47 44 48 45 50 46 51
REMARK SMILES IDX 47 53 48 54 49 55 50 57 51 58 52 59 53 60 54 61 67 62 55 63
REMARK SMILES IDX 66 64 56 65 57 66 58 67 59 68 60 69 61 70 65 71 62 72 64 73
REMARK SMILES IDX 63 74 4 75 2 76 1 78 3 79
REMARK H PARENT 31 24 18 32 20 34 33 36 35 38 37 40 40 44 7 46 44 49 46 52
REMARK H PARENT 48 56 4 77
REMARK Flexibility Score: inf
ROOT
ATOM      1  C   UNL     1      15.641  30.456  19.930  1.00  0.00     0.272 C 
ATOM      2  C   UNL     1      15.001  29.150  19.687  1.00  0.00     0.113 C 
ATOM      3  C   UNL     1      15.947  28.037  19.284  1.00  0.00     0.145 C 
ATOM      4  C   UNL     1      16.779  28.566  18.168  1.00  0.00     0.142 C 
ATOM      5  C   UNL     1      17.395  29.904  18.465  1.00  0.00     0.178 C 
ATOM      6  O   UNL     1      16.603  30.846  19.012  1.00  0.00    -0.332 OA
ENDROOT
BRANCH   1   7
ATOM      7  O   UNL     1      16.047  30.640  21.235  1.00  0.00    -0.338 OA
BRANCH   7   8
ATOM      8  C   UNL     1      15.187  30.263  22.215  1.00  0.00     0.199 C 
BRANCH   8   9
ATOM      9  C   UNL     1      15.949  29.627  23.397  1.00  0.00     0.179 C 
ATOM     10  C   UNL     1      18.100  30.512  23.833  1.00  0.00     0.282 C 
ATOM     11  O   UNL     1      17.257  29.706  23.122  1.00  0.00    -0.341 OA
ATOM     12  C   UNL     1      17.414  31.722  24.344  1.00  0.00     0.202 C 
ATOM     13  C   UNL     1      16.164  31.386  25.099  1.00  0.00     0.179 C 
ATOM     14  C   UNL     1      15.528  30.110  24.723  1.00  0.00     0.177 C 
BRANCH  10  15
ATOM     15  O   UNL     1      19.144  30.817  22.944  1.00  0.00    -0.341 OA
BRANCH  15  16
ATOM     16  C   UNL     1      20.403  30.661  23.414  1.00  0.00     0.184 C 
ATOM     17  C   UNL     1      21.345  31.718  22.917  1.00  0.00     0.178 C 
ATOM     18  O   UNL     1      22.442  31.728  23.773  1.00  0.00    -0.341 OA
ATOM     19  C   UNL     1      22.971  30.499  24.056  1.00  0.00     0.281 C 
ATOM     20  C   UNL     1      21.040  29.349  22.893  1.00  0.00     0.180 C 
ATOM     21  C   UNL     1      22.478  29.371  23.236  1.00  0.00     0.202 C 
BRANCH  17  22
ATOM     22  C   UNL     1      20.793  33.097  22.829  1.00  0.00     0.191 C 
BRANCH  22  23
ATOM     23  O   UNL     1      20.420  33.525  24.098  1.00  0.00    -0.394 OA
ATOM     24  H   UNL     1      19.977  34.403  24.039  1.00  0.00     0.210 HD
ENDBRANCH  22  23
ENDBRANCH  17  22
BRANCH  19  25
ATOM     25  O   UNL     1      22.692  30.243  25.395  1.00  0.00    -0.350 OA
BRANCH  25  26
ATOM     26  C   UNL     1      23.387  29.101  25.858  1.00  0.00     0.169 C 
BRANCH  26  27
ATOM     27  C   UNL     1      22.899  28.755  27.247  1.00  0.00     0.119 C 
BRANCH  27  28
ATOM     28  N   UNL     1      21.635  28.038  27.105  1.00  0.00    -0.092 NA
ATOM     29  N   UNL     1      21.138  27.533  28.132  1.00  0.00     0.001 N 
ATOM     30  N   UNL     1      20.838  26.842  29.123  1.00  0.00    -0.003 NA
ENDBRANCH  27  28
ENDBRANCH  26  27
ENDBRANCH  25  26
ENDBRANCH  19  25
BRANCH  20  31
ATOM     31  O   UNL     1      20.417  28.253  23.468  1.00  0.00    -0.387 OA
ATOM     32  H   UNL     1      19.678  27.973  22.870  1.00  0.00     0.211 HD
ENDBRANCH  20  31
BRANCH  21  33
ATOM     33  O   UNL     1      23.207  29.397  22.020  1.00  0.00    -0.385 OA
ATOM     34  H   UNL     1      24.113  29.752  22.136  1.00  0.00     0.211 HD
ENDBRANCH  21  33
ENDBRANCH  15  16
ENDBRANCH  10  15
BRANCH  12  35
ATOM     35  O   UNL     1      18.226  32.404  25.305  1.00  0.00    -0.385 OA
ATOM     36  H   UNL     1      18.791  33.012  24.771  1.00  0.00     0.211 HD
ENDBRANCH  12  35
BRANCH  13  37
ATOM     37  O   UNL     1      15.237  32.456  25.031  1.00  0.00    -0.387 OA
ATOM     38  H   UNL     1      14.309  32.091  25.097  1.00  0.00     0.211 HD
ENDBRANCH  13  37
BRANCH  14  39
ATOM     39  O   UNL     1      14.130  30.239  24.833  1.00  0.00    -0.387 OA
ATOM     40  H   UNL     1      13.730  29.876  24.002  1.00  0.00     0.211 HD
ENDBRANCH  14  39
ENDBRANCH   8   9
ENDBRANCH   7   8
ENDBRANCH   1   7
BRANCH   1  41
ATOM     41  C   UNL     1      14.550  31.484  19.678  1.00  0.00     0.364 C 
ATOM     42  O   UNL     1      14.863  32.685  19.713  1.00  0.00    -0.246 OA
BRANCH  41  43
ATOM     43  O   UNL     1      13.252  31.078  19.417  1.00  0.00    -0.477 OA
ATOM     44  H   UNL     1      12.468  31.736  19.546  1.00  0.00     0.296 HD
ENDBRANCH  41  43
ENDBRANCH   1  41
BRANCH   3  45
ATOM     45  O   UNL     1      16.644  27.622  20.384  1.00  0.00    -0.391 OA
ATOM     46  H   UNL     1      17.171  28.399  20.720  1.00  0.00     0.211 HD
ENDBRANCH   3  45
BRANCH   5  47
ATOM     47  C   UNL     1      18.754  29.790  19.116  1.00  0.00     0.176 C 
BRANCH  47  48
ATOM     48  O   UNL     1      18.699  29.624  20.498  1.00  0.00    -0.388 OA
ATOM     49  H   UNL     1      18.867  30.428  21.010  1.00  0.00     0.211 HD
ENDBRANCH  47  48
BRANCH  47  50
ATOM     50  C   UNL     1      19.606  28.685  18.511  1.00  0.00     0.165 C 
BRANCH  50  51
ATOM     51  O   UNL     1      20.141  27.840  19.457  1.00  0.00    -0.388 OA
ATOM     52  H   UNL     1      21.096  27.922  19.601  1.00  0.00     0.211 HD
ENDBRANCH  50  51
BRANCH  50  53
ATOM     53  C   UNL     1      20.623  29.155  17.542  1.00  0.00     0.154 C 
BRANCH  53  54
ATOM     54  N   UNL     1      21.903  28.515  17.565  1.00  0.00    -0.319 N 
ATOM     55  C   UNL     1      22.288  27.381  16.815  1.00  0.00     0.407 C 
ATOM     56  H   UNL     1      22.643  28.929  18.212  1.00  0.00     0.167 HD
ATOM     57  O   UNL     1      21.499  26.832  16.023  1.00  0.00    -0.225 OA
BRANCH  55  58
ATOM     58  O   UNL     1      23.572  26.884  16.974  1.00  0.00    -0.443 OA
BRANCH  58  59
ATOM     59  C   UNL     1      23.902  25.526  16.989  1.00  0.00     0.294 C 
BRANCH  59  60
ATOM     60  C   UNL     1      23.479  24.927  18.270  1.00  0.00     0.120 A 
ATOM     61  C   UNL     1      24.231  24.974  19.431  1.00  0.00     0.139 A 
ATOM     62  N   UNL     1      22.363  24.258  18.597  1.00  0.00    -0.132 NA
ATOM     63  N   UNL     1      23.563  24.344  20.415  1.00  0.00    -0.237 N 
ATOM     64  N   UNL     1      22.428  23.919  19.868  1.00  0.00    -0.066 NA
BRANCH  63  65
ATOM     65  C   UNL     1      23.989  24.172  21.775  1.00  0.00     0.287 C 
BRANCH  65  66
ATOM     66  S   UNL     1      23.453  25.631  22.669  1.00  0.00     0.198 S 
ATOM     67  O   UNL     1      22.098  26.044  22.238  1.00  0.00    -0.222 OA
ATOM     68  O   UNL     1      24.483  26.714  22.393  1.00  0.00    -0.222 OA
BRANCH  66  69
ATOM     69  C   UNL     1      23.474  25.235  24.368  1.00  0.00     0.069 A 
ATOM     70  C   UNL     1      24.635  25.256  25.110  1.00  0.00     0.020 A 
ATOM     71  C   UNL     1      22.317  24.884  25.028  1.00  0.00     0.020 A 
ATOM     72  C   UNL     1      24.654  24.944  26.445  1.00  0.00     0.001 A 
ATOM     73  C   UNL     1      22.319  24.569  26.363  1.00  0.00     0.001 A 
ATOM     74  C   UNL     1      23.494  24.600  27.071  1.00  0.00     0.000 A 
ENDBRANCH  66  69
ENDBRANCH  65  66
ENDBRANCH  63  65
ENDBRANCH  59  60
ENDBRANCH  58  59
ENDBRANCH  55  58
ENDBRANCH  53  54
ENDBRANCH  50  53
ENDBRANCH  47  50
ENDBRANCH   5  47
BRANCH   4  75
ATOM     75  N   UNL     1      15.927  28.739  16.997  1.00  0.00    -0.348 N 
ATOM     76  C   UNL     1      16.468  28.810  15.683  1.00  0.00     0.217 C 
ATOM     77  H   UNL     1      14.868  28.822  17.074  1.00  0.00     0.163 HD
ATOM     78  C   UNL     1      15.543  28.991  14.508  1.00  0.00     0.114 C 
ATOM     79  O   UNL     1      17.714  28.723  15.490  1.00  0.00    -0.275 OA
ENDBRANCH   4  75
TORSDOF 32
