REMARK VINA RESULT:    -4.977      2.435      2.978
REMARK INTER + INTRA:         -21.242
REMARK INTER:                 -15.704
REMARK INTRA:                  -5.537
REMARK UNBOUND:                -8.118
REMARK SMILES CC(=O)N[C@@H]1[C@@H](O)C[C@](OC[C@H]2O[C@@H](O[C@H]3[C@H](O)[C@@H](O)[C@H](OCCN=[N+]=[N-])O[C@@H]3CO)[C@H](O)[C@@H](O)[C@H]2O)(C(=O)O)O[C@H]1C(O)[C@H](O)CNC(=O)OCc1cn(CCOC(C)=O)nn1
REMARK SMILES IDX 43 1 42 2 9 3 8 4 41 5 6 6 5 7 10 8 11 9 12 10 14 11 13 12
REMARK SMILES IDX 32 13 34 14 36 15 15 16 16 17 29 18 28 19 21 20 17 21 19 22
REMARK SMILES IDX 30 23 31 24 22 26 23 27 24 28 25 29 26 30 27 31 18 32 20 34
REMARK SMILES IDX 33 36 35 38 37 40 38 42 39 43 40 44 7 46 4 48 2 49 1 51 3 52
REMARK SMILES IDX 44 53 45 55 46 56 47 58 48 59 49 60 50 62 51 63 52 64 53 65
REMARK SMILES IDX 54 66 63 67 55 68 62 69 56 70 57 71 58 72 59 73 61 74 60 75
REMARK H PARENT 31 25 18 33 20 35 33 37 35 39 37 41 40 45 7 47 4 50 44 54
REMARK H PARENT 46 57 48 61
REMARK Flexibility Score: inf
ROOT
ATOM      1  C   UNL     1       5.666  23.383  33.270  1.00  0.00     0.176 C 
ENDROOT
BRANCH   1   2
ATOM      2  C   UNL     1       4.364  22.651  33.071  1.00  0.00     0.178 C 
ATOM      3  C   UNL     1       3.109  21.751  31.289  1.00  0.00     0.272 C 
ATOM      4  C   UNL     1       2.278  21.300  32.466  1.00  0.00     0.113 C 
ATOM      5  O   UNL     1       4.353  22.300  31.704  1.00  0.00    -0.332 OA
ATOM      6  C   UNL     1       2.004  22.388  33.441  1.00  0.00     0.145 C 
ATOM      7  C   UNL     1       3.121  23.458  33.279  1.00  0.00     0.142 C 
BRANCH   3   8
ATOM      8  O   UNL     1       2.579  22.625  30.469  1.00  0.00    -0.338 OA
BRANCH   8   9
ATOM      9  C   UNL     1       1.351  22.859  30.100  1.00  0.00     0.199 C 
BRANCH   9  10
ATOM     10  C   UNL     1       0.818  22.813  28.732  1.00  0.00     0.179 C 
ATOM     11  C   UNL     1       0.429  24.223  26.951  1.00  0.00     0.282 C 
ATOM     12  O   UNL     1       1.277  24.003  28.046  1.00  0.00    -0.341 OA
ATOM     13  C   UNL     1       0.070  23.008  26.203  1.00  0.00     0.202 C 
ATOM     14  C   UNL     1       0.764  21.742  26.566  1.00  0.00     0.179 C 
ATOM     15  C   UNL     1       1.492  21.733  27.864  1.00  0.00     0.177 C 
BRANCH  11  16
ATOM     16  O   UNL     1       0.987  25.258  26.219  1.00  0.00    -0.341 OA
BRANCH  16  17
ATOM     17  C   UNL     1       2.203  25.672  26.698  1.00  0.00     0.184 C 
ATOM     18  C   UNL     1       2.231  27.180  26.789  1.00  0.00     0.178 C 
ATOM     19  O   UNL     1       3.489  27.500  27.318  1.00  0.00    -0.341 OA
ATOM     20  C   UNL     1       4.438  27.384  26.345  1.00  0.00     0.281 C 
ATOM     21  C   UNL     1       3.352  25.189  25.828  1.00  0.00     0.180 C 
ATOM     22  C   UNL     1       4.179  26.317  25.307  1.00  0.00     0.202 C 
BRANCH  18  23
ATOM     23  C   UNL     1       1.167  27.661  27.759  1.00  0.00     0.191 C 
BRANCH  23  24
ATOM     24  O   UNL     1       1.152  26.851  28.879  1.00  0.00    -0.394 OA
ATOM     25  H   UNL     1       2.029  27.007  29.342  1.00  0.00     0.210 HD
ENDBRANCH  23  24
ENDBRANCH  18  23
BRANCH  20  26
ATOM     26  O   UNL     1       5.669  27.177  26.981  1.00  0.00    -0.350 OA
BRANCH  26  27
ATOM     27  C   UNL     1       6.631  28.071  26.526  1.00  0.00     0.169 C 
BRANCH  27  28
ATOM     28  C   UNL     1       7.730  27.206  25.897  1.00  0.00     0.119 C 
BRANCH  28  29
ATOM     29  N   UNL     1       7.547  27.225  24.456  1.00  0.00    -0.092 NA
ATOM     30  N   UNL     1       7.145  28.227  23.851  1.00  0.00     0.001 N 
ATOM     31  N   UNL     1       6.395  29.059  23.307  1.00  0.00    -0.003 NA
ENDBRANCH  28  29
ENDBRANCH  27  28
ENDBRANCH  26  27
ENDBRANCH  20  26
BRANCH  21  32
ATOM     32  O   UNL     1       4.142  24.231  26.452  1.00  0.00    -0.387 OA
ATOM     33  H   UNL     1       5.045  24.553  26.691  1.00  0.00     0.211 HD
ENDBRANCH  21  32
BRANCH  22  34
ATOM     34  O   UNL     1       3.654  26.814  24.130  1.00  0.00    -0.385 OA
ATOM     35  H   UNL     1       2.784  26.352  23.955  1.00  0.00     0.211 HD
ENDBRANCH  22  34
ENDBRANCH  16  17
ENDBRANCH  11  16
BRANCH  13  36
ATOM     36  O   UNL     1      -1.337  22.821  26.146  1.00  0.00    -0.385 OA
ATOM     37  H   UNL     1      -1.590  21.899  26.361  1.00  0.00     0.211 HD
ENDBRANCH  13  36
BRANCH  14  38
ATOM     38  O   UNL     1       1.666  21.343  25.567  1.00  0.00    -0.387 OA
ATOM     39  H   UNL     1       2.177  20.552  25.913  1.00  0.00     0.211 HD
ENDBRANCH  14  38
BRANCH  15  40
ATOM     40  O   UNL     1       2.815  22.180  27.595  1.00  0.00    -0.387 OA
ATOM     41  H   UNL     1       2.801  22.965  27.011  1.00  0.00     0.211 HD
ENDBRANCH  15  40
ENDBRANCH   9  10
ENDBRANCH   8   9
ENDBRANCH   3   8
BRANCH   3  42
ATOM     42  C   UNL     1       3.568  20.493  30.637  1.00  0.00     0.364 C 
ATOM     43  O   UNL     1       2.862  19.501  30.375  1.00  0.00    -0.246 OA
BRANCH  42  44
ATOM     44  O   UNL     1       4.921  20.357  30.258  1.00  0.00    -0.477 OA
ATOM     45  H   UNL     1       5.206  20.701  29.353  1.00  0.00     0.296 HD
ENDBRANCH  42  44
ENDBRANCH   3  42
BRANCH   6  46
ATOM     46  O   UNL     1       0.759  22.967  33.353  1.00  0.00    -0.391 OA
ATOM     47  H   UNL     1       0.649  23.761  33.936  1.00  0.00     0.211 HD
ENDBRANCH   6  46
BRANCH   7  48
ATOM     48  N   UNL     1       3.084  24.343  34.395  1.00  0.00    -0.348 N 
ATOM     49  C   UNL     1       3.262  25.744  34.254  1.00  0.00     0.217 C 
ATOM     50  H   UNL     1       2.898  23.964  35.337  1.00  0.00     0.163 HD
ATOM     51  C   UNL     1       3.223  26.667  35.430  1.00  0.00     0.114 C 
ATOM     52  O   UNL     1       3.463  26.280  33.122  1.00  0.00    -0.275 OA
ENDBRANCH   7  48
ENDBRANCH   1   2
BRANCH   1  53
ATOM     53  O   UNL     1       5.703  24.336  32.203  1.00  0.00    -0.388 OA
ATOM     54  H   UNL     1       4.824  24.754  32.096  1.00  0.00     0.211 HD
ENDBRANCH   1  53
BRANCH   1  55
ATOM     55  C   UNL     1       6.831  22.468  32.975  1.00  0.00     0.165 C 
BRANCH  55  56
ATOM     56  O   UNL     1       6.394  21.136  33.032  1.00  0.00    -0.388 OA
ATOM     57  H   UNL     1       6.202  20.917  33.967  1.00  0.00     0.211 HD
ENDBRANCH  55  56
BRANCH  55  58
ATOM     58  C   UNL     1       8.009  22.703  33.867  1.00  0.00     0.154 C 
BRANCH  58  59
ATOM     59  N   UNL     1       8.544  24.028  33.850  1.00  0.00    -0.319 N 
ATOM     60  C   UNL     1       9.693  24.414  34.566  1.00  0.00     0.407 C 
ATOM     61  H   UNL     1       8.090  24.807  33.278  1.00  0.00     0.167 HD
ATOM     62  O   UNL     1      10.349  23.619  35.272  1.00  0.00    -0.225 OA
BRANCH  60  63
ATOM     63  O   UNL     1      10.178  25.731  34.534  1.00  0.00    -0.443 OA
BRANCH  63  64
ATOM     64  C   UNL     1      10.923  26.234  33.461  1.00  0.00     0.294 C 
BRANCH  64  65
ATOM     65  C   UNL     1      10.904  27.722  33.421  1.00  0.00     0.120 A 
ATOM     66  C   UNL     1      12.008  28.513  33.691  1.00  0.00     0.138 A 
ATOM     67  N   UNL     1       9.918  28.566  33.134  1.00  0.00    -0.132 NA
ATOM     68  N   UNL     1      11.634  29.788  33.556  1.00  0.00    -0.249 N 
ATOM     69  N   UNL     1      10.358  29.798  33.216  1.00  0.00    -0.067 NA
BRANCH  68  70
ATOM     70  C   UNL     1      12.464  30.985  33.757  1.00  0.00     0.187 C 
BRANCH  70  71
ATOM     71  C   UNL     1      12.527  31.785  32.476  1.00  0.00     0.256 C 
BRANCH  71  72
ATOM     72  O   UNL     1      13.727  31.442  31.792  1.00  0.00    -0.464 OA
BRANCH  72  73
ATOM     73  C   UNL     1      13.739  30.403  30.866  1.00  0.00     0.302 C 
ATOM     74  O   UNL     1      12.692  30.186  30.211  1.00  0.00    -0.253 OA
ATOM     75  C   UNL     1      14.951  29.551  30.634  1.00  0.00     0.139 C 
ENDBRANCH  72  73
ENDBRANCH  71  72
ENDBRANCH  70  71
ENDBRANCH  68  70
ENDBRANCH  64  65
ENDBRANCH  63  64
ENDBRANCH  60  63
ENDBRANCH  58  59
ENDBRANCH  55  58
ENDBRANCH   1  55
TORSDOF 33
