REMARK VINA RESULT:    -5.948      5.200     11.424
REMARK INTER + INTRA:         -22.187
REMARK INTER:                 -14.201
REMARK INTRA:                  -7.986
REMARK UNBOUND:                -7.546
REMARK SMILES CC(=O)N[C@@H]1[C@@H](O)C[C@](OC[C@H]2O[C@@H](O[C@H]3[C@H](O)[C@@H](O)[C@H](OCCN=[N+]=[N-])O[C@@H]3CO)[C@H](O)[C@@H](O)[C@H]2O)(C(=O)O)O[C@H]1C(O)[C@H](O)CNC(=O)OCc1cn(-c2ccc3[nH]ncc3c2)nn1
REMARK SMILES IDX 9 1 8 2 6 3 5 4 42 5 41 6 10 7 11 8 12 9 14 10 13 11 32 12
REMARK SMILES IDX 34 13 36 14 15 15 16 16 29 17 28 18 21 19 17 20 19 21 30 22
REMARK SMILES IDX 31 23 22 25 23 26 24 27 25 28 26 29 27 30 18 31 20 33 33 35
REMARK SMILES IDX 35 37 37 39 38 41 39 42 40 43 7 45 43 47 44 48 45 50 46 51
REMARK SMILES IDX 47 53 48 54 49 55 50 57 51 58 52 59 53 60 54 61 66 62 55 63
REMARK SMILES IDX 65 64 56 65 57 66 64 67 58 68 63 69 59 70 62 71 60 72 61 73
REMARK SMILES IDX 4 75 2 76 1 78 3 79
REMARK H PARENT 31 24 18 32 20 34 33 36 35 38 37 40 40 44 7 46 44 49 46 52
REMARK H PARENT 48 56 60 74 4 77
REMARK Flexibility Score: inf
ROOT
ATOM      1  C   UNL     1      22.764  28.441  21.257  1.00  0.00     0.272 C 
ATOM      2  C   UNL     1      21.316  28.397  21.586  1.00  0.00     0.113 C 
ATOM      3  C   UNL     1      20.400  29.029  20.570  1.00  0.00     0.145 C 
ATOM      4  C   UNL     1      20.680  28.252  19.257  1.00  0.00     0.142 C 
ATOM      5  C   UNL     1      22.136  28.387  19.034  1.00  0.00     0.178 C 
ATOM      6  O   UNL     1      22.987  27.932  19.980  1.00  0.00    -0.332 OA
ENDROOT
BRANCH   1   7
ATOM      7  O   UNL     1      23.451  27.625  22.182  1.00  0.00    -0.338 OA
BRANCH   7   8
ATOM      8  C   UNL     1      24.187  26.623  21.641  1.00  0.00     0.199 C 
BRANCH   8   9
ATOM      9  C   UNL     1      24.171  25.355  22.523  1.00  0.00     0.179 C 
ATOM     10  C   UNL     1      22.486  24.700  23.971  1.00  0.00     0.282 C 
ATOM     11  O   UNL     1      23.545  25.586  23.711  1.00  0.00    -0.341 OA
ATOM     12  C   UNL     1      21.471  24.932  22.899  1.00  0.00     0.202 C 
ATOM     13  C   UNL     1      22.069  24.358  21.606  1.00  0.00     0.179 C 
ATOM     14  C   UNL     1      23.561  24.211  21.736  1.00  0.00     0.177 C 
BRANCH  10  15
ATOM     15  O   UNL     1      22.037  24.887  25.266  1.00  0.00    -0.341 OA
BRANCH  15  16
ATOM     16  C   UNL     1      22.403  26.152  25.709  1.00  0.00     0.184 C 
ATOM     17  C   UNL     1      23.149  26.168  27.009  1.00  0.00     0.178 C 
ATOM     18  O   UNL     1      23.548  27.410  27.329  1.00  0.00    -0.341 OA
ATOM     19  C   UNL     1      22.979  28.508  26.766  1.00  0.00     0.281 C 
ATOM     20  C   UNL     1      21.134  26.968  26.022  1.00  0.00     0.180 C 
ATOM     21  C   UNL     1      21.573  28.366  26.293  1.00  0.00     0.202 C 
BRANCH  17  22
ATOM     22  C   UNL     1      24.337  25.229  27.057  1.00  0.00     0.191 C 
BRANCH  22  23
ATOM     23  O   UNL     1      23.950  23.903  27.120  1.00  0.00    -0.394 OA
ATOM     24  H   UNL     1      24.750  23.375  26.818  1.00  0.00     0.210 HD
ENDBRANCH  22  23
ENDBRANCH  17  22
BRANCH  19  25
ATOM     25  O   UNL     1      23.798  28.922  25.744  1.00  0.00    -0.350 OA
BRANCH  25  26
ATOM     26  C   UNL     1      23.967  30.254  25.585  1.00  0.00     0.169 C 
BRANCH  26  27
ATOM     27  C   UNL     1      25.082  30.632  24.664  1.00  0.00     0.119 C 
BRANCH  27  28
ATOM     28  N   UNL     1      25.981  29.573  24.313  1.00  0.00    -0.092 NA
ATOM     29  N   UNL     1      26.518  29.471  23.227  1.00  0.00     0.001 N 
ATOM     30  N   UNL     1      26.782  29.159  22.044  1.00  0.00    -0.003 NA
ENDBRANCH  27  28
ENDBRANCH  26  27
ENDBRANCH  25  26
ENDBRANCH  19  25
BRANCH  20  31
ATOM     31  O   UNL     1      20.214  26.888  25.012  1.00  0.00    -0.387 OA
ATOM     32  H   UNL     1      20.424  26.198  24.330  1.00  0.00     0.211 HD
ENDBRANCH  20  31
BRANCH  21  33
ATOM     33  O   UNL     1      20.665  28.915  27.217  1.00  0.00    -0.385 OA
ATOM     34  H   UNL     1      21.116  29.537  27.843  1.00  0.00     0.211 HD
ENDBRANCH  21  33
ENDBRANCH  15  16
ENDBRANCH  10  15
BRANCH  12  35
ATOM     35  O   UNL     1      20.220  24.421  23.132  1.00  0.00    -0.385 OA
ATOM     36  H   UNL     1      20.113  24.105  24.081  1.00  0.00     0.211 HD
ENDBRANCH  12  35
BRANCH  13  37
ATOM     37  O   UNL     1      21.658  25.058  20.492  1.00  0.00    -0.387 OA
ATOM     38  H   UNL     1      22.103  25.958  20.532  1.00  0.00     0.211 HD
ENDBRANCH  13  37
BRANCH  14  39
ATOM     39  O   UNL     1      24.086  24.290  20.421  1.00  0.00    -0.387 OA
ATOM     40  H   UNL     1      23.432  24.599  19.776  1.00  0.00     0.211 HD
ENDBRANCH  14  39
ENDBRANCH   8   9
ENDBRANCH   7   8
ENDBRANCH   1   7
BRANCH   1  41
ATOM     41  C   UNL     1      23.353  29.807  21.248  1.00  0.00     0.364 C 
ATOM     42  O   UNL     1      22.809  30.671  22.014  1.00  0.00    -0.246 OA
BRANCH  41  43
ATOM     43  O   UNL     1      24.408  30.246  20.510  1.00  0.00    -0.477 OA
ATOM     44  H   UNL     1      25.380  30.169  20.812  1.00  0.00     0.296 HD
ENDBRANCH  41  43
ENDBRANCH   1  41
BRANCH   3  45
ATOM     45  O   UNL     1      19.094  28.823  20.973  1.00  0.00    -0.391 OA
ATOM     46  H   UNL     1      18.790  29.524  21.625  1.00  0.00     0.211 HD
ENDBRANCH   3  45
BRANCH   5  47
ATOM     47  C   UNL     1      22.520  28.014  17.634  1.00  0.00     0.176 C 
BRANCH  47  48
ATOM     48  O   UNL     1      23.952  28.191  17.618  1.00  0.00    -0.388 OA
ATOM     49  H   UNL     1      24.193  29.051  18.017  1.00  0.00     0.211 HD
ENDBRANCH  47  48
BRANCH  47  50
ATOM     50  C   UNL     1      22.318  26.565  17.264  1.00  0.00     0.165 C 
BRANCH  50  51
ATOM     51  O   UNL     1      23.150  25.836  18.158  1.00  0.00    -0.388 OA
ATOM     52  H   UNL     1      23.269  24.912  17.879  1.00  0.00     0.211 HD
ENDBRANCH  50  51
BRANCH  50  53
ATOM     53  C   UNL     1      22.675  26.196  15.874  1.00  0.00     0.154 C 
BRANCH  53  54
ATOM     54  N   UNL     1      23.922  25.552  15.655  1.00  0.00    -0.319 N 
ATOM     55  C   UNL     1      25.150  26.156  15.295  1.00  0.00     0.407 C 
ATOM     56  H   UNL     1      23.976  24.489  15.769  1.00  0.00     0.167 HD
ATOM     57  O   UNL     1      25.247  27.377  15.145  1.00  0.00    -0.225 OA
BRANCH  55  58
ATOM     58  O   UNL     1      26.281  25.368  15.105  1.00  0.00    -0.443 OA
BRANCH  58  59
ATOM     59  C   UNL     1      26.399  24.015  15.420  1.00  0.00     0.294 C 
BRANCH  59  60
ATOM     60  C   UNL     1      26.589  23.724  16.848  1.00  0.00     0.121 A 
ATOM     61  C   UNL     1      27.278  22.659  17.382  1.00  0.00     0.144 A 
ATOM     62  N   UNL     1      26.108  24.447  17.881  1.00  0.00    -0.131 NA
ATOM     63  N   UNL     1      27.180  22.792  18.707  1.00  0.00    -0.220 N 
ATOM     64  N   UNL     1      26.474  23.872  18.985  1.00  0.00    -0.062 NA
BRANCH  63  65
ATOM     65  C   UNL     1      27.753  21.895  19.658  1.00  0.00     0.067 A 
ATOM     66  C   UNL     1      27.801  22.215  20.997  1.00  0.00     0.030 A 
ATOM     67  C   UNL     1      28.274  20.689  19.249  1.00  0.00     0.040 A 
ATOM     68  C   UNL     1      28.355  21.352  21.910  1.00  0.00     0.030 A 
ATOM     69  C   UNL     1      28.833  19.825  20.189  1.00  0.00     0.022 A 
ATOM     70  C   UNL     1      28.888  20.133  21.537  1.00  0.00     0.065 A 
ATOM     71  C   UNL     1      29.406  18.585  20.029  1.00  0.00     0.143 A 
ATOM     72  N   UNL     1      29.479  19.104  22.168  1.00  0.00    -0.278 N 
ATOM     73  N   UNL     1      29.777  18.200  21.262  1.00  0.00    -0.183 NA
ATOM     74  H   UNL     1      29.655  19.062  23.201  1.00  0.00     0.190 HD
ENDBRANCH  63  65
ENDBRANCH  59  60
ENDBRANCH  58  59
ENDBRANCH  55  58
ENDBRANCH  53  54
ENDBRANCH  50  53
ENDBRANCH  47  50
ENDBRANCH   5  47
BRANCH   4  75
ATOM     75  N   UNL     1      19.964  29.055  18.260  1.00  0.00    -0.348 N 
ATOM     76  C   UNL     1      18.687  28.656  17.857  1.00  0.00     0.217 C 
ATOM     77  H   UNL     1      20.376  29.907  17.845  1.00  0.00     0.163 HD
ATOM     78  C   UNL     1      17.891  29.419  16.839  1.00  0.00     0.114 C 
ATOM     79  O   UNL     1      18.167  27.611  18.369  1.00  0.00    -0.275 OA
ENDBRANCH   4  75
TORSDOF 30
