REMARK VINA RESULT:    -5.533      2.467      6.966
REMARK INTER + INTRA:         -21.702
REMARK INTER:                 -13.761
REMARK INTRA:                  -7.941
REMARK UNBOUND:                -7.759
REMARK SMILES CC(=O)N[C@@H]1[C@@H](O)C[C@](OC[C@H]2O[C@@H](O[C@H]3[C@H](O)[C@@H](O)[C@H](OCCN=[N+]=[N-])O[C@@H]3CO)[C@H](O)[C@@H](O)[C@H]2O)(C(=O)O)O[C@H]1C(O)[C@H](O)CNC(=O)OCc1cn(-c2cc(Cl)ccc2C(=O)N(C)C)nn1
REMARK SMILES IDX 9 1 8 2 6 3 5 4 42 5 41 6 10 7 11 8 12 9 14 10 13 11 32 12
REMARK SMILES IDX 34 13 36 14 15 15 16 16 29 17 28 18 21 19 17 20 19 21 30 22
REMARK SMILES IDX 31 23 22 25 23 26 24 27 25 28 26 29 27 30 18 31 20 33 33 35
REMARK SMILES IDX 35 37 37 39 38 41 39 42 40 43 7 45 43 47 44 48 45 50 46 51
REMARK SMILES IDX 47 53 48 54 49 55 50 57 51 58 52 59 53 60 54 61 69 62 55 63
REMARK SMILES IDX 68 64 56 65 57 66 62 67 58 68 61 69 59 70 60 71 63 72 64 73
REMARK SMILES IDX 65 74 66 75 67 76 4 77 2 78 1 80 3 81
REMARK H PARENT 31 24 18 32 20 34 33 36 35 38 37 40 40 44 7 46 44 49 46 52
REMARK H PARENT 48 56 4 79
REMARK Flexibility Score: inf
ROOT
ATOM      1  C   UNL     1      16.375  29.778  20.771  1.00  0.00     0.272 C 
ATOM      2  C   UNL     1      15.301  30.799  20.724  1.00  0.00     0.113 C 
ATOM      3  C   UNL     1      15.676  31.988  21.573  1.00  0.00     0.145 C 
ATOM      4  C   UNL     1      15.866  31.473  22.980  1.00  0.00     0.142 C 
ATOM      5  C   UNL     1      16.854  30.383  23.029  1.00  0.00     0.178 C 
ATOM      6  O   UNL     1      17.086  29.634  21.920  1.00  0.00    -0.332 OA
ENDROOT
BRANCH   1   7
ATOM      7  O   UNL     1      17.294  29.953  19.749  1.00  0.00    -0.338 OA
BRANCH   7   8
ATOM      8  C   UNL     1      16.843  30.076  18.482  1.00  0.00     0.199 C 
BRANCH   8   9
ATOM      9  C   UNL     1      18.015  30.422  17.551  1.00  0.00     0.179 C 
ATOM     10  C   UNL     1      20.291  30.719  17.773  1.00  0.00     0.282 C 
ATOM     11  O   UNL     1      18.981  31.044  18.287  1.00  0.00    -0.341 OA
ATOM     12  C   UNL     1      20.206  30.830  16.268  1.00  0.00     0.202 C 
ATOM     13  C   UNL     1      19.366  29.715  15.680  1.00  0.00     0.179 C 
ATOM     14  C   UNL     1      18.374  29.254  16.733  1.00  0.00     0.177 C 
BRANCH  10  15
ATOM     15  O   UNL     1      20.581  29.516  18.259  1.00  0.00    -0.341 OA
BRANCH  15  16
ATOM     16  C   UNL     1      20.958  29.320  19.575  1.00  0.00     0.184 C 
ATOM     17  C   UNL     1      22.450  29.412  19.602  1.00  0.00     0.178 C 
ATOM     18  O   UNL     1      22.923  29.202  20.909  1.00  0.00    -0.341 OA
ATOM     19  C   UNL     1      22.788  27.776  21.032  1.00  0.00     0.281 C 
ATOM     20  C   UNL     1      20.504  27.967  20.058  1.00  0.00     0.180 C 
ATOM     21  C   UNL     1      21.346  27.466  21.192  1.00  0.00     0.202 C 
BRANCH  17  22
ATOM     22  C   UNL     1      22.929  30.756  19.096  1.00  0.00     0.191 C 
BRANCH  22  23
ATOM     23  O   UNL     1      22.788  31.682  20.108  1.00  0.00    -0.394 OA
ATOM     24  H   UNL     1      22.131  31.358  20.774  1.00  0.00     0.210 HD
ENDBRANCH  22  23
ENDBRANCH  17  22
BRANCH  19  25
ATOM     25  O   UNL     1      23.561  27.375  22.051  1.00  0.00    -0.350 OA
BRANCH  25  26
ATOM     26  C   UNL     1      24.848  26.992  21.712  1.00  0.00     0.169 C 
BRANCH  26  27
ATOM     27  C   UNL     1      25.146  25.536  22.006  1.00  0.00     0.119 C 
BRANCH  27  28
ATOM     28  N   UNL     1      25.123  24.750  20.791  1.00  0.00    -0.092 NA
ATOM     29  N   UNL     1      24.063  24.514  20.220  1.00  0.00     0.001 N 
ATOM     30  N   UNL     1      22.914  24.456  19.737  1.00  0.00    -0.003 NA
ENDBRANCH  27  28
ENDBRANCH  26  27
ENDBRANCH  25  26
ENDBRANCH  19  25
BRANCH  20  31
ATOM     31  O   UNL     1      19.182  28.002  20.518  1.00  0.00    -0.387 OA
ATOM     32  H   UNL     1      18.576  28.373  19.812  1.00  0.00     0.211 HD
ENDBRANCH  20  31
BRANCH  21  33
ATOM     33  O   UNL     1      21.169  26.090  21.308  1.00  0.00    -0.385 OA
ATOM     34  H   UNL     1      21.269  25.756  22.225  1.00  0.00     0.211 HD
ENDBRANCH  21  33
ENDBRANCH  15  16
ENDBRANCH  10  15
BRANCH  12  35
ATOM     35  O   UNL     1      19.527  32.035  15.997  1.00  0.00    -0.385 OA
ATOM     36  H   UNL     1      20.059  32.832  16.315  1.00  0.00     0.211 HD
ENDBRANCH  12  35
BRANCH  13  37
ATOM     37  O   UNL     1      20.080  28.631  15.245  1.00  0.00    -0.387 OA
ATOM     38  H   UNL     1      20.438  28.071  15.975  1.00  0.00     0.211 HD
ENDBRANCH  13  37
BRANCH  14  39
ATOM     39  O   UNL     1      18.716  28.095  17.369  1.00  0.00    -0.387 OA
ATOM     40  H   UNL     1      18.187  27.307  17.116  1.00  0.00     0.211 HD
ENDBRANCH  14  39
ENDBRANCH   8   9
ENDBRANCH   7   8
ENDBRANCH   1   7
BRANCH   1  41
ATOM     41  C   UNL     1      15.738  28.413  20.449  1.00  0.00     0.364 C 
ATOM     42  O   UNL     1      14.488  28.372  20.487  1.00  0.00    -0.246 OA
BRANCH  41  43
ATOM     43  O   UNL     1      16.458  27.302  20.143  1.00  0.00    -0.477 OA
ATOM     44  H   UNL     1      16.524  26.879  19.243  1.00  0.00     0.296 HD
ENDBRANCH  41  43
ENDBRANCH   1  41
BRANCH   3  45
ATOM     45  O   UNL     1      16.759  32.622  21.036  1.00  0.00    -0.391 OA
ATOM     46  H   UNL     1      17.238  32.182  20.327  1.00  0.00     0.211 HD
ENDBRANCH   3  45
BRANCH   5  47
ATOM     47  C   UNL     1      18.223  30.768  23.575  1.00  0.00     0.176 C 
BRANCH  47  48
ATOM     48  O   UNL     1      18.324  30.744  24.937  1.00  0.00    -0.388 OA
ATOM     49  H   UNL     1      19.049  31.309  25.314  1.00  0.00     0.211 HD
ENDBRANCH  47  48
BRANCH  47  50
ATOM     50  C   UNL     1      19.384  30.086  22.949  1.00  0.00     0.165 C 
BRANCH  50  51
ATOM     51  O   UNL     1      20.065  29.239  23.855  1.00  0.00    -0.388 OA
ATOM     52  H   UNL     1      19.850  28.292  23.686  1.00  0.00     0.211 HD
ENDBRANCH  50  51
BRANCH  50  53
ATOM     53  C   UNL     1      20.429  31.192  22.674  1.00  0.00     0.154 C 
BRANCH  53  54
ATOM     54  N   UNL     1      21.321  31.320  23.792  1.00  0.00    -0.319 N 
ATOM     55  C   UNL     1      21.401  32.515  24.535  1.00  0.00     0.407 C 
ATOM     56  H   UNL     1      21.951  30.520  24.096  1.00  0.00     0.167 HD
ATOM     57  O   UNL     1      20.677  33.498  24.257  1.00  0.00    -0.225 OA
BRANCH  55  58
ATOM     58  O   UNL     1      22.294  32.642  25.607  1.00  0.00    -0.443 OA
BRANCH  58  59
ATOM     59  C   UNL     1      21.983  32.168  26.887  1.00  0.00     0.294 C 
BRANCH  59  60
ATOM     60  C   UNL     1      21.538  30.742  26.840  1.00  0.00     0.121 A 
ATOM     61  C   UNL     1      22.418  29.641  26.790  1.00  0.00     0.144 A 
ATOM     62  N   UNL     1      20.322  30.219  26.837  1.00  0.00    -0.131 NA
ATOM     63  N   UNL     1      21.703  28.525  26.760  1.00  0.00    -0.219 N 
ATOM     64  N   UNL     1      20.421  28.915  26.789  1.00  0.00    -0.062 NA
BRANCH  63  65
ATOM     65  C   UNL     1      22.066  27.158  26.712  1.00  0.00     0.081 A 
ATOM     66  C   UNL     1      22.122  26.508  25.473  1.00  0.00     0.049 A 
ATOM     67  C   UNL     1      22.347  26.385  27.802  1.00  0.00     0.065 A 
ATOM     68  C   UNL     1      22.433  25.192  25.374  1.00  0.00     0.043 A 
ATOM     69  C   UNL     1      22.668  25.019  27.701  1.00  0.00     0.017 A 
ATOM     70  Cl  UNL     1      22.484  24.437  23.787  1.00  0.00    -0.084 Cl
ATOM     71  C   UNL     1      22.711  24.418  26.468  1.00  0.00     0.021 A 
BRANCH  67  72
ATOM     72  C   UNL     1      22.376  26.947  29.156  1.00  0.00     0.255 C 
ATOM     73  O   UNL     1      21.329  26.924  29.835  1.00  0.00    -0.269 OA
ATOM     74  N   UNL     1      23.556  27.493  29.669  1.00  0.00    -0.345 N 
ATOM     75  C   UNL     1      24.773  27.514  28.862  1.00  0.00     0.146 C 
ATOM     76  C   UNL     1      23.615  28.049  31.018  1.00  0.00     0.146 C 
ENDBRANCH  67  72
ENDBRANCH  63  65
ENDBRANCH  59  60
ENDBRANCH  58  59
ENDBRANCH  55  58
ENDBRANCH  53  54
ENDBRANCH  50  53
ENDBRANCH  47  50
ENDBRANCH   5  47
BRANCH   4  77
ATOM     77  N   UNL     1      14.539  31.071  23.453  1.00  0.00    -0.348 N 
ATOM     78  C   UNL     1      14.280  30.748  24.801  1.00  0.00     0.217 C 
ATOM     79  H   UNL     1      13.749  31.013  22.781  1.00  0.00     0.163 HD
ATOM     80  C   UNL     1      12.940  30.339  25.287  1.00  0.00     0.114 C 
ATOM     81  O   UNL     1      15.226  30.810  25.631  1.00  0.00    -0.275 OA
ENDBRANCH   4  77
TORSDOF 31
