REMARK VINA RESULT:    -5.892     22.525     27.537
REMARK INTER + INTRA:         -20.467
REMARK INTER:                 -12.136
REMARK INTRA:                  -8.331
REMARK UNBOUND:                -5.964
REMARK SMILES CC(=O)N[C@@H]1[C@@H](O)C[C@](OC[C@H]2O[C@@H](O[C@H]3[C@H](O)[C@@H](O)[C@H](OCCN=[N+]=[N-])O[C@@H]3CO)[C@H](O)[C@@H](O)[C@H]2O)(C(=O)O)O[C@H]1C(O)[C@H](O)CNC(=O)OCc1cn(C2CCN(C)CC2)nn1
REMARK SMILES IDX 9 1 8 2 6 3 5 4 42 5 41 6 10 7 11 8 12 9 14 10 13 11 32 12
REMARK SMILES IDX 34 13 36 14 15 15 16 16 29 17 28 18 21 19 17 20 19 21 30 22
REMARK SMILES IDX 31 23 22 25 23 26 24 27 25 28 26 29 27 30 18 31 20 33 33 35
REMARK SMILES IDX 35 37 37 39 38 41 39 42 40 43 7 45 43 47 44 48 45 50 46 51
REMARK SMILES IDX 47 53 48 54 49 55 50 57 51 58 52 59 53 60 54 61 64 62 55 63
REMARK SMILES IDX 63 64 56 65 57 66 62 67 58 68 61 69 59 70 60 71 4 72 2 73
REMARK SMILES IDX 1 75 3 76
REMARK H PARENT 31 24 18 32 20 34 33 36 35 38 37 40 40 44 7 46 44 49 46 52
REMARK H PARENT 48 56 4 74
REMARK Flexibility Score: inf
ROOT
ATOM      1  C   UNL     1       1.250  23.206  29.432  1.00  0.00     0.272 C 
ATOM      2  C   UNL     1       0.341  23.092  28.222  1.00  0.00     0.113 C 
ATOM      3  C   UNL     1       0.065  24.339  27.492  1.00  0.00     0.145 C 
ATOM      4  C   UNL     1       1.245  25.277  27.365  1.00  0.00     0.142 C 
ATOM      5  C   UNL     1       2.293  25.047  28.385  1.00  0.00     0.178 C 
ATOM      6  O   UNL     1       2.434  23.861  28.963  1.00  0.00    -0.332 OA
ENDROOT
BRANCH   1   7
ATOM      7  O   UNL     1       1.702  21.980  29.739  1.00  0.00    -0.338 OA
BRANCH   7   8
ATOM      8  C   UNL     1       2.879  21.455  29.785  1.00  0.00     0.199 C 
BRANCH   8   9
ATOM      9  C   UNL     1       3.364  20.565  30.888  1.00  0.00     0.179 C 
ATOM     10  C   UNL     1       2.655  21.513  32.962  1.00  0.00     0.282 C 
ATOM     11  O   UNL     1       3.571  21.368  31.976  1.00  0.00    -0.341 OA
ATOM     12  C   UNL     1       1.395  20.795  32.743  1.00  0.00     0.202 C 
ATOM     13  C   UNL     1       1.793  19.340  32.442  1.00  0.00     0.179 C 
ATOM     14  C   UNL     1       2.501  19.373  31.137  1.00  0.00     0.177 C 
BRANCH  10  15
ATOM     15  O   UNL     1       2.599  22.884  33.177  1.00  0.00    -0.341 OA
BRANCH  15  16
ATOM     16  C   UNL     1       3.728  23.508  33.515  1.00  0.00     0.184 C 
ATOM     17  C   UNL     1       3.638  24.098  34.880  1.00  0.00     0.178 C 
ATOM     18  O   UNL     1       4.934  24.353  35.341  1.00  0.00    -0.341 OA
ATOM     19  C   UNL     1       5.505  25.361  34.599  1.00  0.00     0.281 C 
ATOM     20  C   UNL     1       4.070  24.709  32.618  1.00  0.00     0.180 C 
ATOM     21  C   UNL     1       5.440  25.168  33.108  1.00  0.00     0.202 C 
BRANCH  17  22
ATOM     22  C   UNL     1       2.826  23.322  35.858  1.00  0.00     0.191 C 
BRANCH  22  23
ATOM     23  O   UNL     1       3.499  22.147  36.166  1.00  0.00    -0.394 OA
ATOM     24  H   UNL     1       4.367  22.321  36.611  1.00  0.00     0.210 HD
ENDBRANCH  22  23
ENDBRANCH  17  22
BRANCH  19  25
ATOM     25  O   UNL     1       6.868  25.370  34.926  1.00  0.00    -0.350 OA
BRANCH  25  26
ATOM     26  C   UNL     1       7.282  24.274  35.638  1.00  0.00     0.169 C 
BRANCH  26  27
ATOM     27  C   UNL     1       8.514  23.605  35.063  1.00  0.00     0.119 C 
BRANCH  27  28
ATOM     28  N   UNL     1       8.295  23.209  33.685  1.00  0.00    -0.092 NA
ATOM     29  N   UNL     1       7.430  22.385  33.393  1.00  0.00     0.001 N 
ATOM     30  N   UNL     1       6.970  21.304  33.020  1.00  0.00    -0.003 NA
ENDBRANCH  27  28
ENDBRANCH  26  27
ENDBRANCH  25  26
ENDBRANCH  19  25
BRANCH  20  31
ATOM     31  O   UNL     1       4.217  24.373  31.299  1.00  0.00    -0.387 OA
ATOM     32  H   UNL     1       3.800  23.498  31.142  1.00  0.00     0.211 HD
ENDBRANCH  20  31
BRANCH  21  33
ATOM     33  O   UNL     1       5.788  26.328  32.461  1.00  0.00    -0.385 OA
ATOM     34  H   UNL     1       5.259  26.494  31.664  1.00  0.00     0.211 HD
ENDBRANCH  21  33
ENDBRANCH  15  16
ENDBRANCH  10  15
BRANCH  12  35
ATOM     35  O   UNL     1       0.580  20.676  33.866  1.00  0.00    -0.385 OA
ATOM     36  H   UNL     1      -0.054  19.926  33.750  1.00  0.00     0.211 HD
ENDBRANCH  12  35
BRANCH  13  37
ATOM     37  O   UNL     1       0.717  18.488  32.447  1.00  0.00    -0.387 OA
ATOM     38  H   UNL     1       0.018  18.887  33.024  1.00  0.00     0.211 HD
ENDBRANCH  13  37
BRANCH  14  39
ATOM     39  O   UNL     1       1.554  19.283  30.120  1.00  0.00    -0.387 OA
ATOM     40  H   UNL     1       1.948  19.323  29.218  1.00  0.00     0.211 HD
ENDBRANCH  14  39
ENDBRANCH   8   9
ENDBRANCH   7   8
ENDBRANCH   1   7
BRANCH   1  41
ATOM     41  C   UNL     1       0.614  24.061  30.424  1.00  0.00     0.364 C 
ATOM     42  O   UNL     1      -0.678  23.989  30.518  1.00  0.00    -0.246 OA
BRANCH  41  43
ATOM     43  O   UNL     1       1.149  24.964  31.304  1.00  0.00    -0.477 OA
ATOM     44  H   UNL     1       1.168  24.839  32.316  1.00  0.00     0.296 HD
ENDBRANCH  41  43
ENDBRANCH   1  41
BRANCH   3  45
ATOM     45  O   UNL     1      -0.390  24.009  26.180  1.00  0.00    -0.391 OA
ATOM     46  H   UNL     1      -1.289  24.367  26.020  1.00  0.00     0.211 HD
ENDBRANCH   3  45
BRANCH   5  47
ATOM     47  C   UNL     1       3.690  25.453  27.838  1.00  0.00     0.176 C 
BRANCH  47  48
ATOM     48  O   UNL     1       3.801  26.837  27.864  1.00  0.00    -0.388 OA
ATOM     49  H   UNL     1       4.482  27.180  27.247  1.00  0.00     0.211 HD
ENDBRANCH  47  48
BRANCH  47  50
ATOM     50  C   UNL     1       3.898  24.913  26.499  1.00  0.00     0.165 C 
BRANCH  50  51
ATOM     51  O   UNL     1       4.205  23.508  26.680  1.00  0.00    -0.388 OA
ATOM     52  H   UNL     1       3.652  22.979  26.056  1.00  0.00     0.211 HD
ENDBRANCH  50  51
BRANCH  50  53
ATOM     53  C   UNL     1       4.929  25.465  25.612  1.00  0.00     0.154 C 
BRANCH  53  54
ATOM     54  N   UNL     1       5.026  26.827  25.297  1.00  0.00    -0.319 N 
ATOM     55  C   UNL     1       6.206  27.574  25.060  1.00  0.00     0.407 C 
ATOM     56  H   UNL     1       4.104  27.381  25.227  1.00  0.00     0.167 HD
ATOM     57  O   UNL     1       7.330  27.036  25.075  1.00  0.00    -0.225 OA
BRANCH  55  58
ATOM     58  O   UNL     1       6.084  28.958  24.803  1.00  0.00    -0.443 OA
BRANCH  58  59
ATOM     59  C   UNL     1       6.430  29.868  25.816  1.00  0.00     0.294 C 
BRANCH  59  60
ATOM     60  C   UNL     1       5.357  29.868  26.839  1.00  0.00     0.120 A 
ATOM     61  C   UNL     1       5.530  30.120  28.212  1.00  0.00     0.138 A 
ATOM     62  N   UNL     1       4.039  29.651  26.720  1.00  0.00    -0.132 NA
ATOM     63  N   UNL     1       4.344  30.047  28.840  1.00  0.00    -0.249 N 
ATOM     64  N   UNL     1       3.463  29.763  27.916  1.00  0.00    -0.067 NA
BRANCH  63  65
ATOM     65  C   UNL     1       4.106  30.245  30.250  1.00  0.00     0.111 C 
ATOM     66  C   UNL     1       2.831  29.534  30.602  1.00  0.00     0.043 C 
ATOM     67  C   UNL     1       5.226  29.707  31.098  1.00  0.00     0.043 C 
ATOM     68  C   UNL     1       3.160  28.241  31.311  1.00  0.00     0.086 C 
ATOM     69  C   UNL     1       4.822  29.467  32.528  1.00  0.00     0.086 C 
ATOM     70  N   UNL     1       3.681  28.582  32.634  1.00  0.00    -0.306 NA
ATOM     71  C   UNL     1       2.622  29.259  33.362  1.00  0.00     0.105 C 
ENDBRANCH  63  65
ENDBRANCH  59  60
ENDBRANCH  58  59
ENDBRANCH  55  58
ENDBRANCH  53  54
ENDBRANCH  50  53
ENDBRANCH  47  50
ENDBRANCH   5  47
BRANCH   4  72
ATOM     72  N   UNL     1       0.824  26.664  27.341  1.00  0.00    -0.348 N 
ATOM     73  C   UNL     1       0.924  27.396  26.136  1.00  0.00     0.217 C 
ATOM     74  H   UNL     1       0.444  27.149  28.191  1.00  0.00     0.163 HD
ATOM     75  C   UNL     1       0.505  28.833  26.058  1.00  0.00     0.114 C 
ATOM     76  O   UNL     1       1.378  26.834  25.088  1.00  0.00    -0.275 OA
ENDBRANCH   4  72
TORSDOF 30
