REMARK VINA RESULT:    -5.858     13.379     19.364
REMARK INTER + INTRA:         -23.235
REMARK INTER:                 -13.612
REMARK INTRA:                  -9.624
REMARK UNBOUND:                -6.934
REMARK SMILES CCOCCc1c(-c2ccccc2)nc(N)nc1-n1cc(COC(=O)NC[C@@H](O)C(O)[C@@H]2O[C@@](OC[C@H]3O[C@@H](O[C@H]4[C@H](O)[C@@H](O)[C@H](OCCN=[N+]=[N-])O[C@@H]4CO)[C@H](O)[C@@H](O)[C@H]3O)(C(=O)O)C[C@H](O)[C@H]2NC(C)=O)nn1
REMARK SMILES IDX 30 1 32 2 34 3 66 4 33 5 67 6 69 7 35 8 36 9 37 10 39 11
REMARK SMILES IDX 38 12 57 13 59 14 61 15 40 16 41 17 54 18 53 19 46 20 42 21
REMARK SMILES IDX 44 22 55 23 56 24 47 26 48 27 49 28 50 29 51 30 52 31 43 32
REMARK SMILES IDX 45 34 58 36 60 38 62 40 63 42 64 43 65 44 68 46 70 48 71 49
REMARK SMILES IDX 72 51 73 52 31 53 28 55 29 56 27 58 26 59 24 60 25 62 23 63
REMARK SMILES IDX 22 64 21 65 20 66 74 67 19 68 75 69 18 70 17 71 6 72 15 73
REMARK SMILES IDX 7 74 14 75 5 76 4 77 3 78 2 79 1 80 16 81 8 84 9 85 13 86
REMARK SMILES IDX 10 87 12 88 11 89
REMARK H PARENT 56 25 43 33 45 35 58 37 60 39 62 41 65 45 68 47 70 50 31 54
REMARK H PARENT 29 57 26 61 16 82 16 83
REMARK Flexibility Score: inf
ROOT
ATOM      1  C   UNL     1      20.676  30.650  29.164  1.00  0.00     0.176 C 
ENDROOT
BRANCH   1   2
ATOM      2  C   UNL     1      21.157  31.235  27.871  1.00  0.00     0.178 C 
ATOM      3  C   UNL     1      21.308  30.514  25.649  1.00  0.00     0.272 C 
ATOM      4  C   UNL     1      21.848  31.935  25.469  1.00  0.00     0.113 C 
ATOM      5  O   UNL     1      20.753  30.311  26.860  1.00  0.00    -0.332 OA
ATOM      6  C   UNL     1      22.868  32.295  26.505  1.00  0.00     0.145 C 
ATOM      7  C   UNL     1      22.628  31.408  27.714  1.00  0.00     0.142 C 
BRANCH   3   8
ATOM      8  O   UNL     1      22.329  29.651  25.319  1.00  0.00    -0.338 OA
BRANCH   8   9
ATOM      9  C   UNL     1      22.691  29.625  23.998  1.00  0.00     0.199 C 
BRANCH   9  10
ATOM     10  C   UNL     1      23.039  28.223  23.521  1.00  0.00     0.179 C 
ATOM     11  C   UNL     1      22.573  26.081  24.323  1.00  0.00     0.282 C 
ATOM     12  O   UNL     1      22.928  27.374  24.584  1.00  0.00    -0.341 OA
ATOM     13  C   UNL     1      21.217  26.144  23.608  1.00  0.00     0.202 C 
ATOM     14  C   UNL     1      21.562  26.637  22.204  1.00  0.00     0.179 C 
ATOM     15  C   UNL     1      22.451  27.831  22.227  1.00  0.00     0.177 C 
BRANCH  11  16
ATOM     16  O   UNL     1      22.519  25.358  25.491  1.00  0.00    -0.341 OA
BRANCH  16  17
ATOM     17  C   UNL     1      22.782  26.136  26.607  1.00  0.00     0.184 C 
ATOM     18  C   UNL     1      23.882  25.554  27.429  1.00  0.00     0.178 C 
ATOM     19  O   UNL     1      23.538  25.043  28.641  1.00  0.00    -0.341 OA
ATOM     20  C   UNL     1      22.679  25.742  29.430  1.00  0.00     0.281 C 
ATOM     21  C   UNL     1      21.534  26.428  27.384  1.00  0.00     0.180 C 
ATOM     22  C   UNL     1      21.901  26.839  28.785  1.00  0.00     0.202 C 
BRANCH  18  23
ATOM     23  C   UNL     1      25.084  26.495  27.513  1.00  0.00     0.191 C 
BRANCH  23  24
ATOM     24  O   UNL     1      24.797  27.732  26.963  1.00  0.00    -0.394 OA
ATOM     25  H   UNL     1      25.427  28.385  27.360  1.00  0.00     0.210 HD
ENDBRANCH  23  24
ENDBRANCH  18  23
BRANCH  20  26
ATOM     26  O   UNL     1      23.410  26.265  30.491  1.00  0.00    -0.350 OA
BRANCH  26  27
ATOM     27  C   UNL     1      24.217  25.354  31.126  1.00  0.00     0.169 C 
BRANCH  27  28
ATOM     28  C   UNL     1      25.581  25.887  31.493  1.00  0.00     0.119 C 
BRANCH  28  29
ATOM     29  N   UNL     1      26.549  25.420  30.502  1.00  0.00    -0.092 NA
ATOM     30  N   UNL     1      27.747  25.287  30.782  1.00  0.00     0.001 N 
ATOM     31  N   UNL     1      28.913  25.328  31.172  1.00  0.00    -0.003 NA
ENDBRANCH  28  29
ENDBRANCH  27  28
ENDBRANCH  26  27
ENDBRANCH  20  26
BRANCH  21  32
ATOM     32  O   UNL     1      20.781  27.459  26.814  1.00  0.00    -0.387 OA
ATOM     33  H   UNL     1      19.825  27.410  27.087  1.00  0.00     0.211 HD
ENDBRANCH  21  32
BRANCH  22  34
ATOM     34  O   UNL     1      20.715  27.017  29.495  1.00  0.00    -0.385 OA
ATOM     35  H   UNL     1      19.915  26.942  28.917  1.00  0.00     0.211 HD
ENDBRANCH  22  34
ENDBRANCH  16  17
ENDBRANCH  11  16
BRANCH  13  36
ATOM     36  O   UNL     1      20.598  24.920  23.535  1.00  0.00    -0.385 OA
ATOM     37  H   UNL     1      21.001  24.263  24.167  1.00  0.00     0.211 HD
ENDBRANCH  13  36
BRANCH  14  38
ATOM     38  O   UNL     1      20.464  26.739  21.381  1.00  0.00    -0.387 OA
ATOM     39  H   UNL     1      19.777  26.035  21.585  1.00  0.00     0.211 HD
ENDBRANCH  14  38
BRANCH  15  40
ATOM     40  O   UNL     1      21.709  28.918  21.718  1.00  0.00    -0.387 OA
ATOM     41  H   UNL     1      21.239  29.368  22.467  1.00  0.00     0.211 HD
ENDBRANCH  15  40
ENDBRANCH   9  10
ENDBRANCH   8   9
ENDBRANCH   3   8
BRANCH   3  42
ATOM     42  C   UNL     1      20.234  30.422  24.610  1.00  0.00     0.364 C 
ATOM     43  O   UNL     1      19.676  29.272  24.518  1.00  0.00    -0.246 OA
BRANCH  42  44
ATOM     44  O   UNL     1      19.827  31.437  23.793  1.00  0.00    -0.477 OA
ATOM     45  H   UNL     1      19.193  31.238  23.024  1.00  0.00     0.296 HD
ENDBRANCH  42  44
ENDBRANCH   3  42
BRANCH   6  46
ATOM     46  O   UNL     1      24.130  32.064  25.936  1.00  0.00    -0.391 OA
ATOM     47  H   UNL     1      24.660  31.438  26.467  1.00  0.00     0.211 HD
ENDBRANCH   6  46
BRANCH   7  48
ATOM     48  N   UNL     1      23.353  31.869  28.857  1.00  0.00    -0.348 N 
ATOM     49  C   UNL     1      24.353  31.109  29.519  1.00  0.00     0.217 C 
ATOM     50  H   UNL     1      23.131  32.830  29.197  1.00  0.00     0.163 HD
ATOM     51  C   UNL     1      25.040  31.687  30.691  1.00  0.00     0.114 C 
ATOM     52  O   UNL     1      24.643  29.966  29.106  1.00  0.00    -0.275 OA
ENDBRANCH   7  48
ENDBRANCH   1   2
BRANCH   1  53
ATOM     53  O   UNL     1      19.700  29.665  28.789  1.00  0.00    -0.388 OA
ATOM     54  H   UNL     1      19.017  29.694  29.491  1.00  0.00     0.211 HD
ENDBRANCH   1  53
BRANCH   1  55
ATOM     55  C   UNL     1      20.026  31.535  30.149  1.00  0.00     0.165 C 
BRANCH  55  56
ATOM     56  O   UNL     1      21.096  32.230  30.784  1.00  0.00    -0.388 OA
ATOM     57  H   UNL     1      21.304  33.021  30.247  1.00  0.00     0.211 HD
ENDBRANCH  55  56
BRANCH  55  58
ATOM     58  C   UNL     1      19.191  30.918  31.191  1.00  0.00     0.154 C 
BRANCH  58  59
ATOM     59  N   UNL     1      17.880  30.559  30.812  1.00  0.00    -0.319 N 
ATOM     60  C   UNL     1      16.754  31.404  30.819  1.00  0.00     0.407 C 
ATOM     61  H   UNL     1      17.648  29.552  30.475  1.00  0.00     0.167 HD
ATOM     62  O   UNL     1      16.815  32.599  31.180  1.00  0.00    -0.225 OA
BRANCH  60  63
ATOM     63  O   UNL     1      15.487  30.965  30.420  1.00  0.00    -0.443 OA
BRANCH  63  64
ATOM     64  C   UNL     1      14.866  31.439  29.245  1.00  0.00     0.294 C 
BRANCH  64  65
ATOM     65  C   UNL     1      15.781  31.379  28.080  1.00  0.00     0.121 A 
ATOM     66  C   UNL     1      15.498  31.734  26.787  1.00  0.00     0.146 A 
ATOM     67  N   UNL     1      17.061  30.944  28.055  1.00  0.00    -0.131 NA
ATOM     68  N   UNL     1      16.613  31.505  25.996  1.00  0.00    -0.202 N 
ATOM     69  N   UNL     1      17.505  31.036  26.816  1.00  0.00    -0.060 NA
BRANCH  68  70
ATOM     70  C   UNL     1      16.539  31.780  24.620  1.00  0.00     0.164 A 
ATOM     71  N   UNL     1      16.991  32.978  24.173  1.00  0.00    -0.193 NA
ATOM     72  C   UNL     1      16.099  30.865  23.652  1.00  0.00     0.026 A 
ATOM     73  C   UNL     1      17.037  33.315  22.883  1.00  0.00     0.222 A 
ATOM     74  C   UNL     1      16.141  31.186  22.329  1.00  0.00     0.081 A 
ATOM     75  N   UNL     1      16.617  32.427  21.979  1.00  0.00    -0.213 NA
BRANCH  72  76
ATOM     76  C   UNL     1      15.501  29.629  24.170  1.00  0.00     0.070 C 
BRANCH  76  77
ATOM     77  C   UNL     1      13.988  29.628  24.188  1.00  0.00     0.165 C 
BRANCH  77  78
ATOM     78  O   UNL     1      13.368  30.840  24.204  1.00  0.00    -0.381 OA
BRANCH  78  79
ATOM     79  C   UNL     1      12.090  30.916  23.737  1.00  0.00     0.156 C 
ATOM     80  C   UNL     1      11.247  29.725  24.225  1.00  0.00     0.035 C 
ENDBRANCH  78  79
ENDBRANCH  77  78
ENDBRANCH  76  77
ENDBRANCH  72  76
BRANCH  73  81
ATOM     81  N   UNL     1      17.521  34.595  22.462  1.00  0.00    -0.368 N 
ATOM     82  H   UNL     1      16.927  35.442  22.574  1.00  0.00     0.159 HD
ATOM     83  H   UNL     1      18.455  34.730  22.042  1.00  0.00     0.159 HD
ENDBRANCH  73  81
BRANCH  74  84
ATOM     84  C   UNL     1      15.730  30.291  21.269  1.00  0.00     0.001 A 
ATOM     85  C   UNL     1      14.490  30.511  20.675  1.00  0.00     0.010 A 
ATOM     86  C   UNL     1      16.529  29.257  20.817  1.00  0.00     0.010 A 
ATOM     87  C   UNL     1      14.037  29.711  19.633  1.00  0.00     0.001 A 
ATOM     88  C   UNL     1      16.062  28.477  19.786  1.00  0.00     0.001 A 
ATOM     89  C   UNL     1      14.842  28.687  19.193  1.00  0.00     0.000 A 
ENDBRANCH  74  84
ENDBRANCH  68  70
ENDBRANCH  64  65
ENDBRANCH  63  64
ENDBRANCH  60  63
ENDBRANCH  58  59
ENDBRANCH  55  58
ENDBRANCH   1  55
TORSDOF 36
