REMARK VINA RESULT:    -4.231     21.043     26.477
REMARK INTER + INTRA:         -22.574
REMARK INTER:                 -16.770
REMARK INTRA:                  -5.804
REMARK UNBOUND:               -11.418
REMARK SMILES CC(=O)N[C@@H]1[C@@H](O)C[C@](OC[C@H]2O[C@@H](O[C@H]3[C@H](O)[C@@H](O)[C@H](OCCN=[N+]=[N-])O[C@@H]3CO)[C@H](O)[C@@H](O)[C@H]2O)(C(=O)O)O[C@H]1C(O)[C@H](O)CNC(=O)OCc1cn(CC(=O)NCc2cccs2)nn1
REMARK SMILES IDX 43 1 42 2 9 3 8 4 41 5 6 6 5 7 10 8 11 9 12 10 14 11 13 12
REMARK SMILES IDX 32 13 34 14 36 15 15 16 16 17 29 18 28 19 21 20 17 21 19 22
REMARK SMILES IDX 30 23 31 24 22 26 23 27 24 28 25 29 26 30 27 31 18 32 20 34
REMARK SMILES IDX 33 36 35 38 37 40 38 42 39 43 40 44 7 46 4 48 2 49 1 51 3 52
REMARK SMILES IDX 44 53 45 55 46 56 47 58 48 59 49 60 50 62 51 63 52 64 53 65
REMARK SMILES IDX 54 66 67 67 55 68 66 69 56 70 57 71 58 72 59 73 60 75 61 76
REMARK SMILES IDX 62 77 65 78 63 79 64 80
REMARK H PARENT 31 25 18 33 20 35 33 37 35 39 37 41 40 45 7 47 4 50 44 54
REMARK H PARENT 46 57 48 61 59 74
REMARK Flexibility Score: inf
ROOT
ATOM      1  C   UNL     1      33.486  20.097  28.621  1.00  0.00     0.176 C 
ENDROOT
BRANCH   1   2
ATOM      2  C   UNL     1      33.895  18.654  28.481  1.00  0.00     0.178 C 
ATOM      3  C   UNL     1      32.708  17.463  26.818  1.00  0.00     0.272 C 
ATOM      4  C   UNL     1      31.629  17.202  27.881  1.00  0.00     0.113 C 
ATOM      5  O   UNL     1      33.696  18.279  27.198  1.00  0.00    -0.332 OA
ATOM      6  C   UNL     1      32.293  16.833  29.145  1.00  0.00     0.145 C 
ATOM      7  C   UNL     1      33.427  17.740  29.544  1.00  0.00     0.142 C 
BRANCH   3   8
ATOM      8  O   UNL     1      32.007  17.985  25.756  1.00  0.00    -0.338 OA
BRANCH   8   9
ATOM      9  C   UNL     1      32.577  18.157  24.561  1.00  0.00     0.199 C 
BRANCH   9  10
ATOM     10  C   UNL     1      32.938  19.539  24.099  1.00  0.00     0.179 C 
ATOM     11  C   UNL     1      32.564  20.812  22.226  1.00  0.00     0.282 C 
ATOM     12  O   UNL     1      32.019  19.825  23.059  1.00  0.00    -0.341 OA
ATOM     13  C   UNL     1      33.173  21.925  23.011  1.00  0.00     0.202 C 
ATOM     14  C   UNL     1      32.824  21.952  24.462  1.00  0.00     0.179 C 
ATOM     15  C   UNL     1      32.677  20.621  25.125  1.00  0.00     0.177 C 
BRANCH  11  16
ATOM     16  O   UNL     1      31.663  21.293  21.317  1.00  0.00    -0.341 OA
BRANCH  16  17
ATOM     17  C   UNL     1      30.400  20.716  21.428  1.00  0.00     0.184 C 
ATOM     18  C   UNL     1      29.877  20.169  20.174  1.00  0.00     0.178 C 
ATOM     19  O   UNL     1      28.819  20.798  19.575  1.00  0.00    -0.341 OA
ATOM     20  C   UNL     1      28.445  22.014  20.046  1.00  0.00     0.281 C 
ATOM     21  C   UNL     1      29.528  21.688  22.170  1.00  0.00     0.180 C 
ATOM     22  C   UNL     1      28.163  21.846  21.550  1.00  0.00     0.202 C 
BRANCH  18  23
ATOM     23  C   UNL     1      29.404  18.716  20.385  1.00  0.00     0.191 C 
BRANCH  23  24
ATOM     24  O   UNL     1      29.818  17.878  19.374  1.00  0.00    -0.394 OA
ATOM     25  H   UNL     1      30.419  18.396  18.773  1.00  0.00     0.210 HD
ENDBRANCH  23  24
ENDBRANCH  18  23
BRANCH  20  26
ATOM     26  O   UNL     1      27.192  22.339  19.500  1.00  0.00    -0.350 OA
BRANCH  26  27
ATOM     27  C   UNL     1      27.297  22.772  18.194  1.00  0.00     0.169 C 
BRANCH  27  28
ATOM     28  C   UNL     1      26.338  23.956  18.032  1.00  0.00     0.119 C 
BRANCH  28  29
ATOM     29  N   UNL     1      25.775  24.296  19.330  1.00  0.00    -0.092 NA
ATOM     30  N   UNL     1      25.970  25.415  19.801  1.00  0.00     0.001 N 
ATOM     31  N   UNL     1      25.960  26.582  20.236  1.00  0.00    -0.003 NA
ENDBRANCH  28  29
ENDBRANCH  27  28
ENDBRANCH  26  27
ENDBRANCH  20  26
BRANCH  21  32
ATOM     32  O   UNL     1      29.428  21.402  23.536  1.00  0.00    -0.387 OA
ATOM     33  H   UNL     1      29.079  22.197  24.044  1.00  0.00     0.211 HD
ENDBRANCH  21  32
BRANCH  22  34
ATOM     34  O   UNL     1      27.578  22.983  22.071  1.00  0.00    -0.385 OA
ATOM     35  H   UNL     1      27.245  22.818  22.990  1.00  0.00     0.211 HD
ENDBRANCH  22  34
ENDBRANCH  16  17
ENDBRANCH  11  16
BRANCH  13  36
ATOM     36  O   UNL     1      34.578  21.965  22.854  1.00  0.00    -0.385 OA
ATOM     37  H   UNL     1      35.029  21.177  23.197  1.00  0.00     0.211 HD
ENDBRANCH  13  36
BRANCH  14  38
ATOM     38  O   UNL     1      31.693  22.773  24.685  1.00  0.00    -0.387 OA
ATOM     39  H   UNL     1      31.804  23.629  24.202  1.00  0.00     0.211 HD
ENDBRANCH  14  38
BRANCH  15  40
ATOM     40  O   UNL     1      31.327  20.531  25.541  1.00  0.00    -0.387 OA
ATOM     41  H   UNL     1      30.784  19.987  24.926  1.00  0.00     0.211 HD
ENDBRANCH  15  40
ENDBRANCH   9  10
ENDBRANCH   8   9
ENDBRANCH   3   8
BRANCH   3  42
ATOM     42  C   UNL     1      33.247  16.103  26.503  1.00  0.00     0.364 C 
ATOM     43  O   UNL     1      32.611  15.209  25.900  1.00  0.00    -0.246 OA
BRANCH  42  44
ATOM     44  O   UNL     1      34.542  15.784  26.891  1.00  0.00    -0.477 OA
ATOM     45  H   UNL     1      34.705  15.128  27.644  1.00  0.00     0.296 HD
ENDBRANCH  42  44
ENDBRANCH   3  42
BRANCH   6  46
ATOM     46  O   UNL     1      31.317  16.753  30.180  1.00  0.00    -0.391 OA
ATOM     47  H   UNL     1      31.024  17.646  30.462  1.00  0.00     0.211 HD
ENDBRANCH   6  46
BRANCH   7  48
ATOM     48  N   UNL     1      34.517  16.978  30.123  1.00  0.00    -0.348 N 
ATOM     49  C   UNL     1      34.498  16.642  31.493  1.00  0.00     0.217 C 
ATOM     50  H   UNL     1      35.343  16.663  29.551  1.00  0.00     0.163 HD
ATOM     51  C   UNL     1      35.629  15.859  32.072  1.00  0.00     0.114 C 
ATOM     52  O   UNL     1      33.576  16.964  32.279  1.00  0.00    -0.275 OA
ENDBRANCH   7  48
ENDBRANCH   1   2
BRANCH   1  53
ATOM     53  O   UNL     1      32.161  20.316  28.866  1.00  0.00    -0.388 OA
ATOM     54  H   UNL     1      31.930  21.159  29.311  1.00  0.00     0.211 HD
ENDBRANCH   1  53
BRANCH   1  55
ATOM     55  C   UNL     1      34.402  20.942  29.480  1.00  0.00     0.165 C 
BRANCH  55  56
ATOM     56  O   UNL     1      34.048  20.964  30.795  1.00  0.00    -0.388 OA
ATOM     57  H   UNL     1      33.496  20.208  31.093  1.00  0.00     0.211 HD
ENDBRANCH  55  56
BRANCH  55  58
ATOM     58  C   UNL     1      34.497  22.348  28.912  1.00  0.00     0.154 C 
BRANCH  58  59
ATOM     59  N   UNL     1      33.477  23.223  29.408  1.00  0.00    -0.319 N 
ATOM     60  C   UNL     1      32.305  23.637  28.729  1.00  0.00     0.407 C 
ATOM     61  H   UNL     1      33.554  23.645  30.402  1.00  0.00     0.167 HD
ATOM     62  O   UNL     1      32.038  23.254  27.590  1.00  0.00    -0.225 OA
BRANCH  60  63
ATOM     63  O   UNL     1      31.382  24.515  29.332  1.00  0.00    -0.443 OA
BRANCH  63  64
ATOM     64  C   UNL     1      30.746  25.571  28.689  1.00  0.00     0.294 C 
BRANCH  64  65
ATOM     65  C   UNL     1      29.351  25.790  29.095  1.00  0.00     0.120 A 
ATOM     66  C   UNL     1      28.531  26.833  28.722  1.00  0.00     0.138 A 
ATOM     67  N   UNL     1      28.603  25.003  29.912  1.00  0.00    -0.132 NA
ATOM     68  N   UNL     1      27.336  26.665  29.302  1.00  0.00    -0.243 N 
ATOM     69  N   UNL     1      27.414  25.560  30.006  1.00  0.00    -0.067 NA
BRANCH  68  70
ATOM     70  C   UNL     1      26.136  27.469  29.232  1.00  0.00     0.245 C 
BRANCH  70  71
ATOM     71  C   UNL     1      24.977  26.567  29.094  1.00  0.00     0.242 C 
ATOM     72  O   UNL     1      24.014  26.657  29.876  1.00  0.00    -0.273 OA
ATOM     73  N   UNL     1      24.947  25.589  28.070  1.00  0.00    -0.350 N 
ATOM     74  H   UNL     1      25.746  25.479  27.384  1.00  0.00     0.163 HD
BRANCH  73  75
ATOM     75  C   UNL     1      23.841  24.698  27.901  1.00  0.00     0.162 C 
BRANCH  75  76
ATOM     76  C   UNL     1      23.454  24.670  26.483  1.00  0.00     0.024 A 
ATOM     77  C   UNL     1      22.238  24.645  25.882  1.00  0.00     0.017 A 
ATOM     78  S   UNL     1      24.578  24.671  25.132  1.00  0.00    -0.147 S 
ATOM     79  C   UNL     1      22.166  24.628  24.542  1.00  0.00     0.012 A 
ATOM     80  C   UNL     1      23.290  24.636  23.804  1.00  0.00     0.065 A 
ENDBRANCH  75  76
ENDBRANCH  73  75
ENDBRANCH  70  71
ENDBRANCH  68  70
ENDBRANCH  64  65
ENDBRANCH  63  64
ENDBRANCH  60  63
ENDBRANCH  58  59
ENDBRANCH  55  58
ENDBRANCH   1  55
TORSDOF 33
