REMARK VINA RESULT:    -6.759     14.069     20.518
REMARK INTER + INTRA:         -22.770
REMARK INTER:                 -15.707
REMARK INTRA:                  -7.063
REMARK UNBOUND:                -5.144
REMARK SMILES CC(=O)N[C@@H]1[C@@H](O)C[C@](OC[C@H]2O[C@@H](O[C@H]3[C@H](O)[C@@H](O)[C@H](OCCN=[N+]=[N-])O[C@@H]3CO)[C@H](O)[C@@H](O)[C@H]2O)(C(=O)O)O[C@H]1C(O)[C@H](O)CNC(=O)OCc1cn(-c2cccc(C=CC(=O)O)c2)nn1
REMARK SMILES IDX 43 1 42 2 9 3 8 4 41 5 6 6 5 7 10 8 11 9 12 10 14 11 13 12
REMARK SMILES IDX 32 13 34 14 36 15 15 16 16 17 29 18 28 19 21 20 17 21 19 22
REMARK SMILES IDX 30 23 31 24 22 26 23 27 24 28 25 29 26 30 27 31 18 32 20 34
REMARK SMILES IDX 33 36 35 38 37 40 38 42 39 43 40 44 7 46 4 48 2 49 1 51 3 52
REMARK SMILES IDX 44 53 45 55 46 56 47 58 48 59 49 60 50 62 51 63 52 64 53 65
REMARK SMILES IDX 54 66 68 67 55 68 67 69 56 70 66 71 57 72 60 73 58 74 59 75
REMARK SMILES IDX 61 76 62 77 63 78 64 79 65 80
REMARK H PARENT 31 25 18 33 20 35 33 37 35 39 37 41 40 45 7 47 4 50 44 54
REMARK H PARENT 46 57 48 61 65 81
REMARK Flexibility Score: inf
ROOT
ATOM      1  C   UNL     1       5.958  24.186  34.088  1.00  0.00     0.176 C 
ENDROOT
BRANCH   1   2
ATOM      2  C   UNL     1       5.822  25.647  34.468  1.00  0.00     0.178 C 
ATOM      3  C   UNL     1       6.724  27.714  33.782  1.00  0.00     0.272 C 
ATOM      4  C   UNL     1       5.744  28.081  34.998  1.00  0.00     0.113 C 
ATOM      5  O   UNL     1       6.722  26.337  33.705  1.00  0.00    -0.332 OA
ATOM      6  C   UNL     1       6.277  27.333  36.167  1.00  0.00     0.145 C 
ATOM      7  C   UNL     1       6.127  25.843  35.927  1.00  0.00     0.142 C 
BRANCH   3   8
ATOM      8  O   UNL     1       7.910  28.135  34.238  1.00  0.00    -0.338 OA
BRANCH   8   9
ATOM      9  C   UNL     1       8.940  28.535  33.514  1.00  0.00     0.199 C 
BRANCH   9  10
ATOM     10  C   UNL     1      10.183  29.048  34.210  1.00  0.00     0.179 C 
ATOM     11  C   UNL     1      11.687  27.889  35.620  1.00  0.00     0.282 C 
ATOM     12  O   UNL     1      10.404  28.279  35.290  1.00  0.00    -0.341 OA
ATOM     13  C   UNL     1      12.650  28.935  35.219  1.00  0.00     0.202 C 
ATOM     14  C   UNL     1      12.612  29.328  33.774  1.00  0.00     0.179 C 
ATOM     15  C   UNL     1      11.297  28.886  33.186  1.00  0.00     0.177 C 
BRANCH  11  16
ATOM     16  O   UNL     1      11.852  26.623  35.105  1.00  0.00    -0.341 OA
BRANCH  16  17
ATOM     17  C   UNL     1      11.346  25.607  35.840  1.00  0.00     0.184 C 
ATOM     18  C   UNL     1      12.422  24.668  36.294  1.00  0.00     0.178 C 
ATOM     19  O   UNL     1      11.832  23.912  37.335  1.00  0.00    -0.341 OA
ATOM     20  C   UNL     1      10.918  23.004  36.792  1.00  0.00     0.281 C 
ATOM     21  C   UNL     1      10.371  24.732  35.047  1.00  0.00     0.180 C 
ATOM     22  C   UNL     1       9.849  23.660  35.981  1.00  0.00     0.202 C 
BRANCH  18  23
ATOM     23  C   UNL     1      13.657  25.320  36.803  1.00  0.00     0.191 C 
BRANCH  23  24
ATOM     24  O   UNL     1      14.477  25.650  35.727  1.00  0.00    -0.394 OA
ATOM     25  H   UNL     1      15.423  25.793  36.043  1.00  0.00     0.210 HD
ENDBRANCH  23  24
ENDBRANCH  18  23
BRANCH  20  26
ATOM     26  O   UNL     1      10.324  22.329  37.855  1.00  0.00    -0.350 OA
BRANCH  26  27
ATOM     27  C   UNL     1       9.461  23.150  38.577  1.00  0.00     0.169 C 
BRANCH  27  28
ATOM     28  C   UNL     1       8.953  22.362  39.763  1.00  0.00     0.119 C 
BRANCH  28  29
ATOM     29  N   UNL     1       9.516  21.034  39.733  1.00  0.00    -0.092 NA
ATOM     30  N   UNL     1       9.971  20.519  40.770  1.00  0.00     0.001 N 
ATOM     31  N   UNL     1      10.768  20.163  41.652  1.00  0.00    -0.003 NA
ENDBRANCH  28  29
ENDBRANCH  27  28
ENDBRANCH  26  27
ENDBRANCH  20  26
BRANCH  21  32
ATOM     32  O   UNL     1       9.268  25.446  34.596  1.00  0.00    -0.387 OA
ATOM     33  H   UNL     1       9.579  26.382  34.508  1.00  0.00     0.211 HD
ENDBRANCH  21  32
BRANCH  22  34
ATOM     34  O   UNL     1       9.293  22.663  35.147  1.00  0.00    -0.385 OA
ATOM     35  H   UNL     1       9.375  21.765  35.540  1.00  0.00     0.211 HD
ENDBRANCH  22  34
ENDBRANCH  16  17
ENDBRANCH  11  16
BRANCH  13  36
ATOM     36  O   UNL     1      12.393  30.117  35.972  1.00  0.00    -0.385 OA
ATOM     37  H   UNL     1      12.180  29.864  36.914  1.00  0.00     0.211 HD
ENDBRANCH  13  36
BRANCH  14  38
ATOM     38  O   UNL     1      13.695  28.853  33.030  1.00  0.00    -0.387 OA
ATOM     39  H   UNL     1      13.515  28.881  32.056  1.00  0.00     0.211 HD
ENDBRANCH  14  38
BRANCH  15  40
ATOM     40  O   UNL     1      11.403  27.572  32.775  1.00  0.00    -0.387 OA
ATOM     41  H   UNL     1      12.335  27.211  32.895  1.00  0.00     0.211 HD
ENDBRANCH  15  40
ENDBRANCH   9  10
ENDBRANCH   8   9
ENDBRANCH   3   8
BRANCH   3  42
ATOM     42  C   UNL     1       6.105  28.307  32.608  1.00  0.00     0.364 C 
ATOM     43  O   UNL     1       5.738  29.482  32.428  1.00  0.00    -0.246 OA
BRANCH  42  44
ATOM     44  O   UNL     1       5.875  27.457  31.499  1.00  0.00    -0.477 OA
ATOM     45  H   UNL     1       6.351  26.542  31.497  1.00  0.00     0.296 HD
ENDBRANCH  42  44
ENDBRANCH   3  42
BRANCH   6  46
ATOM     46  O   UNL     1       7.678  27.638  36.222  1.00  0.00    -0.391 OA
ATOM     47  H   UNL     1       7.888  28.344  35.550  1.00  0.00     0.211 HD
ENDBRANCH   6  46
BRANCH   7  48
ATOM     48  N   UNL     1       5.280  25.162  36.838  1.00  0.00    -0.348 N 
ATOM     49  C   UNL     1       5.514  24.858  38.182  1.00  0.00     0.217 C 
ATOM     50  H   UNL     1       4.331  24.793  36.463  1.00  0.00     0.163 HD
ATOM     51  C   UNL     1       4.456  24.096  38.958  1.00  0.00     0.114 C 
ATOM     52  O   UNL     1       6.559  25.176  38.812  1.00  0.00    -0.275 OA
ENDBRANCH   7  48
ENDBRANCH   1   2
BRANCH   1  53
ATOM     53  O   UNL     1       6.690  23.524  35.057  1.00  0.00    -0.388 OA
ATOM     54  H   UNL     1       7.625  23.369  34.834  1.00  0.00     0.211 HD
ENDBRANCH   1  53
BRANCH   1  55
ATOM     55  C   UNL     1       4.600  23.485  34.031  1.00  0.00     0.165 C 
BRANCH  55  56
ATOM     56  O   UNL     1       4.179  23.000  35.238  1.00  0.00    -0.388 OA
ATOM     57  H   UNL     1       4.901  22.794  35.875  1.00  0.00     0.211 HD
ENDBRANCH  55  56
BRANCH  55  58
ATOM     58  C   UNL     1       4.577  22.435  32.966  1.00  0.00     0.154 C 
BRANCH  58  59
ATOM     59  N   UNL     1       4.074  22.931  31.736  1.00  0.00    -0.319 N 
ATOM     60  C   UNL     1       2.852  22.494  31.177  1.00  0.00     0.407 C 
ATOM     61  H   UNL     1       4.609  23.657  31.186  1.00  0.00     0.167 HD
ATOM     62  O   UNL     1       2.144  21.626  31.759  1.00  0.00    -0.225 OA
BRANCH  60  63
ATOM     63  O   UNL     1       2.362  22.989  29.971  1.00  0.00    -0.443 OA
BRANCH  63  64
ATOM     64  C   UNL     1       1.405  24.052  30.059  1.00  0.00     0.294 C 
BRANCH  64  65
ATOM     65  C   UNL     1       2.162  25.317  30.048  1.00  0.00     0.121 A 
ATOM     66  C   UNL     1       2.910  25.855  29.004  1.00  0.00     0.144 A 
ATOM     67  N   UNL     1       2.257  26.192  31.062  1.00  0.00    -0.131 NA
ATOM     68  N   UNL     1       3.424  27.033  29.426  1.00  0.00    -0.220 N 
ATOM     69  N   UNL     1       3.014  27.207  30.666  1.00  0.00    -0.062 NA
BRANCH  68  70
ATOM     70  C   UNL     1       4.235  27.870  28.619  1.00  0.00     0.067 A 
ATOM     71  C   UNL     1       5.045  27.307  27.632  1.00  0.00     0.036 A 
ATOM     72  C   UNL     1       4.243  29.215  28.779  1.00  0.00     0.028 A 
ATOM     73  C   UNL     1       5.838  28.068  26.832  1.00  0.00    -0.023 A 
ATOM     74  C   UNL     1       5.039  30.035  27.983  1.00  0.00     0.003 A 
ATOM     75  C   UNL     1       5.822  29.436  27.023  1.00  0.00     0.008 A 
BRANCH  73  76
ATOM     76  C   UNL     1       6.682  27.486  25.810  1.00  0.00     0.015 C 
ATOM     77  C   UNL     1       7.978  27.398  25.969  1.00  0.00     0.094 C 
BRANCH  77  78
ATOM     78  C   UNL     1       8.793  26.801  24.909  1.00  0.00     0.328 C 
ATOM     79  O   UNL     1       8.305  26.026  24.079  1.00  0.00    -0.247 OA
BRANCH  78  80
ATOM     80  O   UNL     1      10.151  27.100  24.815  1.00  0.00    -0.478 OA
ATOM     81  H   UNL     1      10.406  27.971  24.346  1.00  0.00     0.297 HD
ENDBRANCH  78  80
ENDBRANCH  77  78
ENDBRANCH  73  76
ENDBRANCH  68  70
ENDBRANCH  64  65
ENDBRANCH  63  64
ENDBRANCH  60  63
ENDBRANCH  58  59
ENDBRANCH  55  58
ENDBRANCH   1  55
TORSDOF 33
