REMARK VINA RESULT:    -5.515     13.030     18.354
REMARK INTER + INTRA:         -23.280
REMARK INTER:                 -18.591
REMARK INTRA:                  -4.690
REMARK UNBOUND:                -8.417
REMARK SMILES CC(=O)N[C@@H]1[C@@H](O)C[C@](OC[C@H]2O[C@@H](O[C@H]3[C@H](O)[C@@H](O)[C@H](OCCN=[N+]=[N-])O[C@@H]3CO)[C@H](O)[C@@H](O)[C@H]2O)(C(=O)O)O[C@H]1C(O)[C@H](O)CNC(=O)OCc1cn(CCNC(=O)NCc2ccco2)nn1
REMARK SMILES IDX 43 1 42 2 9 3 8 4 41 5 6 6 5 7 10 8 11 9 12 10 14 11 13 12
REMARK SMILES IDX 32 13 34 14 36 15 15 16 16 17 29 18 28 19 21 20 17 21 19 22
REMARK SMILES IDX 30 23 31 24 22 26 23 27 24 28 25 29 26 30 27 31 18 32 20 34
REMARK SMILES IDX 33 36 35 38 37 40 38 42 39 43 40 44 7 46 4 48 2 49 1 51 3 52
REMARK SMILES IDX 44 53 45 55 46 56 47 58 48 59 49 60 50 62 51 63 52 64 53 65
REMARK SMILES IDX 54 66 69 67 55 68 68 69 56 70 57 71 58 72 59 73 60 75 61 76
REMARK SMILES IDX 62 78 63 79 64 80 67 81 65 82 66 83
REMARK H PARENT 31 25 18 33 20 35 33 37 35 39 37 41 40 45 7 47 4 50 44 54
REMARK H PARENT 46 57 48 61 58 74 61 77
REMARK Flexibility Score: inf
ROOT
ATOM      1  C   UNL     1       3.662  21.455  30.184  1.00  0.00     0.176 C 
ENDROOT
BRANCH   1   2
ATOM      2  C   UNL     1       2.444  20.774  29.647  1.00  0.00     0.178 C 
ATOM      3  C   UNL     1       1.700  22.022  27.765  1.00  0.00     0.272 C 
ATOM      4  C   UNL     1       1.101  22.931  28.887  1.00  0.00     0.113 C 
ATOM      5  O   UNL     1       2.268  20.926  28.306  1.00  0.00    -0.332 OA
ATOM      6  C   UNL     1       0.448  22.157  29.962  1.00  0.00     0.145 C 
ATOM      7  C   UNL     1       1.200  20.939  30.441  1.00  0.00     0.142 C 
BRANCH   3   8
ATOM      8  O   UNL     1       2.695  22.805  27.221  1.00  0.00    -0.338 OA
BRANCH   8   9
ATOM      9  C   UNL     1       2.551  24.123  27.107  1.00  0.00     0.199 C 
BRANCH   9  10
ATOM     10  C   UNL     1       3.419  25.153  27.642  1.00  0.00     0.179 C 
ATOM     11  C   UNL     1       5.268  26.497  27.443  1.00  0.00     0.282 C 
ATOM     12  O   UNL     1       4.330  25.716  26.765  1.00  0.00    -0.341 OA
ATOM     13  C   UNL     1       4.840  26.978  28.780  1.00  0.00     0.202 C 
ATOM     14  C   UNL     1       3.369  27.219  28.953  1.00  0.00     0.179 C 
ATOM     15  C   UNL     1       2.529  26.334  28.081  1.00  0.00     0.177 C 
BRANCH  11  16
ATOM     16  O   UNL     1       5.702  27.571  26.683  1.00  0.00    -0.341 OA
BRANCH  16  17
ATOM     17  C   UNL     1       5.641  27.316  25.298  1.00  0.00     0.184 C 
ATOM     18  C   UNL     1       6.960  27.727  24.711  1.00  0.00     0.178 C 
ATOM     19  O   UNL     1       6.830  28.236  23.421  1.00  0.00    -0.341 OA
ATOM     20  C   UNL     1       6.134  29.433  23.539  1.00  0.00     0.281 C 
ATOM     21  C   UNL     1       4.448  28.030  24.758  1.00  0.00     0.180 C 
ATOM     22  C   UNL     1       4.696  29.147  23.816  1.00  0.00     0.202 C 
BRANCH  18  23
ATOM     23  C   UNL     1       7.832  26.477  24.586  1.00  0.00     0.191 C 
BRANCH  23  24
ATOM     24  O   UNL     1       7.024  25.376  24.947  1.00  0.00    -0.394 OA
ATOM     25  H   UNL     1       6.395  25.745  25.633  1.00  0.00     0.210 HD
ENDBRANCH  23  24
ENDBRANCH  18  23
BRANCH  20  26
ATOM     26  O   UNL     1       6.207  30.050  22.287  1.00  0.00    -0.350 OA
BRANCH  26  27
ATOM     27  C   UNL     1       5.635  29.258  21.292  1.00  0.00     0.169 C 
BRANCH  27  28
ATOM     28  C   UNL     1       5.877  29.985  19.967  1.00  0.00     0.119 C 
BRANCH  28  29
ATOM     29  N   UNL     1       4.794  29.598  19.080  1.00  0.00    -0.092 NA
ATOM     30  N   UNL     1       4.887  29.757  17.854  1.00  0.00     0.001 N 
ATOM     31  N   UNL     1       5.125  29.637  16.640  1.00  0.00    -0.003 NA
ENDBRANCH  28  29
ENDBRANCH  27  28
ENDBRANCH  26  27
ENDBRANCH  20  26
BRANCH  21  32
ATOM     32  O   UNL     1       3.623  27.062  24.151  1.00  0.00    -0.387 OA
ATOM     33  H   UNL     1       2.947  27.461  23.575  1.00  0.00     0.211 HD
ENDBRANCH  21  32
BRANCH  22  34
ATOM     34  O   UNL     1       4.165  30.331  24.386  1.00  0.00    -0.385 OA
ATOM     35  H   UNL     1       4.909  31.005  24.323  1.00  0.00     0.211 HD
ENDBRANCH  22  34
ENDBRANCH  16  17
ENDBRANCH  11  16
BRANCH  13  36
ATOM     36  O   UNL     1       5.376  26.218  29.829  1.00  0.00    -0.385 OA
ATOM     37  H   UNL     1       5.267  26.664  30.699  1.00  0.00     0.211 HD
ENDBRANCH  13  36
BRANCH  14  38
ATOM     38  O   UNL     1       3.034  28.565  28.758  1.00  0.00    -0.387 OA
ATOM     39  H   UNL     1       3.125  28.989  29.656  1.00  0.00     0.211 HD
ENDBRANCH  14  38
BRANCH  15  40
ATOM     40  O   UNL     1       1.980  26.974  26.996  1.00  0.00    -0.387 OA
ATOM     41  H   UNL     1       1.348  26.366  26.570  1.00  0.00     0.211 HD
ENDBRANCH  15  40
ENDBRANCH   9  10
ENDBRANCH   8   9
ENDBRANCH   3   8
BRANCH   3  42
ATOM     42  C   UNL     1       0.581  21.845  26.843  1.00  0.00     0.364 C 
ATOM     43  O   UNL     1       0.551  20.907  26.033  1.00  0.00    -0.246 OA
BRANCH  42  44
ATOM     44  O   UNL     1      -0.523  22.702  26.799  1.00  0.00    -0.477 OA
ATOM     45  H   UNL     1      -1.462  22.301  26.828  1.00  0.00     0.296 HD
ENDBRANCH  42  44
ENDBRANCH   3  42
BRANCH   6  46
ATOM     46  O   UNL     1       0.259  23.025  31.053  1.00  0.00    -0.391 OA
ATOM     47  H   UNL     1       1.144  23.310  31.396  1.00  0.00     0.211 HD
ENDBRANCH   6  46
BRANCH   7  48
ATOM     48  N   UNL     1       0.324  19.774  30.319  1.00  0.00    -0.348 N 
ATOM     49  C   UNL     1       0.336  18.749  31.275  1.00  0.00     0.217 C 
ATOM     50  H   UNL     1      -0.315  19.728  29.497  1.00  0.00     0.163 HD
ATOM     51  C   UNL     1      -0.537  17.540  31.194  1.00  0.00     0.114 C 
ATOM     52  O   UNL     1       1.141  18.872  32.253  1.00  0.00    -0.275 OA
ENDBRANCH   7  48
ENDBRANCH   1   2
BRANCH   1  53
ATOM     53  O   UNL     1       4.693  20.459  30.326  1.00  0.00    -0.388 OA
ATOM     54  H   UNL     1       4.437  19.739  29.730  1.00  0.00     0.211 HD
ENDBRANCH   1  53
BRANCH   1  55
ATOM     55  C   UNL     1       3.556  22.014  31.573  1.00  0.00     0.165 C 
BRANCH  55  56
ATOM     56  O   UNL     1       3.822  23.354  31.726  1.00  0.00    -0.388 OA
ATOM     57  H   UNL     1       3.798  23.863  30.877  1.00  0.00     0.211 HD
ENDBRANCH  55  56
BRANCH  55  58
ATOM     58  C   UNL     1       4.376  21.185  32.567  1.00  0.00     0.154 C 
BRANCH  58  59
ATOM     59  N   UNL     1       5.449  21.968  33.130  1.00  0.00    -0.319 N 
ATOM     60  C   UNL     1       6.811  21.760  32.813  1.00  0.00     0.407 C 
ATOM     61  H   UNL     1       5.208  22.725  33.800  1.00  0.00     0.167 HD
ATOM     62  O   UNL     1       7.122  20.850  32.000  1.00  0.00    -0.225 OA
BRANCH  60  63
ATOM     63  O   UNL     1       7.825  22.529  33.373  1.00  0.00    -0.443 OA
BRANCH  63  64
ATOM     64  C   UNL     1       7.498  23.435  34.423  1.00  0.00     0.294 C 
BRANCH  64  65
ATOM     65  C   UNL     1       8.524  24.520  34.338  1.00  0.00     0.120 A 
ATOM     66  C   UNL     1       8.317  25.831  34.673  1.00  0.00     0.138 A 
ATOM     67  N   UNL     1       9.809  24.394  33.926  1.00  0.00    -0.132 NA
ATOM     68  N   UNL     1       9.465  26.456  34.457  1.00  0.00    -0.250 N 
ATOM     69  N   UNL     1      10.364  25.582  34.005  1.00  0.00    -0.067 NA
BRANCH  68  70
ATOM     70  C   UNL     1       9.690  27.884  34.674  1.00  0.00     0.167 C 
BRANCH  70  71
ATOM     71  C   UNL     1       9.856  28.524  33.295  1.00  0.00     0.141 C 
BRANCH  71  72
ATOM     72  N   UNL     1      11.185  28.221  32.849  1.00  0.00    -0.336 N 
ATOM     73  C   UNL     1      12.348  28.811  33.383  1.00  0.00     0.315 C 
ATOM     74  H   UNL     1      11.268  27.512  32.072  1.00  0.00     0.165 HD
ATOM     75  O   UNL     1      12.282  29.670  34.289  1.00  0.00    -0.249 OA
ATOM     76  N   UNL     1      13.626  28.403  32.869  1.00  0.00    -0.331 N 
ATOM     77  H   UNL     1      13.633  27.678  32.108  1.00  0.00     0.165 HD
BRANCH  76  78
ATOM     78  C   UNL     1      14.834  28.979  33.390  1.00  0.00     0.193 C 
BRANCH  78  79
ATOM     79  C   UNL     1      15.500  28.031  34.322  1.00  0.00     0.122 A 
ATOM     80  C   UNL     1      16.856  27.728  34.296  1.00  0.00     0.047 A 
ATOM     81  O   UNL     1      14.947  27.358  35.275  1.00  0.00    -0.467 OA
ATOM     82  C   UNL     1      17.059  26.829  35.301  1.00  0.00     0.042 A 
ATOM     83  C   UNL     1      15.843  26.620  35.893  1.00  0.00     0.195 A 
ENDBRANCH  78  79
ENDBRANCH  76  78
ENDBRANCH  71  72
ENDBRANCH  70  71
ENDBRANCH  68  70
ENDBRANCH  64  65
ENDBRANCH  63  64
ENDBRANCH  60  63
ENDBRANCH  58  59
ENDBRANCH  55  58
ENDBRANCH   1  55
TORSDOF 34
