REMARK VINA RESULT:    -6.757      1.845      6.181
REMARK INTER + INTRA:         -22.224
REMARK INTER:                 -14.141
REMARK INTRA:                  -8.083
REMARK UNBOUND:                -5.593
REMARK SMILES CC(=O)N[C@@H]1[C@@H](O)C[C@](OC[C@H]2O[C@@H](O[C@H]3[C@H](O)[C@@H](O)[C@H](OCCN=[N+]=[N-])O[C@@H]3CO)[C@H](O)[C@@H](O)[C@H]2O)(C(=O)O)O[C@H]1C(O)[C@H](O)CNC(=O)OCc1cn(C2c3ccccc3-c3ccccc32)nn1
REMARK SMILES IDX 9 1 8 2 6 3 5 4 42 5 41 6 10 7 11 8 12 9 14 10 13 11 32 12
REMARK SMILES IDX 34 13 36 14 15 15 16 16 29 17 28 18 21 19 17 20 19 21 30 22
REMARK SMILES IDX 31 23 22 25 23 26 24 27 25 28 26 29 27 30 18 31 20 33 33 35
REMARK SMILES IDX 35 37 37 39 38 41 39 42 40 43 7 45 43 47 44 48 45 50 46 51
REMARK SMILES IDX 47 53 48 54 49 55 50 57 51 58 52 59 53 60 54 61 70 62 55 63
REMARK SMILES IDX 69 64 56 65 57 66 68 67 58 68 62 69 63 70 67 71 59 72 61 73
REMARK SMILES IDX 64 74 66 75 60 76 65 77 4 78 2 79 1 81 3 82
REMARK H PARENT 31 24 18 32 20 34 33 36 35 38 37 40 40 44 7 46 44 49 46 52
REMARK H PARENT 48 56 4 80
REMARK Flexibility Score: inf
ROOT
ATOM      1  C   UNL     1      21.231  30.565  28.058  1.00  0.00     0.272 C 
ATOM      2  C   UNL     1      20.125  31.456  28.456  1.00  0.00     0.113 C 
ATOM      3  C   UNL     1      19.006  31.463  27.485  1.00  0.00     0.145 C 
ATOM      4  C   UNL     1      19.386  31.000  26.106  1.00  0.00     0.142 C 
ATOM      5  C   UNL     1      20.825  31.308  25.874  1.00  0.00     0.178 C 
ATOM      6  O   UNL     1      21.720  30.810  26.766  1.00  0.00    -0.332 OA
ENDROOT
BRANCH   1   7
ATOM      7  O   UNL     1      20.921  29.234  28.150  1.00  0.00    -0.338 OA
BRANCH   7   8
ATOM      8  C   UNL     1      21.734  28.361  27.481  1.00  0.00     0.199 C 
BRANCH   8   9
ATOM      9  C   UNL     1      21.542  26.960  28.019  1.00  0.00     0.179 C 
ATOM     10  C   UNL     1      22.685  25.967  26.228  1.00  0.00     0.282 C 
ATOM     11  O   UNL     1      21.533  26.090  26.953  1.00  0.00    -0.341 OA
ATOM     12  C   UNL     1      23.867  25.841  27.109  1.00  0.00     0.202 C 
ATOM     13  C   UNL     1      23.325  25.336  28.460  1.00  0.00     0.179 C 
ATOM     14  C   UNL     1      22.594  26.574  29.023  1.00  0.00     0.177 C 
BRANCH  10  15
ATOM     15  O   UNL     1      22.745  26.869  25.200  1.00  0.00    -0.341 OA
BRANCH  15  16
ATOM     16  C   UNL     1      22.930  26.362  23.942  1.00  0.00     0.184 C 
ATOM     17  C   UNL     1      23.716  27.296  23.101  1.00  0.00     0.178 C 
ATOM     18  O   UNL     1      23.271  27.367  21.785  1.00  0.00    -0.341 OA
ATOM     19  C   UNL     1      22.770  26.200  21.307  1.00  0.00     0.281 C 
ATOM     20  C   UNL     1      21.518  26.136  23.407  1.00  0.00     0.180 C 
ATOM     21  C   UNL     1      21.404  25.980  21.948  1.00  0.00     0.202 C 
BRANCH  17  22
ATOM     22  C   UNL     1      25.182  26.923  23.052  1.00  0.00     0.191 C 
BRANCH  22  23
ATOM     23  O   UNL     1      25.420  25.757  23.820  1.00  0.00    -0.394 OA
ATOM     24  H   UNL     1      25.352  25.982  24.797  1.00  0.00     0.210 HD
ENDBRANCH  22  23
ENDBRANCH  17  22
BRANCH  19  25
ATOM     25  O   UNL     1      23.509  25.059  21.555  1.00  0.00    -0.350 OA
BRANCH  25  26
ATOM     26  C   UNL     1      24.113  24.524  20.453  1.00  0.00     0.169 C 
BRANCH  26  27
ATOM     27  C   UNL     1      25.580  24.282  20.542  1.00  0.00     0.119 C 
BRANCH  27  28
ATOM     28  N   UNL     1      25.975  23.595  21.755  1.00  0.00    -0.092 NA
ATOM     29  N   UNL     1      27.033  22.955  21.703  1.00  0.00     0.001 N 
ATOM     30  N   UNL     1      28.022  22.213  21.700  1.00  0.00    -0.003 NA
ENDBRANCH  27  28
ENDBRANCH  26  27
ENDBRANCH  25  26
ENDBRANCH  19  25
BRANCH  20  31
ATOM     31  O   UNL     1      20.981  24.969  24.013  1.00  0.00    -0.387 OA
ATOM     32  H   UNL     1      20.086  25.161  24.391  1.00  0.00     0.211 HD
ENDBRANCH  20  31
BRANCH  21  33
ATOM     33  O   UNL     1      20.551  26.958  21.417  1.00  0.00    -0.385 OA
ATOM     34  H   UNL     1      20.196  27.571  22.112  1.00  0.00     0.211 HD
ENDBRANCH  21  33
ENDBRANCH  15  16
ENDBRANCH  10  15
BRANCH  12  35
ATOM     35  O   UNL     1      24.769  24.861  26.697  1.00  0.00    -0.385 OA
ATOM     36  H   UNL     1      25.485  24.792  27.371  1.00  0.00     0.211 HD
ENDBRANCH  12  35
BRANCH  13  37
ATOM     37  O   UNL     1      24.342  25.039  29.337  1.00  0.00    -0.387 OA
ATOM     38  H   UNL     1      24.898  24.324  28.943  1.00  0.00     0.211 HD
ENDBRANCH  13  37
BRANCH  14  39
ATOM     39  O   UNL     1      23.551  27.570  29.089  1.00  0.00    -0.387 OA
ATOM     40  H   UNL     1      23.810  27.916  28.200  1.00  0.00     0.211 HD
ENDBRANCH  14  39
ENDBRANCH   8   9
ENDBRANCH   7   8
ENDBRANCH   1   7
BRANCH   1  41
ATOM     41  C   UNL     1      22.464  30.850  28.914  1.00  0.00     0.364 C 
ATOM     42  O   UNL     1      22.502  30.359  30.046  1.00  0.00    -0.246 OA
BRANCH  41  43
ATOM     43  O   UNL     1      23.499  31.625  28.450  1.00  0.00    -0.477 OA
ATOM     44  H   UNL     1      24.474  31.422  28.703  1.00  0.00     0.296 HD
ENDBRANCH  41  43
ENDBRANCH   1  41
BRANCH   3  45
ATOM     45  O   UNL     1      17.867  30.769  27.895  1.00  0.00    -0.391 OA
ATOM     46  H   UNL     1      17.040  31.174  27.597  1.00  0.00     0.211 HD
ENDBRANCH   3  45
BRANCH   5  47
ATOM     47  C   UNL     1      21.206  30.821  24.477  1.00  0.00     0.176 C 
BRANCH  47  48
ATOM     48  O   UNL     1      21.344  29.457  24.491  1.00  0.00    -0.388 OA
ATOM     49  H   UNL     1      20.782  29.026  23.779  1.00  0.00     0.211 HD
ENDBRANCH  47  48
BRANCH  47  50
ATOM     50  C   UNL     1      22.470  31.515  24.068  1.00  0.00     0.165 C 
BRANCH  50  51
ATOM     51  O   UNL     1      22.639  32.678  24.839  1.00  0.00    -0.388 OA
ATOM     52  H   UNL     1      21.785  33.154  24.940  1.00  0.00     0.211 HD
ENDBRANCH  50  51
BRANCH  50  53
ATOM     53  C   UNL     1      22.256  32.016  22.635  1.00  0.00     0.154 C 
BRANCH  53  54
ATOM     54  N   UNL     1      21.139  31.311  22.083  1.00  0.00    -0.319 N 
ATOM     55  C   UNL     1      20.251  31.950  21.194  1.00  0.00     0.407 C 
ATOM     56  H   UNL     1      20.980  30.308  22.341  1.00  0.00     0.167 HD
ATOM     57  O   UNL     1      20.406  33.156  20.870  1.00  0.00    -0.225 OA
BRANCH  55  58
ATOM     58  O   UNL     1      19.175  31.290  20.636  1.00  0.00    -0.443 OA
BRANCH  58  59
ATOM     59  C   UNL     1      19.297  30.050  19.956  1.00  0.00     0.294 C 
BRANCH  59  60
ATOM     60  C   UNL     1      18.023  29.312  20.147  1.00  0.00     0.120 A 
ATOM     61  C   UNL     1      16.759  29.833  20.391  1.00  0.00     0.139 A 
ATOM     62  N   UNL     1      17.857  27.981  20.115  1.00  0.00    -0.132 NA
ATOM     63  N   UNL     1      15.881  28.822  20.496  1.00  0.00    -0.240 N 
ATOM     64  N   UNL     1      16.580  27.711  20.323  1.00  0.00    -0.066 NA
BRANCH  63  65
ATOM     65  C   UNL     1      14.444  28.932  20.749  1.00  0.00     0.170 C 
ATOM     66  C   UNL     1      13.877  29.862  19.769  1.00  0.00    -0.011 A 
ATOM     67  C   UNL     1      14.197  29.585  22.047  1.00  0.00    -0.011 A 
ATOM     68  C   UNL     1      13.793  29.814  18.383  1.00  0.00     0.007 A 
ATOM     69  C   UNL     1      13.346  30.961  20.389  1.00  0.00    -0.012 A 
ATOM     70  C   UNL     1      13.553  30.779  21.824  1.00  0.00    -0.012 A 
ATOM     71  C   UNL     1      14.482  29.222  23.349  1.00  0.00     0.007 A 
ATOM     72  C   UNL     1      13.199  30.836  17.677  1.00  0.00     0.000 A 
ATOM     73  C   UNL     1      12.748  31.990  19.676  1.00  0.00     0.009 A 
ATOM     74  C   UNL     1      13.196  31.600  22.870  1.00  0.00     0.009 A 
ATOM     75  C   UNL     1      14.135  30.028  24.409  1.00  0.00     0.000 A 
ATOM     76  C   UNL     1      12.662  31.950  18.305  1.00  0.00     0.001 A 
ATOM     77  C   UNL     1      13.488  31.222  24.168  1.00  0.00     0.001 A 
ENDBRANCH  63  65
ENDBRANCH  59  60
ENDBRANCH  58  59
ENDBRANCH  55  58
ENDBRANCH  53  54
ENDBRANCH  50  53
ENDBRANCH  47  50
ENDBRANCH   5  47
BRANCH   4  78
ATOM     78  N   UNL     1      18.630  31.848  25.165  1.00  0.00    -0.348 N 
ATOM     79  C   UNL     1      17.809  31.287  24.153  1.00  0.00     0.217 C 
ATOM     80  H   UNL     1      18.718  32.869  25.265  1.00  0.00     0.163 HD
ATOM     81  C   UNL     1      17.048  32.161  23.205  1.00  0.00     0.114 C 
ATOM     82  O   UNL     1      17.740  30.029  24.076  1.00  0.00    -0.275 OA
ENDBRANCH   4  78
TORSDOF 30
