REMARK VINA RESULT:    -6.051     12.785     17.851
REMARK INTER + INTRA:         -25.804
REMARK INTER:                 -17.978
REMARK INTRA:                  -7.825
REMARK UNBOUND:                -8.963
REMARK SMILES CC(=O)N[C@@H]1[C@@H](O)C[C@](OC[C@H]2O[C@@H](O[C@H]3[C@H](O)[C@@H](O)[C@H](OCCN=[N+]=[N-])O[C@@H]3CO)[C@H](O)[C@@H](O)[C@H]2O)(C(=O)O)O[C@H]1C(O)[C@H](O)CNC(=O)OCc1cn(C[C@@H](C(=O)O)C(c2ccccc2)c2ccccc2)nn1
REMARK SMILES IDX 43 1 42 2 9 3 8 4 41 5 6 6 5 7 10 8 11 9 12 10 14 11 13 12
REMARK SMILES IDX 32 13 34 14 36 15 15 16 16 17 29 18 28 19 21 20 17 21 19 22
REMARK SMILES IDX 30 23 31 24 22 26 23 27 24 28 25 29 26 30 27 31 18 32 20 34
REMARK SMILES IDX 33 36 35 38 37 40 38 42 39 43 40 44 7 46 4 48 2 49 1 51 3 52
REMARK SMILES IDX 44 53 45 55 46 56 47 58 48 59 49 60 50 62 51 63 52 64 53 65
REMARK SMILES IDX 54 66 75 67 55 68 74 69 56 70 57 71 58 72 59 73 60 74 61 76
REMARK SMILES IDX 62 77 63 78 67 79 64 80 66 81 65 82 68 83 69 84 73 85 70 86
REMARK SMILES IDX 72 87 71 88
REMARK H PARENT 31 25 18 33 20 35 33 37 35 39 37 41 40 45 7 47 4 50 44 54
REMARK H PARENT 46 57 48 61 60 75
REMARK Flexibility Score: inf
ROOT
ATOM      1  C   UNL     1       1.792  23.205  31.042  1.00  0.00     0.176 C 
ENDROOT
BRANCH   1   2
ATOM      2  C   UNL     1       3.152  23.460  31.726  1.00  0.00     0.178 C 
ATOM      3  C   UNL     1       4.637  22.923  33.414  1.00  0.00     0.272 C 
ATOM      4  C   UNL     1       5.425  23.935  32.516  1.00  0.00     0.113 C 
ATOM      5  O   UNL     1       3.360  22.749  32.850  1.00  0.00    -0.332 OA
ATOM      6  C   UNL     1       4.684  25.214  32.335  1.00  0.00     0.145 C 
ATOM      7  C   UNL     1       3.290  24.958  31.861  1.00  0.00     0.142 C 
BRANCH   3   8
ATOM      8  O   UNL     1       4.685  23.351  34.631  1.00  0.00    -0.338 OA
BRANCH   8   9
ATOM      9  C   UNL     1       3.968  23.443  35.681  1.00  0.00     0.199 C 
BRANCH   9  10
ATOM     10  C   UNL     1       4.453  23.915  37.026  1.00  0.00     0.179 C 
ATOM     11  C   UNL     1       6.611  24.298  37.933  1.00  0.00     0.282 C 
ATOM     12  O   UNL     1       5.750  23.554  37.221  1.00  0.00    -0.341 OA
ATOM     13  C   UNL     1       6.135  25.493  38.664  1.00  0.00     0.202 C 
ATOM     14  C   UNL     1       4.722  25.907  38.372  1.00  0.00     0.179 C 
ATOM     15  C   UNL     1       4.429  25.460  36.976  1.00  0.00     0.177 C 
BRANCH  11  16
ATOM     16  O   UNL     1       7.564  24.766  36.982  1.00  0.00    -0.341 OA
BRANCH  16  17
ATOM     17  C   UNL     1       8.245  23.763  36.353  1.00  0.00     0.184 C 
ATOM     18  C   UNL     1       9.687  23.821  36.772  1.00  0.00     0.178 C 
ATOM     19  O   UNL     1      10.436  24.700  35.998  1.00  0.00    -0.341 OA
ATOM     20  C   UNL     1       9.678  25.742  35.444  1.00  0.00     0.281 C 
ATOM     21  C   UNL     1       8.204  23.893  34.836  1.00  0.00     0.180 C 
ATOM     22  C   UNL     1       8.715  25.256  34.415  1.00  0.00     0.202 C 
BRANCH  18  23
ATOM     23  C   UNL     1      10.377  22.487  36.804  1.00  0.00     0.191 C 
BRANCH  23  24
ATOM     24  O   UNL     1      11.560  22.471  36.093  1.00  0.00    -0.394 OA
ATOM     25  H   UNL     1      12.071  21.662  36.399  1.00  0.00     0.210 HD
ENDBRANCH  23  24
ENDBRANCH  18  23
BRANCH  20  26
ATOM     26  O   UNL     1      10.543  26.628  34.842  1.00  0.00    -0.350 OA
BRANCH  26  27
ATOM     27  C   UNL     1      10.416  27.940  35.175  1.00  0.00     0.169 C 
BRANCH  27  28
ATOM     28  C   UNL     1      10.521  28.889  34.026  1.00  0.00     0.119 C 
BRANCH  28  29
ATOM     29  N   UNL     1       9.437  28.523  33.092  1.00  0.00    -0.092 NA
ATOM     30  N   UNL     1       8.311  28.957  33.352  1.00  0.00     0.001 N 
ATOM     31  N   UNL     1       7.164  29.258  33.672  1.00  0.00    -0.003 NA
ENDBRANCH  28  29
ENDBRANCH  27  28
ENDBRANCH  26  27
ENDBRANCH  20  26
BRANCH  21  32
ATOM     32  O   UNL     1       9.080  22.941  34.321  1.00  0.00    -0.387 OA
ATOM     33  H   UNL     1       9.592  23.268  33.546  1.00  0.00     0.211 HD
ENDBRANCH  21  32
BRANCH  22  34
ATOM     34  O   UNL     1       7.658  26.152  34.315  1.00  0.00    -0.385 OA
ATOM     35  H   UNL     1       7.397  26.182  33.340  1.00  0.00     0.211 HD
ENDBRANCH  22  34
ENDBRANCH  16  17
ENDBRANCH  11  16
BRANCH  13  36
ATOM     36  O   UNL     1       6.188  25.265  40.060  1.00  0.00    -0.385 OA
ATOM     37  H   UNL     1       6.738  25.971  40.503  1.00  0.00     0.211 HD
ENDBRANCH  13  36
BRANCH  14  38
ATOM     38  O   UNL     1       4.594  27.277  38.490  1.00  0.00    -0.387 OA
ATOM     39  H   UNL     1       3.979  27.481  39.243  1.00  0.00     0.211 HD
ENDBRANCH  14  38
BRANCH  15  40
ATOM     40  O   UNL     1       5.420  25.941  36.131  1.00  0.00    -0.387 OA
ATOM     41  H   UNL     1       5.082  25.898  35.212  1.00  0.00     0.211 HD
ENDBRANCH  15  40
ENDBRANCH   9  10
ENDBRANCH   8   9
ENDBRANCH   3   8
BRANCH   3  42
ATOM     42  C   UNL     1       5.344  21.655  33.142  1.00  0.00     0.364 C 
ATOM     43  O   UNL     1       6.581  21.495  33.189  1.00  0.00    -0.246 OA
BRANCH  42  44
ATOM     44  O   UNL     1       4.595  20.510  32.798  1.00  0.00    -0.477 OA
ATOM     45  H   UNL     1       4.476  20.317  31.826  1.00  0.00     0.296 HD
ENDBRANCH  42  44
ENDBRANCH   3  42
BRANCH   6  46
ATOM     46  O   UNL     1       4.686  26.000  33.497  1.00  0.00    -0.391 OA
ATOM     47  H   UNL     1       5.054  25.514  34.271  1.00  0.00     0.211 HD
ENDBRANCH   6  46
BRANCH   7  48
ATOM     48  N   UNL     1       3.116  25.544  30.552  1.00  0.00    -0.348 N 
ATOM     49  C   UNL     1       2.791  26.914  30.395  1.00  0.00     0.217 C 
ATOM     50  H   UNL     1       3.238  24.925  29.701  1.00  0.00     0.163 HD
ATOM     51  C   UNL     1       2.609  27.529  29.035  1.00  0.00     0.114 C 
ATOM     52  O   UNL     1       2.659  27.599  31.442  1.00  0.00    -0.275 OA
ENDBRANCH   7  48
ENDBRANCH   1   2
BRANCH   1  53
ATOM     53  O   UNL     1       0.756  23.530  31.874  1.00  0.00    -0.388 OA
ATOM     54  H   UNL     1       0.498  22.814  32.499  1.00  0.00     0.211 HD
ENDBRANCH   1  53
BRANCH   1  55
ATOM     55  C   UNL     1       1.682  21.796  30.606  1.00  0.00     0.165 C 
BRANCH  55  56
ATOM     56  O   UNL     1       1.816  20.873  31.663  1.00  0.00    -0.388 OA
ATOM     57  H   UNL     1       0.872  20.730  31.986  1.00  0.00     0.211 HD
ENDBRANCH  55  56
BRANCH  55  58
ATOM     58  C   UNL     1       2.442  21.303  29.432  1.00  0.00     0.154 C 
BRANCH  58  59
ATOM     59  N   UNL     1       2.882  22.272  28.498  1.00  0.00    -0.319 N 
ATOM     60  C   UNL     1       2.465  22.398  27.156  1.00  0.00     0.407 C 
ATOM     61  H   UNL     1       3.617  23.004  28.846  1.00  0.00     0.167 HD
ATOM     62  O   UNL     1       1.665  21.612  26.619  1.00  0.00    -0.225 OA
BRANCH  60  63
ATOM     63  O   UNL     1       2.970  23.447  26.417  1.00  0.00    -0.443 OA
BRANCH  63  64
ATOM     64  C   UNL     1       3.563  24.551  27.005  1.00  0.00     0.294 C 
BRANCH  64  65
ATOM     65  C   UNL     1       3.790  25.685  26.099  1.00  0.00     0.120 A 
ATOM     66  C   UNL     1       4.972  26.250  25.683  1.00  0.00     0.138 A 
ATOM     67  N   UNL     1       2.819  26.443  25.501  1.00  0.00    -0.132 NA
ATOM     68  N   UNL     1       4.712  27.288  24.883  1.00  0.00    -0.251 N 
ATOM     69  N   UNL     1       3.399  27.383  24.790  1.00  0.00    -0.067 NA
BRANCH  68  70
ATOM     70  C   UNL     1       5.669  28.186  24.206  1.00  0.00     0.162 C 
BRANCH  70  71
ATOM     71  C   UNL     1       6.898  28.339  25.042  1.00  0.00     0.132 C 
BRANCH  71  72
ATOM     72  C   UNL     1       8.003  27.476  24.527  1.00  0.00     0.309 C 
ATOM     73  O   UNL     1       9.191  27.635  24.850  1.00  0.00    -0.252 OA
BRANCH  72  74
ATOM     74  O   UNL     1       7.707  26.447  23.649  1.00  0.00    -0.481 OA
ATOM     75  H   UNL     1       6.752  26.080  23.608  1.00  0.00     0.296 HD
ENDBRANCH  72  74
ENDBRANCH  71  72
BRANCH  71  76
ATOM     76  C   UNL     1       7.350  29.710  25.378  1.00  0.00     0.065 C 
BRANCH  76  77
ATOM     77  C   UNL     1       7.609  30.634  24.273  1.00  0.00    -0.040 A 
ATOM     78  C   UNL     1       6.583  31.021  23.398  1.00  0.00     0.004 A 
ATOM     79  C   UNL     1       8.863  31.185  24.000  1.00  0.00     0.004 A 
ATOM     80  C   UNL     1       6.778  31.871  22.356  1.00  0.00     0.000 A 
ATOM     81  C   UNL     1       9.050  32.043  22.943  1.00  0.00     0.000 A 
ATOM     82  C   UNL     1       8.009  32.396  22.108  1.00  0.00     0.000 A 
ENDBRANCH  76  77
BRANCH  76  83
ATOM     83  C   UNL     1       6.636  30.307  26.538  1.00  0.00    -0.040 A 
ATOM     84  C   UNL     1       5.945  29.439  27.356  1.00  0.00     0.004 A 
ATOM     85  C   UNL     1       6.656  31.649  26.811  1.00  0.00     0.004 A 
ATOM     86  C   UNL     1       5.270  29.897  28.452  1.00  0.00     0.000 A 
ATOM     87  C   UNL     1       5.964  32.101  27.931  1.00  0.00     0.000 A 
ATOM     88  C   UNL     1       5.272  31.239  28.752  1.00  0.00     0.000 A 
ENDBRANCH  76  83
ENDBRANCH  71  76
ENDBRANCH  70  71
ENDBRANCH  68  70
ENDBRANCH  64  65
ENDBRANCH  63  64
ENDBRANCH  60  63
ENDBRANCH  58  59
ENDBRANCH  55  58
ENDBRANCH   1  55
TORSDOF 36
