REMARK VINA RESULT:    -5.478     15.152     19.641
REMARK INTER + INTRA:         -21.328
REMARK INTER:                 -15.498
REMARK INTRA:                  -5.830
REMARK UNBOUND:                -7.364
REMARK SMILES CC(=O)N[C@@H]1[C@@H](O)C[C@](OC[C@H]2O[C@@H](O[C@H]3[C@H](O)[C@@H](O)[C@H](OCCN=[N+]=[N-])O[C@@H]3CO)[C@H](O)[C@@H](O)[C@H]2O)(C(=O)O)O[C@H]1C(O)[C@H](O)CNC(=O)OCc1cn([C@@H](C)C(=O)O)nn1
REMARK SMILES IDX 9 1 8 2 6 3 5 4 42 5 41 6 10 7 11 8 12 9 14 10 13 11 32 12
REMARK SMILES IDX 34 13 36 14 15 15 16 16 29 17 28 18 21 19 17 20 19 21 30 22
REMARK SMILES IDX 31 23 22 25 23 26 24 27 25 28 26 29 27 30 18 31 20 33 33 35
REMARK SMILES IDX 35 37 37 39 38 41 39 42 40 43 7 45 43 47 44 48 45 50 46 51
REMARK SMILES IDX 47 53 48 54 49 55 50 57 51 58 52 59 53 60 54 61 62 62 55 63
REMARK SMILES IDX 61 64 56 65 57 66 58 67 59 68 60 69 4 71 2 72 1 74 3 75
REMARK H PARENT 31 24 18 32 20 34 33 36 35 38 37 40 40 44 7 46 44 49 46 52
REMARK H PARENT 48 56 60 70 4 73
REMARK Flexibility Score: inf
ROOT
ATOM      1  C   UNL     1      20.152  28.859  21.020  1.00  0.00     0.272 C 
ATOM      2  C   UNL     1      20.257  30.316  21.255  1.00  0.00     0.113 C 
ATOM      3  C   UNL     1      18.996  30.743  21.971  1.00  0.00     0.145 C 
ATOM      4  C   UNL     1      17.916  30.672  20.833  1.00  0.00     0.142 C 
ATOM      5  C   UNL     1      18.082  29.464  20.043  1.00  0.00     0.178 C 
ATOM      6  O   UNL     1      18.896  28.479  20.536  1.00  0.00    -0.332 OA
ENDROOT
BRANCH   1   7
ATOM      7  O   UNL     1      20.500  28.120  22.108  1.00  0.00    -0.338 OA
BRANCH   7   8
ATOM      8  C   UNL     1      21.653  28.386  22.749  1.00  0.00     0.199 C 
BRANCH   8   9
ATOM      9  C   UNL     1      22.426  27.082  23.065  1.00  0.00     0.179 C 
ATOM     10  C   UNL     1      24.008  26.291  24.548  1.00  0.00     0.282 C 
ATOM     11  O   UNL     1      23.125  27.314  24.220  1.00  0.00    -0.341 OA
ATOM     12  C   UNL     1      23.827  25.071  23.692  1.00  0.00     0.202 C 
ATOM     13  C   UNL     1      22.358  24.716  23.565  1.00  0.00     0.179 C 
ATOM     14  C   UNL     1      21.503  25.922  23.212  1.00  0.00     0.177 C 
BRANCH  10  15
ATOM     15  O   UNL     1      23.891  25.878  25.882  1.00  0.00    -0.341 OA
BRANCH  15  16
ATOM     16  C   UNL     1      23.247  26.830  26.660  1.00  0.00     0.184 C 
ATOM     17  C   UNL     1      24.218  27.476  27.595  1.00  0.00     0.178 C 
ATOM     18  O   UNL     1      23.990  27.122  28.925  1.00  0.00    -0.341 OA
ATOM     19  C   UNL     1      23.917  25.734  29.074  1.00  0.00     0.281 C 
ATOM     20  C   UNL     1      22.152  26.131  27.430  1.00  0.00     0.180 C 
ATOM     21  C   UNL     1      22.663  25.171  28.468  1.00  0.00     0.202 C 
BRANCH  17  22
ATOM     22  C   UNL     1      24.174  28.984  27.506  1.00  0.00     0.191 C 
BRANCH  22  23
ATOM     23  O   UNL     1      23.488  29.421  26.375  1.00  0.00    -0.394 OA
ATOM     24  H   UNL     1      23.465  28.708  25.705  1.00  0.00     0.210 HD
ENDBRANCH  22  23
ENDBRANCH  17  22
BRANCH  19  25
ATOM     25  O   UNL     1      23.904  25.489  30.436  1.00  0.00    -0.350 OA
BRANCH  25  26
ATOM     26  C   UNL     1      25.193  25.271  30.874  1.00  0.00     0.169 C 
BRANCH  26  27
ATOM     27  C   UNL     1      25.672  26.431  31.723  1.00  0.00     0.119 C 
BRANCH  27  28
ATOM     28  N   UNL     1      27.055  26.727  31.357  1.00  0.00    -0.092 NA
ATOM     29  N   UNL     1      27.787  25.892  30.825  1.00  0.00     0.001 N 
ATOM     30  N   UNL     1      28.344  25.094  30.092  1.00  0.00    -0.003 NA
ENDBRANCH  27  28
ENDBRANCH  26  27
ENDBRANCH  25  26
ENDBRANCH  19  25
BRANCH  20  31
ATOM     31  O   UNL     1      21.274  27.034  28.028  1.00  0.00    -0.387 OA
ATOM     32  H   UNL     1      20.402  27.092  27.582  1.00  0.00     0.211 HD
ENDBRANCH  20  31
BRANCH  21  33
ATOM     33  O   UNL     1      22.972  23.946  27.879  1.00  0.00    -0.385 OA
ATOM     34  H   UNL     1      23.754  23.529  28.309  1.00  0.00     0.211 HD
ENDBRANCH  21  33
ENDBRANCH  15  16
ENDBRANCH  10  15
BRANCH  12  35
ATOM     35  O   UNL     1      24.481  25.122  22.484  1.00  0.00    -0.385 OA
ATOM     36  H   UNL     1      25.301  25.702  22.560  1.00  0.00     0.211 HD
ENDBRANCH  12  35
BRANCH  13  37
ATOM     37  O   UNL     1      21.952  24.227  24.826  1.00  0.00    -0.387 OA
ATOM     38  H   UNL     1      20.962  24.236  24.905  1.00  0.00     0.211 HD
ENDBRANCH  13  37
BRANCH  14  39
ATOM     39  O   UNL     1      20.543  26.155  24.196  1.00  0.00    -0.387 OA
ATOM     40  H   UNL     1      20.538  25.400  24.840  1.00  0.00     0.211 HD
ENDBRANCH  14  39
ENDBRANCH   8   9
ENDBRANCH   7   8
ENDBRANCH   1   7
BRANCH   1  41
ATOM     41  C   UNL     1      21.057  28.523  19.889  1.00  0.00     0.364 C 
ATOM     42  O   UNL     1      21.892  29.349  19.493  1.00  0.00    -0.246 OA
BRANCH  41  43
ATOM     43  O   UNL     1      20.992  27.290  19.257  1.00  0.00    -0.477 OA
ATOM     44  H   UNL     1      20.147  27.007  18.738  1.00  0.00     0.296 HD
ENDBRANCH  41  43
ENDBRANCH   1  41
BRANCH   3  45
ATOM     45  O   UNL     1      18.644  29.731  22.856  1.00  0.00    -0.391 OA
ATOM     46  H   UNL     1      17.707  29.479  22.807  1.00  0.00     0.211 HD
ENDBRANCH   3  45
BRANCH   5  47
ATOM     47  C   UNL     1      16.809  28.781  19.569  1.00  0.00     0.176 C 
BRANCH  47  48
ATOM     48  O   UNL     1      16.601  27.657  20.446  1.00  0.00    -0.388 OA
ATOM     49  H   UNL     1      15.835  27.147  20.134  1.00  0.00     0.211 HD
ENDBRANCH  47  48
BRANCH  47  50
ATOM     50  C   UNL     1      16.934  28.124  18.209  1.00  0.00     0.165 C 
BRANCH  50  51
ATOM     51  O   UNL     1      18.178  27.693  17.869  1.00  0.00    -0.388 OA
ATOM     52  H   UNL     1      18.412  26.765  18.092  1.00  0.00     0.211 HD
ENDBRANCH  50  51
BRANCH  50  53
ATOM     53  C   UNL     1      16.181  28.859  17.153  1.00  0.00     0.154 C 
BRANCH  53  54
ATOM     54  N   UNL     1      14.910  29.375  17.498  1.00  0.00    -0.319 N 
ATOM     55  C   UNL     1      14.427  30.692  17.280  1.00  0.00     0.407 C 
ATOM     56  H   UNL     1      14.240  28.697  17.976  1.00  0.00     0.167 HD
ATOM     57  O   UNL     1      15.158  31.519  16.721  1.00  0.00    -0.225 OA
BRANCH  55  58
ATOM     58  O   UNL     1      13.133  31.039  17.701  1.00  0.00    -0.443 OA
BRANCH  58  59
ATOM     59  C   UNL     1      12.927  32.124  18.566  1.00  0.00     0.294 C 
BRANCH  59  60
ATOM     60  C   UNL     1      13.126  31.790  19.981  1.00  0.00     0.120 A 
ATOM     61  C   UNL     1      14.298  31.556  20.666  1.00  0.00     0.139 A 
ATOM     62  N   UNL     1      12.104  31.661  20.867  1.00  0.00    -0.132 NA
ATOM     63  N   UNL     1      13.961  31.296  21.930  1.00  0.00    -0.238 N 
ATOM     64  N   UNL     1      12.641  31.357  22.057  1.00  0.00    -0.066 NA
BRANCH  63  65
ATOM     65  C   UNL     1      14.883  30.990  23.005  1.00  0.00     0.215 C 
ATOM     66  C   UNL     1      14.336  31.500  24.301  1.00  0.00     0.046 C 
BRANCH  65  67
ATOM     67  C   UNL     1      15.140  29.533  23.095  1.00  0.00     0.328 C 
ATOM     68  O   UNL     1      16.063  29.133  23.846  1.00  0.00    -0.250 OA
BRANCH  67  69
ATOM     69  O   UNL     1      14.400  28.602  22.383  1.00  0.00    -0.480 OA
ATOM     70  H   UNL     1      13.568  28.863  21.866  1.00  0.00     0.296 HD
ENDBRANCH  67  69
ENDBRANCH  65  67
ENDBRANCH  63  65
ENDBRANCH  59  60
ENDBRANCH  58  59
ENDBRANCH  55  58
ENDBRANCH  53  54
ENDBRANCH  50  53
ENDBRANCH  47  50
ENDBRANCH   5  47
BRANCH   4  71
ATOM     71  N   UNL     1      17.974  31.929  20.110  1.00  0.00    -0.348 N 
ATOM     72  C   UNL     1      17.620  33.189  20.589  1.00  0.00     0.217 C 
ATOM     73  H   UNL     1      18.324  31.866  19.111  1.00  0.00     0.163 HD
ATOM     74  C   UNL     1      17.721  34.405  19.746  1.00  0.00     0.114 C 
ATOM     75  O   UNL     1      17.205  33.299  21.758  1.00  0.00    -0.275 OA
ENDBRANCH   4  71
TORSDOF 32
