REMARK VINA RESULT:    -6.327     13.870     19.742
REMARK INTER + INTRA:         -22.162
REMARK INTER:                 -16.129
REMARK INTRA:                  -6.033
REMARK UNBOUND:                -6.033
REMARK SMILES CC(=O)N[C@@H]1[C@@H](O)C[C@](OC[C@H]2O[C@@H](O[C@H]3[C@H](O)[C@@H](O)[C@H](OCCN=[N+]=[N-])O[C@@H]3CO)[C@H](O)[C@@H](O)[C@H]2O)(C(=O)O)O[C@H]1C(O)[C@H](O)CNC(=O)OCc1cn(-c2cccc(S(N)(=O)=O)c2)nn1
REMARK SMILES IDX 9 1 8 2 6 3 5 4 42 5 41 6 10 7 11 8 12 9 14 10 13 11 32 12
REMARK SMILES IDX 34 13 36 14 15 15 16 16 29 17 28 18 21 19 17 20 19 21 30 22
REMARK SMILES IDX 31 23 22 25 23 26 24 27 25 28 26 29 27 30 18 31 20 33 33 35
REMARK SMILES IDX 35 37 37 39 38 41 39 42 40 43 7 45 43 47 44 48 45 50 46 51
REMARK SMILES IDX 47 53 48 54 49 55 50 57 51 58 52 59 53 60 54 61 67 62 55 63
REMARK SMILES IDX 66 64 56 65 65 66 57 67 60 68 58 69 59 70 61 71 63 72 64 73
REMARK SMILES IDX 62 74 4 77 2 78 1 80 3 81
REMARK H PARENT 31 24 18 32 20 34 33 36 35 38 37 40 40 44 7 46 44 49 46 52
REMARK H PARENT 48 56 62 75 62 76 4 79
REMARK Flexibility Score: inf
ROOT
ATOM      1  C   UNL     1      15.588  29.494  21.883  1.00  0.00     0.272 C 
ATOM      2  C   UNL     1      15.759  30.981  21.519  1.00  0.00     0.113 C 
ATOM      3  C   UNL     1      14.465  31.669  21.776  1.00  0.00     0.145 C 
ATOM      4  C   UNL     1      14.059  31.527  23.200  1.00  0.00     0.142 C 
ATOM      5  C   UNL     1      14.491  30.239  23.807  1.00  0.00     0.178 C 
ATOM      6  O   UNL     1      15.325  29.400  23.183  1.00  0.00    -0.332 OA
ENDROOT
BRANCH   1   7
ATOM      7  O   UNL     1      16.860  28.947  21.565  1.00  0.00    -0.338 OA
BRANCH   7   8
ATOM      8  C   UNL     1      17.671  29.951  21.132  1.00  0.00     0.199 C 
BRANCH   8   9
ATOM      9  C   UNL     1      18.741  29.474  20.174  1.00  0.00     0.179 C 
ATOM     10  C   UNL     1      20.532  28.135  20.127  1.00  0.00     0.282 C 
ATOM     11  O   UNL     1      19.157  28.178  20.469  1.00  0.00    -0.341 OA
ATOM     12  C   UNL     1      20.786  28.717  18.784  1.00  0.00     0.202 C 
ATOM     13  C   UNL     1      19.555  28.961  17.950  1.00  0.00     0.179 C 
ATOM     14  C   UNL     1      18.398  29.547  18.737  1.00  0.00     0.177 C 
BRANCH  10  15
ATOM     15  O   UNL     1      21.069  26.897  20.371  1.00  0.00    -0.341 OA
BRANCH  15  16
ATOM     16  C   UNL     1      21.327  26.616  21.692  1.00  0.00     0.184 C 
ATOM     17  C   UNL     1      22.759  26.979  22.005  1.00  0.00     0.178 C 
ATOM     18  O   UNL     1      23.358  25.997  22.804  1.00  0.00    -0.341 OA
ATOM     19  C   UNL     1      23.607  24.902  22.012  1.00  0.00     0.281 C 
ATOM     20  C   UNL     1      21.086  25.135  21.881  1.00  0.00     0.180 C 
ATOM     21  C   UNL     1      22.298  24.300  21.616  1.00  0.00     0.202 C 
BRANCH  17  22
ATOM     22  C   UNL     1      22.910  28.277  22.732  1.00  0.00     0.191 C 
BRANCH  22  23
ATOM     23  O   UNL     1      23.890  28.185  23.740  1.00  0.00    -0.394 OA
ATOM     24  H   UNL     1      23.658  28.750  24.515  1.00  0.00     0.210 HD
ENDBRANCH  22  23
ENDBRANCH  17  22
BRANCH  19  25
ATOM     25  O   UNL     1      24.365  23.930  22.664  1.00  0.00    -0.350 OA
BRANCH  25  26
ATOM     26  C   UNL     1      25.718  24.136  22.638  1.00  0.00     0.169 C 
BRANCH  26  27
ATOM     27  C   UNL     1      26.408  23.631  21.388  1.00  0.00     0.119 C 
BRANCH  27  28
ATOM     28  N   UNL     1      27.452  22.678  21.707  1.00  0.00    -0.092 NA
ATOM     29  N   UNL     1      28.441  22.519  20.996  1.00  0.00     0.001 N 
ATOM     30  N   UNL     1      29.450  22.275  20.358  1.00  0.00    -0.003 NA
ENDBRANCH  27  28
ENDBRANCH  26  27
ENDBRANCH  25  26
ENDBRANCH  19  25
BRANCH  20  31
ATOM     31  O   UNL     1      20.703  24.914  23.216  1.00  0.00    -0.387 OA
ATOM     32  H   UNL     1      21.089  24.081  23.582  1.00  0.00     0.211 HD
ENDBRANCH  20  31
BRANCH  21  33
ATOM     33  O   UNL     1      22.377  23.983  20.240  1.00  0.00    -0.385 OA
ATOM     34  H   UNL     1      21.627  24.443  19.795  1.00  0.00     0.211 HD
ENDBRANCH  21  33
ENDBRANCH  15  16
ENDBRANCH  10  15
BRANCH  12  35
ATOM     35  O   UNL     1      21.595  29.879  18.825  1.00  0.00    -0.385 OA
ATOM     36  H   UNL     1      21.960  29.941  17.885  1.00  0.00     0.211 HD
ENDBRANCH  12  35
BRANCH  13  37
ATOM     37  O   UNL     1      19.208  27.852  17.201  1.00  0.00    -0.387 OA
ATOM     38  H   UNL     1      19.417  27.049  17.778  1.00  0.00     0.211 HD
ENDBRANCH  13  37
BRANCH  14  39
ATOM     39  O   UNL     1      17.285  28.734  18.495  1.00  0.00    -0.387 OA
ATOM     40  H   UNL     1      17.521  27.930  17.969  1.00  0.00     0.211 HD
ENDBRANCH  14  39
ENDBRANCH   8   9
ENDBRANCH   7   8
ENDBRANCH   1   7
BRANCH   1  41
ATOM     41  C   UNL     1      14.573  28.966  20.938  1.00  0.00     0.364 C 
ATOM     42  O   UNL     1      13.589  28.296  21.422  1.00  0.00    -0.246 OA
BRANCH  41  43
ATOM     43  O   UNL     1      14.561  29.115  19.582  1.00  0.00    -0.477 OA
ATOM     44  H   UNL     1      13.736  28.912  19.003  1.00  0.00     0.296 HD
ENDBRANCH  41  43
ENDBRANCH   1  41
BRANCH   3  45
ATOM     45  O   UNL     1      14.688  33.036  21.448  1.00  0.00    -0.391 OA
ATOM     46  H   UNL     1      15.065  32.998  20.514  1.00  0.00     0.211 HD
ENDBRANCH   3  45
BRANCH   5  47
ATOM     47  C   UNL     1      15.035  30.556  25.221  1.00  0.00     0.176 C 
BRANCH  47  48
ATOM     48  O   UNL     1      13.964  30.802  26.058  1.00  0.00    -0.388 OA
ATOM     49  H   UNL     1      13.847  30.176  26.793  1.00  0.00     0.211 HD
ENDBRANCH  47  48
BRANCH  47  50
ATOM     50  C   UNL     1      16.071  31.611  25.154  1.00  0.00     0.165 C 
BRANCH  50  51
ATOM     51  O   UNL     1      17.323  31.014  25.036  1.00  0.00    -0.388 OA
ATOM     52  H   UNL     1      17.514  31.015  24.054  1.00  0.00     0.211 HD
ENDBRANCH  50  51
BRANCH  50  53
ATOM     53  C   UNL     1      16.099  32.479  26.401  1.00  0.00     0.154 C 
BRANCH  53  54
ATOM     54  N   UNL     1      17.218  32.061  27.211  1.00  0.00    -0.319 N 
ATOM     55  C   UNL     1      16.987  31.206  28.354  1.00  0.00     0.407 C 
ATOM     56  H   UNL     1      18.201  32.354  27.011  1.00  0.00     0.167 HD
ATOM     57  O   UNL     1      15.827  30.823  28.654  1.00  0.00    -0.225 OA
BRANCH  55  58
ATOM     58  O   UNL     1      18.102  30.841  29.081  1.00  0.00    -0.443 OA
BRANCH  58  59
ATOM     59  C   UNL     1      19.385  31.224  28.686  1.00  0.00     0.294 C 
BRANCH  59  60
ATOM     60  C   UNL     1      19.990  30.251  27.766  1.00  0.00     0.121 A 
ATOM     61  C   UNL     1      20.814  29.194  28.180  1.00  0.00     0.144 A 
ATOM     62  N   UNL     1      19.900  30.159  26.445  1.00  0.00    -0.131 NA
ATOM     63  N   UNL     1      21.173  28.526  27.089  1.00  0.00    -0.220 N 
ATOM     64  N   UNL     1      20.618  29.117  26.069  1.00  0.00    -0.062 NA
BRANCH  63  65
ATOM     65  C   UNL     1      22.014  27.365  27.106  1.00  0.00     0.068 A 
ATOM     66  C   UNL     1      22.946  27.223  28.138  1.00  0.00     0.050 A 
ATOM     67  C   UNL     1      21.913  26.410  26.139  1.00  0.00     0.028 A 
ATOM     68  C   UNL     1      23.773  26.130  28.201  1.00  0.00     0.084 A 
ATOM     69  C   UNL     1      22.725  25.324  26.191  1.00  0.00     0.004 A 
ATOM     70  C   UNL     1      23.664  25.161  27.212  1.00  0.00     0.022 A 
BRANCH  68  71
ATOM     71  S   UNL     1      24.953  25.889  29.456  1.00  0.00     0.238 S 
ATOM     72  O   UNL     1      25.103  27.170  30.228  1.00  0.00    -0.207 OA
ATOM     73  O   UNL     1      26.277  25.526  28.865  1.00  0.00    -0.207 OA
BRANCH  71  74
ATOM     74  N   UNL     1      24.393  24.621  30.508  1.00  0.00    -0.225 NA
ATOM     75  H   UNL     1      25.225  24.100  30.866  1.00  0.00     0.137 HD
ATOM     76  H   UNL     1      23.681  24.021  30.044  1.00  0.00     0.137 HD
ENDBRANCH  71  74
ENDBRANCH  68  71
ENDBRANCH  63  65
ENDBRANCH  59  60
ENDBRANCH  58  59
ENDBRANCH  55  58
ENDBRANCH  53  54
ENDBRANCH  50  53
ENDBRANCH  47  50
ENDBRANCH   5  47
BRANCH   4  77
ATOM     77  N   UNL     1      12.589  31.588  23.233  1.00  0.00    -0.348 N 
ATOM     78  C   UNL     1      11.875  32.418  24.139  1.00  0.00     0.217 C 
ATOM     79  H   UNL     1      12.043  31.003  22.568  1.00  0.00     0.163 HD
ATOM     80  C   UNL     1      10.391  32.438  24.123  1.00  0.00     0.114 C 
ATOM     81  O   UNL     1      12.544  33.126  24.948  1.00  0.00    -0.275 OA
ENDBRANCH   4  77
TORSDOF 32
