REMARK VINA RESULT:    -5.742      7.987     13.292
REMARK INTER + INTRA:         -20.098
REMARK INTER:                 -14.801
REMARK INTRA:                  -5.297
REMARK UNBOUND:                -5.964
REMARK SMILES CC(=O)N[C@@H]1[C@@H](O)C[C@](OC[C@H]2O[C@@H](O[C@H]3[C@H](O)[C@@H](O)[C@H](OCCN=[N+]=[N-])O[C@@H]3CO)[C@H](O)[C@@H](O)[C@H]2O)(C(=O)O)O[C@H]1C(O)[C@H](O)CNC(=O)OCc1cn(C2CCN(C)CC2)nn1
REMARK SMILES IDX 9 1 8 2 6 3 5 4 42 5 41 6 10 7 11 8 12 9 14 10 13 11 32 12
REMARK SMILES IDX 34 13 36 14 15 15 16 16 29 17 28 18 21 19 17 20 19 21 30 22
REMARK SMILES IDX 31 23 22 25 23 26 24 27 25 28 26 29 27 30 18 31 20 33 33 35
REMARK SMILES IDX 35 37 37 39 38 41 39 42 40 43 7 45 43 47 44 48 45 50 46 51
REMARK SMILES IDX 47 53 48 54 49 55 50 57 51 58 52 59 53 60 54 61 64 62 55 63
REMARK SMILES IDX 63 64 56 65 57 66 62 67 58 68 61 69 59 70 60 71 4 72 2 73
REMARK SMILES IDX 1 75 3 76
REMARK H PARENT 31 24 18 32 20 34 33 36 35 38 37 40 40 44 7 46 44 49 46 52
REMARK H PARENT 48 56 4 74
REMARK Flexibility Score: inf
ROOT
ATOM      1  C   UNL     1      20.307  28.311  20.463  1.00  0.00     0.272 C 
ATOM      2  C   UNL     1      20.759  27.986  19.051  1.00  0.00     0.113 C 
ATOM      3  C   UNL     1      22.108  27.415  18.912  1.00  0.00     0.145 C 
ATOM      4  C   UNL     1      22.494  26.426  19.991  1.00  0.00     0.142 C 
ATOM      5  C   UNL     1      21.704  26.571  21.234  1.00  0.00     0.178 C 
ATOM      6  O   UNL     1      20.489  27.104  21.212  1.00  0.00    -0.332 OA
ENDROOT
BRANCH   1   7
ATOM      7  O   UNL     1      18.971  28.447  20.459  1.00  0.00    -0.338 OA
BRANCH   7   8
ATOM      8  C   UNL     1      18.121  28.826  19.567  1.00  0.00     0.199 C 
BRANCH   8   9
ATOM      9  C   UNL     1      16.759  28.228  19.391  1.00  0.00     0.179 C 
ATOM     10  C   UNL     1      15.432  28.853  21.275  1.00  0.00     0.282 C 
ATOM     11  O   UNL     1      16.269  27.994  20.646  1.00  0.00    -0.341 OA
ATOM     12  C   UNL     1      15.144  30.085  20.534  1.00  0.00     0.202 C 
ATOM     13  C   UNL     1      14.674  29.633  19.141  1.00  0.00     0.179 C 
ATOM     14  C   UNL     1      15.858  29.010  18.495  1.00  0.00     0.177 C 
BRANCH  10  15
ATOM     15  O   UNL     1      15.959  28.966  22.555  1.00  0.00    -0.341 OA
BRANCH  15  16
ATOM     16  C   UNL     1      15.636  30.046  23.267  1.00  0.00     0.184 C 
ATOM     17  C   UNL     1      16.837  30.669  23.891  1.00  0.00     0.178 C 
ATOM     18  O   UNL     1      16.521  31.984  24.250  1.00  0.00    -0.341 OA
ATOM     19  C   UNL     1      15.602  31.981  25.273  1.00  0.00     0.281 C 
ATOM     20  C   UNL     1      14.713  29.754  24.461  1.00  0.00     0.180 C 
ATOM     21  C   UNL     1      14.384  31.131  25.031  1.00  0.00     0.202 C 
BRANCH  17  22
ATOM     22  C   UNL     1      18.090  30.582  23.089  1.00  0.00     0.191 C 
BRANCH  22  23
ATOM     23  O   UNL     1      18.781  29.437  23.461  1.00  0.00    -0.394 OA
ATOM     24  H   UNL     1      19.058  28.898  22.677  1.00  0.00     0.210 HD
ENDBRANCH  22  23
ENDBRANCH  17  22
BRANCH  19  25
ATOM     25  O   UNL     1      15.134  33.297  25.388  1.00  0.00    -0.350 OA
BRANCH  25  26
ATOM     26  C   UNL     1      15.545  34.130  24.379  1.00  0.00     0.169 C 
BRANCH  26  27
ATOM     27  C   UNL     1      14.404  34.711  23.568  1.00  0.00     0.119 C 
BRANCH  27  28
ATOM     28  N   UNL     1      13.943  33.766  22.569  1.00  0.00    -0.092 NA
ATOM     29  N   UNL     1      12.813  33.284  22.627  1.00  0.00     0.001 N 
ATOM     30  N   UNL     1      11.956  32.415  22.801  1.00  0.00    -0.003 NA
ENDBRANCH  27  28
ENDBRANCH  26  27
ENDBRANCH  25  26
ENDBRANCH  19  25
BRANCH  20  31
ATOM     31  O   UNL     1      13.523  29.185  24.097  1.00  0.00    -0.387 OA
ATOM     32  H   UNL     1      13.052  28.879  24.903  1.00  0.00     0.211 HD
ENDBRANCH  20  31
BRANCH  21  33
ATOM     33  O   UNL     1      13.667  30.981  26.192  1.00  0.00    -0.385 OA
ATOM     34  H   UNL     1      13.008  31.681  26.327  1.00  0.00     0.211 HD
ENDBRANCH  21  33
ENDBRANCH  15  16
ENDBRANCH  10  15
BRANCH  12  35
ATOM     35  O   UNL     1      14.061  30.821  21.011  1.00  0.00    -0.385 OA
ATOM     36  H   UNL     1      14.257  31.790  20.959  1.00  0.00     0.211 HD
ENDBRANCH  12  35
BRANCH  13  37
ATOM     37  O   UNL     1      14.140  30.661  18.405  1.00  0.00    -0.387 OA
ATOM     38  H   UNL     1      14.859  31.024  17.828  1.00  0.00     0.211 HD
ENDBRANCH  13  37
BRANCH  14  39
ATOM     39  O   UNL     1      16.599  30.013  17.876  1.00  0.00    -0.387 OA
ATOM     40  H   UNL     1      16.675  30.831  18.418  1.00  0.00     0.211 HD
ENDBRANCH  14  39
ENDBRANCH   8   9
ENDBRANCH   7   8
ENDBRANCH   1   7
BRANCH   1  41
ATOM     41  C   UNL     1      21.181  29.333  21.019  1.00  0.00     0.364 C 
ATOM     42  O   UNL     1      21.660  30.209  20.190  1.00  0.00    -0.246 OA
BRANCH  41  43
ATOM     43  O   UNL     1      21.611  29.544  22.302  1.00  0.00    -0.477 OA
ATOM     44  H   UNL     1      21.112  29.230  23.135  1.00  0.00     0.296 HD
ENDBRANCH  41  43
ENDBRANCH   1  41
BRANCH   3  45
ATOM     45  O   UNL     1      22.198  26.759  17.648  1.00  0.00    -0.391 OA
ATOM     46  H   UNL     1      22.062  25.793  17.744  1.00  0.00     0.211 HD
ENDBRANCH   3  45
BRANCH   5  47
ATOM     47  C   UNL     1      21.588  25.209  21.973  1.00  0.00     0.176 C 
BRANCH  47  48
ATOM     48  O   UNL     1      20.276  25.030  22.389  1.00  0.00    -0.388 OA
ATOM     49  H   UNL     1      20.068  25.503  23.222  1.00  0.00     0.211 HD
ENDBRANCH  47  48
BRANCH  47  50
ATOM     50  C   UNL     1      22.529  25.143  23.086  1.00  0.00     0.165 C 
BRANCH  50  51
ATOM     51  O   UNL     1      23.574  24.228  22.672  1.00  0.00    -0.388 OA
ATOM     52  H   UNL     1      23.698  24.308  21.696  1.00  0.00     0.211 HD
ENDBRANCH  50  51
BRANCH  50  53
ATOM     53  C   UNL     1      22.093  24.717  24.422  1.00  0.00     0.154 C 
BRANCH  53  54
ATOM     54  N   UNL     1      21.995  25.589  25.515  1.00  0.00    -0.319 N 
ATOM     55  C   UNL     1      21.100  26.676  25.671  1.00  0.00     0.407 C 
ATOM     56  H   UNL     1      22.674  25.425  26.335  1.00  0.00     0.167 HD
ATOM     57  O   UNL     1      20.242  26.941  24.807  1.00  0.00    -0.225 OA
BRANCH  55  58
ATOM     58  O   UNL     1      21.199  27.465  26.839  1.00  0.00    -0.443 OA
BRANCH  58  59
ATOM     59  C   UNL     1      22.401  28.143  27.098  1.00  0.00     0.294 C 
BRANCH  59  60
ATOM     60  C   UNL     1      23.143  27.411  28.152  1.00  0.00     0.120 A 
ATOM     61  C   UNL     1      24.508  27.078  28.117  1.00  0.00     0.138 A 
ATOM     62  N   UNL     1      22.727  26.922  29.330  1.00  0.00    -0.132 NA
ATOM     63  N   UNL     1      24.845  26.424  29.242  1.00  0.00    -0.249 N 
ATOM     64  N   UNL     1      23.752  26.344  29.955  1.00  0.00    -0.067 NA
BRANCH  63  65
ATOM     65  C   UNL     1      26.154  25.918  29.581  1.00  0.00     0.111 C 
ATOM     66  C   UNL     1      27.126  27.058  29.467  1.00  0.00     0.043 C 
ATOM     67  C   UNL     1      26.206  25.359  30.976  1.00  0.00     0.043 C 
ATOM     68  C   UNL     1      27.471  27.560  30.850  1.00  0.00     0.086 C 
ATOM     69  C   UNL     1      27.605  25.263  31.524  1.00  0.00     0.086 C 
ATOM     70  N   UNL     1      28.290  26.539  31.500  1.00  0.00    -0.306 NA
ATOM     71  C   UNL     1      29.516  26.405  30.732  1.00  0.00     0.105 C 
ENDBRANCH  63  65
ENDBRANCH  59  60
ENDBRANCH  58  59
ENDBRANCH  55  58
ENDBRANCH  53  54
ENDBRANCH  50  53
ENDBRANCH  47  50
ENDBRANCH   5  47
BRANCH   4  72
ATOM     72  N   UNL     1      23.918  26.459  20.260  1.00  0.00    -0.348 N 
ATOM     73  C   UNL     1      24.765  25.527  19.618  1.00  0.00     0.217 C 
ATOM     74  H   UNL     1      24.347  27.155  20.918  1.00  0.00     0.163 HD
ATOM     75  C   UNL     1      26.243  25.517  19.864  1.00  0.00     0.114 C 
ATOM     76  O   UNL     1      24.273  24.674  18.812  1.00  0.00    -0.275 OA
ENDBRANCH   4  72
TORSDOF 30
