REMARK VINA RESULT:    -6.762      0.000      0.000
REMARK INTER + INTRA:         -23.406
REMARK INTER:                 -16.878
REMARK INTRA:                  -6.527
REMARK UNBOUND:                -6.367
REMARK SMILES CC(=O)N[C@@H]1[C@@H](O)C[C@](OC[C@H]2O[C@@H](O[C@H]3[C@H](O)[C@@H](O)[C@H](OCCN=[N+]=[N-])O[C@@H]3CO)[C@H](O)[C@@H](O)[C@H]2O)(C(=O)O)O[C@H]1C(O)[C@H](O)CNC(=O)OCc1cn(-c2ncn3c2c(=O)n(C(C)C)c2ccccc23)nn1
REMARK SMILES IDX 9 1 8 2 6 3 5 4 42 5 41 6 10 7 11 8 12 9 14 10 13 11 32 12
REMARK SMILES IDX 34 13 36 14 15 15 16 16 29 17 28 18 21 19 17 20 19 21 30 22
REMARK SMILES IDX 31 23 22 25 23 26 24 27 25 28 26 29 27 30 18 31 20 33 33 35
REMARK SMILES IDX 35 37 37 39 38 41 39 42 40 43 7 45 43 47 44 48 45 50 46 51
REMARK SMILES IDX 47 53 48 54 49 55 50 57 51 58 52 59 53 60 54 61 74 62 55 63
REMARK SMILES IDX 73 64 56 65 57 66 60 67 58 68 59 69 61 70 72 71 63 72 62 73
REMARK SMILES IDX 71 74 67 75 70 76 68 77 69 78 64 79 65 80 66 81 4 82 2 83
REMARK SMILES IDX 1 85 3 86
REMARK H PARENT 31 24 18 32 20 34 33 36 35 38 37 40 40 44 7 46 44 49 46 52
REMARK H PARENT 48 56 4 84
REMARK Flexibility Score: inf
ROOT
ATOM      1  C   UNL     1      22.227  22.380  12.863  1.00  0.00     0.272 C 
ATOM      2  C   UNL     1      20.723  22.420  12.842  1.00  0.00     0.113 C 
ATOM      3  C   UNL     1      20.137  21.491  11.863  1.00  0.00     0.145 C 
ATOM      4  C   UNL     1      20.752  20.120  11.849  1.00  0.00     0.142 C 
ATOM      5  C   UNL     1      22.175  20.097  12.276  1.00  0.00     0.178 C 
ATOM      6  O   UNL     1      22.597  21.024  13.133  1.00  0.00    -0.332 OA
ENDROOT
BRANCH   1   7
ATOM      7  O   UNL     1      22.607  22.998  14.022  1.00  0.00    -0.338 OA
BRANCH   7   8
ATOM      8  C   UNL     1      23.645  22.727  14.761  1.00  0.00     0.199 C 
BRANCH   8   9
ATOM      9  C   UNL     1      24.724  23.676  15.155  1.00  0.00     0.179 C 
ATOM     10  C   UNL     1      25.687  24.419  17.141  1.00  0.00     0.282 C 
ATOM     11  O   UNL     1      24.738  23.601  16.587  1.00  0.00    -0.341 OA
ATOM     12  C   UNL     1      27.098  24.012  16.755  1.00  0.00     0.202 C 
ATOM     13  C   UNL     1      27.225  23.882  15.248  1.00  0.00     0.179 C 
ATOM     14  C   UNL     1      26.065  23.070  14.741  1.00  0.00     0.177 C 
BRANCH  10  15
ATOM     15  O   UNL     1      25.574  24.297  18.521  1.00  0.00    -0.341 OA
BRANCH  15  16
ATOM     16  C   UNL     1      25.075  25.444  19.081  1.00  0.00     0.184 C 
ATOM     17  C   UNL     1      25.159  25.383  20.563  1.00  0.00     0.178 C 
ATOM     18  O   UNL     1      24.014  25.017  21.223  1.00  0.00    -0.341 OA
ATOM     19  C   UNL     1      23.129  24.245  20.516  1.00  0.00     0.281 C 
ATOM     20  C   UNL     1      23.681  25.779  18.591  1.00  0.00     0.180 C 
ATOM     21  C   UNL     1      22.681  24.885  19.226  1.00  0.00     0.202 C 
BRANCH  17  22
ATOM     22  C   UNL     1      25.670  26.694  21.121  1.00  0.00     0.191 C 
BRANCH  22  23
ATOM     23  O   UNL     1      24.528  27.352  21.637  1.00  0.00    -0.394 OA
ATOM     24  H   UNL     1      23.869  27.368  20.906  1.00  0.00     0.210 HD
ENDBRANCH  22  23
ENDBRANCH  17  22
BRANCH  19  25
ATOM     25  O   UNL     1      21.969  24.120  21.301  1.00  0.00    -0.350 OA
BRANCH  25  26
ATOM     26  C   UNL     1      22.111  24.572  22.585  1.00  0.00     0.169 C 
BRANCH  26  27
ATOM     27  C   UNL     1      21.095  25.571  23.042  1.00  0.00     0.119 C 
BRANCH  27  28
ATOM     28  N   UNL     1      21.476  26.848  22.417  1.00  0.00    -0.092 NA
ATOM     29  N   UNL     1      20.984  27.269  21.392  1.00  0.00     0.001 N 
ATOM     30  N   UNL     1      20.760  27.643  20.236  1.00  0.00    -0.003 NA
ENDBRANCH  27  28
ENDBRANCH  26  27
ENDBRANCH  25  26
ENDBRANCH  19  25
BRANCH  20  31
ATOM     31  O   UNL     1      23.441  27.140  18.817  1.00  0.00    -0.387 OA
ATOM     32  H   UNL     1      22.482  27.187  19.104  1.00  0.00     0.211 HD
ENDBRANCH  20  31
BRANCH  21  33
ATOM     33  O   UNL     1      22.399  23.854  18.310  1.00  0.00    -0.385 OA
ATOM     34  H   UNL     1      21.440  23.600  18.328  1.00  0.00     0.211 HD
ENDBRANCH  21  33
ENDBRANCH  15  16
ENDBRANCH  10  15
BRANCH  12  35
ATOM     35  O   UNL     1      27.947  25.051  17.127  1.00  0.00    -0.385 OA
ATOM     36  H   UNL     1      27.862  25.281  18.083  1.00  0.00     0.211 HD
ENDBRANCH  12  35
BRANCH  13  37
ATOM     37  O   UNL     1      28.381  23.113  15.013  1.00  0.00    -0.387 OA
ATOM     38  H   UNL     1      28.141  22.147  14.954  1.00  0.00     0.211 HD
ENDBRANCH  13  37
BRANCH  14  39
ATOM     39  O   UNL     1      26.173  21.805  15.375  1.00  0.00    -0.387 OA
ATOM     40  H   UNL     1      25.920  21.087  14.746  1.00  0.00     0.211 HD
ENDBRANCH  14  39
ENDBRANCH   8   9
ENDBRANCH   7   8
ENDBRANCH   1   7
BRANCH   1  41
ATOM     41  C   UNL     1      22.869  22.763  11.613  1.00  0.00     0.364 C 
ATOM     42  O   UNL     1      23.844  22.194  11.123  1.00  0.00    -0.246 OA
BRANCH  41  43
ATOM     43  O   UNL     1      22.382  23.855  10.870  1.00  0.00    -0.477 OA
ATOM     44  H   UNL     1      21.506  24.286  11.136  1.00  0.00     0.296 HD
ENDBRANCH  41  43
ENDBRANCH   1  41
BRANCH   3  45
ATOM     45  O   UNL     1      18.759  21.376  12.184  1.00  0.00    -0.391 OA
ATOM     46  H   UNL     1      18.437  20.461  12.016  1.00  0.00     0.211 HD
ENDBRANCH   3  45
BRANCH   5  47
ATOM     47  C   UNL     1      22.602  18.729  12.779  1.00  0.00     0.176 C 
BRANCH  47  48
ATOM     48  O   UNL     1      21.861  18.389  13.889  1.00  0.00    -0.388 OA
ATOM     49  H   UNL     1      21.351  17.546  13.783  1.00  0.00     0.211 HD
ENDBRANCH  47  48
BRANCH  47  50
ATOM     50  C   UNL     1      24.059  18.596  13.053  1.00  0.00     0.165 C 
BRANCH  50  51
ATOM     51  O   UNL     1      24.574  19.403  14.031  1.00  0.00    -0.388 OA
ATOM     52  H   UNL     1      24.074  19.386  14.879  1.00  0.00     0.211 HD
ENDBRANCH  50  51
BRANCH  50  53
ATOM     53  C   UNL     1      24.913  18.657  11.823  1.00  0.00     0.154 C 
BRANCH  53  54
ATOM     54  N   UNL     1      26.333  18.534  12.174  1.00  0.00    -0.319 N 
ATOM     55  C   UNL     1      27.312  19.420  11.695  1.00  0.00     0.407 C 
ATOM     56  H   UNL     1      26.645  17.746  12.818  1.00  0.00     0.167 HD
ATOM     57  O   UNL     1      27.011  20.365  10.921  1.00  0.00    -0.225 OA
BRANCH  55  58
ATOM     58  O   UNL     1      28.639  19.224  12.104  1.00  0.00    -0.443 OA
BRANCH  58  59
ATOM     59  C   UNL     1      29.221  20.064  13.060  1.00  0.00     0.294 C 
BRANCH  59  60
ATOM     60  C   UNL     1      28.876  19.655  14.473  1.00  0.00     0.121 A 
ATOM     61  C   UNL     1      29.737  19.628  15.547  1.00  0.00     0.146 A 
ATOM     62  N   UNL     1      27.689  19.252  14.953  1.00  0.00    -0.131 NA
ATOM     63  N   UNL     1      29.060  19.212  16.658  1.00  0.00    -0.200 N 
ATOM     64  N   UNL     1      27.825  18.995  16.252  1.00  0.00    -0.060 NA
BRANCH  63  65
ATOM     65  C   UNL     1      29.617  19.063  17.964  1.00  0.00     0.186 A 
ATOM     66  N   UNL     1      30.415  18.053  18.348  1.00  0.00    -0.216 NA
ATOM     67  C   UNL     1      29.478  19.846  19.082  1.00  0.00     0.158 A 
ATOM     68  C   UNL     1      30.754  18.205  19.643  1.00  0.00     0.207 A 
ATOM     69  N   UNL     1      30.175  19.326  20.124  1.00  0.00    -0.291 N 
ATOM     70  C   UNL     1      28.768  21.007  19.256  1.00  0.00     0.279 A 
ATOM     71  C   UNL     1      30.187  19.921  21.329  1.00  0.00     0.071 A 
ATOM     72  N   UNL     1      28.761  21.630  20.462  1.00  0.00    -0.302 N 
ATOM     73  O   UNL     1      28.108  21.517  18.299  1.00  0.00    -0.267 OA
ATOM     74  C   UNL     1      30.884  19.395  22.383  1.00  0.00     0.029 A 
ATOM     75  C   UNL     1      29.465  21.085  21.479  1.00  0.00     0.068 A 
ATOM     76  C   UNL     1      30.891  20.013  23.643  1.00  0.00     0.002 A 
ATOM     77  C   UNL     1      29.475  21.691  22.721  1.00  0.00     0.028 A 
ATOM     78  C   UNL     1      30.175  21.176  23.806  1.00  0.00     0.002 A 
BRANCH  72  79
ATOM     79  C   UNL     1      28.011  22.873  20.647  1.00  0.00     0.085 C 
ATOM     80  C   UNL     1      27.005  22.806  21.749  1.00  0.00     0.031 C 
ATOM     81  C   UNL     1      28.910  24.082  20.694  1.00  0.00     0.031 C 
ENDBRANCH  72  79
ENDBRANCH  63  65
ENDBRANCH  59  60
ENDBRANCH  58  59
ENDBRANCH  55  58
ENDBRANCH  53  54
ENDBRANCH  50  53
ENDBRANCH  47  50
ENDBRANCH   5  47
BRANCH   4  82
ATOM     82  N   UNL     1      20.549  19.543  10.537  1.00  0.00    -0.348 N 
ATOM     83  C   UNL     1      19.393  18.812  10.179  1.00  0.00     0.217 C 
ATOM     84  H   UNL     1      21.284  19.660   9.799  1.00  0.00     0.163 HD
ATOM     85  C   UNL     1      19.197  18.221   8.823  1.00  0.00     0.114 C 
ATOM     86  O   UNL     1      18.496  18.661  11.059  1.00  0.00    -0.275 OA
ENDBRANCH   4  82
TORSDOF 31
