REMARK VINA RESULT:    -6.066      2.840      7.552
REMARK INTER + INTRA:         -21.558
REMARK INTER:                 -13.513
REMARK INTRA:                  -8.045
REMARK UNBOUND:                -6.272
REMARK SMILES CC(=O)N[C@@H]1[C@@H](O)C[C@](OC[C@H]2O[C@@H](O[C@H]3[C@H](O)[C@@H](O)[C@H](OCCN=[N+]=[N-])O[C@@H]3CO)[C@H](O)[C@@H](O)[C@H]2O)(C(=O)O)O[C@H]1C(O)[C@H](O)CNC(=O)OCc1cn(Cc2cccc(Br)c2)nn1
REMARK SMILES IDX 9 1 8 2 6 3 5 4 42 5 41 6 10 7 11 8 12 9 14 10 13 11 32 12
REMARK SMILES IDX 34 13 36 14 15 15 16 16 29 17 28 18 21 19 17 20 19 21 30 22
REMARK SMILES IDX 31 23 22 25 23 26 24 27 25 28 26 29 27 30 18 31 20 33 33 35
REMARK SMILES IDX 35 37 37 39 38 41 39 42 40 43 7 45 43 47 44 48 45 50 46 51
REMARK SMILES IDX 47 53 48 54 49 55 50 57 51 58 52 59 53 60 54 61 65 62 55 63
REMARK SMILES IDX 64 64 56 65 57 66 58 67 63 68 59 69 61 70 60 71 62 72 4 73
REMARK SMILES IDX 2 74 1 76 3 77
REMARK H PARENT 31 24 18 32 20 34 33 36 35 38 37 40 40 44 7 46 44 49 46 52
REMARK H PARENT 48 56 4 75
REMARK Flexibility Score: inf
ROOT
ATOM      1  C   UNL     1      14.103  30.736  21.620  1.00  0.00     0.272 C 
ATOM      2  C   UNL     1      13.481  32.072  21.766  1.00  0.00     0.113 C 
ATOM      3  C   UNL     1      14.241  33.035  22.622  1.00  0.00     0.145 C 
ATOM      4  C   UNL     1      14.989  32.359  23.748  1.00  0.00     0.142 C 
ATOM      5  C   UNL     1      15.414  30.987  23.465  1.00  0.00     0.178 C 
ATOM      6  O   UNL     1      15.342  30.568  22.174  1.00  0.00    -0.332 OA
ENDROOT
BRANCH   1   7
ATOM      7  O   UNL     1      14.158  30.404  20.229  1.00  0.00    -0.338 OA
BRANCH   7   8
ATOM      8  C   UNL     1      13.491  31.303  19.449  1.00  0.00     0.199 C 
BRANCH   8   9
ATOM      9  C   UNL     1      14.160  31.418  18.063  1.00  0.00     0.179 C 
ATOM     10  C   UNL     1      16.268  30.969  17.145  1.00  0.00     0.282 C 
ATOM     11  O   UNL     1      15.492  31.287  18.284  1.00  0.00    -0.341 OA
ATOM     12  C   UNL     1      15.519  31.159  15.886  1.00  0.00     0.202 C 
ATOM     13  C   UNL     1      14.203  30.403  15.855  1.00  0.00     0.179 C 
ATOM     14  C   UNL     1      13.658  30.236  17.262  1.00  0.00     0.177 C 
BRANCH  10  15
ATOM     15  O   UNL     1      16.756  29.714  17.417  1.00  0.00    -0.341 OA
BRANCH  15  16
ATOM     16  C   UNL     1      17.964  29.634  18.010  1.00  0.00     0.184 C 
ATOM     17  C   UNL     1      18.850  28.717  17.207  1.00  0.00     0.178 C 
ATOM     18  O   UNL     1      20.141  28.777  17.725  1.00  0.00    -0.341 OA
ATOM     19  C   UNL     1      20.241  28.268  19.022  1.00  0.00     0.281 C 
ATOM     20  C   UNL     1      17.933  28.999  19.397  1.00  0.00     0.180 C 
ATOM     21  C   UNL     1      19.376  29.132  19.907  1.00  0.00     0.202 C 
BRANCH  17  22
ATOM     22  C   UNL     1      18.902  29.192  15.794  1.00  0.00     0.191 C 
BRANCH  22  23
ATOM     23  O   UNL     1      17.854  28.672  15.057  1.00  0.00    -0.394 OA
ATOM     24  H   UNL     1      17.445  29.418  14.546  1.00  0.00     0.210 HD
ENDBRANCH  22  23
ENDBRANCH  17  22
BRANCH  19  25
ATOM     25  O   UNL     1      21.579  28.322  19.352  1.00  0.00    -0.350 OA
BRANCH  25  26
ATOM     26  C   UNL     1      22.379  27.416  18.714  1.00  0.00     0.169 C 
BRANCH  26  27
ATOM     27  C   UNL     1      23.241  26.584  19.635  1.00  0.00     0.119 C 
BRANCH  27  28
ATOM     28  N   UNL     1      22.401  25.542  20.181  1.00  0.00    -0.092 NA
ATOM     29  N   UNL     1      21.639  25.695  21.124  1.00  0.00     0.001 N 
ATOM     30  N   UNL     1      20.807  25.985  21.982  1.00  0.00    -0.003 NA
ENDBRANCH  27  28
ENDBRANCH  26  27
ENDBRANCH  25  26
ENDBRANCH  19  25
BRANCH  20  31
ATOM     31  O   UNL     1      17.120  29.642  20.285  1.00  0.00    -0.387 OA
ATOM     32  H   UNL     1      16.666  29.063  20.936  1.00  0.00     0.211 HD
ENDBRANCH  20  31
BRANCH  21  33
ATOM     33  O   UNL     1      19.369  28.764  21.227  1.00  0.00    -0.385 OA
ATOM     34  H   UNL     1      20.203  29.060  21.716  1.00  0.00     0.211 HD
ENDBRANCH  21  33
ENDBRANCH  15  16
ENDBRANCH  10  15
BRANCH  12  35
ATOM     35  O   UNL     1      15.227  32.543  15.774  1.00  0.00    -0.385 OA
ATOM     36  H   UNL     1      14.253  32.658  15.625  1.00  0.00     0.211 HD
ENDBRANCH  12  35
BRANCH  13  37
ATOM     37  O   UNL     1      14.297  29.197  15.167  1.00  0.00    -0.387 OA
ATOM     38  H   UNL     1      13.400  29.002  14.743  1.00  0.00     0.211 HD
ENDBRANCH  13  37
BRANCH  14  39
ATOM     39  O   UNL     1      14.072  29.082  17.884  1.00  0.00    -0.387 OA
ATOM     40  H   UNL     1      13.774  29.074  18.845  1.00  0.00     0.211 HD
ENDBRANCH  14  39
ENDBRANCH   8   9
ENDBRANCH   7   8
ENDBRANCH   1   7
BRANCH   1  41
ATOM     41  C   UNL     1      13.182  29.706  22.186  1.00  0.00     0.364 C 
ATOM     42  O   UNL     1      12.184  30.089  22.894  1.00  0.00    -0.246 OA
BRANCH  41  43
ATOM     43  O   UNL     1      13.295  28.353  22.026  1.00  0.00    -0.477 OA
ATOM     44  H   UNL     1      14.075  28.002  21.455  1.00  0.00     0.296 HD
ENDBRANCH  41  43
ENDBRANCH   1  41
BRANCH   3  45
ATOM     45  O   UNL     1      15.043  33.874  21.863  1.00  0.00    -0.391 OA
ATOM     46  H   UNL     1      15.308  34.699  22.325  1.00  0.00     0.211 HD
ENDBRANCH   3  45
BRANCH   5  47
ATOM     47  C   UNL     1      16.814  30.675  24.017  1.00  0.00     0.176 C 
BRANCH  47  48
ATOM     48  O   UNL     1      17.199  29.432  23.371  1.00  0.00    -0.388 OA
ATOM     49  H   UNL     1      16.673  29.389  22.532  1.00  0.00     0.211 HD
ENDBRANCH  47  48
BRANCH  47  50
ATOM     50  C   UNL     1      17.864  31.665  23.669  1.00  0.00     0.165 C 
BRANCH  50  51
ATOM     51  O   UNL     1      18.100  31.457  22.258  1.00  0.00    -0.388 OA
ATOM     52  H   UNL     1      17.485  32.076  21.760  1.00  0.00     0.211 HD
ENDBRANCH  50  51
BRANCH  50  53
ATOM     53  C   UNL     1      19.216  31.494  24.274  1.00  0.00     0.154 C 
BRANCH  53  54
ATOM     54  N   UNL     1      19.974  30.383  23.719  1.00  0.00    -0.319 N 
ATOM     55  C   UNL     1      21.302  30.608  23.281  1.00  0.00     0.407 C 
ATOM     56  H   UNL     1      19.569  29.434  23.637  1.00  0.00     0.167 HD
ATOM     57  O   UNL     1      21.814  31.759  23.370  1.00  0.00    -0.225 OA
BRANCH  55  58
ATOM     58  O   UNL     1      22.073  29.574  22.749  1.00  0.00    -0.443 OA
BRANCH  58  59
ATOM     59  C   UNL     1      23.384  29.888  22.261  1.00  0.00     0.294 C 
BRANCH  59  60
ATOM     60  C   UNL     1      24.216  28.666  22.347  1.00  0.00     0.120 A 
ATOM     61  C   UNL     1      23.958  27.502  23.028  1.00  0.00     0.138 A 
ATOM     62  N   UNL     1      25.401  28.511  21.741  1.00  0.00    -0.132 NA
ATOM     63  N   UNL     1      25.000  26.677  22.811  1.00  0.00    -0.248 N 
ATOM     64  N   UNL     1      25.862  27.311  22.030  1.00  0.00    -0.067 NA
BRANCH  63  65
ATOM     65  C   UNL     1      25.127  25.329  23.356  1.00  0.00     0.181 C 
BRANCH  65  66
ATOM     66  C   UNL     1      24.352  25.180  24.615  1.00  0.00    -0.025 A 
ATOM     67  C   UNL     1      23.057  24.705  24.591  1.00  0.00     0.006 A 
ATOM     68  C   UNL     1      24.865  25.504  25.848  1.00  0.00     0.021 A 
ATOM     69  C   UNL     1      22.286  24.547  25.720  1.00  0.00     0.002 A 
ATOM     70  C   UNL     1      24.121  25.359  26.996  1.00  0.00     0.018 A 
ATOM     71  C   UNL     1      22.835  24.885  26.965  1.00  0.00     0.016 A 
ATOM     72  Br  UNL     1      24.832  25.808  28.716  1.00  0.00    -0.051 Br
ENDBRANCH  65  66
ENDBRANCH  63  65
ENDBRANCH  59  60
ENDBRANCH  58  59
ENDBRANCH  55  58
ENDBRANCH  53  54
ENDBRANCH  50  53
ENDBRANCH  47  50
ENDBRANCH   5  47
BRANCH   4  73
ATOM     73  N   UNL     1      14.155  32.400  24.977  1.00  0.00    -0.348 N 
ATOM     74  C   UNL     1      14.686  32.903  26.190  1.00  0.00     0.217 C 
ATOM     75  H   UNL     1      13.161  32.056  24.969  1.00  0.00     0.163 HD
ATOM     76  C   UNL     1      13.861  32.955  27.447  1.00  0.00     0.114 C 
ATOM     77  O   UNL     1      15.877  33.315  26.202  1.00  0.00    -0.275 OA
ENDBRANCH   4  73
TORSDOF 31
