REMARK VINA RESULT:    -5.664     15.194     21.239
REMARK INTER + INTRA:         -21.475
REMARK INTER:                 -14.272
REMARK INTRA:                  -7.203
REMARK UNBOUND:                -7.203
REMARK SMILES CC(=O)N[C@@H]1[C@@H](O)C[C@](OC[C@H]2O[C@@H](O[C@H]3[C@H](O)[C@@H](O)[C@H](OCCN=[N+]=[N-])O[C@@H]3CO)[C@H](O)[C@@H](O)[C@H]2O)(C(=O)O)O[C@H]1C(O)[C@H](O)CNC(=O)OCc1cn(CC2=CC[C@H]3C[C@@H]2C3(C)C)nn1
REMARK SMILES IDX 9 1 8 2 6 3 5 4 42 5 41 6 10 7 11 8 12 9 14 10 13 11 32 12
REMARK SMILES IDX 34 13 36 14 15 15 16 16 29 17 28 18 21 19 17 20 19 21 30 22
REMARK SMILES IDX 31 23 22 25 23 26 24 27 25 28 26 29 27 30 18 31 20 33 33 35
REMARK SMILES IDX 35 37 37 39 38 41 39 42 40 43 7 45 43 47 44 48 45 50 46 51
REMARK SMILES IDX 47 53 48 54 49 55 50 57 51 58 52 59 53 60 54 61 67 62 55 63
REMARK SMILES IDX 66 64 56 65 57 66 58 67 62 68 59 69 61 70 63 71 60 72 64 73
REMARK SMILES IDX 65 74 4 75 2 76 1 78 3 79
REMARK H PARENT 31 24 18 32 20 34 33 36 35 38 37 40 40 44 7 46 44 49 46 52
REMARK H PARENT 48 56 4 77
REMARK Flexibility Score: inf
ROOT
ATOM      1  C   UNL     1       2.413  21.590  36.953  1.00  0.00     0.272 C 
ATOM      2  C   UNL     1       2.126  20.738  38.146  1.00  0.00     0.113 C 
ATOM      3  C   UNL     1       3.352  19.871  38.485  1.00  0.00     0.145 C 
ATOM      4  C   UNL     1       3.661  18.942  37.367  1.00  0.00     0.142 C 
ATOM      5  C   UNL     1       2.891  19.435  36.159  1.00  0.00     0.178 C 
ATOM      6  O   UNL     1       3.040  20.760  35.962  1.00  0.00    -0.332 OA
ENDROOT
BRANCH   1   7
ATOM      7  O   UNL     1       3.260  22.594  37.116  1.00  0.00    -0.338 OA
BRANCH   7   8
ATOM      8  C   UNL     1       3.269  23.783  36.569  1.00  0.00     0.199 C 
BRANCH   8   9
ATOM      9  C   UNL     1       4.201  24.275  35.543  1.00  0.00     0.179 C 
ATOM     10  C   UNL     1       6.483  24.419  35.193  1.00  0.00     0.282 C 
ATOM     11  O   UNL     1       5.484  23.747  35.886  1.00  0.00    -0.341 OA
ATOM     12  C   UNL     1       6.203  24.703  33.786  1.00  0.00     0.202 C 
ATOM     13  C   UNL     1       4.866  24.406  33.233  1.00  0.00     0.179 C 
ATOM     14  C   UNL     1       3.992  23.609  34.168  1.00  0.00     0.177 C 
BRANCH  10  15
ATOM     15  O   UNL     1       7.602  23.571  35.292  1.00  0.00    -0.341 OA
BRANCH  15  16
ATOM     16  C   UNL     1       8.678  24.181  35.913  1.00  0.00     0.184 C 
ATOM     17  C   UNL     1       9.943  23.893  35.158  1.00  0.00     0.178 C 
ATOM     18  O   UNL     1      11.101  24.142  35.875  1.00  0.00    -0.341 OA
ATOM     19  C   UNL     1      10.952  24.807  37.056  1.00  0.00     0.281 C 
ATOM     20  C   UNL     1       8.829  23.514  37.285  1.00  0.00     0.180 C 
ATOM     21  C   UNL     1       9.979  24.150  38.005  1.00  0.00     0.202 C 
BRANCH  17  22
ATOM     22  C   UNL     1       9.948  24.767  33.898  1.00  0.00     0.191 C 
BRANCH  22  23
ATOM     23  O   UNL     1       9.294  25.953  34.201  1.00  0.00    -0.394 OA
ATOM     24  H   UNL     1       8.901  25.862  35.122  1.00  0.00     0.210 HD
ENDBRANCH  22  23
ENDBRANCH  17  22
BRANCH  19  25
ATOM     25  O   UNL     1      10.560  26.139  36.863  1.00  0.00    -0.350 OA
BRANCH  25  26
ATOM     26  C   UNL     1      11.640  26.953  36.518  1.00  0.00     0.169 C 
BRANCH  26  27
ATOM     27  C   UNL     1      11.082  28.378  36.484  1.00  0.00     0.119 C 
BRANCH  27  28
ATOM     28  N   UNL     1      12.002  29.235  35.767  1.00  0.00    -0.092 NA
ATOM     29  N   UNL     1      12.348  29.007  34.622  1.00  0.00     0.001 N 
ATOM     30  N   UNL     1      12.781  28.664  33.515  1.00  0.00    -0.003 NA
ENDBRANCH  27  28
ENDBRANCH  26  27
ENDBRANCH  25  26
ENDBRANCH  19  25
BRANCH  20  31
ATOM     31  O   UNL     1       7.664  23.724  38.044  1.00  0.00    -0.387 OA
ATOM     32  H   UNL     1       7.878  23.737  39.002  1.00  0.00     0.211 HD
ENDBRANCH  20  31
BRANCH  21  33
ATOM     33  O   UNL     1      10.646  23.259  38.845  1.00  0.00    -0.385 OA
ATOM     34  H   UNL     1      10.366  23.454  39.784  1.00  0.00     0.211 HD
ENDBRANCH  21  33
ENDBRANCH  15  16
ENDBRANCH  10  15
BRANCH  12  35
ATOM     35  O   UNL     1       6.451  26.087  33.578  1.00  0.00    -0.385 OA
ATOM     36  H   UNL     1       6.410  26.319  32.616  1.00  0.00     0.211 HD
ENDBRANCH  12  35
BRANCH  13  37
ATOM     37  O   UNL     1       4.937  23.837  31.956  1.00  0.00    -0.387 OA
ATOM     38  H   UNL     1       4.172  24.151  31.401  1.00  0.00     0.211 HD
ENDBRANCH  13  37
BRANCH  14  39
ATOM     39  O   UNL     1       4.539  22.313  34.255  1.00  0.00    -0.387 OA
ATOM     40  H   UNL     1       4.142  21.730  33.561  1.00  0.00     0.211 HD
ENDBRANCH  14  39
ENDBRANCH   8   9
ENDBRANCH   7   8
ENDBRANCH   1   7
BRANCH   1  41
ATOM     41  C   UNL     1       1.148  21.947  36.260  1.00  0.00     0.364 C 
ATOM     42  O   UNL     1       0.139  22.346  36.941  1.00  0.00    -0.246 OA
BRANCH  41  43
ATOM     43  O   UNL     1       0.977  21.873  34.919  1.00  0.00    -0.477 OA
ATOM     44  H   UNL     1       0.816  22.625  34.270  1.00  0.00     0.296 HD
ENDBRANCH  41  43
ENDBRANCH   1  41
BRANCH   3  45
ATOM     45  O   UNL     1       4.403  20.798  38.552  1.00  0.00    -0.391 OA
ATOM     46  H   UNL     1       4.430  21.156  39.473  1.00  0.00     0.211 HD
ENDBRANCH   3  45
BRANCH   5  47
ATOM     47  C   UNL     1       3.374  18.721  34.893  1.00  0.00     0.176 C 
BRANCH  47  48
ATOM     48  O   UNL     1       4.314  19.477  34.242  1.00  0.00    -0.388 OA
ATOM     49  H   UNL     1       4.829  18.990  33.540  1.00  0.00     0.211 HD
ENDBRANCH  47  48
BRANCH  47  50
ATOM     50  C   UNL     1       2.218  18.395  33.995  1.00  0.00     0.165 C 
BRANCH  50  51
ATOM     51  O   UNL     1       2.203  16.974  33.901  1.00  0.00    -0.388 OA
ATOM     52  H   UNL     1       1.245  16.775  33.653  1.00  0.00     0.211 HD
ENDBRANCH  50  51
BRANCH  50  53
ATOM     53  C   UNL     1       2.430  18.892  32.601  1.00  0.00     0.154 C 
BRANCH  53  54
ATOM     54  N   UNL     1       1.866  20.173  32.322  1.00  0.00    -0.319 N 
ATOM     55  C   UNL     1       2.675  21.214  31.806  1.00  0.00     0.407 C 
ATOM     56  H   UNL     1       0.842  20.331  32.497  1.00  0.00     0.167 HD
ATOM     57  O   UNL     1       3.879  21.021  31.594  1.00  0.00    -0.225 OA
BRANCH  55  58
ATOM     58  O   UNL     1       2.139  22.457  31.530  1.00  0.00    -0.443 OA
BRANCH  58  59
ATOM     59  C   UNL     1       1.070  22.735  30.689  1.00  0.00     0.294 C 
BRANCH  59  60
ATOM     60  C   UNL     1       1.451  23.336  29.378  1.00  0.00     0.120 A 
ATOM     61  C   UNL     1       2.681  23.324  28.766  1.00  0.00     0.138 A 
ATOM     62  N   UNL     1       0.625  24.012  28.532  1.00  0.00    -0.132 NA
ATOM     63  N   UNL     1       2.586  23.969  27.601  1.00  0.00    -0.248 N 
ATOM     64  N   UNL     1       1.337  24.374  27.484  1.00  0.00    -0.067 NA
BRANCH  63  65
ATOM     65  C   UNL     1       3.663  24.191  26.617  1.00  0.00     0.177 C 
BRANCH  65  66
ATOM     66  C   UNL     1       3.619  25.661  26.316  1.00  0.00    -0.049 C 
ATOM     67  C   UNL     1       3.317  26.100  25.078  1.00  0.00    -0.025 C 
ATOM     68  C   UNL     1       3.894  26.684  27.335  1.00  0.00     0.023 C 
ATOM     69  C   UNL     1       3.438  27.544  24.781  1.00  0.00     0.031 C 
ATOM     70  C   UNL     1       2.837  27.782  27.148  1.00  0.00     0.013 C 
ATOM     71  C   UNL     1       4.902  27.659  26.809  1.00  0.00    -0.026 C 
ATOM     72  C   UNL     1       3.749  28.312  26.034  1.00  0.00    -0.000 C 
ATOM     73  C   UNL     1       5.428  28.637  27.832  1.00  0.00     0.012 C 
ATOM     74  C   UNL     1       6.007  27.119  25.966  1.00  0.00     0.012 C 
ENDBRANCH  65  66
ENDBRANCH  63  65
ENDBRANCH  59  60
ENDBRANCH  58  59
ENDBRANCH  55  58
ENDBRANCH  53  54
ENDBRANCH  50  53
ENDBRANCH  47  50
ENDBRANCH   5  47
BRANCH   4  75
ATOM     75  N   UNL     1       3.341  17.571  37.559  1.00  0.00    -0.348 N 
ATOM     76  C   UNL     1       4.237  16.530  37.841  1.00  0.00     0.217 C 
ATOM     77  H   UNL     1       2.312  17.325  37.478  1.00  0.00     0.163 HD
ATOM     78  C   UNL     1       3.765  15.133  38.019  1.00  0.00     0.114 C 
ATOM     79  O   UNL     1       5.440  16.832  37.933  1.00  0.00    -0.275 OA
ENDBRANCH   4  75
TORSDOF 31
