REMARK VINA RESULT:    -6.406      5.185      9.363
REMARK INTER + INTRA:         -22.475
REMARK INTER:                 -16.241
REMARK INTRA:                  -6.233
REMARK UNBOUND:                -6.520
REMARK SMILES CC(=O)N[C@@H]1[C@@H](O)C[C@](OC[C@H]2O[C@@H](O[C@H]3[C@H](O)[C@@H](O)[C@H](OCCN=[N+]=[N-])O[C@@H]3CO)[C@H](O)[C@@H](O)[C@H]2O)(C(=O)O)O[C@H]1C(O)[C@H](O)CNC(=O)OCc1cn(-c2nc(C)nc(N)n2)nn1
REMARK SMILES IDX 9 1 8 2 6 3 5 4 42 5 41 6 10 7 11 8 12 9 14 10 13 11 32 12
REMARK SMILES IDX 34 13 36 14 15 15 16 16 29 17 28 18 21 19 17 20 19 21 30 22
REMARK SMILES IDX 31 23 22 25 23 26 24 27 25 28 26 29 27 30 18 31 20 33 33 35
REMARK SMILES IDX 35 37 37 39 38 41 39 42 40 43 7 45 43 47 44 48 45 50 46 51
REMARK SMILES IDX 47 53 48 54 49 55 50 57 51 58 52 59 53 60 54 61 65 62 55 63
REMARK SMILES IDX 64 64 56 65 63 66 57 67 61 68 58 69 60 70 59 71 62 72 4 75
REMARK SMILES IDX 2 76 1 78 3 79
REMARK H PARENT 31 24 18 32 20 34 33 36 35 38 37 40 40 44 7 46 44 49 46 52
REMARK H PARENT 48 56 62 73 62 74 4 77
REMARK Flexibility Score: inf
ROOT
ATOM      1  C   UNL     1      12.681  30.591  15.355  1.00  0.00     0.272 C 
ATOM      2  C   UNL     1      11.474  29.862  14.874  1.00  0.00     0.113 C 
ATOM      3  C   UNL     1      11.844  28.650  14.076  1.00  0.00     0.145 C 
ATOM      4  C   UNL     1      12.733  29.077  12.937  1.00  0.00     0.142 C 
ATOM      5  C   UNL     1      13.819  30.038  13.362  1.00  0.00     0.178 C 
ATOM      6  O   UNL     1      13.421  30.998  14.212  1.00  0.00    -0.332 OA
ENDROOT
BRANCH   1   7
ATOM      7  O   UNL     1      13.394  30.087  16.300  1.00  0.00    -0.338 OA
BRANCH   7   8
ATOM      8  C   UNL     1      13.521  30.000  17.568  1.00  0.00     0.199 C 
BRANCH   8   9
ATOM      9  C   UNL     1      14.770  29.981  18.381  1.00  0.00     0.179 C 
ATOM     10  C   UNL     1      15.726  29.892  20.385  1.00  0.00     0.282 C 
ATOM     11  O   UNL     1      14.532  29.613  19.665  1.00  0.00    -0.341 OA
ATOM     12  C   UNL     1      16.624  28.726  20.056  1.00  0.00     0.202 C 
ATOM     13  C   UNL     1      16.977  28.774  18.590  1.00  0.00     0.179 C 
ATOM     14  C   UNL     1      15.993  29.443  17.713  1.00  0.00     0.177 C 
BRANCH  10  15
ATOM     15  O   UNL     1      15.489  29.979  21.731  1.00  0.00    -0.341 OA
BRANCH  15  16
ATOM     16  C   UNL     1      14.263  30.536  22.051  1.00  0.00     0.184 C 
ATOM     17  C   UNL     1      14.320  31.732  22.940  1.00  0.00     0.178 C 
ATOM     18  O   UNL     1      13.534  31.610  24.078  1.00  0.00    -0.341 OA
ATOM     19  C   UNL     1      12.219  31.239  23.828  1.00  0.00     0.281 C 
ATOM     20  C   UNL     1      13.497  29.415  22.780  1.00  0.00     0.180 C 
ATOM     21  C   UNL     1      12.114  29.950  23.068  1.00  0.00     0.202 C 
BRANCH  17  22
ATOM     22  C   UNL     1      14.079  33.047  22.247  1.00  0.00     0.191 C 
BRANCH  22  23
ATOM     23  O   UNL     1      14.007  34.030  23.259  1.00  0.00    -0.394 OA
ATOM     24  H   UNL     1      14.861  34.149  23.728  1.00  0.00     0.210 HD
ENDBRANCH  22  23
ENDBRANCH  17  22
BRANCH  19  25
ATOM     25  O   UNL     1      11.494  32.200  23.181  1.00  0.00    -0.350 OA
BRANCH  25  26
ATOM     26  C   UNL     1      10.170  31.957  22.970  1.00  0.00     0.169 C 
BRANCH  26  27
ATOM     27  C   UNL     1       9.351  31.938  24.231  1.00  0.00     0.119 C 
BRANCH  27  28
ATOM     28  N   UNL     1       8.249  30.982  24.044  1.00  0.00    -0.092 NA
ATOM     29  N   UNL     1       8.369  29.888  24.590  1.00  0.00     0.001 N 
ATOM     30  N   UNL     1       8.387  28.639  24.630  1.00  0.00    -0.003 NA
ENDBRANCH  27  28
ENDBRANCH  26  27
ENDBRANCH  25  26
ENDBRANCH  19  25
BRANCH  20  31
ATOM     31  O   UNL     1      13.483  28.277  22.002  1.00  0.00    -0.387 OA
ATOM     32  H   UNL     1      14.164  27.619  22.311  1.00  0.00     0.211 HD
ENDBRANCH  20  31
BRANCH  21  33
ATOM     33  O   UNL     1      11.439  28.968  23.793  1.00  0.00    -0.385 OA
ATOM     34  H   UNL     1      10.505  28.869  23.481  1.00  0.00     0.211 HD
ENDBRANCH  21  33
ENDBRANCH  15  16
ENDBRANCH  10  15
BRANCH  12  35
ATOM     35  O   UNL     1      17.772  28.689  20.844  1.00  0.00    -0.385 OA
ATOM     36  H   UNL     1      17.687  27.922  21.465  1.00  0.00     0.211 HD
ENDBRANCH  12  35
BRANCH  13  37
ATOM     37  O   UNL     1      17.279  27.465  18.204  1.00  0.00    -0.387 OA
ATOM     38  H   UNL     1      16.920  27.236  17.310  1.00  0.00     0.211 HD
ENDBRANCH  13  37
BRANCH  14  39
ATOM     39  O   UNL     1      15.758  28.668  16.583  1.00  0.00    -0.387 OA
ATOM     40  H   UNL     1      16.627  28.205  16.386  1.00  0.00     0.211 HD
ENDBRANCH  14  39
ENDBRANCH   8   9
ENDBRANCH   7   8
ENDBRANCH   1   7
BRANCH   1  41
ATOM     41  C   UNL     1      12.094  31.969  15.772  1.00  0.00     0.364 C 
ATOM     42  O   UNL     1      12.805  32.945  15.566  1.00  0.00    -0.246 OA
BRANCH  41  43
ATOM     43  O   UNL     1      10.858  32.047  16.333  1.00  0.00    -0.477 OA
ATOM     44  H   UNL     1      10.139  32.724  16.038  1.00  0.00     0.296 HD
ENDBRANCH  41  43
ENDBRANCH   1  41
BRANCH   3  45
ATOM     45  O   UNL     1      12.531  27.691  14.785  1.00  0.00    -0.391 OA
ATOM     46  H   UNL     1      12.652  26.863  14.287  1.00  0.00     0.211 HD
ENDBRANCH   3  45
BRANCH   5  47
ATOM     47  C   UNL     1      15.113  29.356  13.735  1.00  0.00     0.176 C 
BRANCH  47  48
ATOM     48  O   UNL     1      14.968  27.980  13.708  1.00  0.00    -0.388 OA
ATOM     49  H   UNL     1      15.717  27.488  13.325  1.00  0.00     0.211 HD
ENDBRANCH  47  48
BRANCH  47  50
ATOM     50  C   UNL     1      16.194  29.807  12.805  1.00  0.00     0.165 C 
BRANCH  50  51
ATOM     51  O   UNL     1      15.832  29.457  11.492  1.00  0.00    -0.388 OA
ATOM     52  H   UNL     1      16.535  28.898  11.117  1.00  0.00     0.211 HD
ENDBRANCH  50  51
BRANCH  50  53
ATOM     53  C   UNL     1      17.547  29.243  13.076  1.00  0.00     0.154 C 
BRANCH  53  54
ATOM     54  N   UNL     1      17.833  29.142  14.490  1.00  0.00    -0.319 N 
ATOM     55  C   UNL     1      19.128  29.049  15.034  1.00  0.00     0.407 C 
ATOM     56  H   UNL     1      17.036  29.135  15.193  1.00  0.00     0.167 HD
ATOM     57  O   UNL     1      20.120  29.052  14.299  1.00  0.00    -0.225 OA
BRANCH  55  58
ATOM     58  O   UNL     1      19.346  28.949  16.405  1.00  0.00    -0.443 OA
BRANCH  58  59
ATOM     59  C   UNL     1      20.290  29.718  17.107  1.00  0.00     0.294 C 
BRANCH  59  60
ATOM     60  C   UNL     1      20.545  29.171  18.473  1.00  0.00     0.121 A 
ATOM     61  C   UNL     1      21.070  27.931  18.773  1.00  0.00     0.148 A 
ATOM     62  N   UNL     1      20.311  29.779  19.652  1.00  0.00    -0.131 NA
ATOM     63  N   UNL     1      21.139  27.823  20.111  1.00  0.00    -0.185 N 
ATOM     64  N   UNL     1      20.675  28.949  20.613  1.00  0.00    -0.059 NA
BRANCH  63  65
ATOM     65  C   UNL     1      21.632  26.677  20.792  1.00  0.00     0.257 A 
ATOM     66  N   UNL     1      20.883  26.106  21.754  1.00  0.00    -0.175 NA
ATOM     67  N   UNL     1      22.822  26.106  20.536  1.00  0.00    -0.196 NA
ATOM     68  C   UNL     1      21.302  25.010  22.436  1.00  0.00     0.225 A 
ATOM     69  C   UNL     1      23.269  25.026  21.185  1.00  0.00     0.133 A 
ATOM     70  N   UNL     1      22.508  24.483  22.131  1.00  0.00    -0.198 NA
ATOM     71  C   UNL     1      24.609  24.421  20.865  1.00  0.00     0.090 C 
BRANCH  68  72
ATOM     72  N   UNL     1      20.476  24.449  23.436  1.00  0.00    -0.368 N 
ATOM     73  H   UNL     1      19.464  24.282  23.274  1.00  0.00     0.159 HD
ATOM     74  H   UNL     1      20.869  24.192  24.362  1.00  0.00     0.159 HD
ENDBRANCH  68  72
ENDBRANCH  63  65
ENDBRANCH  59  60
ENDBRANCH  58  59
ENDBRANCH  55  58
ENDBRANCH  53  54
ENDBRANCH  50  53
ENDBRANCH  47  50
ENDBRANCH   5  47
BRANCH   4  75
ATOM     75  N   UNL     1      11.911  29.677  11.908  1.00  0.00    -0.348 N 
ATOM     76  C   UNL     1      12.242  29.528  10.531  1.00  0.00     0.217 C 
ATOM     77  H   UNL     1      11.050  30.238  12.129  1.00  0.00     0.163 HD
ATOM     78  C   UNL     1      11.397  30.144   9.499  1.00  0.00     0.114 C 
ATOM     79  O   UNL     1      13.254  28.871  10.207  1.00  0.00    -0.275 OA
ENDBRANCH   4  75
TORSDOF 31
