REMARK VINA RESULT:    -4.896     10.888     18.529
REMARK INTER + INTRA:         -21.186
REMARK INTER:                 -12.751
REMARK INTRA:                  -8.435
REMARK UNBOUND:                -8.562
REMARK SMILES CC(=O)N[C@@H]1[C@@H](O)C[C@](OC[C@H]2O[C@@H](O[C@H]3[C@H](O)[C@@H](O)[C@H](OCCN=[N+]=[N-])O[C@@H]3CO)[C@H](O)[C@@H](O)[C@H]2O)(C(=O)O)O[C@H]1C(O)[C@H](O)CNC(=O)OCc1cn(Cc2ccc(C#N)cc2)nn1
REMARK SMILES IDX 9 1 8 2 6 3 5 4 42 5 41 6 10 7 11 8 12 9 14 10 13 11 32 12
REMARK SMILES IDX 34 13 36 14 15 15 16 16 29 17 28 18 21 19 17 20 19 21 30 22
REMARK SMILES IDX 31 23 22 25 23 26 24 27 25 28 26 29 27 30 18 31 20 33 33 35
REMARK SMILES IDX 35 37 37 39 38 41 39 42 40 43 7 45 43 47 44 48 45 50 46 51
REMARK SMILES IDX 47 53 48 54 49 55 50 57 51 58 52 59 53 60 54 61 66 62 55 63
REMARK SMILES IDX 65 64 56 65 57 66 58 67 64 68 59 69 63 70 60 71 61 72 62 73
REMARK SMILES IDX 4 74 2 75 1 77 3 78
REMARK H PARENT 31 24 18 32 20 34 33 36 35 38 37 40 40 44 7 46 44 49 46 52
REMARK H PARENT 48 56 4 76
REMARK Flexibility Score: inf
ROOT
ATOM      1  C   UNL     1      12.348  30.951  14.900  1.00  0.00     0.272 C 
ATOM      2  C   UNL     1      11.557  29.721  15.177  1.00  0.00     0.113 C 
ATOM      3  C   UNL     1      11.706  28.630  14.177  1.00  0.00     0.145 C 
ATOM      4  C   UNL     1      11.987  29.278  12.811  1.00  0.00     0.142 C 
ATOM      5  C   UNL     1      11.353  30.635  12.856  1.00  0.00     0.178 C 
ATOM      6  O   UNL     1      12.104  31.480  13.623  1.00  0.00    -0.332 OA
ENDROOT
BRANCH   1   7
ATOM      7  O   UNL     1      13.704  30.865  15.127  1.00  0.00    -0.338 OA
BRANCH   7   8
ATOM      8  C   UNL     1      14.473  31.639  14.325  1.00  0.00     0.199 C 
BRANCH   8   9
ATOM      9  C   UNL     1      15.961  31.257  14.404  1.00  0.00     0.179 C 
ATOM     10  C   UNL     1      17.463  30.354  15.906  1.00  0.00     0.282 C 
ATOM     11  O   UNL     1      16.198  30.915  15.736  1.00  0.00    -0.341 OA
ATOM     12  C   UNL     1      17.651  29.084  15.143  1.00  0.00     0.202 C 
ATOM     13  C   UNL     1      16.410  28.799  14.331  1.00  0.00     0.179 C 
ATOM     14  C   UNL     1      16.153  30.057  13.514  1.00  0.00     0.177 C 
BRANCH  10  15
ATOM     15  O   UNL     1      17.599  30.070  17.263  1.00  0.00    -0.341 OA
BRANCH  15  16
ATOM     16  C   UNL     1      16.423  30.262  17.986  1.00  0.00     0.184 C 
ATOM     17  C   UNL     1      16.617  31.355  18.974  1.00  0.00     0.178 C 
ATOM     18  O   UNL     1      16.936  30.976  20.246  1.00  0.00    -0.341 OA
ATOM     19  C   UNL     1      17.254  29.655  20.433  1.00  0.00     0.281 C 
ATOM     20  C   UNL     1      15.871  28.987  18.537  1.00  0.00     0.180 C 
ATOM     21  C   UNL     1      16.073  28.806  20.018  1.00  0.00     0.202 C 
BRANCH  17  22
ATOM     22  C   UNL     1      15.407  32.285  18.937  1.00  0.00     0.191 C 
BRANCH  22  23
ATOM     23  O   UNL     1      14.580  31.860  17.897  1.00  0.00    -0.394 OA
ATOM     24  H   UNL     1      13.645  31.692  18.225  1.00  0.00     0.210 HD
ENDBRANCH  22  23
ENDBRANCH  17  22
BRANCH  19  25
ATOM     25  O   UNL     1      17.434  29.485  21.821  1.00  0.00    -0.350 OA
BRANCH  25  26
ATOM     26  C   UNL     1      16.365  30.020  22.525  1.00  0.00     0.169 C 
BRANCH  26  27
ATOM     27  C   UNL     1      16.827  30.611  23.843  1.00  0.00     0.119 C 
BRANCH  27  28
ATOM     28  N   UNL     1      15.951  30.253  24.942  1.00  0.00    -0.092 NA
ATOM     29  N   UNL     1      14.740  30.297  24.800  1.00  0.00     0.001 N 
ATOM     30  N   UNL     1      13.571  29.885  24.739  1.00  0.00    -0.003 NA
ENDBRANCH  27  28
ENDBRANCH  26  27
ENDBRANCH  25  26
ENDBRANCH  19  25
BRANCH  20  31
ATOM     31  O   UNL     1      14.532  28.776  18.188  1.00  0.00    -0.387 OA
ATOM     32  H   UNL     1      14.235  27.872  18.503  1.00  0.00     0.211 HD
ENDBRANCH  20  31
BRANCH  21  33
ATOM     33  O   UNL     1      16.280  27.467  20.356  1.00  0.00    -0.385 OA
ATOM     34  H   UNL     1      16.819  27.465  21.190  1.00  0.00     0.211 HD
ENDBRANCH  21  33
ENDBRANCH  15  16
ENDBRANCH  10  15
BRANCH  12  35
ATOM     35  O   UNL     1      18.738  29.075  14.297  1.00  0.00    -0.385 OA
ATOM     36  H   UNL     1      19.573  28.926  14.824  1.00  0.00     0.211 HD
ENDBRANCH  12  35
BRANCH  13  37
ATOM     37  O   UNL     1      15.374  28.517  15.207  1.00  0.00    -0.387 OA
ATOM     38  H   UNL     1      14.481  28.767  14.884  1.00  0.00     0.211 HD
ENDBRANCH  13  37
BRANCH  14  39
ATOM     39  O   UNL     1      15.154  29.910  12.583  1.00  0.00    -0.387 OA
ATOM     40  H   UNL     1      15.414  30.342  11.741  1.00  0.00     0.211 HD
ENDBRANCH  14  39
ENDBRANCH   8   9
ENDBRANCH   7   8
ENDBRANCH   1   7
BRANCH   1  41
ATOM     41  C   UNL     1      11.803  32.014  15.811  1.00  0.00     0.364 C 
ATOM     42  O   UNL     1      11.726  31.810  17.027  1.00  0.00    -0.246 OA
BRANCH  41  43
ATOM     43  O   UNL     1      11.399  33.208  15.263  1.00  0.00    -0.477 OA
ATOM     44  H   UNL     1      11.919  33.711  14.555  1.00  0.00     0.296 HD
ENDBRANCH  41  43
ENDBRANCH   1  41
BRANCH   3  45
ATOM     45  O   UNL     1      12.590  27.635  14.484  1.00  0.00    -0.391 OA
ATOM     46  H   UNL     1      13.127  27.864  15.271  1.00  0.00     0.211 HD
ENDBRANCH   3  45
BRANCH   5  47
ATOM     47  C   UNL     1      11.095  31.225  11.463  1.00  0.00     0.176 C 
BRANCH  47  48
ATOM     48  O   UNL     1       9.906  30.595  11.027  1.00  0.00    -0.388 OA
ATOM     49  H   UNL     1       9.145  31.028  11.489  1.00  0.00     0.211 HD
ENDBRANCH  47  48
BRANCH  47  50
ATOM     50  C   UNL     1      10.880  32.672  11.512  1.00  0.00     0.165 C 
BRANCH  50  51
ATOM     51  O   UNL     1      12.101  33.363  11.779  1.00  0.00    -0.388 OA
ATOM     52  H   UNL     1      12.371  33.021  12.688  1.00  0.00     0.211 HD
ENDBRANCH  50  51
BRANCH  50  53
ATOM     53  C   UNL     1       9.825  33.180  12.413  1.00  0.00     0.154 C 
BRANCH  53  54
ATOM     54  N   UNL     1       8.627  32.497  12.635  1.00  0.00    -0.319 N 
ATOM     55  C   UNL     1       8.085  31.978  13.825  1.00  0.00     0.407 C 
ATOM     56  H   UNL     1       8.000  32.329  11.773  1.00  0.00     0.167 HD
ATOM     57  O   UNL     1       8.634  32.088  14.930  1.00  0.00    -0.225 OA
BRANCH  55  58
ATOM     58  O   UNL     1       6.858  31.295  13.821  1.00  0.00    -0.443 OA
BRANCH  58  59
ATOM     59  C   UNL     1       6.810  29.924  14.179  1.00  0.00     0.294 C 
BRANCH  59  60
ATOM     60  C   UNL     1       7.192  29.113  12.969  1.00  0.00     0.120 A 
ATOM     61  C   UNL     1       6.306  28.730  11.984  1.00  0.00     0.138 A 
ATOM     62  N   UNL     1       8.390  28.611  12.616  1.00  0.00    -0.132 NA
ATOM     63  N   UNL     1       6.994  28.006  11.063  1.00  0.00    -0.248 N 
ATOM     64  N   UNL     1       8.215  27.968  11.484  1.00  0.00    -0.067 NA
BRANCH  63  65
ATOM     65  C   UNL     1       6.356  27.427   9.890  1.00  0.00     0.181 C 
BRANCH  65  66
ATOM     66  C   UNL     1       7.460  27.322   8.867  1.00  0.00    -0.026 A 
ATOM     67  C   UNL     1       8.016  26.088   8.636  1.00  0.00     0.007 A 
ATOM     68  C   UNL     1       7.890  28.462   8.184  1.00  0.00     0.007 A 
ATOM     69  C   UNL     1       9.029  25.897   7.724  1.00  0.00     0.020 A 
ATOM     70  C   UNL     1       8.899  28.271   7.275  1.00  0.00     0.020 A 
ATOM     71  C   UNL     1       9.447  27.050   7.051  1.00  0.00     0.052 A 
BRANCH  71  72
ATOM     72  C   UNL     1      10.534  26.877   6.094  1.00  0.00     0.099 C 
ATOM     73  N   UNL     1      11.389  26.726   5.320  1.00  0.00    -0.192 NA
ENDBRANCH  71  72
ENDBRANCH  65  66
ENDBRANCH  63  65
ENDBRANCH  59  60
ENDBRANCH  58  59
ENDBRANCH  55  58
ENDBRANCH  53  54
ENDBRANCH  50  53
ENDBRANCH  47  50
ENDBRANCH   5  47
BRANCH   4  74
ATOM     74  N   UNL     1      11.512  28.424  11.751  1.00  0.00    -0.348 N 
ATOM     75  C   UNL     1      12.347  28.209  10.625  1.00  0.00     0.217 C 
ATOM     76  H   UNL     1      10.590  27.961  11.780  1.00  0.00     0.163 HD
ATOM     77  C   UNL     1      11.931  27.348   9.503  1.00  0.00     0.114 C 
ATOM     78  O   UNL     1      13.497  28.759  10.546  1.00  0.00    -0.275 OA
ENDBRANCH   4  74
TORSDOF 32
