REMARK VINA RESULT:    -6.767     25.203     29.709
REMARK INTER + INTRA:         -22.195
REMARK INTER:                 -14.459
REMARK INTRA:                  -7.736
REMARK UNBOUND:                -5.539
REMARK SMILES CC(=O)N[C@@H]1[C@@H](O)C[C@](OC[C@H]2O[C@@H](O[C@H]3[C@H](O)[C@@H](O)[C@H](OCCN=[N+]=[N-])O[C@@H]3CO)[C@H](O)[C@@H](O)[C@H]2O)(C(=O)O)O[C@H]1C(O)[C@H](O)CNC(=O)OCc1cn(-c2c3ccccc3nc3ccccc23)nn1
REMARK SMILES IDX 9 1 8 2 6 3 5 4 42 5 41 6 10 7 11 8 12 9 14 10 13 11 32 12
REMARK SMILES IDX 34 13 36 14 15 15 16 16 29 17 28 18 21 19 17 20 19 21 30 22
REMARK SMILES IDX 31 23 22 25 23 26 24 27 25 28 26 29 27 30 18 31 20 33 33 35
REMARK SMILES IDX 35 37 37 39 38 41 39 42 40 43 7 45 43 47 44 48 45 50 46 51
REMARK SMILES IDX 47 53 48 54 49 55 50 57 51 58 52 59 53 60 54 61 71 62 55 63
REMARK SMILES IDX 70 64 56 65 57 66 69 67 58 68 62 69 64 70 68 71 59 72 61 73
REMARK SMILES IDX 63 74 65 75 67 76 60 77 66 78 4 79 2 80 1 82 3 83
REMARK H PARENT 31 24 18 32 20 34 33 36 35 38 37 40 40 44 7 46 44 49 46 52
REMARK H PARENT 48 56 4 81
REMARK Flexibility Score: inf
ROOT
ATOM      1  C   UNL     1      24.025  16.328  10.854  1.00  0.00     0.272 C 
ATOM      2  C   UNL     1      25.556  16.227  11.333  1.00  0.00     0.113 C 
ATOM      3  C   UNL     1      26.213  15.474  10.234  1.00  0.00     0.145 C 
ATOM      4  C   UNL     1      26.030  16.072   8.856  1.00  0.00     0.142 C 
ATOM      5  C   UNL     1      24.800  16.863   8.692  1.00  0.00     0.178 C 
ATOM      6  O   UNL     1      24.085  17.147   9.806  1.00  0.00    -0.332 OA
ENDROOT
BRANCH   1   7
ATOM      7  O   UNL     1      23.505  17.016  11.953  1.00  0.00    -0.338 OA
BRANCH   7   8
ATOM      8  C   UNL     1      24.358  17.810  12.641  1.00  0.00     0.199 C 
BRANCH   8   9
ATOM      9  C   UNL     1      24.047  19.257  12.620  1.00  0.00     0.179 C 
ATOM     10  C   UNL     1      22.583  20.909  11.863  1.00  0.00     0.282 C 
ATOM     11  O   UNL     1      22.950  19.546  11.856  1.00  0.00    -0.341 OA
ATOM     12  C   UNL     1      23.562  21.799  12.504  1.00  0.00     0.202 C 
ATOM     13  C   UNL     1      23.942  21.327  13.888  1.00  0.00     0.179 C 
ATOM     14  C   UNL     1      23.896  19.841  14.027  1.00  0.00     0.177 C 
BRANCH  10  15
ATOM     15  O   UNL     1      21.297  21.043  12.369  1.00  0.00    -0.341 OA
BRANCH  15  16
ATOM     16  C   UNL     1      20.329  21.216  11.353  1.00  0.00     0.184 C 
ATOM     17  C   UNL     1      20.027  19.915  10.724  1.00  0.00     0.178 C 
ATOM     18  O   UNL     1      19.454  20.029   9.430  1.00  0.00    -0.341 OA
ATOM     19  C   UNL     1      20.420  20.615   8.621  1.00  0.00     0.281 C 
ATOM     20  C   UNL     1      21.007  22.179  10.366  1.00  0.00     0.180 C 
ATOM     21  C   UNL     1      20.391  22.105   8.996  1.00  0.00     0.202 C 
BRANCH  17  22
ATOM     22  C   UNL     1      19.039  19.107  11.552  1.00  0.00     0.191 C 
BRANCH  22  23
ATOM     23  O   UNL     1      19.389  19.006  12.874  1.00  0.00    -0.394 OA
ATOM     24  H   UNL     1      19.726  19.885  13.187  1.00  0.00     0.210 HD
ENDBRANCH  22  23
ENDBRANCH  17  22
BRANCH  19  25
ATOM     25  O   UNL     1      20.070  20.391   7.313  1.00  0.00    -0.350 OA
BRANCH  25  26
ATOM     26  C   UNL     1      21.026  19.705   6.571  1.00  0.00     0.169 C 
BRANCH  26  27
ATOM     27  C   UNL     1      20.611  18.277   6.286  1.00  0.00     0.119 C 
BRANCH  27  28
ATOM     28  N   UNL     1      21.433  17.418   7.132  1.00  0.00    -0.092 NA
ATOM     29  N   UNL     1      21.047  17.089   8.258  1.00  0.00     0.001 N 
ATOM     30  N   UNL     1      20.681  16.676   9.361  1.00  0.00    -0.003 NA
ENDBRANCH  27  28
ENDBRANCH  26  27
ENDBRANCH  25  26
ENDBRANCH  19  25
BRANCH  20  31
ATOM     31  O   UNL     1      21.007  23.463  10.887  1.00  0.00    -0.387 OA
ATOM     32  H   UNL     1      21.887  23.735  11.249  1.00  0.00     0.211 HD
ENDBRANCH  20  31
BRANCH  21  33
ATOM     33  O   UNL     1      21.139  22.854   8.115  1.00  0.00    -0.385 OA
ATOM     34  H   UNL     1      20.855  22.589   7.189  1.00  0.00     0.211 HD
ENDBRANCH  21  33
ENDBRANCH  15  16
ENDBRANCH  10  15
BRANCH  12  35
ATOM     35  O   UNL     1      24.684  21.987  11.682  1.00  0.00    -0.385 OA
ATOM     36  H   UNL     1      25.457  21.609  12.199  1.00  0.00     0.211 HD
ENDBRANCH  12  35
BRANCH  13  37
ATOM     37  O   UNL     1      23.076  21.958  14.802  1.00  0.00    -0.387 OA
ATOM     38  H   UNL     1      22.160  21.897  14.379  1.00  0.00     0.211 HD
ENDBRANCH  13  37
BRANCH  14  39
ATOM     39  O   UNL     1      22.764  19.382  14.669  1.00  0.00    -0.387 OA
ATOM     40  H   UNL     1      22.477  19.964  15.417  1.00  0.00     0.211 HD
ENDBRANCH  14  39
ENDBRANCH   8   9
ENDBRANCH   7   8
ENDBRANCH   1   7
BRANCH   1  41
ATOM     41  C   UNL     1      23.627  14.962  10.777  1.00  0.00     0.364 C 
ATOM     42  O   UNL     1      23.096  14.493   9.720  1.00  0.00    -0.246 OA
BRANCH  41  43
ATOM     43  O   UNL     1      23.761  14.007  11.791  1.00  0.00    -0.477 OA
ATOM     44  H   UNL     1      24.045  14.313  12.713  1.00  0.00     0.296 HD
ENDBRANCH  41  43
ENDBRANCH   1  41
BRANCH   3  45
ATOM     45  O   UNL     1      27.590  15.411  10.558  1.00  0.00    -0.391 OA
ATOM     46  H   UNL     1      27.758  15.974  11.358  1.00  0.00     0.211 HD
ENDBRANCH   3  45
BRANCH   5  47
ATOM     47  C   UNL     1      25.091  18.247   8.047  1.00  0.00     0.176 C 
BRANCH  47  48
ATOM     48  O   UNL     1      24.360  18.409   6.908  1.00  0.00    -0.388 OA
ATOM     49  H   UNL     1      23.626  19.097   6.981  1.00  0.00     0.211 HD
ENDBRANCH  47  48
BRANCH  47  50
ATOM     50  C   UNL     1      25.176  19.339   9.013  1.00  0.00     0.165 C 
BRANCH  50  51
ATOM     51  O   UNL     1      24.145  20.282   8.998  1.00  0.00    -0.388 OA
ATOM     52  H   UNL     1      24.403  21.115   9.466  1.00  0.00     0.211 HD
ENDBRANCH  50  51
BRANCH  50  53
ATOM     53  C   UNL     1      26.502  19.908   9.340  1.00  0.00     0.154 C 
BRANCH  53  54
ATOM     54  N   UNL     1      27.254  19.392  10.422  1.00  0.00    -0.319 N 
ATOM     55  C   UNL     1      28.361  18.524  10.311  1.00  0.00     0.407 C 
ATOM     56  H   UNL     1      26.961  19.686  11.428  1.00  0.00     0.167 HD
ATOM     57  O   UNL     1      28.806  18.077   9.243  1.00  0.00    -0.225 OA
BRANCH  55  58
ATOM     58  O   UNL     1      29.056  18.099  11.460  1.00  0.00    -0.443 OA
BRANCH  58  59
ATOM     59  C   UNL     1      29.699  18.999  12.347  1.00  0.00     0.294 C 
BRANCH  59  60
ATOM     60  C   UNL     1      28.814  19.255  13.520  1.00  0.00     0.121 A 
ATOM     61  C   UNL     1      29.028  20.107  14.583  1.00  0.00     0.144 A 
ATOM     62  N   UNL     1      27.629  18.679  13.768  1.00  0.00    -0.131 NA
ATOM     63  N   UNL     1      27.990  20.041  15.447  1.00  0.00    -0.219 N 
ATOM     64  N   UNL     1      27.153  19.161  14.922  1.00  0.00    -0.062 NA
BRANCH  63  65
ATOM     65  C   UNL     1      27.847  20.778  16.676  1.00  0.00     0.085 A 
ATOM     66  C   UNL     1      28.299  20.233  17.868  1.00  0.00     0.027 A 
ATOM     67  C   UNL     1      27.266  22.024  16.718  1.00  0.00     0.027 A 
ATOM     68  C   UNL     1      28.892  18.989  17.891  1.00  0.00     0.012 A 
ATOM     69  C   UNL     1      28.181  20.903  19.083  1.00  0.00     0.073 A 
ATOM     70  C   UNL     1      27.168  22.653  17.939  1.00  0.00     0.073 A 
ATOM     71  C   UNL     1      26.801  22.620  15.583  1.00  0.00     0.012 A 
ATOM     72  C   UNL     1      29.343  18.447  19.075  1.00  0.00     0.001 A 
ATOM     73  C   UNL     1      28.633  20.358  20.264  1.00  0.00     0.029 A 
ATOM     74  N   UNL     1      27.610  22.115  19.089  1.00  0.00    -0.248 NA
ATOM     75  C   UNL     1      26.592  23.904  18.021  1.00  0.00     0.029 A 
ATOM     76  C   UNL     1      26.225  23.879  15.695  1.00  0.00     0.001 A 
ATOM     77  C   UNL     1      29.224  19.118  20.289  1.00  0.00     0.002 A 
ATOM     78  C   UNL     1      26.107  24.545  16.896  1.00  0.00     0.002 A 
ENDBRANCH  63  65
ENDBRANCH  59  60
ENDBRANCH  58  59
ENDBRANCH  55  58
ENDBRANCH  53  54
ENDBRANCH  50  53
ENDBRANCH  47  50
ENDBRANCH   5  47
BRANCH   4  79
ATOM     79  N   UNL     1      26.197  15.031   7.867  1.00  0.00    -0.348 N 
ATOM     80  C   UNL     1      27.077  15.117   6.747  1.00  0.00     0.217 C 
ATOM     81  H   UNL     1      25.655  14.139   7.931  1.00  0.00     0.163 HD
ATOM     82  C   UNL     1      27.158  13.967   5.784  1.00  0.00     0.114 C 
ATOM     83  O   UNL     1      27.749  16.153   6.614  1.00  0.00    -0.275 OA
ENDBRANCH   4  79
TORSDOF 30
