REMARK VINA RESULT:    -5.336      7.763     14.128
REMARK INTER + INTRA:         -21.031
REMARK INTER:                 -16.847
REMARK INTRA:                  -4.184
REMARK UNBOUND:                -7.585
REMARK SMILES COc1ccc(-n2cc(COC(=O)NC[C@@H](O)C(O)[C@@H]3O[C@@](OC[C@H]4O[C@@H](O[C@H]5[C@H](O)[C@@H](O)[C@H](OCCN=[N+]=[N-])O[C@@H]5CO)[C@H](O)[C@@H](O)[C@H]4O)(C(=O)O)C[C@H](O)[C@H]3NC(C)=O)nn2)cc1
REMARK SMILES IDX 22 1 54 2 55 3 57 4 20 5 21 6 23 7 24 8 25 9 27 10 26 11
REMARK SMILES IDX 45 12 47 13 49 14 28 15 29 16 42 17 41 18 34 19 30 20 32 21
REMARK SMILES IDX 43 22 44 23 35 25 36 26 37 27 38 28 39 29 40 30 31 31 33 33
REMARK SMILES IDX 46 35 48 37 50 39 51 41 52 42 53 43 56 45 18 47 19 48 16 50
REMARK SMILES IDX 17 51 15 53 14 54 12 55 13 57 11 58 10 59 9 60 8 61 62 62
REMARK SMILES IDX 7 63 63 64 6 65 5 66 64 67 4 68 65 69 3 70 2 71 1 72 58 73
REMARK SMILES IDX 59 74 60 76 61 77
REMARK H PARENT 44 24 31 32 33 34 46 36 48 38 50 40 53 44 56 46 19 49 17 52
REMARK H PARENT 14 56 58 75
REMARK Flexibility Score: inf
ROOT
ATOM      1  C   UNL     1      32.105  19.027  23.901  1.00  0.00     0.272 C 
ATOM      2  C   UNL     1      32.790  17.820  24.422  1.00  0.00     0.113 C 
ATOM      3  C   UNL     1      32.307  17.272  25.706  1.00  0.00     0.145 C 
ATOM      4  C   UNL     1      31.589  18.405  26.467  1.00  0.00     0.142 C 
ATOM      5  C   UNL     1      32.336  19.660  26.183  1.00  0.00     0.178 C 
ATOM      6  O   UNL     1      32.026  20.037  24.878  1.00  0.00    -0.332 OA
ENDROOT
BRANCH   1   7
ATOM      7  O   UNL     1      31.004  19.023  23.218  1.00  0.00    -0.338 OA
BRANCH   7   8
ATOM      8  C   UNL     1      30.373  18.359  22.323  1.00  0.00     0.199 C 
BRANCH   8   9
ATOM      9  C   UNL     1      29.971  18.906  20.983  1.00  0.00     0.179 C 
ATOM     10  C   UNL     1      29.251  20.707  19.776  1.00  0.00     0.282 C 
ATOM     11  O   UNL     1      29.777  20.245  20.994  1.00  0.00    -0.341 OA
ATOM     12  C   UNL     1      30.125  20.429  18.595  1.00  0.00     0.202 C 
ATOM     13  C   UNL     1      31.144  19.369  18.782  1.00  0.00     0.179 C 
ATOM     14  C   UNL     1      30.875  18.418  19.877  1.00  0.00     0.177 C 
BRANCH  10  15
ATOM     15  O   UNL     1      29.079  22.082  19.904  1.00  0.00    -0.341 OA
BRANCH  15  16
ATOM     16  C   UNL     1      27.765  22.455  19.982  1.00  0.00     0.184 C 
ATOM     17  C   UNL     1      27.441  23.612  19.110  1.00  0.00     0.178 C 
ATOM     18  O   UNL     1      26.095  24.025  19.302  1.00  0.00    -0.341 OA
ATOM     19  C   UNL     1      26.069  24.617  20.592  1.00  0.00     0.281 C 
ATOM     20  C   UNL     1      27.462  22.818  21.447  1.00  0.00     0.180 C 
ATOM     21  C   UNL     1      26.083  23.415  21.540  1.00  0.00     0.202 C 
BRANCH  17  22
ATOM     22  C   UNL     1      27.652  23.299  17.652  1.00  0.00     0.191 C 
BRANCH  22  23
ATOM     23  O   UNL     1      27.191  22.020  17.393  1.00  0.00    -0.394 OA
ATOM     24  H   UNL     1      27.770  21.320  17.768  1.00  0.00     0.210 HD
ENDBRANCH  22  23
ENDBRANCH  17  22
BRANCH  19  25
ATOM     25  O   UNL     1      24.974  25.390  20.762  1.00  0.00    -0.350 OA
BRANCH  25  26
ATOM     26  C   UNL     1      24.072  25.522  19.753  1.00  0.00     0.169 C 
BRANCH  26  27
ATOM     27  C   UNL     1      22.851  24.667  19.803  1.00  0.00     0.119 C 
BRANCH  27  28
ATOM     28  N   UNL     1      22.435  24.247  21.107  1.00  0.00    -0.092 NA
ATOM     29  N   UNL     1      21.584  24.868  21.736  1.00  0.00     0.001 N 
ATOM     30  N   UNL     1      20.812  25.649  22.300  1.00  0.00    -0.003 NA
ENDBRANCH  27  28
ENDBRANCH  26  27
ENDBRANCH  25  26
ENDBRANCH  19  25
BRANCH  20  31
ATOM     31  O   UNL     1      27.592  21.680  22.221  1.00  0.00    -0.387 OA
ATOM     32  H   UNL     1      28.508  21.303  22.035  1.00  0.00     0.211 HD
ENDBRANCH  20  31
BRANCH  21  33
ATOM     33  O   UNL     1      25.842  23.876  22.814  1.00  0.00    -0.385 OA
ATOM     34  H   UNL     1      26.465  24.605  23.059  1.00  0.00     0.211 HD
ENDBRANCH  21  33
ENDBRANCH  15  16
ENDBRANCH  10  15
BRANCH  12  35
ATOM     35  O   UNL     1      29.367  20.067  17.468  1.00  0.00    -0.385 OA
ATOM     36  H   UNL     1      29.550  19.141  17.195  1.00  0.00     0.211 HD
ENDBRANCH  12  35
BRANCH  13  37
ATOM     37  O   UNL     1      32.424  19.934  18.834  1.00  0.00    -0.387 OA
ATOM     38  H   UNL     1      32.514  20.739  18.284  1.00  0.00     0.211 HD
ENDBRANCH  13  37
BRANCH  14  39
ATOM     39  O   UNL     1      32.093  17.949  20.376  1.00  0.00    -0.387 OA
ATOM     40  H   UNL     1      32.509  17.412  19.655  1.00  0.00     0.211 HD
ENDBRANCH  14  39
ENDBRANCH   8   9
ENDBRANCH   7   8
ENDBRANCH   1   7
BRANCH   1  41
ATOM     41  C   UNL     1      33.187  19.645  22.959  1.00  0.00     0.364 C 
ATOM     42  O   UNL     1      34.378  19.364  23.111  1.00  0.00    -0.246 OA
BRANCH  41  43
ATOM     43  O   UNL     1      32.727  20.494  21.984  1.00  0.00    -0.477 OA
ATOM     44  H   UNL     1      32.195  20.149  21.172  1.00  0.00     0.296 HD
ENDBRANCH  41  43
ENDBRANCH   1  41
BRANCH   3  45
ATOM     45  O   UNL     1      31.563  16.128  25.654  1.00  0.00    -0.391 OA
ATOM     46  H   UNL     1      32.034  15.320  25.350  1.00  0.00     0.211 HD
ENDBRANCH   3  45
BRANCH   5  47
ATOM     47  C   UNL     1      31.881  20.854  27.054  1.00  0.00     0.176 C 
BRANCH  47  48
ATOM     48  O   UNL     1      30.540  20.804  27.286  1.00  0.00    -0.388 OA
ATOM     49  H   UNL     1      30.286  21.524  27.910  1.00  0.00     0.211 HD
ENDBRANCH  47  48
BRANCH  47  50
ATOM     50  C   UNL     1      32.834  21.187  28.083  1.00  0.00     0.165 C 
BRANCH  50  51
ATOM     51  O   UNL     1      32.609  20.599  29.359  1.00  0.00    -0.388 OA
ATOM     52  H   UNL     1      33.474  20.234  29.633  1.00  0.00     0.211 HD
ENDBRANCH  50  51
BRANCH  50  53
ATOM     53  C   UNL     1      33.296  22.551  28.386  1.00  0.00     0.154 C 
BRANCH  53  54
ATOM     54  N   UNL     1      32.469  23.411  29.104  1.00  0.00    -0.319 N 
ATOM     55  C   UNL     1      32.829  24.203  30.204  1.00  0.00     0.407 C 
ATOM     56  H   UNL     1      31.439  23.489  28.796  1.00  0.00     0.167 HD
ATOM     57  O   UNL     1      33.988  24.226  30.649  1.00  0.00    -0.225 OA
BRANCH  55  58
ATOM     58  O   UNL     1      31.845  25.005  30.828  1.00  0.00    -0.443 OA
BRANCH  58  59
ATOM     59  C   UNL     1      31.134  25.902  30.013  1.00  0.00     0.294 C 
BRANCH  59  60
ATOM     60  C   UNL     1      29.678  25.739  30.238  1.00  0.00     0.121 A 
ATOM     61  C   UNL     1      28.619  25.962  29.380  1.00  0.00     0.144 A 
ATOM     62  N   UNL     1      29.138  25.300  31.392  1.00  0.00    -0.131 NA
ATOM     63  N   UNL     1      27.495  25.654  30.039  1.00  0.00    -0.220 N 
ATOM     64  N   UNL     1      27.839  25.253  31.266  1.00  0.00    -0.062 NA
BRANCH  63  65
ATOM     65  C   UNL     1      26.131  25.686  29.647  1.00  0.00     0.067 A 
ATOM     66  C   UNL     1      25.700  26.023  28.392  1.00  0.00     0.032 A 
ATOM     67  C   UNL     1      25.156  25.368  30.591  1.00  0.00     0.032 A 
ATOM     68  C   UNL     1      24.348  26.045  28.079  1.00  0.00     0.048 A 
ATOM     69  C   UNL     1      23.811  25.389  30.279  1.00  0.00     0.048 A 
ATOM     70  C   UNL     1      23.379  25.729  29.015  1.00  0.00     0.119 A 
BRANCH  70  71
ATOM     71  O   UNL     1      22.010  25.756  28.683  1.00  0.00    -0.497 OA
ATOM     72  C   UNL     1      21.570  26.827  27.835  1.00  0.00     0.278 C 
ENDBRANCH  70  71
ENDBRANCH  63  65
ENDBRANCH  59  60
ENDBRANCH  58  59
ENDBRANCH  55  58
ENDBRANCH  53  54
ENDBRANCH  50  53
ENDBRANCH  47  50
ENDBRANCH   5  47
BRANCH   4  73
ATOM     73  N   UNL     1      31.435  18.008  27.839  1.00  0.00    -0.348 N 
ATOM     74  C   UNL     1      32.531  17.509  28.589  1.00  0.00     0.217 C 
ATOM     75  H   UNL     1      30.514  18.115  28.299  1.00  0.00     0.163 HD
ATOM     76  C   UNL     1      32.344  17.104  30.007  1.00  0.00     0.114 C 
ATOM     77  O   UNL     1      33.687  17.387  28.105  1.00  0.00    -0.275 OA
ENDBRANCH   4  73
TORSDOF 31
