REMARK VINA RESULT:    -6.463      3.010      8.418
REMARK INTER + INTRA:         -21.123
REMARK INTER:                 -13.907
REMARK INTRA:                  -7.217
REMARK UNBOUND:                -5.215
REMARK SMILES CC(=O)N[C@@H]1[C@@H](O)C[C@](OC[C@H]2O[C@@H](O[C@H]3[C@H](O)[C@@H](O)[C@H](OCCN=[N+]=[N-])O[C@@H]3CO)[C@H](O)[C@@H](O)[C@H]2O)(C(=O)O)O[C@H]1C(O)[C@H](O)CNC(=O)OCc1cn(C2CCCC2)nn1
REMARK SMILES IDX 9 1 8 2 6 3 5 4 42 5 41 6 10 7 11 8 12 9 14 10 13 11 32 12
REMARK SMILES IDX 34 13 36 14 15 15 16 16 29 17 28 18 21 19 17 20 19 21 30 22
REMARK SMILES IDX 31 23 22 25 23 26 24 27 25 28 26 29 27 30 18 31 20 33 33 35
REMARK SMILES IDX 35 37 37 39 38 41 39 42 40 43 7 45 43 47 44 48 45 50 46 51
REMARK SMILES IDX 47 53 48 54 49 55 50 57 51 58 52 59 53 60 54 61 62 62 55 63
REMARK SMILES IDX 61 64 56 65 57 66 60 67 58 68 59 69 4 70 2 71 1 73 3 74
REMARK H PARENT 31 24 18 32 20 34 33 36 35 38 37 40 40 44 7 46 44 49 46 52
REMARK H PARENT 48 56 4 72
REMARK Flexibility Score: inf
ROOT
ATOM      1  C   UNL     1      22.501  25.549  23.351  1.00  0.00     0.272 C 
ATOM      2  C   UNL     1      22.926  24.249  22.776  1.00  0.00     0.113 C 
ATOM      3  C   UNL     1      23.969  24.349  21.718  1.00  0.00     0.145 C 
ATOM      4  C   UNL     1      23.564  25.413  20.668  1.00  0.00     0.142 C 
ATOM      5  C   UNL     1      22.241  25.961  21.075  1.00  0.00     0.178 C 
ATOM      6  O   UNL     1      22.499  26.555  22.358  1.00  0.00    -0.332 OA
ENDROOT
BRANCH   1   7
ATOM      7  O   UNL     1      23.275  25.980  24.368  1.00  0.00    -0.338 OA
BRANCH   7   8
ATOM      8  C   UNL     1      23.085  25.476  25.629  1.00  0.00     0.199 C 
BRANCH   8   9
ATOM      9  C   UNL     1      24.134  26.114  26.536  1.00  0.00     0.179 C 
ATOM     10  C   UNL     1      22.899  27.676  27.743  1.00  0.00     0.282 C 
ATOM     11  O   UNL     1      23.899  27.422  26.813  1.00  0.00    -0.341 OA
ATOM     12  C   UNL     1      22.773  26.628  28.793  1.00  0.00     0.202 C 
ATOM     13  C   UNL     1      24.013  25.817  29.011  1.00  0.00     0.179 C 
ATOM     14  C   UNL     1      24.415  25.222  27.684  1.00  0.00     0.177 C 
BRANCH  10  15
ATOM     15  O   UNL     1      21.692  28.001  27.127  1.00  0.00    -0.341 OA
BRANCH  15  16
ATOM     16  C   UNL     1      21.654  29.333  26.716  1.00  0.00     0.184 C 
ATOM     17  C   UNL     1      20.649  30.170  27.433  1.00  0.00     0.178 C 
ATOM     18  O   UNL     1      20.652  31.447  26.875  1.00  0.00    -0.341 OA
ATOM     19  C   UNL     1      19.988  31.431  25.662  1.00  0.00     0.281 C 
ATOM     20  C   UNL     1      21.237  29.301  25.251  1.00  0.00     0.180 C 
ATOM     21  C   UNL     1      20.868  30.644  24.708  1.00  0.00     0.202 C 
BRANCH  17  22
ATOM     22  C   UNL     1      20.973  30.384  28.908  1.00  0.00     0.191 C 
BRANCH  22  23
ATOM     23  O   UNL     1      20.406  29.287  29.577  1.00  0.00    -0.394 OA
ATOM     24  H   UNL     1      20.197  29.507  30.500  1.00  0.00     0.210 HD
ENDBRANCH  22  23
ENDBRANCH  17  22
BRANCH  19  25
ATOM     25  O   UNL     1      19.911  32.731  25.172  1.00  0.00    -0.350 OA
BRANCH  25  26
ATOM     26  C   UNL     1      18.595  33.206  25.292  1.00  0.00     0.169 C 
BRANCH  26  27
ATOM     27  C   UNL     1      17.802  32.900  24.033  1.00  0.00     0.119 C 
BRANCH  27  28
ATOM     28  N   UNL     1      16.776  31.932  24.292  1.00  0.00    -0.092 NA
ATOM     29  N   UNL     1      16.990  30.705  24.211  1.00  0.00     0.001 N 
ATOM     30  N   UNL     1      17.122  29.612  23.666  1.00  0.00    -0.003 NA
ENDBRANCH  27  28
ENDBRANCH  26  27
ENDBRANCH  25  26
ENDBRANCH  19  25
BRANCH  20  31
ATOM     31  O   UNL     1      22.340  28.827  24.545  1.00  0.00    -0.387 OA
ATOM     32  H   UNL     1      22.797  28.078  25.001  1.00  0.00     0.211 HD
ENDBRANCH  20  31
BRANCH  21  33
ATOM     33  O   UNL     1      20.119  30.448  23.537  1.00  0.00    -0.385 OA
ATOM     34  H   UNL     1      19.627  31.297  23.391  1.00  0.00     0.211 HD
ENDBRANCH  21  33
ENDBRANCH  15  16
ENDBRANCH  10  15
BRANCH  12  35
ATOM     35  O   UNL     1      22.458  27.198  30.049  1.00  0.00    -0.385 OA
ATOM     36  H   UNL     1      23.182  26.964  30.661  1.00  0.00     0.211 HD
ENDBRANCH  12  35
BRANCH  13  37
ATOM     37  O   UNL     1      23.740  24.786  29.890  1.00  0.00    -0.387 OA
ATOM     38  H   UNL     1      24.597  24.429  30.213  1.00  0.00     0.211 HD
ENDBRANCH  13  37
BRANCH  14  39
ATOM     39  O   UNL     1      23.840  23.962  27.581  1.00  0.00    -0.387 OA
ATOM     40  H   UNL     1      22.897  23.991  27.363  1.00  0.00     0.211 HD
ENDBRANCH  14  39
ENDBRANCH   8   9
ENDBRANCH   7   8
ENDBRANCH   1   7
BRANCH   1  41
ATOM     41  C   UNL     1      21.044  25.446  23.741  1.00  0.00     0.364 C 
ATOM     42  O   UNL     1      20.434  26.372  24.297  1.00  0.00    -0.246 OA
BRANCH  41  43
ATOM     43  O   UNL     1      20.419  24.233  23.436  1.00  0.00    -0.477 OA
ATOM     44  H   UNL     1      20.541  23.439  24.079  1.00  0.00     0.296 HD
ENDBRANCH  41  43
ENDBRANCH   1  41
BRANCH   3  45
ATOM     45  O   UNL     1      25.254  24.534  22.159  1.00  0.00    -0.391 OA
ATOM     46  H   UNL     1      25.879  24.533  21.398  1.00  0.00     0.211 HD
ENDBRANCH   3  45
BRANCH   5  47
ATOM     47  C   UNL     1      21.738  27.115  20.244  1.00  0.00     0.176 C 
BRANCH  47  48
ATOM     48  O   UNL     1      22.885  27.553  19.458  1.00  0.00    -0.388 OA
ATOM     49  H   UNL     1      23.105  28.420  19.869  1.00  0.00     0.211 HD
ENDBRANCH  47  48
BRANCH  47  50
ATOM     50  C   UNL     1      21.389  28.366  21.000  1.00  0.00     0.165 C 
BRANCH  50  51
ATOM     51  O   UNL     1      20.448  28.286  21.963  1.00  0.00    -0.388 OA
ATOM     52  H   UNL     1      20.701  28.649  22.840  1.00  0.00     0.211 HD
ENDBRANCH  50  51
BRANCH  50  53
ATOM     53  C   UNL     1      20.935  29.408  19.985  1.00  0.00     0.154 C 
BRANCH  53  54
ATOM     54  N   UNL     1      19.758  28.878  19.283  1.00  0.00    -0.319 N 
ATOM     55  C   UNL     1      19.823  28.528  17.911  1.00  0.00     0.407 C 
ATOM     56  H   UNL     1      18.839  28.745  19.778  1.00  0.00     0.167 HD
ATOM     57  O   UNL     1      20.909  28.677  17.293  1.00  0.00    -0.225 OA
BRANCH  55  58
ATOM     58  O   UNL     1      18.729  28.031  17.240  1.00  0.00    -0.443 OA
BRANCH  58  59
ATOM     59  C   UNL     1      17.539  28.777  17.072  1.00  0.00     0.294 C 
BRANCH  59  60
ATOM     60  C   UNL     1      16.595  28.631  18.203  1.00  0.00     0.120 A 
ATOM     61  C   UNL     1      15.388  29.244  18.450  1.00  0.00     0.138 A 
ATOM     62  N   UNL     1      16.786  27.808  19.257  1.00  0.00    -0.132 NA
ATOM     63  N   UNL     1      14.899  28.790  19.607  1.00  0.00    -0.249 N 
ATOM     64  N   UNL     1      15.776  27.916  20.071  1.00  0.00    -0.067 NA
BRANCH  63  65
ATOM     65  C   UNL     1      13.651  29.152  20.269  1.00  0.00     0.109 C 
ATOM     66  C   UNL     1      13.721  29.014  21.754  1.00  0.00     0.027 C 
ATOM     67  C   UNL     1      13.397  30.627  20.038  1.00  0.00     0.027 C 
ATOM     68  C   UNL     1      14.104  30.356  22.322  1.00  0.00     0.002 C 
ATOM     69  C   UNL     1      14.003  31.355  21.199  1.00  0.00     0.002 C 
ENDBRANCH  63  65
ENDBRANCH  59  60
ENDBRANCH  58  59
ENDBRANCH  55  58
ENDBRANCH  53  54
ENDBRANCH  50  53
ENDBRANCH  47  50
ENDBRANCH   5  47
BRANCH   4  70
ATOM     70  N   UNL     1      23.639  24.811  19.357  1.00  0.00    -0.348 N 
ATOM     71  C   UNL     1      24.900  24.783  18.646  1.00  0.00     0.217 C 
ATOM     72  H   UNL     1      22.829  24.364  18.879  1.00  0.00     0.163 HD
ATOM     73  C   UNL     1      25.000  24.170  17.298  1.00  0.00     0.114 C 
ATOM     74  O   UNL     1      25.939  25.281  19.158  1.00  0.00    -0.275 OA
ENDBRANCH   4  70
TORSDOF 30
