REMARK VINA RESULT:    -5.861     16.301     23.463
REMARK INTER + INTRA:         -21.506
REMARK INTER:                 -17.318
REMARK INTRA:                  -4.188
REMARK UNBOUND:                -6.052
REMARK SMILES CC(=O)N[C@@H]1[C@@H](O)C[C@](OC[C@H]2O[C@@H](O[C@H]3[C@H](O)[C@@H](O)[C@H](OCCN=[N+]=[N-])O[C@@H]3CO)[C@H](O)[C@@H](O)[C@H]2O)(C(=O)O)O[C@H]1C(O)[C@H](O)CNC(=O)OCc1cn(CC(O)CO)nn1
REMARK SMILES IDX 43 1 42 2 9 3 8 4 41 5 6 6 5 7 10 8 11 9 12 10 14 11 13 12
REMARK SMILES IDX 32 13 34 14 36 15 15 16 16 17 29 18 28 19 21 20 17 21 19 22
REMARK SMILES IDX 30 23 31 24 22 26 23 27 24 28 25 29 26 30 27 31 18 32 20 34
REMARK SMILES IDX 33 36 35 38 37 40 38 42 39 43 40 44 7 46 4 48 2 49 1 51 3 52
REMARK SMILES IDX 44 53 45 55 46 56 47 58 48 59 49 60 50 62 51 63 52 64 53 65
REMARK SMILES IDX 54 66 62 67 55 68 61 69 56 70 57 71 58 72 59 74 60 75
REMARK H PARENT 31 25 18 33 20 35 33 37 35 39 37 41 40 45 7 47 4 50 44 54
REMARK H PARENT 46 57 48 61 58 73 60 76
REMARK Flexibility Score: inf
ROOT
ATOM      1  C   UNL     1      23.323  27.705  23.517  1.00  0.00     0.176 C 
ENDROOT
BRANCH   1   2
ATOM      2  C   UNL     1      23.383  26.241  23.039  1.00  0.00     0.178 C 
ATOM      3  C   UNL     1      23.408  24.903  21.093  1.00  0.00     0.272 C 
ATOM      4  C   UNL     1      22.304  24.046  21.645  1.00  0.00     0.113 C 
ATOM      5  O   UNL     1      23.361  26.161  21.712  1.00  0.00    -0.332 OA
ATOM      6  C   UNL     1      21.567  24.563  22.823  1.00  0.00     0.145 C 
ATOM      7  C   UNL     1      22.312  25.477  23.723  1.00  0.00     0.142 C 
BRANCH   3   8
ATOM      8  O   UNL     1      23.257  25.089  19.797  1.00  0.00    -0.338 OA
BRANCH   8   9
ATOM      9  C   UNL     1      23.179  25.950  18.873  1.00  0.00     0.199 C 
BRANCH   9  10
ATOM     10  C   UNL     1      23.587  25.729  17.453  1.00  0.00     0.179 C 
ATOM     11  C   UNL     1      23.745  24.072  15.884  1.00  0.00     0.282 C 
ATOM     12  O   UNL     1      23.018  24.478  16.998  1.00  0.00    -0.341 OA
ATOM     13  C   UNL     1      24.408  25.167  15.122  1.00  0.00     0.202 C 
ATOM     14  C   UNL     1      23.712  26.493  15.159  1.00  0.00     0.179 C 
ATOM     15  C   UNL     1      22.951  26.700  16.458  1.00  0.00     0.177 C 
BRANCH  11  16
ATOM     16  O   UNL     1      23.048  23.264  15.009  1.00  0.00    -0.341 OA
BRANCH  16  17
ATOM     17  C   UNL     1      23.838  22.688  14.017  1.00  0.00     0.184 C 
ATOM     18  C   UNL     1      23.152  22.823  12.691  1.00  0.00     0.178 C 
ATOM     19  O   UNL     1      22.806  21.607  12.124  1.00  0.00    -0.341 OA
ATOM     20  C   UNL     1      22.262  20.740  13.086  1.00  0.00     0.281 C 
ATOM     21  C   UNL     1      24.230  21.324  14.405  1.00  0.00     0.180 C 
ATOM     22  C   UNL     1      23.447  20.189  13.841  1.00  0.00     0.202 C 
BRANCH  18  23
ATOM     23  C   UNL     1      24.001  23.572  11.683  1.00  0.00     0.191 C 
BRANCH  23  24
ATOM     24  O   UNL     1      23.554  23.374  10.385  1.00  0.00    -0.394 OA
ATOM     25  H   UNL     1      23.188  24.261  10.068  1.00  0.00     0.210 HD
ENDBRANCH  23  24
ENDBRANCH  18  23
BRANCH  20  26
ATOM     26  O   UNL     1      21.608  19.742  12.381  1.00  0.00    -0.350 OA
BRANCH  26  27
ATOM     27  C   UNL     1      22.168  19.454  11.147  1.00  0.00     0.169 C 
BRANCH  27  28
ATOM     28  C   UNL     1      21.444  18.348  10.413  1.00  0.00     0.119 C 
BRANCH  28  29
ATOM     29  N   UNL     1      20.105  18.718  10.041  1.00  0.00    -0.092 NA
ATOM     30  N   UNL     1      19.124  18.671  10.774  1.00  0.00     0.001 N 
ATOM     31  N   UNL     1      18.214  18.483  11.581  1.00  0.00    -0.003 NA
ENDBRANCH  28  29
ENDBRANCH  27  28
ENDBRANCH  26  27
ENDBRANCH  20  26
BRANCH  21  32
ATOM     32  O   UNL     1      25.600  21.074  14.139  1.00  0.00    -0.387 OA
ATOM     33  H   UNL     1      25.791  21.634  13.320  1.00  0.00     0.211 HD
ENDBRANCH  21  32
BRANCH  22  34
ATOM     34  O   UNL     1      23.067  19.243  14.790  1.00  0.00    -0.385 OA
ATOM     35  H   UNL     1      22.106  19.198  14.926  1.00  0.00     0.211 HD
ENDBRANCH  22  34
ENDBRANCH  16  17
ENDBRANCH  11  16
BRANCH  13  36
ATOM     36  O   UNL     1      25.787  25.264  15.424  1.00  0.00    -0.385 OA
ATOM     37  H   UNL     1      26.231  25.991  14.951  1.00  0.00     0.211 HD
ENDBRANCH  13  36
BRANCH  14  38
ATOM     38  O   UNL     1      22.888  26.720  14.058  1.00  0.00    -0.387 OA
ATOM     39  H   UNL     1      23.445  26.781  13.246  1.00  0.00     0.211 HD
ENDBRANCH  14  38
BRANCH  15  40
ATOM     40  O   UNL     1      21.635  26.214  16.230  1.00  0.00    -0.387 OA
ATOM     41  H   UNL     1      21.552  25.858  15.313  1.00  0.00     0.211 HD
ENDBRANCH  15  40
ENDBRANCH   9  10
ENDBRANCH   8   9
ENDBRANCH   3   8
BRANCH   3  42
ATOM     42  C   UNL     1      24.752  24.313  21.399  1.00  0.00     0.364 C 
ATOM     43  O   UNL     1      24.764  23.326  22.197  1.00  0.00    -0.246 OA
BRANCH  42  44
ATOM     44  O   UNL     1      25.928  24.781  20.872  1.00  0.00    -0.477 OA
ATOM     45  H   UNL     1      26.837  24.392  21.143  1.00  0.00     0.296 HD
ENDBRANCH  42  44
ENDBRANCH   3  42
BRANCH   6  46
ATOM     46  O   UNL     1      20.434  25.255  22.331  1.00  0.00    -0.391 OA
ATOM     47  H   UNL     1      20.458  25.264  21.354  1.00  0.00     0.211 HD
ENDBRANCH   6  46
BRANCH   7  48
ATOM     48  N   UNL     1      22.781  24.728  24.885  1.00  0.00    -0.348 N 
ATOM     49  C   UNL     1      22.502  25.145  26.211  1.00  0.00     0.217 C 
ATOM     50  H   UNL     1      23.341  23.859  24.782  1.00  0.00     0.163 HD
ATOM     51  C   UNL     1      22.977  24.387  27.397  1.00  0.00     0.114 C 
ATOM     52  O   UNL     1      21.827  26.194  26.361  1.00  0.00    -0.275 OA
ENDBRANCH   7  48
ENDBRANCH   1   2
BRANCH   1  53
ATOM     53  O   UNL     1      24.589  28.114  23.885  1.00  0.00    -0.388 OA
ATOM     54  H   UNL     1      24.545  28.747  24.644  1.00  0.00     0.211 HD
ENDBRANCH   1  53
BRANCH   1  55
ATOM     55  C   UNL     1      22.799  28.593  22.400  1.00  0.00     0.165 C 
BRANCH  55  56
ATOM     56  O   UNL     1      23.608  29.754  22.457  1.00  0.00    -0.388 OA
ATOM     57  H   UNL     1      23.203  30.407  23.079  1.00  0.00     0.211 HD
ENDBRANCH  55  56
BRANCH  55  58
ATOM     58  C   UNL     1      21.377  29.002  22.567  1.00  0.00     0.154 C 
BRANCH  58  59
ATOM     59  N   UNL     1      20.784  29.449  21.324  1.00  0.00    -0.319 N 
ATOM     60  C   UNL     1      20.315  28.518  20.370  1.00  0.00     0.407 C 
ATOM     61  H   UNL     1      20.681  30.476  21.090  1.00  0.00     0.167 HD
ATOM     62  O   UNL     1      20.403  27.281  20.549  1.00  0.00    -0.225 OA
BRANCH  60  63
ATOM     63  O   UNL     1      19.731  28.937  19.192  1.00  0.00    -0.443 OA
BRANCH  63  64
ATOM     64  C   UNL     1      18.441  28.694  18.751  1.00  0.00     0.294 C 
BRANCH  64  65
ATOM     65  C   UNL     1      17.380  28.808  19.776  1.00  0.00     0.120 A 
ATOM     66  C   UNL     1      17.060  29.954  20.447  1.00  0.00     0.138 A 
ATOM     67  N   UNL     1      16.571  27.799  20.219  1.00  0.00    -0.132 NA
ATOM     68  N   UNL     1      16.062  29.623  21.287  1.00  0.00    -0.249 N 
ATOM     69  N   UNL     1      15.788  28.350  21.138  1.00  0.00    -0.067 NA
BRANCH  68  70
ATOM     70  C   UNL     1      15.390  30.502  22.219  1.00  0.00     0.180 C 
BRANCH  70  71
ATOM     71  C   UNL     1      15.494  29.846  23.603  1.00  0.00     0.161 C 
BRANCH  71  72
ATOM     72  O   UNL     1      16.795  29.437  23.762  1.00  0.00    -0.389 OA
ATOM     73  H   UNL     1      16.884  28.453  23.773  1.00  0.00     0.211 HD
ENDBRANCH  71  72
BRANCH  71  74
ATOM     74  C   UNL     1      15.083  30.837  24.665  1.00  0.00     0.189 C 
BRANCH  74  75
ATOM     75  O   UNL     1      15.631  30.487  25.879  1.00  0.00    -0.394 OA
ATOM     76  H   UNL     1      15.729  29.501  25.925  1.00  0.00     0.210 HD
ENDBRANCH  74  75
ENDBRANCH  71  74
ENDBRANCH  70  71
ENDBRANCH  68  70
ENDBRANCH  64  65
ENDBRANCH  63  64
ENDBRANCH  60  63
ENDBRANCH  58  59
ENDBRANCH  55  58
ENDBRANCH   1  55
TORSDOF 34
