REMARK VINA RESULT:    -5.284     11.847     16.101
REMARK INTER + INTRA:         -20.659
REMARK INTER:                 -16.134
REMARK INTRA:                  -4.525
REMARK UNBOUND:                -7.652
REMARK SMILES CC(=O)N[C@@H]1[C@@H](O)C[C@](OC[C@H]2O[C@@H](O[C@H]3[C@H](O)[C@@H](O)[C@H](OCCN=[N+]=[N-])O[C@@H]3CO)[C@H](O)[C@@H](O)[C@H]2O)(C(=O)O)O[C@H]1C(O)[C@H](O)CNC(=O)OCc1cn(-c2ccc(Br)cc2)nn1
REMARK SMILES IDX 9 1 8 2 6 3 5 4 42 5 41 6 10 7 11 8 12 9 14 10 13 11 32 12
REMARK SMILES IDX 34 13 36 14 15 15 16 16 29 17 28 18 21 19 17 20 19 21 30 22
REMARK SMILES IDX 31 23 22 25 23 26 24 27 25 28 26 29 27 30 18 31 20 33 33 35
REMARK SMILES IDX 35 37 37 39 38 41 39 42 40 43 7 45 43 47 44 48 45 50 46 51
REMARK SMILES IDX 47 53 48 54 49 55 50 57 51 58 52 59 53 60 54 61 64 62 55 63
REMARK SMILES IDX 63 64 56 65 57 66 62 67 58 68 61 69 59 70 60 71 4 72 2 73
REMARK SMILES IDX 1 75 3 76
REMARK H PARENT 31 24 18 32 20 34 33 36 35 38 37 40 40 44 7 46 44 49 46 52
REMARK H PARENT 48 56 4 74
REMARK Flexibility Score: inf
ROOT
ATOM      1  C   UNL     1      15.301  29.665  19.260  1.00  0.00     0.272 C 
ATOM      2  C   UNL     1      15.091  30.901  20.177  1.00  0.00     0.113 C 
ATOM      3  C   UNL     1      16.416  31.304  20.710  1.00  0.00     0.145 C 
ATOM      4  C   UNL     1      17.316  31.595  19.492  1.00  0.00     0.142 C 
ATOM      5  C   UNL     1      17.525  30.247  18.843  1.00  0.00     0.178 C 
ATOM      6  O   UNL     1      16.295  29.875  18.348  1.00  0.00    -0.332 OA
ENDROOT
BRANCH   1   7
ATOM      7  O   UNL     1      14.082  29.590  18.579  1.00  0.00    -0.338 OA
BRANCH   7   8
ATOM      8  C   UNL     1      13.973  30.368  17.467  1.00  0.00     0.199 C 
BRANCH   8   9
ATOM      9  C   UNL     1      13.505  29.442  16.325  1.00  0.00     0.179 C 
ATOM     10  C   UNL     1      11.781  29.394  14.766  1.00  0.00     0.282 C 
ATOM     11  O   UNL     1      12.176  29.611  16.063  1.00  0.00    -0.341 OA
ATOM     12  C   UNL     1      12.674  28.512  13.991  1.00  0.00     0.202 C 
ATOM     13  C   UNL     1      14.133  28.835  14.049  1.00  0.00     0.179 C 
ATOM     14  C   UNL     1      14.385  29.819  15.144  1.00  0.00     0.177 C 
BRANCH  10  15
ATOM     15  O   UNL     1      11.512  30.648  14.220  1.00  0.00    -0.341 OA
BRANCH  15  16
ATOM     16  C   UNL     1      10.326  31.179  14.692  1.00  0.00     0.184 C 
ATOM     17  C   UNL     1       9.346  31.429  13.591  1.00  0.00     0.178 C 
ATOM     18  O   UNL     1       8.140  31.800  14.114  1.00  0.00    -0.341 OA
ATOM     19  C   UNL     1       8.091  32.245  15.400  1.00  0.00     0.281 C 
ATOM     20  C   UNL     1      10.571  32.559  15.323  1.00  0.00     0.180 C 
ATOM     21  C   UNL     1       9.256  33.100  15.844  1.00  0.00     0.202 C 
BRANCH  17  22
ATOM     22  C   UNL     1       9.141  30.151  12.799  1.00  0.00     0.191 C 
BRANCH  22  23
ATOM     23  O   UNL     1       8.427  29.232  13.530  1.00  0.00    -0.394 OA
ATOM     24  H   UNL     1       8.803  29.117  14.421  1.00  0.00     0.210 HD
ENDBRANCH  22  23
ENDBRANCH  17  22
BRANCH  19  25
ATOM     25  O   UNL     1       7.803  31.241  16.318  1.00  0.00    -0.350 OA
BRANCH  25  26
ATOM     26  C   UNL     1       6.541  30.697  16.187  1.00  0.00     0.169 C 
BRANCH  26  27
ATOM     27  C   UNL     1       5.434  31.576  16.667  1.00  0.00     0.119 C 
BRANCH  27  28
ATOM     28  N   UNL     1       5.243  31.392  18.096  1.00  0.00    -0.092 NA
ATOM     29  N   UNL     1       5.030  30.243  18.491  1.00  0.00     0.001 N 
ATOM     30  N   UNL     1       4.932  29.104  18.995  1.00  0.00    -0.003 NA
ENDBRANCH  27  28
ENDBRANCH  26  27
ENDBRANCH  25  26
ENDBRANCH  19  25
BRANCH  20  31
ATOM     31  O   UNL     1      11.560  32.480  16.286  1.00  0.00    -0.387 OA
ATOM     32  H   UNL     1      12.176  31.717  16.116  1.00  0.00     0.211 HD
ENDBRANCH  20  31
BRANCH  21  33
ATOM     33  O   UNL     1       9.033  34.421  15.526  1.00  0.00    -0.385 OA
ATOM     34  H   UNL     1       9.904  34.856  15.369  1.00  0.00     0.211 HD
ENDBRANCH  21  33
ENDBRANCH  15  16
ENDBRANCH  10  15
BRANCH  12  35
ATOM     35  O   UNL     1      12.433  27.186  14.447  1.00  0.00    -0.385 OA
ATOM     36  H   UNL     1      11.447  27.048  14.547  1.00  0.00     0.211 HD
ENDBRANCH  12  35
BRANCH  13  37
ATOM     37  O   UNL     1      14.565  29.401  12.826  1.00  0.00    -0.387 OA
ATOM     38  H   UNL     1      15.498  29.090  12.711  1.00  0.00     0.211 HD
ENDBRANCH  13  37
BRANCH  14  39
ATOM     39  O   UNL     1      14.170  31.134  14.739  1.00  0.00    -0.387 OA
ATOM     40  H   UNL     1      13.246  31.253  14.405  1.00  0.00     0.211 HD
ENDBRANCH  14  39
ENDBRANCH   8   9
ENDBRANCH   7   8
ENDBRANCH   1   7
BRANCH   1  41
ATOM     41  C   UNL     1      15.426  28.510  20.145  1.00  0.00     0.364 C 
ATOM     42  O   UNL     1      16.275  27.600  19.986  1.00  0.00    -0.246 OA
BRANCH  41  43
ATOM     43  O   UNL     1      14.587  28.369  21.234  1.00  0.00    -0.477 OA
ATOM     44  H   UNL     1      14.436  27.490  21.727  1.00  0.00     0.296 HD
ENDBRANCH  41  43
ENDBRANCH   1  41
BRANCH   3  45
ATOM     45  O   UNL     1      16.355  32.501  21.410  1.00  0.00    -0.391 OA
ATOM     46  H   UNL     1      15.548  32.991  21.148  1.00  0.00     0.211 HD
ENDBRANCH   3  45
BRANCH   5  47
ATOM     47  C   UNL     1      18.487  30.235  17.704  1.00  0.00     0.176 C 
BRANCH  47  48
ATOM     48  O   UNL     1      18.078  31.308  16.861  1.00  0.00    -0.388 OA
ATOM     49  H   UNL     1      18.891  31.752  16.511  1.00  0.00     0.211 HD
ENDBRANCH  47  48
BRANCH  47  50
ATOM     50  C   UNL     1      18.383  29.017  16.799  1.00  0.00     0.165 C 
BRANCH  50  51
ATOM     51  O   UNL     1      18.238  27.941  17.719  1.00  0.00    -0.388 OA
ATOM     52  H   UNL     1      19.106  27.429  17.760  1.00  0.00     0.211 HD
ENDBRANCH  50  51
BRANCH  50  53
ATOM     53  C   UNL     1      19.647  28.767  16.054  1.00  0.00     0.154 C 
BRANCH  53  54
ATOM     54  N   UNL     1      20.454  27.773  16.686  1.00  0.00    -0.319 N 
ATOM     55  C   UNL     1      21.607  27.159  16.103  1.00  0.00     0.407 C 
ATOM     56  H   UNL     1      20.216  27.431  17.672  1.00  0.00     0.167 HD
ATOM     57  O   UNL     1      21.949  27.500  14.946  1.00  0.00    -0.225 OA
BRANCH  55  58
ATOM     58  O   UNL     1      22.348  26.213  16.772  1.00  0.00    -0.443 OA
BRANCH  58  59
ATOM     59  C   UNL     1      23.095  26.573  17.906  1.00  0.00     0.294 C 
BRANCH  59  60
ATOM     60  C   UNL     1      22.826  25.596  18.984  1.00  0.00     0.121 A 
ATOM     61  C   UNL     1      22.850  25.903  20.350  1.00  0.00     0.144 A 
ATOM     62  N   UNL     1      22.525  24.290  18.929  1.00  0.00    -0.131 NA
ATOM     63  N   UNL     1      22.568  24.788  21.045  1.00  0.00    -0.220 N 
ATOM     64  N   UNL     1      22.377  23.832  20.158  1.00  0.00    -0.062 NA
BRANCH  63  65
ATOM     65  C   UNL     1      22.514  24.740  22.465  1.00  0.00     0.066 A 
ATOM     66  C   UNL     1      21.374  24.673  23.200  1.00  0.00     0.029 A 
ATOM     67  C   UNL     1      23.738  24.756  23.125  1.00  0.00     0.029 A 
ATOM     68  C   UNL     1      21.459  24.622  24.575  1.00  0.00     0.018 A 
ATOM     69  C   UNL     1      23.808  24.704  24.499  1.00  0.00     0.018 A 
ATOM     70  C   UNL     1      22.654  24.636  25.252  1.00  0.00     0.018 A 
ATOM     71  Br  UNL     1      22.729  24.560  27.157  1.00  0.00    -0.051 Br
ENDBRANCH  63  65
ENDBRANCH  59  60
ENDBRANCH  58  59
ENDBRANCH  55  58
ENDBRANCH  53  54
ENDBRANCH  50  53
ENDBRANCH  47  50
ENDBRANCH   5  47
BRANCH   4  72
ATOM     72  N   UNL     1      18.500  32.214  20.005  1.00  0.00    -0.348 N 
ATOM     73  C   UNL     1      19.059  33.385  19.425  1.00  0.00     0.217 C 
ATOM     74  H   UNL     1      18.974  31.801  20.828  1.00  0.00     0.163 HD
ATOM     75  C   UNL     1      20.284  34.046  19.932  1.00  0.00     0.114 C 
ATOM     76  O   UNL     1      18.495  33.912  18.411  1.00  0.00    -0.275 OA
ENDBRANCH   4  72
TORSDOF 30
