REMARK VINA RESULT:    -4.291     10.916     15.781
REMARK INTER + INTRA:         -21.653
REMARK INTER:                 -13.732
REMARK INTRA:                  -7.920
REMARK UNBOUND:               -10.839
REMARK SMILES CC(=O)N[C@@H]1[C@@H](O)C[C@](OC[C@H]2O[C@@H](O[C@H]3[C@H](O)[C@@H](O)[C@H](OCCN=[N+]=[N-])O[C@@H]3CO)[C@H](O)[C@@H](O)[C@H]2O)(C(=O)O)O[C@H]1C(O)[C@H](O)CNC(=O)OCc1cn(-c2ccccc2C(C)C)nn1
REMARK SMILES IDX 9 1 8 2 6 3 5 4 42 5 41 6 10 7 11 8 12 9 14 10 13 11 32 12
REMARK SMILES IDX 34 13 36 14 15 15 16 16 29 17 28 18 21 19 17 20 19 21 30 22
REMARK SMILES IDX 31 23 22 25 23 26 24 27 25 28 26 29 27 30 18 31 20 33 33 35
REMARK SMILES IDX 35 37 37 39 38 41 39 42 40 43 7 45 43 47 44 48 45 50 46 51
REMARK SMILES IDX 47 53 48 54 49 55 50 57 51 58 52 59 53 60 54 61 66 62 55 63
REMARK SMILES IDX 65 64 56 65 61 66 57 67 60 68 58 69 59 70 62 71 63 72 64 73
REMARK SMILES IDX 4 74 2 75 1 77 3 78
REMARK H PARENT 31 24 18 32 20 34 33 36 35 38 37 40 40 44 7 46 44 49 46 52
REMARK H PARENT 48 56 4 76
REMARK Flexibility Score: inf
ROOT
ATOM      1  C   UNL     1      17.534  31.821  25.358  1.00  0.00     0.272 C 
ATOM      2  C   UNL     1      17.330  33.252  24.917  1.00  0.00     0.113 C 
ATOM      3  C   UNL     1      17.535  33.299  23.410  1.00  0.00     0.145 C 
ATOM      4  C   UNL     1      19.030  33.037  23.158  1.00  0.00     0.142 C 
ATOM      5  C   UNL     1      19.399  31.816  23.911  1.00  0.00     0.178 C 
ATOM      6  O   UNL     1      18.251  31.154  24.320  1.00  0.00    -0.332 OA
ENDROOT
BRANCH   1   7
ATOM      7  O   UNL     1      16.378  31.135  25.430  1.00  0.00    -0.338 OA
BRANCH   7   8
ATOM      8  C   UNL     1      15.169  31.506  25.676  1.00  0.00     0.199 C 
BRANCH   8   9
ATOM      9  C   UNL     1      14.020  31.349  24.733  1.00  0.00     0.179 C 
ATOM     10  C   UNL     1      13.432  31.017  22.563  1.00  0.00     0.282 C 
ATOM     11  O   UNL     1      14.374  31.451  23.411  1.00  0.00    -0.341 OA
ATOM     12  C   UNL     1      12.027  30.861  23.128  1.00  0.00     0.202 C 
ATOM     13  C   UNL     1      12.016  29.994  24.358  1.00  0.00     0.179 C 
ATOM     14  C   UNL     1      13.404  29.944  24.927  1.00  0.00     0.177 C 
BRANCH  10  15
ATOM     15  O   UNL     1      13.701  29.914  21.812  1.00  0.00    -0.341 OA
BRANCH  15  16
ATOM     16  C   UNL     1      14.760  29.932  20.939  1.00  0.00     0.184 C 
ATOM     17  C   UNL     1      14.360  29.795  19.507  1.00  0.00     0.178 C 
ATOM     18  O   UNL     1      14.918  28.736  18.881  1.00  0.00    -0.341 OA
ATOM     19  C   UNL     1      16.269  28.573  18.881  1.00  0.00     0.281 C 
ATOM     20  C   UNL     1      15.880  29.036  21.280  1.00  0.00     0.180 C 
ATOM     21  C   UNL     1      16.905  29.118  20.161  1.00  0.00     0.202 C 
BRANCH  17  22
ATOM     22  C   UNL     1      14.652  31.050  18.670  1.00  0.00     0.191 C 
BRANCH  22  23
ATOM     23  O   UNL     1      14.880  32.110  19.577  1.00  0.00    -0.394 OA
ATOM     24  H   UNL     1      15.261  32.863  19.025  1.00  0.00     0.210 HD
ENDBRANCH  22  23
ENDBRANCH  17  22
BRANCH  19  25
ATOM     25  O   UNL     1      16.837  29.230  17.823  1.00  0.00    -0.350 OA
BRANCH  25  26
ATOM     26  C   UNL     1      16.696  28.695  16.581  1.00  0.00     0.169 C 
BRANCH  26  27
ATOM     27  C   UNL     1      17.644  29.119  15.521  1.00  0.00     0.119 C 
BRANCH  27  28
ATOM     28  N   UNL     1      17.153  28.831  14.215  1.00  0.00    -0.092 NA
ATOM     29  N   UNL     1      16.051  29.082  13.772  1.00  0.00     0.001 N 
ATOM     30  N   UNL     1      14.964  29.537  13.432  1.00  0.00    -0.003 NA
ENDBRANCH  27  28
ENDBRANCH  26  27
ENDBRANCH  25  26
ENDBRANCH  19  25
BRANCH  20  31
ATOM     31  O   UNL     1      16.557  29.376  22.449  1.00  0.00    -0.387 OA
ATOM     32  H   UNL     1      17.280  28.723  22.585  1.00  0.00     0.211 HD
ENDBRANCH  20  31
BRANCH  21  33
ATOM     33  O   UNL     1      18.019  28.329  20.454  1.00  0.00    -0.385 OA
ATOM     34  H   UNL     1      17.942  27.509  19.903  1.00  0.00     0.211 HD
ENDBRANCH  21  33
ENDBRANCH  15  16
ENDBRANCH  10  15
BRANCH  12  35
ATOM     35  O   UNL     1      11.538  32.126  23.408  1.00  0.00    -0.385 OA
ATOM     36  H   UNL     1      11.300  32.191  24.386  1.00  0.00     0.211 HD
ENDBRANCH  12  35
BRANCH  13  37
ATOM     37  O   UNL     1      11.558  28.715  24.014  1.00  0.00    -0.387 OA
ATOM     38  H   UNL     1      12.338  28.228  23.648  1.00  0.00     0.211 HD
ENDBRANCH  13  37
BRANCH  14  39
ATOM     39  O   UNL     1      14.176  29.060  24.203  1.00  0.00    -0.387 OA
ATOM     40  H   UNL     1      15.108  29.133  24.527  1.00  0.00     0.211 HD
ENDBRANCH  14  39
ENDBRANCH   8   9
ENDBRANCH   7   8
ENDBRANCH   1   7
BRANCH   1  41
ATOM     41  C   UNL     1      18.337  31.737  26.583  1.00  0.00     0.364 C 
ATOM     42  O   UNL     1      18.558  32.843  27.195  1.00  0.00    -0.246 OA
BRANCH  41  43
ATOM     43  O   UNL     1      18.894  30.633  27.172  1.00  0.00    -0.477 OA
ATOM     44  H   UNL     1      19.759  30.592  27.678  1.00  0.00     0.296 HD
ENDBRANCH  41  43
ENDBRANCH   1  41
BRANCH   3  45
ATOM     45  O   UNL     1      16.877  32.220  22.811  1.00  0.00    -0.391 OA
ATOM     46  H   UNL     1      17.574  31.591  22.500  1.00  0.00     0.211 HD
ENDBRANCH   3  45
BRANCH   5  47
ATOM     47  C   UNL     1      20.214  30.783  23.194  1.00  0.00     0.176 C 
BRANCH  47  48
ATOM     48  O   UNL     1      19.377  30.419  22.081  1.00  0.00    -0.388 OA
ATOM     49  H   UNL     1      19.137  31.326  21.709  1.00  0.00     0.211 HD
ENDBRANCH  47  48
BRANCH  47  50
ATOM     50  C   UNL     1      20.477  29.504  23.923  1.00  0.00     0.165 C 
BRANCH  50  51
ATOM     51  O   UNL     1      19.354  28.770  24.193  1.00  0.00    -0.388 OA
ATOM     52  H   UNL     1      19.320  28.041  23.521  1.00  0.00     0.211 HD
ENDBRANCH  50  51
BRANCH  50  53
ATOM     53  C   UNL     1      21.508  29.615  24.981  1.00  0.00     0.154 C 
BRANCH  53  54
ATOM     54  N   UNL     1      22.373  28.460  25.134  1.00  0.00    -0.319 N 
ATOM     55  C   UNL     1      21.972  27.328  25.884  1.00  0.00     0.407 C 
ATOM     56  H   UNL     1      23.319  28.412  24.700  1.00  0.00     0.167 HD
ATOM     57  O   UNL     1      20.869  27.235  26.467  1.00  0.00    -0.225 OA
BRANCH  55  58
ATOM     58  O   UNL     1      22.795  26.186  26.041  1.00  0.00    -0.443 OA
BRANCH  58  59
ATOM     59  C   UNL     1      22.342  24.937  25.616  1.00  0.00     0.294 C 
BRANCH  59  60
ATOM     60  C   UNL     1      21.967  25.034  24.177  1.00  0.00     0.121 A 
ATOM     61  C   UNL     1      22.751  25.197  23.057  1.00  0.00     0.144 A 
ATOM     62  N   UNL     1      20.691  24.972  23.679  1.00  0.00    -0.131 NA
ATOM     63  N   UNL     1      22.001  25.231  21.942  1.00  0.00    -0.220 N 
ATOM     64  N   UNL     1      20.738  25.090  22.369  1.00  0.00    -0.062 NA
BRANCH  63  65
ATOM     65  C   UNL     1      22.401  25.375  20.584  1.00  0.00     0.070 A 
ATOM     66  C   UNL     1      22.437  26.631  20.020  1.00  0.00    -0.020 A 
ATOM     67  C   UNL     1      22.748  24.312  19.780  1.00  0.00     0.029 A 
ATOM     68  C   UNL     1      22.806  26.811  18.701  1.00  0.00     0.006 A 
ATOM     69  C   UNL     1      23.121  24.474  18.459  1.00  0.00     0.002 A 
ATOM     70  C   UNL     1      23.151  25.741  17.910  1.00  0.00     0.000 A 
BRANCH  66  71
ATOM     71  C   UNL     1      22.082  27.800  20.850  1.00  0.00     0.015 C 
ATOM     72  C   UNL     1      21.403  28.825  19.954  1.00  0.00     0.012 C 
ATOM     73  C   UNL     1      23.365  28.440  21.402  1.00  0.00     0.012 C 
ENDBRANCH  66  71
ENDBRANCH  63  65
ENDBRANCH  59  60
ENDBRANCH  58  59
ENDBRANCH  55  58
ENDBRANCH  53  54
ENDBRANCH  50  53
ENDBRANCH  47  50
ENDBRANCH   5  47
BRANCH   4  74
ATOM     74  N   UNL     1      19.744  34.214  23.602  1.00  0.00    -0.348 N 
ATOM     75  C   UNL     1      20.943  34.689  23.048  1.00  0.00     0.217 C 
ATOM     76  H   UNL     1      19.332  34.761  24.416  1.00  0.00     0.163 HD
ATOM     77  C   UNL     1      21.564  35.927  23.627  1.00  0.00     0.114 C 
ATOM     78  O   UNL     1      21.483  34.103  22.101  1.00  0.00    -0.275 OA
ENDBRANCH   4  74
TORSDOF 31
