REMARK VINA RESULT:    -4.840      3.703      7.417
REMARK INTER + INTRA:         -21.304
REMARK INTER:                 -15.244
REMARK INTRA:                  -6.061
REMARK UNBOUND:                -9.390
REMARK SMILES CC(=O)N[C@@H]1[C@@H](O)C[C@](OC[C@H]2O[C@@H](O[C@H]3[C@H](O)[C@@H](O)[C@H](OCCN=[N+]=[N-])O[C@@H]3CO)[C@H](O)[C@@H](O)[C@H]2O)(C(=O)O)O[C@H]1C(O)[C@H](O)CNC(=O)OCc1cn(-c2ccncc2)nn1
REMARK SMILES IDX 9 1 8 2 6 3 5 4 42 5 41 6 10 7 11 8 12 9 14 10 13 11 32 12
REMARK SMILES IDX 34 13 36 14 15 15 16 16 29 17 28 18 21 19 17 20 19 21 30 22
REMARK SMILES IDX 31 23 22 25 23 26 24 27 25 28 26 29 27 30 18 31 20 33 33 35
REMARK SMILES IDX 35 37 37 39 38 41 39 42 40 43 7 45 43 47 44 48 45 50 46 51
REMARK SMILES IDX 47 53 48 54 49 55 50 57 51 58 52 59 53 60 54 61 63 62 55 63
REMARK SMILES IDX 62 64 56 65 57 66 61 67 58 68 60 69 59 70 4 71 2 72 1 74
REMARK SMILES IDX 3 75
REMARK H PARENT 31 24 18 32 20 34 33 36 35 38 37 40 40 44 7 46 44 49 46 52
REMARK H PARENT 48 56 4 73
REMARK Flexibility Score: inf
ROOT
ATOM      1  C   UNL     1      22.728  28.086  22.475  1.00  0.00     0.272 C 
ATOM      2  C   UNL     1      22.699  28.090  20.933  1.00  0.00     0.113 C 
ATOM      3  C   UNL     1      21.634  27.114  20.423  1.00  0.00     0.145 C 
ATOM      4  C   UNL     1      22.166  25.684  20.776  1.00  0.00     0.142 C 
ATOM      5  C   UNL     1      22.495  25.724  22.240  1.00  0.00     0.178 C 
ATOM      6  O   UNL     1      22.011  26.911  22.775  1.00  0.00    -0.332 OA
ENDROOT
BRANCH   1   7
ATOM      7  O   UNL     1      21.998  29.071  22.958  1.00  0.00    -0.338 OA
BRANCH   7   8
ATOM      8  C   UNL     1      21.768  30.305  22.862  1.00  0.00     0.199 C 
BRANCH   8   9
ATOM      9  C   UNL     1      20.371  30.844  22.816  1.00  0.00     0.179 C 
ATOM     10  C   UNL     1      18.318  30.154  21.903  1.00  0.00     0.282 C 
ATOM     11  O   UNL     1      19.650  29.855  22.074  1.00  0.00    -0.341 OA
ATOM     12  C   UNL     1      17.603  30.197  23.218  1.00  0.00     0.202 C 
ATOM     13  C   UNL     1      18.320  31.168  24.158  1.00  0.00     0.179 C 
ATOM     14  C   UNL     1      19.765  30.771  24.221  1.00  0.00     0.177 C 
BRANCH  10  15
ATOM     15  O   UNL     1      17.830  29.069  21.129  1.00  0.00    -0.341 OA
BRANCH  15  16
ATOM     16  C   UNL     1      17.525  29.411  19.855  1.00  0.00     0.184 C 
ATOM     17  C   UNL     1      16.209  28.933  19.390  1.00  0.00     0.178 C 
ATOM     18  O   UNL     1      15.934  29.432  18.100  1.00  0.00    -0.341 OA
ATOM     19  C   UNL     1      16.726  28.552  17.268  1.00  0.00     0.281 C 
ATOM     20  C   UNL     1      18.618  28.794  18.928  1.00  0.00     0.180 C 
ATOM     21  C   UNL     1      18.142  28.926  17.493  1.00  0.00     0.202 C 
BRANCH  17  22
ATOM     22  C   UNL     1      15.092  29.276  20.301  1.00  0.00     0.191 C 
BRANCH  22  23
ATOM     23  O   UNL     1      15.054  28.454  21.438  1.00  0.00    -0.394 OA
ATOM     24  H   UNL     1      14.482  27.667  21.198  1.00  0.00     0.210 HD
ENDBRANCH  22  23
ENDBRANCH  17  22
BRANCH  19  25
ATOM     25  O   UNL     1      16.321  28.829  15.991  1.00  0.00    -0.350 OA
BRANCH  25  26
ATOM     26  C   UNL     1      15.516  29.924  15.909  1.00  0.00     0.169 C 
BRANCH  26  27
ATOM     27  C   UNL     1      15.435  30.597  14.578  1.00  0.00     0.119 C 
BRANCH  27  28
ATOM     28  N   UNL     1      14.222  30.274  13.854  1.00  0.00    -0.092 NA
ATOM     29  N   UNL     1      13.627  29.210  13.948  1.00  0.00     0.001 N 
ATOM     30  N   UNL     1      13.256  28.033  13.906  1.00  0.00    -0.003 NA
ENDBRANCH  27  28
ENDBRANCH  26  27
ENDBRANCH  25  26
ENDBRANCH  19  25
BRANCH  20  31
ATOM     31  O   UNL     1      19.741  29.569  19.089  1.00  0.00    -0.387 OA
ATOM     32  H   UNL     1      19.978  29.675  20.065  1.00  0.00     0.211 HD
ENDBRANCH  20  31
BRANCH  21  33
ATOM     33  O   UNL     1      18.969  28.202  16.647  1.00  0.00    -0.385 OA
ATOM     34  H   UNL     1      18.565  28.186  15.740  1.00  0.00     0.211 HD
ENDBRANCH  21  33
ENDBRANCH  15  16
ENDBRANCH  10  15
BRANCH  12  35
ATOM     35  O   UNL     1      16.286  30.690  23.060  1.00  0.00    -0.385 OA
ATOM     36  H   UNL     1      16.391  31.617  22.739  1.00  0.00     0.211 HD
ENDBRANCH  12  35
BRANCH  13  37
ATOM     37  O   UNL     1      17.781  31.182  25.423  1.00  0.00    -0.387 OA
ATOM     38  H   UNL     1      16.900  31.674  25.429  1.00  0.00     0.211 HD
ENDBRANCH  13  37
BRANCH  14  39
ATOM     39  O   UNL     1      19.904  29.433  24.622  1.00  0.00    -0.387 OA
ATOM     40  H   UNL     1      20.410  28.927  23.916  1.00  0.00     0.211 HD
ENDBRANCH  14  39
ENDBRANCH   8   9
ENDBRANCH   7   8
ENDBRANCH   1   7
BRANCH   1  41
ATOM     41  C   UNL     1      24.107  28.034  22.973  1.00  0.00     0.364 C 
ATOM     42  O   UNL     1      25.109  28.116  22.189  1.00  0.00    -0.246 OA
BRANCH  41  43
ATOM     43  O   UNL     1      24.424  27.893  24.303  1.00  0.00    -0.477 OA
ATOM     44  H   UNL     1      24.544  28.625  24.968  1.00  0.00     0.296 HD
ENDBRANCH  41  43
ENDBRANCH   1  41
BRANCH   3  45
ATOM     45  O   UNL     1      20.470  27.296  21.118  1.00  0.00    -0.391 OA
ATOM     46  H   UNL     1      20.003  28.113  20.857  1.00  0.00     0.211 HD
ENDBRANCH   3  45
BRANCH   5  47
ATOM     47  C   UNL     1      21.743  24.671  23.063  1.00  0.00     0.176 C 
BRANCH  47  48
ATOM     48  O   UNL     1      20.439  24.699  22.398  1.00  0.00    -0.388 OA
ATOM     49  H   UNL     1      20.620  24.930  21.438  1.00  0.00     0.211 HD
ENDBRANCH  47  48
BRANCH  47  50
ATOM     50  C   UNL     1      21.505  24.966  24.479  1.00  0.00     0.165 C 
BRANCH  50  51
ATOM     51  O   UNL     1      20.542  25.893  24.801  1.00  0.00    -0.388 OA
ATOM     52  H   UNL     1      20.652  26.728  24.274  1.00  0.00     0.211 HD
ENDBRANCH  50  51
BRANCH  50  53
ATOM     53  C   UNL     1      22.682  24.882  25.371  1.00  0.00     0.154 C 
BRANCH  53  54
ATOM     54  N   UNL     1      22.451  25.202  26.755  1.00  0.00    -0.319 N 
ATOM     55  C   UNL     1      22.487  26.543  27.210  1.00  0.00     0.407 C 
ATOM     56  H   UNL     1      22.273  24.416  27.404  1.00  0.00     0.167 HD
ATOM     57  O   UNL     1      22.723  27.429  26.358  1.00  0.00    -0.225 OA
BRANCH  55  58
ATOM     58  O   UNL     1      22.280  26.921  28.506  1.00  0.00    -0.443 OA
BRANCH  58  59
ATOM     59  C   UNL     1      22.438  26.106  29.648  1.00  0.00     0.294 C 
BRANCH  59  60
ATOM     60  C   UNL     1      23.884  25.837  29.944  1.00  0.00     0.121 A 
ATOM     61  C   UNL     1      25.011  26.284  29.290  1.00  0.00     0.144 A 
ATOM     62  N   UNL     1      24.343  25.065  30.958  1.00  0.00    -0.131 NA
ATOM     63  N   UNL     1      26.097  25.786  29.907  1.00  0.00    -0.220 N 
ATOM     64  N   UNL     1      25.662  25.043  30.926  1.00  0.00    -0.062 NA
BRANCH  63  65
ATOM     65  C   UNL     1      27.444  26.023  29.521  1.00  0.00     0.069 A 
ATOM     66  C   UNL     1      28.535  25.410  30.098  1.00  0.00     0.048 A 
ATOM     67  C   UNL     1      27.675  26.920  28.502  1.00  0.00     0.048 A 
ATOM     68  C   UNL     1      29.832  25.668  29.686  1.00  0.00     0.113 A 
ATOM     69  C   UNL     1      28.974  27.172  28.096  1.00  0.00     0.113 A 
ATOM     70  N   UNL     1      30.010  26.556  28.680  1.00  0.00    -0.265 NA
ENDBRANCH  63  65
ENDBRANCH  59  60
ENDBRANCH  58  59
ENDBRANCH  55  58
ENDBRANCH  53  54
ENDBRANCH  50  53
ENDBRANCH  47  50
ENDBRANCH   5  47
BRANCH   4  71
ATOM     71  N   UNL     1      23.319  25.555  19.919  1.00  0.00    -0.348 N 
ATOM     72  C   UNL     1      23.395  24.711  18.791  1.00  0.00     0.217 C 
ATOM     73  H   UNL     1      24.164  26.116  20.135  1.00  0.00     0.163 HD
ATOM     74  C   UNL     1      24.628  24.663  17.990  1.00  0.00     0.114 C 
ATOM     75  O   UNL     1      22.418  24.006  18.469  1.00  0.00    -0.275 OA
ENDBRANCH   4  71
TORSDOF 30
