REMARK VINA RESULT:    -6.128      4.785     11.730
REMARK INTER + INTRA:         -20.299
REMARK INTER:                 -12.970
REMARK INTRA:                  -7.329
REMARK UNBOUND:                -5.215
REMARK SMILES CC(=O)N[C@@H]1[C@@H](O)C[C@](OC[C@H]2O[C@@H](O[C@H]3[C@H](O)[C@@H](O)[C@H](OCCN=[N+]=[N-])O[C@@H]3CO)[C@H](O)[C@@H](O)[C@H]2O)(C(=O)O)O[C@H]1C(O)[C@H](O)CNC(=O)OCc1cn(C2CCCC2)nn1
REMARK SMILES IDX 9 1 8 2 6 3 5 4 42 5 41 6 10 7 11 8 12 9 14 10 13 11 32 12
REMARK SMILES IDX 34 13 36 14 15 15 16 16 29 17 28 18 21 19 17 20 19 21 30 22
REMARK SMILES IDX 31 23 22 25 23 26 24 27 25 28 26 29 27 30 18 31 20 33 33 35
REMARK SMILES IDX 35 37 37 39 38 41 39 42 40 43 7 45 43 47 44 48 45 50 46 51
REMARK SMILES IDX 47 53 48 54 49 55 50 57 51 58 52 59 53 60 54 61 62 62 55 63
REMARK SMILES IDX 61 64 56 65 57 66 60 67 58 68 59 69 4 70 2 71 1 73 3 74
REMARK H PARENT 31 24 18 32 20 34 33 36 35 38 37 40 40 44 7 46 44 49 46 52
REMARK H PARENT 48 56 4 72
REMARK Flexibility Score: inf
ROOT
ATOM      1  C   UNL     1      13.271  31.695  15.625  1.00  0.00     0.272 C 
ATOM      2  C   UNL     1      12.039  31.677  14.800  1.00  0.00     0.113 C 
ATOM      3  C   UNL     1      11.702  30.350  14.215  1.00  0.00     0.145 C 
ATOM      4  C   UNL     1      12.945  29.740  13.523  1.00  0.00     0.142 C 
ATOM      5  C   UNL     1      14.059  30.716  13.665  1.00  0.00     0.178 C 
ATOM      6  O   UNL     1      14.243  30.819  15.087  1.00  0.00    -0.332 OA
ENDROOT
BRANCH   1   7
ATOM      7  O   UNL     1      13.077  31.348  16.913  1.00  0.00    -0.338 OA
BRANCH   7   8
ATOM      8  C   UNL     1      13.665  30.212  17.408  1.00  0.00     0.199 C 
BRANCH   8   9
ATOM      9  C   UNL     1      14.970  30.634  18.078  1.00  0.00     0.179 C 
ATOM     10  C   UNL     1      14.690  29.905  20.272  1.00  0.00     0.282 C 
ATOM     11  O   UNL     1      14.835  30.966  19.387  1.00  0.00    -0.341 OA
ATOM     12  C   UNL     1      15.415  28.673  19.858  1.00  0.00     0.202 C 
ATOM     13  C   UNL     1      16.565  28.914  18.930  1.00  0.00     0.179 C 
ATOM     14  C   UNL     1      16.044  29.673  17.735  1.00  0.00     0.177 C 
BRANCH  10  15
ATOM     15  O   UNL     1      13.353  29.686  20.599  1.00  0.00    -0.341 OA
BRANCH  15  16
ATOM     16  C   UNL     1      12.960  30.414  21.722  1.00  0.00     0.184 C 
ATOM     17  C   UNL     1      12.889  31.888  21.506  1.00  0.00     0.178 C 
ATOM     18  O   UNL     1      12.571  32.501  22.716  1.00  0.00    -0.341 OA
ATOM     19  C   UNL     1      13.685  32.529  23.536  1.00  0.00     0.281 C 
ATOM     20  C   UNL     1      14.040  30.173  22.769  1.00  0.00     0.180 C 
ATOM     21  C   UNL     1      13.944  31.091  23.945  1.00  0.00     0.202 C 
BRANCH  17  22
ATOM     22  C   UNL     1      11.782  32.312  20.546  1.00  0.00     0.191 C 
BRANCH  22  23
ATOM     23  O   UNL     1      12.443  32.827  19.419  1.00  0.00    -0.394 OA
ATOM     24  H   UNL     1      11.825  32.973  18.684  1.00  0.00     0.210 HD
ENDBRANCH  22  23
ENDBRANCH  17  22
BRANCH  19  25
ATOM     25  O   UNL     1      13.375  33.236  24.694  1.00  0.00    -0.350 OA
BRANCH  25  26
ATOM     26  C   UNL     1      13.333  34.612  24.412  1.00  0.00     0.169 C 
BRANCH  26  27
ATOM     27  C   UNL     1      14.663  35.080  23.846  1.00  0.00     0.119 C 
BRANCH  27  28
ATOM     28  N   UNL     1      14.467  35.999  22.763  1.00  0.00    -0.092 NA
ATOM     29  N   UNL     1      14.051  35.626  21.647  1.00  0.00     0.001 N 
ATOM     30  N   UNL     1      14.113  35.155  20.514  1.00  0.00    -0.003 NA
ENDBRANCH  27  28
ENDBRANCH  26  27
ENDBRANCH  25  26
ENDBRANCH  19  25
BRANCH  20  31
ATOM     31  O   UNL     1      13.863  28.865  23.214  1.00  0.00    -0.387 OA
ATOM     32  H   UNL     1      13.777  28.800  24.197  1.00  0.00     0.211 HD
ENDBRANCH  20  31
BRANCH  21  33
ATOM     33  O   UNL     1      15.181  31.077  24.609  1.00  0.00    -0.385 OA
ATOM     34  H   UNL     1      15.818  31.520  23.990  1.00  0.00     0.211 HD
ENDBRANCH  21  33
ENDBRANCH  15  16
ENDBRANCH  10  15
BRANCH  12  35
ATOM     35  O   UNL     1      15.957  27.998  20.977  1.00  0.00    -0.385 OA
ATOM     36  H   UNL     1      16.886  27.789  20.766  1.00  0.00     0.211 HD
ENDBRANCH  12  35
BRANCH  13  37
ATOM     37  O   UNL     1      17.067  27.702  18.495  1.00  0.00    -0.387 OA
ATOM     38  H   UNL     1      16.752  27.555  17.576  1.00  0.00     0.211 HD
ENDBRANCH  13  37
BRANCH  14  39
ATOM     39  O   UNL     1      15.694  28.754  16.755  1.00  0.00    -0.387 OA
ATOM     40  H   UNL     1      16.314  28.737  16.011  1.00  0.00     0.211 HD
ENDBRANCH  14  39
ENDBRANCH   8   9
ENDBRANCH   7   8
ENDBRANCH   1   7
BRANCH   1  41
ATOM     41  C   UNL     1      13.919  33.054  15.487  1.00  0.00     0.364 C 
ATOM     42  O   UNL     1      15.103  33.264  15.794  1.00  0.00    -0.246 OA
BRANCH  41  43
ATOM     43  O   UNL     1      13.097  34.070  14.991  1.00  0.00    -0.477 OA
ATOM     44  H   UNL     1      12.181  33.817  14.598  1.00  0.00     0.296 HD
ENDBRANCH  41  43
ENDBRANCH   1  41
BRANCH   3  45
ATOM     45  O   UNL     1      11.103  29.455  15.065  1.00  0.00    -0.391 OA
ATOM     46  H   UNL     1      10.867  29.896  15.913  1.00  0.00     0.211 HD
ENDBRANCH   3  45
BRANCH   5  47
ATOM     47  C   UNL     1      15.401  30.240  13.168  1.00  0.00     0.176 C 
BRANCH  47  48
ATOM     48  O   UNL     1      15.329  28.784  13.197  1.00  0.00    -0.388 OA
ATOM     49  H   UNL     1      14.886  28.612  14.059  1.00  0.00     0.211 HD
ENDBRANCH  47  48
BRANCH  47  50
ATOM     50  C   UNL     1      16.570  30.506  14.074  1.00  0.00     0.165 C 
BRANCH  50  51
ATOM     51  O   UNL     1      17.084  31.754  14.099  1.00  0.00    -0.388 OA
ATOM     52  H   UNL     1      18.064  31.812  14.134  1.00  0.00     0.211 HD
ENDBRANCH  50  51
BRANCH  50  53
ATOM     53  C   UNL     1      17.688  29.547  13.683  1.00  0.00     0.154 C 
BRANCH  53  54
ATOM     54  N   UNL     1      18.065  28.775  14.875  1.00  0.00    -0.319 N 
ATOM     55  C   UNL     1      19.086  29.232  15.747  1.00  0.00     0.407 C 
ATOM     56  H   UNL     1      17.590  27.867  15.113  1.00  0.00     0.167 HD
ATOM     57  O   UNL     1      19.671  30.315  15.488  1.00  0.00    -0.225 OA
BRANCH  55  58
ATOM     58  O   UNL     1      19.450  28.520  16.867  1.00  0.00    -0.443 OA
BRANCH  58  59
ATOM     59  C   UNL     1      20.781  28.487  17.344  1.00  0.00     0.294 C 
BRANCH  59  60
ATOM     60  C   UNL     1      20.888  28.001  18.739  1.00  0.00     0.120 A 
ATOM     61  C   UNL     1      21.954  27.459  19.421  1.00  0.00     0.138 A 
ATOM     62  N   UNL     1      19.875  28.012  19.633  1.00  0.00    -0.132 NA
ATOM     63  N   UNL     1      21.569  27.167  20.667  1.00  0.00    -0.249 N 
ATOM     64  N   UNL     1      20.297  27.519  20.761  1.00  0.00    -0.067 NA
BRANCH  63  65
ATOM     65  C   UNL     1      22.355  26.581  21.745  1.00  0.00     0.109 C 
ATOM     66  C   UNL     1      21.510  26.027  22.845  1.00  0.00     0.027 C 
ATOM     67  C   UNL     1      23.099  25.381  21.197  1.00  0.00     0.027 C 
ATOM     68  C   UNL     1      21.293  24.563  22.562  1.00  0.00     0.002 C 
ATOM     69  C   UNL     1      22.227  24.187  21.440  1.00  0.00     0.002 C 
ENDBRANCH  63  65
ENDBRANCH  59  60
ENDBRANCH  58  59
ENDBRANCH  55  58
ENDBRANCH  53  54
ENDBRANCH  50  53
ENDBRANCH  47  50
ENDBRANCH   5  47
BRANCH   4  70
ATOM     70  N   UNL     1      12.580  29.367  12.176  1.00  0.00    -0.348 N 
ATOM     71  C   UNL     1      11.875  28.125  11.936  1.00  0.00     0.217 C 
ATOM     72  H   UNL     1      12.777  29.955  11.340  1.00  0.00     0.163 HD
ATOM     73  C   UNL     1      11.490  27.722  10.561  1.00  0.00     0.114 C 
ATOM     74  O   UNL     1      11.573  27.360  12.892  1.00  0.00    -0.275 OA
ENDBRANCH   4  70
TORSDOF 30
