REMARK VINA RESULT:    -7.830      3.379      5.540
REMARK INTER + INTRA:         -18.944
REMARK INTER:                 -11.451
REMARK INTRA:                  -7.492
REMARK UNBOUND:                 3.076
REMARK SMILES CC(=O)N[C@@H]1[C@@H](O)C[C@](OC[C@H]2O[C@@H](O[C@H]3[C@H](O)[C@@H](O)[C@H](OCCN=[N+]=[N-])O[C@@H]3CO)[C@H](O)[C@@H](O)[C@H]2O)(C(=O)O)O[C@H]1C(O)[C@H](O)CNC(=O)OCc1cn(C2CC(O)C=C[C@@H](O)C2)nn1
REMARK SMILES IDX 43 1 42 2 9 3 8 4 41 5 6 6 5 7 10 8 11 9 12 10 14 11 13 12
REMARK SMILES IDX 32 13 34 14 36 15 15 16 16 17 29 18 28 19 21 20 17 21 19 22
REMARK SMILES IDX 30 23 31 24 22 26 23 27 24 28 25 29 26 30 27 31 18 32 20 34
REMARK SMILES IDX 33 36 35 38 37 40 38 42 39 43 40 44 7 46 4 48 2 49 1 51 3 52
REMARK SMILES IDX 44 53 45 55 46 56 47 58 48 59 49 60 50 62 51 63 52 64 53 65
REMARK SMILES IDX 54 66 66 67 55 68 65 69 56 70 57 71 58 72 59 74 64 76 62 77
REMARK SMILES IDX 61 78 60 79 63 81
REMARK H PARENT 31 25 18 33 20 35 33 37 35 39 37 41 40 45 7 47 4 50 44 54
REMARK H PARENT 46 57 48 61 59 75 63 82
REMARK Flexibility Score: 90.00
ROOT
ATOM      1  C   UNL     1      17.275  30.659  23.300  1.00  0.00     0.176 C 
ENDROOT
BRANCH   1   2
ATOM      2  C   UNL     1      16.220  29.877  22.537  1.00  0.00     0.178 C 
ATOM      3  C   UNL     1      15.682  29.500  20.278  1.00  0.00     0.272 C 
ATOM      4  C   UNL     1      14.313  29.050  20.635  1.00  0.00     0.113 C 
ATOM      5  O   UNL     1      16.396  30.213  21.164  1.00  0.00    -0.332 OA
ATOM      6  C   UNL     1      14.025  29.020  22.092  1.00  0.00     0.145 C 
ATOM      7  C   UNL     1      14.808  30.156  22.822  1.00  0.00     0.142 C 
BRANCH   3   8
ATOM      8  O   UNL     1      15.613  30.145  19.026  1.00  0.00    -0.338 OA
BRANCH   8   9
ATOM      9  C   UNL     1      16.204  31.374  18.981  1.00  0.00     0.199 C 
BRANCH   9  10
ATOM     10  C   UNL     1      17.424  31.361  18.060  1.00  0.00     0.179 C 
ATOM     11  C   UNL     1      19.196  29.894  17.854  1.00  0.00     0.282 C 
ATOM     12  O   UNL     1      18.421  30.692  18.697  1.00  0.00    -0.341 OA
ATOM     13  C   UNL     1      18.243  28.817  17.371  1.00  0.00     0.202 C 
ATOM     14  C   UNL     1      17.328  29.488  16.372  1.00  0.00     0.179 C 
ATOM     15  C   UNL     1      17.081  30.931  16.676  1.00  0.00     0.177 C 
BRANCH  11  16
ATOM     16  O   UNL     1      20.272  29.410  18.559  1.00  0.00    -0.341 OA
BRANCH  16  17
ATOM     17  C   UNL     1      21.432  30.087  18.171  1.00  0.00     0.184 C 
ATOM     18  C   UNL     1      22.652  29.273  18.521  1.00  0.00     0.178 C 
ATOM     19  O   UNL     1      22.984  29.281  19.852  1.00  0.00    -0.341 OA
ATOM     20  C   UNL     1      22.225  30.158  20.623  1.00  0.00     0.281 C 
ATOM     21  C   UNL     1      21.497  31.488  18.714  1.00  0.00     0.180 C 
ATOM     22  C   UNL     1      22.263  31.552  20.007  1.00  0.00     0.202 C 
BRANCH  18  23
ATOM     23  C   UNL     1      23.847  29.708  17.684  1.00  0.00     0.191 C 
BRANCH  23  24
ATOM     24  O   UNL     1      23.487  30.039  16.391  1.00  0.00    -0.394 OA
ATOM     25  H   UNL     1      22.918  30.824  16.342  1.00  0.00     0.210 HD
ENDBRANCH  23  24
ENDBRANCH  18  23
BRANCH  20  26
ATOM     26  O   UNL     1      22.816  30.174  21.883  1.00  0.00    -0.350 OA
BRANCH  26  27
ATOM     27  C   UNL     1      24.173  29.907  21.738  1.00  0.00     0.169 C 
BRANCH  27  28
ATOM     28  C   UNL     1      25.020  31.008  22.351  1.00  0.00     0.119 C 
BRANCH  28  29
ATOM     29  N   UNL     1      25.957  30.464  23.312  1.00  0.00    -0.092 NA
ATOM     30  N   UNL     1      25.566  29.590  24.103  1.00  0.00     0.001 N 
ATOM     31  N   UNL     1      25.028  28.805  24.897  1.00  0.00    -0.003 NA
ENDBRANCH  28  29
ENDBRANCH  27  28
ENDBRANCH  26  27
ENDBRANCH  20  26
BRANCH  21  32
ATOM     32  O   UNL     1      22.078  32.343  17.777  1.00  0.00    -0.387 OA
ATOM     33  H   UNL     1      23.022  32.113  17.603  1.00  0.00     0.211 HD
ENDBRANCH  21  32
BRANCH  22  34
ATOM     34  O   UNL     1      21.688  32.463  20.885  1.00  0.00    -0.385 OA
ATOM     35  H   UNL     1      21.284  33.223  20.391  1.00  0.00     0.211 HD
ENDBRANCH  22  34
ENDBRANCH  16  17
ENDBRANCH  11  16
BRANCH  13  36
ATOM     36  O   UNL     1      18.856  27.732  16.803  1.00  0.00    -0.385 OA
ATOM     37  H   UNL     1      18.348  26.906  16.830  1.00  0.00     0.211 HD
ENDBRANCH  13  36
BRANCH  14  38
ATOM     38  O   UNL     1      16.156  28.734  16.333  1.00  0.00    -0.387 OA
ATOM     39  H   UNL     1      16.171  28.016  17.025  1.00  0.00     0.211 HD
ENDBRANCH  14  38
BRANCH  15  40
ATOM     40  O   UNL     1      15.720  31.238  16.476  1.00  0.00    -0.387 OA
ATOM     41  H   UNL     1      15.488  32.147  16.715  1.00  0.00     0.211 HD
ENDBRANCH  15  40
ENDBRANCH   9  10
ENDBRANCH   8   9
ENDBRANCH   3   8
BRANCH   3  42
ATOM     42  C   UNL     1      16.474  28.236  20.017  1.00  0.00     0.364 C 
ATOM     43  O   UNL     1      17.629  28.054  20.485  1.00  0.00    -0.246 OA
BRANCH  42  44
ATOM     44  O   UNL     1      15.883  27.261  19.231  1.00  0.00    -0.477 OA
ATOM     45  H   UNL     1      14.990  26.843  19.492  1.00  0.00     0.296 HD
ENDBRANCH  42  44
ENDBRANCH   3  42
BRANCH   6  46
ATOM     46  O   UNL     1      12.681  29.135  22.350  1.00  0.00    -0.391 OA
ATOM     47  H   UNL     1      12.539  29.551  23.227  1.00  0.00     0.211 HD
ENDBRANCH   6  46
BRANCH   7  48
ATOM     48  N   UNL     1      14.325  30.260  24.144  1.00  0.00    -0.348 N 
ATOM     49  C   UNL     1      13.864  31.506  24.639  1.00  0.00     0.217 C 
ATOM     50  H   UNL     1      14.269  29.430  24.763  1.00  0.00     0.163 HD
ATOM     51  C   UNL     1      13.351  31.639  26.028  1.00  0.00     0.114 C 
ATOM     52  O   UNL     1      13.889  32.516  23.896  1.00  0.00    -0.275 OA
ENDBRANCH   7  48
ENDBRANCH   1   2
BRANCH   1  53
ATOM     53  O   UNL     1      16.751  32.019  23.151  1.00  0.00    -0.388 OA
ATOM     54  H   UNL     1      15.806  32.010  23.499  1.00  0.00     0.211 HD
ENDBRANCH   1  53
BRANCH   1  55
ATOM     55  C   UNL     1      18.592  30.775  22.586  1.00  0.00     0.165 C 
BRANCH  55  56
ATOM     56  O   UNL     1      19.076  29.553  22.184  1.00  0.00    -0.388 OA
ATOM     57  H   UNL     1      19.341  28.963  22.924  1.00  0.00     0.211 HD
ENDBRANCH  55  56
BRANCH  55  58
ATOM     58  C   UNL     1      19.651  31.380  23.501  1.00  0.00     0.154 C 
BRANCH  58  59
ATOM     59  N   UNL     1      20.654  30.457  23.926  1.00  0.00    -0.319 N 
ATOM     60  C   UNL     1      20.676  29.882  25.226  1.00  0.00     0.407 C 
ATOM     61  H   UNL     1      21.428  30.175  23.253  1.00  0.00     0.167 HD
ATOM     62  O   UNL     1      19.753  30.228  26.019  1.00  0.00    -0.225 OA
BRANCH  60  63
ATOM     63  O   UNL     1      21.667  28.995  25.579  1.00  0.00    -0.443 OA
BRANCH  63  64
ATOM     64  C   UNL     1      21.452  27.590  25.482  1.00  0.00     0.294 C 
BRANCH  64  65
ATOM     65  C   UNL     1      21.669  27.195  24.072  1.00  0.00     0.120 A 
ATOM     66  C   UNL     1      22.716  26.490  23.538  1.00  0.00     0.138 A 
ATOM     67  N   UNL     1      20.845  27.481  23.049  1.00  0.00    -0.132 NA
ATOM     68  N   UNL     1      22.491  26.374  22.205  1.00  0.00    -0.249 N 
ATOM     69  N   UNL     1      21.354  26.983  21.943  1.00  0.00    -0.067 NA
BRANCH  68  70
ATOM     70  C   UNL     1      23.357  25.699  21.228  1.00  0.00     0.115 C 
BRANCH  70  71
ATOM     71  C   UNL     1      22.672  25.702  19.903  1.00  0.00     0.063 C 
BRANCH  71  72
ATOM     72  C   UNL     1      23.192  24.525  19.071  1.00  0.00     0.139 CG0
ATOM     73  G   UNL     1      24.555  24.831  18.607  1.00  0.00     0.000 G0
BRANCH  72  74
ATOM     74  O   UNL     1      22.333  24.284  18.002  1.00  0.00    -0.389 OA
ATOM     75  H   UNL     1      21.483  24.780  18.175  1.00  0.00     0.211 HD
ENDBRANCH  72  74
ENDBRANCH  71  72
ENDBRANCH  70  71
BRANCH  70  76
ATOM     76  C   UNL     1      24.663  26.428  21.169  1.00  0.00     0.063 C 
BRANCH  76  77
ATOM     77  C   UNL     1      25.719  25.399  20.748  1.00  0.00     0.139 C 
BRANCH  77  78
ATOM     78  C   UNL     1      25.651  25.188  19.277  1.00  0.00     0.002 C 
ATOM     79  C   UNL     1      24.579  24.821  18.589  1.00  0.00     0.002 CG0
ATOM     80  G   UNL     1      23.214  24.531  19.059  1.00  0.00     0.000 G0
ENDBRANCH  77  78
BRANCH  77  81
ATOM     81  O   UNL     1      26.991  25.778  21.148  1.00  0.00    -0.389 OA
ATOM     82  H   UNL     1      26.933  26.719  21.476  1.00  0.00     0.211 HD
ENDBRANCH  77  81
ENDBRANCH  76  77
ENDBRANCH  70  76
ENDBRANCH  68  70
ENDBRANCH  64  65
ENDBRANCH  63  64
ENDBRANCH  60  63
ENDBRANCH  58  59
ENDBRANCH  55  58
ENDBRANCH   1  55
TORSDOF 32
