REMARK VINA RESULT:    -5.649      8.612     15.961
REMARK INTER + INTRA:         -24.471
REMARK INTER:                 -15.356
REMARK INTRA:                  -9.115
REMARK UNBOUND:                -9.245
REMARK SMILES CC(=O)N[C@@H]1[C@@H](O)C[C@](OC[C@H]2O[C@@H](O[C@H]3[C@H](O)[C@@H](O)[C@H](OCCN=[N+]=[N-])O[C@@H]3CO)[C@H](O)[C@@H](O)[C@H]2O)(C(=O)O)O[C@H]1C(O)[C@H](O)CNC(=O)OCc1cn([C@@H](C)C(=O)OCc2ccccc2)nn1
REMARK SMILES IDX 43 1 42 2 9 3 8 4 41 5 6 6 5 7 10 8 11 9 12 10 14 11 13 12
REMARK SMILES IDX 32 13 34 14 36 15 15 16 16 17 29 18 28 19 21 20 17 21 19 22
REMARK SMILES IDX 30 23 31 24 22 26 23 27 24 28 25 29 26 30 27 31 18 32 20 34
REMARK SMILES IDX 33 36 35 38 37 40 38 42 39 43 40 44 7 46 4 48 2 49 1 51 3 52
REMARK SMILES IDX 44 53 45 55 46 56 47 58 48 59 49 60 50 62 51 63 52 64 53 65
REMARK SMILES IDX 54 66 69 67 55 68 68 69 56 70 57 71 58 72 59 73 60 74 61 75
REMARK SMILES IDX 62 76 63 77 67 78 64 79 66 80 65 81
REMARK H PARENT 31 25 18 33 20 35 33 37 35 39 37 41 40 45 7 47 4 50 44 54
REMARK H PARENT 46 57 48 61
REMARK Flexibility Score: inf
ROOT
ATOM      1  C   UNL     1      17.269  29.786  21.269  1.00  0.00     0.176 C 
ENDROOT
BRANCH   1   2
ATOM      2  C   UNL     1      17.166  30.140  19.837  1.00  0.00     0.178 C 
ATOM      3  C   UNL     1      14.890  29.868  19.400  1.00  0.00     0.272 C 
ATOM      4  C   UNL     1      15.223  28.734  18.509  1.00  0.00     0.113 C 
ATOM      5  O   UNL     1      16.013  30.768  19.449  1.00  0.00    -0.332 OA
ATOM      6  C   UNL     1      16.481  27.996  18.904  1.00  0.00     0.145 C 
ATOM      7  C   UNL     1      17.600  28.990  18.967  1.00  0.00     0.142 C 
BRANCH   3   8
ATOM      8  O   UNL     1      14.546  29.680  20.649  1.00  0.00    -0.338 OA
BRANCH   8   9
ATOM      9  C   UNL     1      13.605  28.989  21.223  1.00  0.00     0.199 C 
BRANCH   9  10
ATOM     10  C   UNL     1      13.113  29.258  22.617  1.00  0.00     0.179 C 
ATOM     11  C   UNL     1      13.941  30.063  24.638  1.00  0.00     0.282 C 
ATOM     12  O   UNL     1      14.181  29.361  23.459  1.00  0.00    -0.341 OA
ATOM     13  C   UNL     1      12.500  30.102  25.000  1.00  0.00     0.202 C 
ATOM     14  C   UNL     1      11.699  30.827  23.954  1.00  0.00     0.179 C 
ATOM     15  C   UNL     1      12.279  30.557  22.612  1.00  0.00     0.177 C 
BRANCH  11  16
ATOM     16  O   UNL     1      14.590  31.262  24.530  1.00  0.00    -0.341 OA
BRANCH  16  17
ATOM     17  C   UNL     1      14.895  31.878  25.706  1.00  0.00     0.184 C 
ATOM     18  C   UNL     1      15.525  33.217  25.420  1.00  0.00     0.178 C 
ATOM     19  O   UNL     1      15.983  33.794  26.610  1.00  0.00    -0.341 OA
ATOM     20  C   UNL     1      17.257  33.209  26.824  1.00  0.00     0.281 C 
ATOM     21  C   UNL     1      15.889  31.092  26.546  1.00  0.00     0.180 C 
ATOM     22  C   UNL     1      17.226  31.719  26.686  1.00  0.00     0.202 C 
BRANCH  18  23
ATOM     23  C   UNL     1      14.655  34.159  24.642  1.00  0.00     0.191 C 
BRANCH  23  24
ATOM     24  O   UNL     1      14.762  33.787  23.299  1.00  0.00    -0.394 OA
ATOM     25  H   UNL     1      13.889  33.599  22.880  1.00  0.00     0.210 HD
ENDBRANCH  23  24
ENDBRANCH  18  23
BRANCH  20  26
ATOM     26  O   UNL     1      17.723  33.659  28.018  1.00  0.00    -0.350 OA
BRANCH  26  27
ATOM     27  C   UNL     1      19.033  33.492  28.322  1.00  0.00     0.169 C 
BRANCH  27  28
ATOM     28  C   UNL     1      19.373  32.826  29.607  1.00  0.00     0.119 C 
BRANCH  28  29
ATOM     29  N   UNL     1      20.443  31.895  29.598  1.00  0.00    -0.092 NA
ATOM     30  N   UNL     1      20.262  30.685  29.548  1.00  0.00     0.001 N 
ATOM     31  N   UNL     1      20.153  29.465  29.327  1.00  0.00    -0.003 NA
ENDBRANCH  28  29
ENDBRANCH  27  28
ENDBRANCH  26  27
ENDBRANCH  20  26
BRANCH  21  32
ATOM     32  O   UNL     1      15.380  30.827  27.820  1.00  0.00    -0.387 OA
ATOM     33  H   UNL     1      16.006  30.326  28.389  1.00  0.00     0.211 HD
ENDBRANCH  21  32
BRANCH  22  34
ATOM     34  O   UNL     1      18.067  31.247  25.673  1.00  0.00    -0.385 OA
ATOM     35  H   UNL     1      18.967  31.133  26.083  1.00  0.00     0.211 HD
ENDBRANCH  22  34
ENDBRANCH  16  17
ENDBRANCH  11  16
BRANCH  13  36
ATOM     36  O   UNL     1      12.045  28.770  25.150  1.00  0.00    -0.385 OA
ATOM     37  H   UNL     1      12.798  28.303  25.625  1.00  0.00     0.211 HD
ENDBRANCH  13  36
BRANCH  14  38
ATOM     38  O   UNL     1      11.651  32.167  24.280  1.00  0.00    -0.387 OA
ATOM     39  H   UNL     1      11.791  32.756  23.489  1.00  0.00     0.211 HD
ENDBRANCH  14  38
BRANCH  15  40
ATOM     40  O   UNL     1      13.010  31.628  22.117  1.00  0.00    -0.387 OA
ATOM     41  H   UNL     1      13.401  32.143  22.889  1.00  0.00     0.211 HD
ENDBRANCH  15  40
ENDBRANCH   9  10
ENDBRANCH   8   9
ENDBRANCH   3   8
BRANCH   3  42
ATOM     42  C   UNL     1      13.917  30.758  18.653  1.00  0.00     0.364 C 
ATOM     43  O   UNL     1      13.284  31.654  19.228  1.00  0.00    -0.246 OA
BRANCH  42  44
ATOM     44  O   UNL     1      13.708  30.592  17.285  1.00  0.00    -0.477 OA
ATOM     45  H   UNL     1      12.920  30.086  16.892  1.00  0.00     0.296 HD
ENDBRANCH  42  44
ENDBRANCH   3  42
BRANCH   6  46
ATOM     46  O   UNL     1      16.336  27.273  20.084  1.00  0.00    -0.391 OA
ATOM     47  H   UNL     1      16.561  27.886  20.822  1.00  0.00     0.211 HD
ENDBRANCH   6  46
BRANCH   7  48
ATOM     48  N   UNL     1      17.907  29.432  17.612  1.00  0.00    -0.348 N 
ATOM     49  C   UNL     1      19.034  28.856  16.947  1.00  0.00     0.217 C 
ATOM     50  H   UNL     1      17.353  30.146  17.098  1.00  0.00     0.163 HD
ATOM     51  C   UNL     1      19.348  29.310  15.559  1.00  0.00     0.114 C 
ATOM     52  O   UNL     1      19.738  27.986  17.528  1.00  0.00    -0.275 OA
ENDBRANCH   7  48
ENDBRANCH   1   2
BRANCH   1  53
ATOM     53  O   UNL     1      18.540  29.204  21.499  1.00  0.00    -0.388 OA
ATOM     54  H   UNL     1      18.725  28.501  20.819  1.00  0.00     0.211 HD
ENDBRANCH   1  53
BRANCH   1  55
ATOM     55  C   UNL     1      17.255  31.002  22.208  1.00  0.00     0.165 C 
BRANCH  55  56
ATOM     56  O   UNL     1      16.052  31.636  22.222  1.00  0.00    -0.388 OA
ATOM     57  H   UNL     1      15.677  31.669  23.133  1.00  0.00     0.211 HD
ENDBRANCH  55  56
BRANCH  55  58
ATOM     58  C   UNL     1      18.449  31.870  21.974  1.00  0.00     0.154 C 
BRANCH  58  59
ATOM     59  N   UNL     1      19.467  31.613  22.954  1.00  0.00    -0.319 N 
ATOM     60  C   UNL     1      20.853  31.484  22.702  1.00  0.00     0.407 C 
ATOM     61  H   UNL     1      19.204  31.503  23.985  1.00  0.00     0.167 HD
ATOM     62  O   UNL     1      21.304  31.569  21.557  1.00  0.00    -0.225 OA
BRANCH  60  63
ATOM     63  O   UNL     1      21.761  31.252  23.747  1.00  0.00    -0.443 OA
BRANCH  63  64
ATOM     64  C   UNL     1      21.391  31.369  25.097  1.00  0.00     0.294 C 
BRANCH  64  65
ATOM     65  C   UNL     1      21.472  30.020  25.704  1.00  0.00     0.120 A 
ATOM     66  C   UNL     1      22.527  29.454  26.383  1.00  0.00     0.139 A 
ATOM     67  N   UNL     1      20.498  29.103  25.680  1.00  0.00    -0.132 NA
ATOM     68  N   UNL     1      22.170  28.195  26.759  1.00  0.00    -0.238 N 
ATOM     69  N   UNL     1      20.939  28.011  26.322  1.00  0.00    -0.066 NA
BRANCH  68  70
ATOM     70  C   UNL     1      23.065  27.328  27.485  1.00  0.00     0.215 C 
ATOM     71  C   UNL     1      23.627  28.020  28.712  1.00  0.00     0.046 C 
BRANCH  70  72
ATOM     72  C   UNL     1      22.353  26.067  27.902  1.00  0.00     0.331 C 
ATOM     73  O   UNL     1      21.735  26.053  28.980  1.00  0.00    -0.250 OA
BRANCH  72  74
ATOM     74  O   UNL     1      22.373  24.939  27.115  1.00  0.00    -0.459 OA
BRANCH  74  75
ATOM     75  C   UNL     1      23.332  24.662  26.124  1.00  0.00     0.268 C 
BRANCH  75  76
ATOM     76  C   UNL     1      22.781  24.644  24.753  1.00  0.00    -0.011 A 
ATOM     77  C   UNL     1      21.434  24.658  24.502  1.00  0.00     0.007 A 
ATOM     78  C   UNL     1      23.629  24.610  23.674  1.00  0.00     0.007 A 
ATOM     79  C   UNL     1      20.917  24.639  23.226  1.00  0.00     0.000 A 
ATOM     80  C   UNL     1      23.159  24.591  22.381  1.00  0.00     0.000 A 
ATOM     81  C   UNL     1      21.786  24.605  22.166  1.00  0.00     0.000 A 
ENDBRANCH  75  76
ENDBRANCH  74  75
ENDBRANCH  72  74
ENDBRANCH  70  72
ENDBRANCH  68  70
ENDBRANCH  64  65
ENDBRANCH  63  64
ENDBRANCH  60  63
ENDBRANCH  58  59
ENDBRANCH  55  58
ENDBRANCH   1  55
TORSDOF 34
