REMARK VINA RESULT:    -4.940      2.433      8.706
REMARK INTER + INTRA:         -22.505
REMARK INTER:                 -14.130
REMARK INTRA:                  -8.374
REMARK UNBOUND:                -9.623
REMARK SMILES CC(=O)N[C@@H]1[C@@H](O)C[C@](OC[C@H]2O[C@@H](O[C@H]3[C@H](O)[C@@H](O)[C@H](OCCN=[N+]=[N-])O[C@@H]3CO)[C@H](O)[C@@H](O)[C@H]2O)(C(=O)O)O[C@H]1C(O)[C@H](O)CNC(=O)OCc1cn(Cc2ccc(C(=O)O)cc2)nn1
REMARK SMILES IDX 43 1 42 2 9 3 8 4 41 5 6 6 5 7 10 8 11 9 12 10 14 11 13 12
REMARK SMILES IDX 32 13 34 14 36 15 15 16 16 17 29 18 28 19 21 20 17 21 19 22
REMARK SMILES IDX 30 23 31 24 22 26 23 27 24 28 25 29 26 30 27 31 18 32 20 34
REMARK SMILES IDX 33 36 35 38 37 40 38 42 39 43 40 44 7 46 4 48 2 49 1 51 3 52
REMARK SMILES IDX 44 53 45 55 46 56 47 58 48 59 49 60 50 62 51 63 52 64 53 65
REMARK SMILES IDX 54 66 67 67 55 68 66 69 56 70 57 71 58 72 65 73 59 74 64 75
REMARK SMILES IDX 60 76 61 77 62 78 63 79
REMARK H PARENT 31 25 18 33 20 35 33 37 35 39 37 41 40 45 7 47 4 50 44 54
REMARK H PARENT 46 57 48 61 63 80
REMARK Flexibility Score: inf
ROOT
ATOM      1  C   UNL     1      22.692  29.581  22.690  1.00  0.00     0.176 C 
ENDROOT
BRANCH   1   2
ATOM      2  C   UNL     1      21.565  30.521  23.171  1.00  0.00     0.178 C 
ATOM      3  C   UNL     1      20.855  31.110  25.350  1.00  0.00     0.272 C 
ATOM      4  C   UNL     1      19.510  30.608  25.005  1.00  0.00     0.113 C 
ATOM      5  O   UNL     1      21.842  30.781  24.457  1.00  0.00    -0.332 OA
ATOM      6  C   UNL     1      19.535  29.431  24.052  1.00  0.00     0.145 C 
ATOM      7  C   UNL     1      20.282  29.880  22.832  1.00  0.00     0.142 C 
BRANCH   3   8
ATOM      8  O   UNL     1      21.279  30.625  26.559  1.00  0.00    -0.338 OA
BRANCH   8   9
ATOM      9  C   UNL     1      20.487  30.727  27.647  1.00  0.00     0.199 C 
BRANCH   9  10
ATOM     10  C   UNL     1      20.704  29.510  28.578  1.00  0.00     0.179 C 
ATOM     11  C   UNL     1      21.333  27.268  28.502  1.00  0.00     0.282 C 
ATOM     12  O   UNL     1      20.924  28.406  27.809  1.00  0.00    -0.341 OA
ATOM     13  C   UNL     1      21.241  27.389  29.982  1.00  0.00     0.202 C 
ATOM     14  C   UNL     1      22.044  28.598  30.410  1.00  0.00     0.179 C 
ATOM     15  C   UNL     1      21.833  29.795  29.535  1.00  0.00     0.177 C 
BRANCH  11  16
ATOM     16  O   UNL     1      22.636  26.970  28.105  1.00  0.00    -0.341 OA
BRANCH  16  17
ATOM     17  C   UNL     1      22.685  26.484  26.831  1.00  0.00     0.184 C 
ATOM     18  C   UNL     1      23.241  25.110  26.757  1.00  0.00     0.178 C 
ATOM     19  O   UNL     1      23.027  24.547  25.490  1.00  0.00    -0.341 OA
ATOM     20  C   UNL     1      23.274  25.481  24.481  1.00  0.00     0.281 C 
ATOM     21  C   UNL     1      23.591  27.443  26.035  1.00  0.00     0.180 C 
ATOM     22  C   UNL     1      24.161  26.615  24.902  1.00  0.00     0.202 C 
BRANCH  18  23
ATOM     23  C   UNL     1      22.589  24.215  27.773  1.00  0.00     0.191 C 
BRANCH  23  24
ATOM     24  O   UNL     1      23.372  24.332  28.945  1.00  0.00    -0.394 OA
ATOM     25  H   UNL     1      22.804  24.534  29.713  1.00  0.00     0.210 HD
ENDBRANCH  23  24
ENDBRANCH  18  23
BRANCH  20  26
ATOM     26  O   UNL     1      22.074  25.916  23.969  1.00  0.00    -0.350 OA
BRANCH  26  27
ATOM     27  C   UNL     1      21.314  24.948  23.354  1.00  0.00     0.169 C 
BRANCH  27  28
ATOM     28  C   UNL     1      21.933  24.307  22.157  1.00  0.00     0.119 C 
BRANCH  28  29
ATOM     29  N   UNL     1      22.084  25.366  21.146  1.00  0.00    -0.092 NA
ATOM     30  N   UNL     1      22.301  25.123  19.964  1.00  0.00     0.001 N 
ATOM     31  N   UNL     1      22.637  24.641  18.888  1.00  0.00    -0.003 NA
ENDBRANCH  28  29
ENDBRANCH  27  28
ENDBRANCH  26  27
ENDBRANCH  20  26
BRANCH  21  32
ATOM     32  O   UNL     1      22.863  28.516  25.570  1.00  0.00    -0.387 OA
ATOM     33  H   UNL     1      22.947  28.614  24.567  1.00  0.00     0.211 HD
ENDBRANCH  21  32
BRANCH  22  34
ATOM     34  O   UNL     1      25.427  26.190  25.230  1.00  0.00    -0.385 OA
ATOM     35  H   UNL     1      25.467  25.239  25.432  1.00  0.00     0.211 HD
ENDBRANCH  22  34
ENDBRANCH  16  17
ENDBRANCH  11  16
BRANCH  13  36
ATOM     36  O   UNL     1      19.912  27.514  30.415  1.00  0.00    -0.385 OA
ATOM     37  H   UNL     1      19.534  26.593  30.408  1.00  0.00     0.211 HD
ENDBRANCH  13  36
BRANCH  14  38
ATOM     38  O   UNL     1      23.407  28.307  30.474  1.00  0.00    -0.387 OA
ATOM     39  H   UNL     1      23.859  28.789  29.725  1.00  0.00     0.211 HD
ENDBRANCH  14  38
BRANCH  15  40
ATOM     40  O   UNL     1      23.002  30.168  28.857  1.00  0.00    -0.387 OA
ATOM     41  H   UNL     1      22.953  29.763  27.952  1.00  0.00     0.211 HD
ENDBRANCH  15  40
ENDBRANCH   9  10
ENDBRANCH   8   9
ENDBRANCH   3   8
BRANCH   3  42
ATOM     42  C   UNL     1      20.808  32.618  25.364  1.00  0.00     0.364 C 
ATOM     43  O   UNL     1      21.843  33.290  25.602  1.00  0.00    -0.246 OA
BRANCH  42  44
ATOM     44  O   UNL     1      19.635  33.312  25.117  1.00  0.00    -0.477 OA
ATOM     45  H   UNL     1      18.995  32.913  24.413  1.00  0.00     0.296 HD
ENDBRANCH  42  44
ENDBRANCH   3  42
BRANCH   6  46
ATOM     46  O   UNL     1      20.115  28.371  24.715  1.00  0.00    -0.391 OA
ATOM     47  H   UNL     1      21.103  28.472  24.711  1.00  0.00     0.211 HD
ENDBRANCH   6  46
BRANCH   7  48
ATOM     48  N   UNL     1      19.444  30.824  22.105  1.00  0.00    -0.348 N 
ATOM     49  C   UNL     1      18.333  30.377  21.308  1.00  0.00     0.217 C 
ATOM     50  H   UNL     1      19.585  31.857  22.107  1.00  0.00     0.163 HD
ATOM     51  C   UNL     1      17.496  31.379  20.576  1.00  0.00     0.114 C 
ATOM     52  O   UNL     1      18.096  29.159  21.248  1.00  0.00    -0.275 OA
ENDBRANCH   7  48
ENDBRANCH   1   2
BRANCH   1  53
ATOM     53  O   UNL     1      22.267  28.339  22.349  1.00  0.00    -0.388 OA
ATOM     54  H   UNL     1      21.461  28.008  22.802  1.00  0.00     0.211 HD
ENDBRANCH   1  53
BRANCH   1  55
ATOM     55  C   UNL     1      23.541  30.244  21.631  1.00  0.00     0.165 C 
BRANCH  55  56
ATOM     56  O   UNL     1      23.272  31.575  21.603  1.00  0.00    -0.388 OA
ATOM     57  H   UNL     1      22.866  31.920  20.784  1.00  0.00     0.211 HD
ENDBRANCH  55  56
BRANCH  55  58
ATOM     58  C   UNL     1      23.469  29.479  20.366  1.00  0.00     0.154 C 
BRANCH  58  59
ATOM     59  N   UNL     1      22.464  29.988  19.475  1.00  0.00    -0.319 N 
ATOM     60  C   UNL     1      21.240  29.338  19.201  1.00  0.00     0.407 C 
ATOM     61  H   UNL     1      22.625  30.907  18.977  1.00  0.00     0.167 HD
ATOM     62  O   UNL     1      20.937  28.255  19.723  1.00  0.00    -0.225 OA
BRANCH  60  63
ATOM     63  O   UNL     1      20.276  29.869  18.320  1.00  0.00    -0.443 OA
BRANCH  63  64
ATOM     64  C   UNL     1      19.623  29.018  17.396  1.00  0.00     0.294 C 
BRANCH  64  65
ATOM     65  C   UNL     1      18.189  28.850  17.692  1.00  0.00     0.120 A 
ATOM     66  C   UNL     1      17.137  29.682  17.423  1.00  0.00     0.138 A 
ATOM     67  N   UNL     1      17.676  27.783  18.333  1.00  0.00    -0.132 NA
ATOM     68  N   UNL     1      16.019  29.100  17.908  1.00  0.00    -0.248 N 
ATOM     69  N   UNL     1      16.372  27.951  18.454  1.00  0.00    -0.067 NA
BRANCH  68  70
ATOM     70  C   UNL     1      14.696  29.664  17.829  1.00  0.00     0.181 C 
BRANCH  70  71
ATOM     71  C   UNL     1      14.116  29.826  19.177  1.00  0.00    -0.026 A 
ATOM     72  C   UNL     1      13.499  31.009  19.522  1.00  0.00     0.006 A 
ATOM     73  C   UNL     1      14.207  28.797  20.110  1.00  0.00     0.006 A 
ATOM     74  C   UNL     1      12.994  31.102  20.807  1.00  0.00     0.016 A 
ATOM     75  C   UNL     1      13.704  28.897  21.387  1.00  0.00     0.016 A 
ATOM     76  C   UNL     1      13.087  30.078  21.729  1.00  0.00     0.059 A 
BRANCH  76  77
ATOM     77  C   UNL     1      12.540  30.242  23.066  1.00  0.00     0.335 C 
ATOM     78  O   UNL     1      12.212  31.364  23.473  1.00  0.00    -0.246 OA
BRANCH  77  79
ATOM     79  O   UNL     1      12.390  29.143  23.882  1.00  0.00    -0.478 OA
ATOM     80  H   UNL     1      11.519  28.944  24.371  1.00  0.00     0.297 HD
ENDBRANCH  77  79
ENDBRANCH  76  77
ENDBRANCH  70  71
ENDBRANCH  68  70
ENDBRANCH  64  65
ENDBRANCH  63  64
ENDBRANCH  60  63
ENDBRANCH  58  59
ENDBRANCH  55  58
ENDBRANCH   1  55
TORSDOF 33
