REMARK VINA RESULT:    -6.276      5.924     11.863
REMARK INTER + INTRA:         -22.974
REMARK INTER:                 -13.761
REMARK INTRA:                  -9.213
REMARK UNBOUND:                -6.425
REMARK SMILES CC(=O)N[C@@H]1[C@@H](O)C[C@](OC[C@H]2O[C@@H](O[C@H]3[C@H](O)[C@@H](O)[C@H](OCCN=[N+]=[N-])O[C@@H]3CO)[C@H](O)[C@@H](O)[C@H]2O)(C(=O)O)O[C@H]1C(O)[C@H](O)CNC(=O)OCc1cn(-c2ccc(S(=O)(=O)Nc3nccs3)cc2)nn1
REMARK SMILES IDX 43 1 42 2 9 3 8 4 41 5 6 6 5 7 10 8 11 9 12 10 14 11 13 12
REMARK SMILES IDX 32 13 34 14 36 15 15 16 16 17 29 18 28 19 21 20 17 21 19 22
REMARK SMILES IDX 30 23 31 24 22 26 23 27 24 28 25 29 26 30 27 31 18 32 20 34
REMARK SMILES IDX 33 36 35 38 37 40 38 42 39 43 40 44 7 46 4 48 2 49 1 51 3 52
REMARK SMILES IDX 44 53 45 55 46 56 47 58 48 59 49 60 50 62 51 63 52 64 53 65
REMARK SMILES IDX 54 66 72 67 55 68 71 69 56 70 57 71 70 72 58 73 69 74 59 75
REMARK SMILES IDX 60 76 61 77 62 78 63 79 64 81 65 82 68 83 66 84 67 85
REMARK H PARENT 31 25 18 33 20 35 33 37 35 39 37 41 40 45 7 47 4 50 44 54
REMARK H PARENT 46 57 48 61 63 80
REMARK Flexibility Score: inf
ROOT
ATOM      1  C   UNL     1      22.639  29.040  24.528  1.00  0.00     0.176 C 
ENDROOT
BRANCH   1   2
ATOM      2  C   UNL     1      23.757  28.208  25.060  1.00  0.00     0.178 C 
ATOM      3  C   UNL     1      23.908  26.101  26.061  1.00  0.00     0.272 C 
ATOM      4  C   UNL     1      25.386  26.536  25.967  1.00  0.00     0.113 C 
ATOM      5  O   UNL     1      23.089  27.151  25.753  1.00  0.00    -0.332 OA
ATOM      6  C   UNL     1      25.647  27.863  26.571  1.00  0.00     0.145 C 
ATOM      7  C   UNL     1      24.579  28.871  26.139  1.00  0.00     0.142 C 
BRANCH   3   8
ATOM      8  O   UNL     1      23.623  25.686  27.338  1.00  0.00    -0.338 OA
BRANCH   8   9
ATOM      9  C   UNL     1      22.287  25.608  27.640  1.00  0.00     0.199 C 
BRANCH   9  10
ATOM     10  C   UNL     1      21.916  26.335  28.911  1.00  0.00     0.179 C 
ATOM     11  C   UNL     1      22.573  27.223  30.850  1.00  0.00     0.282 C 
ATOM     12  O   UNL     1      23.013  26.910  29.542  1.00  0.00    -0.341 OA
ATOM     13  C   UNL     1      21.784  28.505  30.735  1.00  0.00     0.202 C 
ATOM     14  C   UNL     1      21.421  28.761  29.269  1.00  0.00     0.179 C 
ATOM     15  C   UNL     1      20.947  27.471  28.627  1.00  0.00     0.177 C 
BRANCH  11  16
ATOM     16  O   UNL     1      23.593  27.362  31.730  1.00  0.00    -0.341 OA
BRANCH  16  17
ATOM     17  C   UNL     1      24.855  27.488  31.179  1.00  0.00     0.184 C 
ATOM     18  C   UNL     1      25.885  26.521  31.600  1.00  0.00     0.178 C 
ATOM     19  O   UNL     1      27.152  27.160  31.494  1.00  0.00    -0.341 OA
ATOM     20  C   UNL     1      27.346  28.052  32.558  1.00  0.00     0.281 C 
ATOM     21  C   UNL     1      25.369  28.914  31.315  1.00  0.00     0.180 C 
ATOM     22  C   UNL     1      26.238  29.089  32.562  1.00  0.00     0.202 C 
BRANCH  18  23
ATOM     23  C   UNL     1      26.039  25.306  30.685  1.00  0.00     0.191 C 
BRANCH  23  24
ATOM     24  O   UNL     1      25.355  25.392  29.511  1.00  0.00    -0.394 OA
ATOM     25  H   UNL     1      25.949  25.187  28.754  1.00  0.00     0.210 HD
ENDBRANCH  23  24
ENDBRANCH  18  23
BRANCH  20  26
ATOM     26  O   UNL     1      28.574  28.651  32.389  1.00  0.00    -0.350 OA
BRANCH  26  27
ATOM     27  C   UNL     1      29.483  27.943  31.647  1.00  0.00     0.169 C 
BRANCH  27  28
ATOM     28  C   UNL     1      30.173  26.844  32.420  1.00  0.00     0.119 C 
BRANCH  28  29
ATOM     29  N   UNL     1      30.704  25.912  31.458  1.00  0.00    -0.092 NA
ATOM     30  N   UNL     1      30.024  25.595  30.485  1.00  0.00     0.001 N 
ATOM     31  N   UNL     1      29.308  24.922  29.741  1.00  0.00    -0.003 NA
ENDBRANCH  28  29
ENDBRANCH  27  28
ENDBRANCH  26  27
ENDBRANCH  20  26
BRANCH  21  32
ATOM     32  O   UNL     1      26.165  29.263  30.225  1.00  0.00    -0.387 OA
ATOM     33  H   UNL     1      27.001  28.743  30.210  1.00  0.00     0.211 HD
ENDBRANCH  21  32
BRANCH  22  34
ATOM     34  O   UNL     1      25.474  29.065  33.721  1.00  0.00    -0.385 OA
ATOM     35  H   UNL     1      25.555  28.162  34.100  1.00  0.00     0.211 HD
ENDBRANCH  22  34
ENDBRANCH  16  17
ENDBRANCH  11  16
BRANCH  13  36
ATOM     36  O   UNL     1      20.522  28.412  31.374  1.00  0.00    -0.385 OA
ATOM     37  H   UNL     1      20.545  27.808  32.131  1.00  0.00     0.211 HD
ENDBRANCH  13  36
BRANCH  14  38
ATOM     38  O   UNL     1      22.485  29.341  28.594  1.00  0.00    -0.387 OA
ATOM     39  H   UNL     1      23.349  28.902  28.812  1.00  0.00     0.211 HD
ENDBRANCH  14  38
BRANCH  15  40
ATOM     40  O   UNL     1      20.808  27.700  27.267  1.00  0.00    -0.387 OA
ATOM     41  H   UNL     1      20.745  28.635  27.015  1.00  0.00     0.211 HD
ENDBRANCH  15  40
ENDBRANCH   9  10
ENDBRANCH   8   9
ENDBRANCH   3   8
BRANCH   3  42
ATOM     42  C   UNL     1      23.764  25.011  25.094  1.00  0.00     0.364 C 
ATOM     43  O   UNL     1      24.686  24.155  24.898  1.00  0.00    -0.246 OA
BRANCH  42  44
ATOM     44  O   UNL     1      22.624  24.832  24.330  1.00  0.00    -0.477 OA
ATOM     45  H   UNL     1      21.964  25.611  24.212  1.00  0.00     0.296 HD
ENDBRANCH  42  44
ENDBRANCH   3  42
BRANCH   6  46
ATOM     46  O   UNL     1      25.755  27.824  27.961  1.00  0.00    -0.391 OA
ATOM     47  H   UNL     1      26.256  27.016  28.229  1.00  0.00     0.211 HD
ENDBRANCH   6  46
BRANCH   7  48
ATOM     48  N   UNL     1      25.184  30.106  25.791  1.00  0.00    -0.348 N 
ATOM     49  C   UNL     1      25.366  31.116  26.779  1.00  0.00     0.217 C 
ATOM     50  H   UNL     1      25.510  30.312  24.828  1.00  0.00     0.163 HD
ATOM     51  C   UNL     1      25.986  32.422  26.502  1.00  0.00     0.114 C 
ATOM     52  O   UNL     1      24.976  30.888  27.974  1.00  0.00    -0.275 OA
ENDBRANCH   7  48
ENDBRANCH   1   2
BRANCH   1  53
ATOM     53  O   UNL     1      22.057  29.756  25.622  1.00  0.00    -0.388 OA
ATOM     54  H   UNL     1      22.511  29.539  26.457  1.00  0.00     0.211 HD
ENDBRANCH   1  53
BRANCH   1  55
ATOM     55  C   UNL     1      21.547  28.316  23.794  1.00  0.00     0.165 C 
BRANCH  55  56
ATOM     56  O   UNL     1      22.256  27.346  23.007  1.00  0.00    -0.388 OA
ATOM     57  H   UNL     1      21.989  27.452  22.057  1.00  0.00     0.211 HD
ENDBRANCH  55  56
BRANCH  55  58
ATOM     58  C   UNL     1      20.895  29.200  22.738  1.00  0.00     0.154 C 
BRANCH  58  59
ATOM     59  N   UNL     1      21.222  28.631  21.457  1.00  0.00    -0.319 N 
ATOM     60  C   UNL     1      20.248  28.249  20.498  1.00  0.00     0.407 C 
ATOM     61  H   UNL     1      22.244  28.474  21.174  1.00  0.00     0.167 HD
ATOM     62  O   UNL     1      19.042  28.410  20.720  1.00  0.00    -0.225 OA
BRANCH  60  63
ATOM     63  O   UNL     1      20.613  27.681  19.283  1.00  0.00    -0.443 OA
BRANCH  63  64
ATOM     64  C   UNL     1      21.917  27.369  18.876  1.00  0.00     0.294 C 
BRANCH  64  65
ATOM     65  C   UNL     1      22.610  26.373  19.709  1.00  0.00     0.121 A 
ATOM     66  C   UNL     1      23.967  26.038  19.641  1.00  0.00     0.144 A 
ATOM     67  N   UNL     1      22.127  25.600  20.680  1.00  0.00    -0.131 NA
ATOM     68  N   UNL     1      24.254  25.085  20.564  1.00  0.00    -0.220 N 
ATOM     69  N   UNL     1      23.113  24.839  21.180  1.00  0.00    -0.062 NA
BRANCH  68  70
ATOM     70  C   UNL     1      25.554  24.507  20.780  1.00  0.00     0.066 A 
ATOM     71  C   UNL     1      26.646  24.864  20.043  1.00  0.00     0.030 A 
ATOM     72  C   UNL     1      25.685  23.546  21.767  1.00  0.00     0.030 A 
ATOM     73  C   UNL     1      27.881  24.264  20.284  1.00  0.00     0.024 A 
ATOM     74  C   UNL     1      26.880  22.926  22.041  1.00  0.00     0.024 A 
ATOM     75  C   UNL     1      27.971  23.313  21.273  1.00  0.00     0.088 A 
BRANCH  75  76
ATOM     76  S   UNL     1      29.502  22.538  21.594  1.00  0.00     0.263 S 
ATOM     77  O   UNL     1      30.400  23.556  22.269  1.00  0.00    -0.201 OA
ATOM     78  O   UNL     1      30.114  22.210  20.261  1.00  0.00    -0.201 OA
BRANCH  76  79
ATOM     79  N   UNL     1      29.266  21.150  22.551  1.00  0.00    -0.255 N 
ATOM     80  H   UNL     1      28.458  20.538  22.338  1.00  0.00     0.182 HD
BRANCH  79  81
ATOM     81  C   UNL     1      30.143  20.865  23.584  1.00  0.00     0.196 A 
ATOM     82  N   UNL     1      30.437  21.272  24.757  1.00  0.00    -0.228 NA
ATOM     83  S   UNL     1      31.384  19.492  23.428  1.00  0.00    -0.105 S 
ATOM     84  C   UNL     1      31.349  20.794  25.519  1.00  0.00     0.125 A 
ATOM     85  C   UNL     1      32.111  19.744  25.083  1.00  0.00     0.089 A 
ENDBRANCH  79  81
ENDBRANCH  76  79
ENDBRANCH  75  76
ENDBRANCH  68  70
ENDBRANCH  64  65
ENDBRANCH  63  64
ENDBRANCH  60  63
ENDBRANCH  58  59
ENDBRANCH  55  58
ENDBRANCH   1  55
TORSDOF 33
