REMARK VINA RESULT:    -5.557      9.197     15.930
REMARK INTER + INTRA:         -24.224
REMARK INTER:                 -18.231
REMARK INTRA:                  -5.993
REMARK UNBOUND:                -9.245
REMARK SMILES CC(=O)N[C@@H]1[C@@H](O)C[C@](OC[C@H]2O[C@@H](O[C@H]3[C@H](O)[C@@H](O)[C@H](OCCN=[N+]=[N-])O[C@@H]3CO)[C@H](O)[C@@H](O)[C@H]2O)(C(=O)O)O[C@H]1C(O)[C@H](O)CNC(=O)OCc1cn([C@@H](C)C(=O)OCc2ccccc2)nn1
REMARK SMILES IDX 43 1 42 2 9 3 8 4 41 5 6 6 5 7 10 8 11 9 12 10 14 11 13 12
REMARK SMILES IDX 32 13 34 14 36 15 15 16 16 17 29 18 28 19 21 20 17 21 19 22
REMARK SMILES IDX 30 23 31 24 22 26 23 27 24 28 25 29 26 30 27 31 18 32 20 34
REMARK SMILES IDX 33 36 35 38 37 40 38 42 39 43 40 44 7 46 4 48 2 49 1 51 3 52
REMARK SMILES IDX 44 53 45 55 46 56 47 58 48 59 49 60 50 62 51 63 52 64 53 65
REMARK SMILES IDX 54 66 69 67 55 68 68 69 56 70 57 71 58 72 59 73 60 74 61 75
REMARK SMILES IDX 62 76 63 77 67 78 64 79 66 80 65 81
REMARK H PARENT 31 25 18 33 20 35 33 37 35 39 37 41 40 45 7 47 4 50 44 54
REMARK H PARENT 46 57 48 61
REMARK Flexibility Score: inf
ROOT
ATOM      1  C   UNL     1      14.969  29.155  14.550  1.00  0.00     0.176 C 
ENDROOT
BRANCH   1   2
ATOM      2  C   UNL     1      13.950  29.992  13.881  1.00  0.00     0.178 C 
ATOM      3  C   UNL     1      12.431  30.427  15.599  1.00  0.00     0.272 C 
ATOM      4  C   UNL     1      11.421  29.623  14.874  1.00  0.00     0.113 C 
ATOM      5  O   UNL     1      13.368  30.967  14.647  1.00  0.00    -0.332 OA
ATOM      6  C   UNL     1      12.012  28.521  14.027  1.00  0.00     0.145 C 
ATOM      7  C   UNL     1      12.997  29.142  13.082  1.00  0.00     0.142 C 
BRANCH   3   8
ATOM      8  O   UNL     1      13.168  29.910  16.548  1.00  0.00    -0.338 OA
BRANCH   8   9
ATOM      9  C   UNL     1      13.601  30.362  17.689  1.00  0.00     0.199 C 
BRANCH   9  10
ATOM     10  C   UNL     1      15.059  30.455  18.042  1.00  0.00     0.179 C 
ATOM     11  C   UNL     1      16.381  30.985  19.882  1.00  0.00     0.282 C 
ATOM     12  O   UNL     1      15.200  31.200  19.176  1.00  0.00    -0.341 OA
ATOM     13  C   UNL     1      17.463  30.418  19.036  1.00  0.00     0.202 C 
ATOM     14  C   UNL     1      17.082  29.062  18.508  1.00  0.00     0.179 C 
ATOM     15  C   UNL     1      15.621  29.031  18.236  1.00  0.00     0.177 C 
BRANCH  11  16
ATOM     16  O   UNL     1      16.051  30.296  21.017  1.00  0.00    -0.341 OA
BRANCH  16  17
ATOM     17  C   UNL     1      15.098  30.871  21.803  1.00  0.00     0.184 C 
ATOM     18  C   UNL     1      15.251  30.374  23.218  1.00  0.00     0.178 C 
ATOM     19  O   UNL     1      14.189  30.834  24.003  1.00  0.00    -0.341 OA
ATOM     20  C   UNL     1      13.139  29.911  23.763  1.00  0.00     0.281 C 
ATOM     21  C   UNL     1      13.683  30.529  21.365  1.00  0.00     0.180 C 
ATOM     22  C   UNL     1      12.928  29.663  22.303  1.00  0.00     0.202 C 
BRANCH  18  23
ATOM     23  C   UNL     1      16.580  30.679  23.842  1.00  0.00     0.191 C 
BRANCH  23  24
ATOM     24  O   UNL     1      17.374  29.541  23.670  1.00  0.00    -0.394 OA
ATOM     25  H   UNL     1      16.888  28.701  23.848  1.00  0.00     0.210 HD
ENDBRANCH  23  24
ENDBRANCH  18  23
BRANCH  20  26
ATOM     26  O   UNL     1      12.041  30.353  24.429  1.00  0.00    -0.350 OA
BRANCH  26  27
ATOM     27  C   UNL     1      11.986  31.647  24.830  1.00  0.00     0.169 C 
BRANCH  27  28
ATOM     28  C   UNL     1      11.202  32.602  24.005  1.00  0.00     0.119 C 
BRANCH  28  29
ATOM     29  N   UNL     1      10.323  32.059  23.033  1.00  0.00    -0.092 NA
ATOM     30  N   UNL     1      10.092  32.621  21.968  1.00  0.00     0.001 N 
ATOM     31  N   UNL     1       9.950  33.049  20.808  1.00  0.00    -0.003 NA
ENDBRANCH  28  29
ENDBRANCH  27  28
ENDBRANCH  26  27
ENDBRANCH  20  26
BRANCH  21  32
ATOM     32  O   UNL     1      12.935  31.683  21.115  1.00  0.00    -0.387 OA
ATOM     33  H   UNL     1      12.978  32.337  21.848  1.00  0.00     0.211 HD
ENDBRANCH  21  32
BRANCH  22  34
ATOM     34  O   UNL     1      13.110  28.323  21.946  1.00  0.00    -0.385 OA
ATOM     35  H   UNL     1      12.807  28.238  21.002  1.00  0.00     0.211 HD
ENDBRANCH  22  34
ENDBRANCH  16  17
ENDBRANCH  11  16
BRANCH  13  36
ATOM     36  O   UNL     1      17.713  31.320  17.974  1.00  0.00    -0.385 OA
ATOM     37  H   UNL     1      18.337  30.820  17.365  1.00  0.00     0.211 HD
ENDBRANCH  13  36
BRANCH  14  38
ATOM     38  O   UNL     1      17.502  28.102  19.405  1.00  0.00    -0.387 OA
ATOM     39  H   UNL     1      16.818  27.909  20.103  1.00  0.00     0.211 HD
ENDBRANCH  14  38
BRANCH  15  40
ATOM     40  O   UNL     1      14.910  28.332  19.202  1.00  0.00    -0.387 OA
ATOM     41  H   UNL     1      14.229  28.947  19.617  1.00  0.00     0.211 HD
ENDBRANCH  15  40
ENDBRANCH   9  10
ENDBRANCH   8   9
ENDBRANCH   3   8
BRANCH   3  42
ATOM     42  C   UNL     1      11.762  31.722  16.016  1.00  0.00     0.364 C 
ATOM     43  O   UNL     1      10.650  31.731  16.561  1.00  0.00    -0.246 OA
BRANCH  42  44
ATOM     44  O   UNL     1      12.387  32.948  15.796  1.00  0.00    -0.477 OA
ATOM     45  H   UNL     1      13.128  33.091  15.117  1.00  0.00     0.296 HD
ENDBRANCH  42  44
ENDBRANCH   3  42
BRANCH   6  46
ATOM     46  O   UNL     1      12.566  27.493  14.783  1.00  0.00    -0.391 OA
ATOM     47  H   UNL     1      13.466  27.326  14.418  1.00  0.00     0.211 HD
ENDBRANCH   6  46
BRANCH   7  48
ATOM     48  N   UNL     1      12.266  29.936  12.103  1.00  0.00    -0.348 N 
ATOM     49  C   UNL     1      11.945  29.337  10.845  1.00  0.00     0.217 C 
ATOM     50  H   UNL     1      11.964  30.917  12.265  1.00  0.00     0.163 HD
ATOM     51  C   UNL     1      11.197  30.152   9.841  1.00  0.00     0.114 C 
ATOM     52  O   UNL     1      12.291  28.150  10.599  1.00  0.00    -0.275 OA
ENDBRANCH   7  48
ENDBRANCH   1   2
BRANCH   1  53
ATOM     53  O   UNL     1      15.321  28.093  13.682  1.00  0.00    -0.388 OA
ATOM     54  H   UNL     1      14.670  27.344  13.771  1.00  0.00     0.211 HD
ENDBRANCH   1  53
BRANCH   1  55
ATOM     55  C   UNL     1      16.302  29.880  14.790  1.00  0.00     0.165 C 
BRANCH  55  56
ATOM     56  O   UNL     1      16.256  31.189  14.424  1.00  0.00    -0.388 OA
ATOM     57  H   UNL     1      16.459  31.780  15.188  1.00  0.00     0.211 HD
ENDBRANCH  55  56
BRANCH  55  58
ATOM     58  C   UNL     1      17.446  29.088  14.243  1.00  0.00     0.154 C 
BRANCH  58  59
ATOM     59  N   UNL     1      18.531  29.042  15.184  1.00  0.00    -0.319 N 
ATOM     60  C   UNL     1      19.906  29.165  14.875  1.00  0.00     0.407 C 
ATOM     61  H   UNL     1      18.333  28.905  16.226  1.00  0.00     0.167 HD
ATOM     62  O   UNL     1      20.289  29.310  13.712  1.00  0.00    -0.225 OA
BRANCH  60  63
ATOM     63  O   UNL     1      20.881  29.125  15.884  1.00  0.00    -0.443 OA
BRANCH  63  64
ATOM     64  C   UNL     1      20.613  29.543  17.199  1.00  0.00     0.294 C 
BRANCH  64  65
ATOM     65  C   UNL     1      21.086  28.478  18.114  1.00  0.00     0.120 A 
ATOM     66  C   UNL     1      22.254  27.753  18.043  1.00  0.00     0.139 A 
ATOM     67  N   UNL     1      20.425  28.033  19.188  1.00  0.00    -0.132 NA
ATOM     68  N   UNL     1      22.278  26.875  19.084  1.00  0.00    -0.238 N 
ATOM     69  N   UNL     1      21.160  27.068  19.759  1.00  0.00    -0.066 NA
BRANCH  68  70
ATOM     70  C   UNL     1      23.370  25.957  19.290  1.00  0.00     0.215 C 
ATOM     71  C   UNL     1      24.374  26.510  20.285  1.00  0.00     0.046 C 
BRANCH  70  72
ATOM     72  C   UNL     1      22.856  24.629  19.782  1.00  0.00     0.331 C 
ATOM     73  O   UNL     1      22.295  23.865  18.978  1.00  0.00    -0.250 OA
BRANCH  72  74
ATOM     74  O   UNL     1      22.996  24.249  21.096  1.00  0.00    -0.459 OA
BRANCH  74  75
ATOM     75  C   UNL     1      22.047  24.475  22.109  1.00  0.00     0.268 C 
BRANCH  75  76
ATOM     76  C   UNL     1      22.629  24.538  23.465  1.00  0.00    -0.011 A 
ATOM     77  C   UNL     1      23.982  24.541  23.685  1.00  0.00     0.007 A 
ATOM     78  C   UNL     1      21.806  24.593  24.563  1.00  0.00     0.007 A 
ATOM     79  C   UNL     1      24.528  24.597  24.947  1.00  0.00     0.000 A 
ATOM     80  C   UNL     1      22.307  24.651  25.843  1.00  0.00     0.000 A 
ATOM     81  C   UNL     1      23.685  24.652  26.027  1.00  0.00     0.000 A 
ENDBRANCH  75  76
ENDBRANCH  74  75
ENDBRANCH  72  74
ENDBRANCH  70  72
ENDBRANCH  68  70
ENDBRANCH  64  65
ENDBRANCH  63  64
ENDBRANCH  60  63
ENDBRANCH  58  59
ENDBRANCH  55  58
ENDBRANCH   1  55
TORSDOF 34
