REMARK VINA RESULT:    -6.776      7.765     11.551
REMARK INTER + INTRA:         -22.821
REMARK INTER:                 -15.232
REMARK INTRA:                  -7.589
REMARK UNBOUND:                -5.152
REMARK SMILES CC(=O)N[C@@H]1[C@@H](O)C[C@](OC[C@H]2O[C@@H](O[C@H]3[C@H](O)[C@@H](O)[C@H](OCCN=[N+]=[N-])O[C@@H]3CO)[C@H](O)[C@@H](O)[C@H]2O)(C(=O)O)O[C@H]1C(O)[C@H](O)CNC(=O)OCc1cn(CC(O)c2ccccc2)nn1
REMARK SMILES IDX 9 1 8 2 6 3 5 4 42 5 41 6 10 7 11 8 12 9 14 10 13 11 32 12
REMARK SMILES IDX 34 13 36 14 15 15 16 16 29 17 28 18 21 19 17 20 19 21 30 22
REMARK SMILES IDX 31 23 22 25 23 26 24 27 25 28 26 29 27 30 18 31 20 33 33 35
REMARK SMILES IDX 35 37 37 39 38 41 39 42 40 43 7 45 43 47 44 48 45 50 46 51
REMARK SMILES IDX 47 53 48 54 49 55 50 57 51 58 52 59 53 60 54 61 66 62 55 63
REMARK SMILES IDX 65 64 56 65 57 66 58 67 59 69 60 70 64 71 61 72 63 73 62 74
REMARK SMILES IDX 4 75 2 76 1 78 3 79
REMARK H PARENT 31 24 18 32 20 34 33 36 35 38 37 40 40 44 7 46 44 49 46 52
REMARK H PARENT 48 56 58 68 4 77
REMARK Flexibility Score: inf
ROOT
ATOM      1  C   UNL     1      17.991  31.362  21.520  1.00  0.00     0.272 C 
ATOM      2  C   UNL     1      18.438  32.415  20.579  1.00  0.00     0.113 C 
ATOM      3  C   UNL     1      17.421  32.951  19.634  1.00  0.00     0.145 C 
ATOM      4  C   UNL     1      16.237  32.037  19.618  1.00  0.00     0.142 C 
ATOM      5  C   UNL     1      16.758  30.612  19.684  1.00  0.00     0.178 C 
ATOM      6  O   UNL     1      17.413  30.289  20.832  1.00  0.00    -0.332 OA
ENDROOT
BRANCH   1   7
ATOM      7  O   UNL     1      17.116  31.719  22.502  1.00  0.00    -0.338 OA
BRANCH   7   8
ATOM      8  C   UNL     1      17.390  32.830  23.237  1.00  0.00     0.199 C 
BRANCH   8   9
ATOM      9  C   UNL     1      16.338  33.064  24.296  1.00  0.00     0.179 C 
ATOM     10  C   UNL     1      14.498  31.977  25.147  1.00  0.00     0.282 C 
ATOM     11  O   UNL     1      15.201  32.328  24.026  1.00  0.00    -0.341 OA
ATOM     12  C   UNL     1      15.229  31.052  26.095  1.00  0.00     0.202 C 
ATOM     13  C   UNL     1      16.701  31.398  26.040  1.00  0.00     0.179 C 
ATOM     14  C   UNL     1      16.798  32.872  25.702  1.00  0.00     0.177 C 
BRANCH  10  15
ATOM     15  O   UNL     1      13.313  31.319  24.833  1.00  0.00    -0.341 OA
BRANCH  15  16
ATOM     16  C   UNL     1      13.128  31.034  23.508  1.00  0.00     0.184 C 
ATOM     17  C   UNL     1      11.962  31.893  23.034  1.00  0.00     0.178 C 
ATOM     18  O   UNL     1      10.791  31.165  22.990  1.00  0.00    -0.341 OA
ATOM     19  C   UNL     1      10.645  30.510  24.226  1.00  0.00     0.281 C 
ATOM     20  C   UNL     1      12.796  29.550  23.420  1.00  0.00     0.180 C 
ATOM     21  C   UNL     1      11.499  29.249  24.152  1.00  0.00     0.202 C 
BRANCH  17  22
ATOM     22  C   UNL     1      12.276  32.540  21.697  1.00  0.00     0.191 C 
BRANCH  22  23
ATOM     23  O   UNL     1      12.472  31.584  20.704  1.00  0.00    -0.394 OA
ATOM     24  H   UNL     1      12.920  30.770  21.054  1.00  0.00     0.210 HD
ENDBRANCH  22  23
ENDBRANCH  17  22
BRANCH  19  25
ATOM     25  O   UNL     1       9.307  30.241  24.378  1.00  0.00    -0.350 OA
BRANCH  25  26
ATOM     26  C   UNL     1       8.452  31.208  23.905  1.00  0.00     0.169 C 
BRANCH  26  27
ATOM     27  C   UNL     1       7.457  31.704  24.916  1.00  0.00     0.119 C 
BRANCH  27  28
ATOM     28  N   UNL     1       7.723  33.114  25.226  1.00  0.00    -0.092 NA
ATOM     29  N   UNL     1       8.920  33.386  25.403  1.00  0.00     0.001 N 
ATOM     30  N   UNL     1      10.030  33.917  25.457  1.00  0.00    -0.003 NA
ENDBRANCH  27  28
ENDBRANCH  26  27
ENDBRANCH  25  26
ENDBRANCH  19  25
BRANCH  20  31
ATOM     31  O   UNL     1      12.706  29.157  22.092  1.00  0.00    -0.387 OA
ATOM     32  H   UNL     1      13.599  29.244  21.654  1.00  0.00     0.211 HD
ENDBRANCH  20  31
BRANCH  21  33
ATOM     33  O   UNL     1      11.747  28.701  25.397  1.00  0.00    -0.385 OA
ATOM     34  H   UNL     1      11.060  28.009  25.566  1.00  0.00     0.211 HD
ENDBRANCH  21  33
ENDBRANCH  15  16
ENDBRANCH  10  15
BRANCH  12  35
ATOM     35  O   UNL     1      14.752  31.276  27.391  1.00  0.00    -0.385 OA
ATOM     36  H   UNL     1      15.407  30.867  28.019  1.00  0.00     0.211 HD
ENDBRANCH  12  35
BRANCH  13  37
ATOM     37  O   UNL     1      17.247  30.615  25.027  1.00  0.00    -0.387 OA
ATOM     38  H   UNL     1      18.215  30.527  25.068  1.00  0.00     0.211 HD
ENDBRANCH  13  37
BRANCH  14  39
ATOM     39  O   UNL     1      18.025  33.430  25.974  1.00  0.00    -0.387 OA
ATOM     40  H   UNL     1      17.991  34.405  26.156  1.00  0.00     0.211 HD
ENDBRANCH  14  39
ENDBRANCH   8   9
ENDBRANCH   7   8
ENDBRANCH   1   7
BRANCH   1  41
ATOM     41  C   UNL     1      19.265  30.769  22.102  1.00  0.00     0.364 C 
ATOM     42  O   UNL     1      20.326  31.355  21.966  1.00  0.00    -0.246 OA
BRANCH  41  43
ATOM     43  O   UNL     1      19.125  29.565  22.768  1.00  0.00    -0.477 OA
ATOM     44  H   UNL     1      18.794  28.791  22.232  1.00  0.00     0.296 HD
ENDBRANCH  41  43
ENDBRANCH   1  41
BRANCH   3  45
ATOM     45  O   UNL     1      17.095  34.279  19.914  1.00  0.00    -0.391 OA
ATOM     46  H   UNL     1      17.934  34.699  20.253  1.00  0.00     0.211 HD
ENDBRANCH   3  45
BRANCH   5  47
ATOM     47  C   UNL     1      15.584  29.727  19.353  1.00  0.00     0.176 C 
BRANCH  47  48
ATOM     48  O   UNL     1      14.696  29.739  20.440  1.00  0.00    -0.388 OA
ATOM     49  H   UNL     1      14.736  28.829  20.847  1.00  0.00     0.211 HD
ENDBRANCH  47  48
BRANCH  47  50
ATOM     50  C   UNL     1      15.998  28.343  18.976  1.00  0.00     0.165 C 
BRANCH  50  51
ATOM     51  O   UNL     1      16.515  27.638  20.029  1.00  0.00    -0.388 OA
ATOM     52  H   UNL     1      16.496  28.095  20.884  1.00  0.00     0.211 HD
ENDBRANCH  50  51
BRANCH  50  53
ATOM     53  C   UNL     1      16.770  28.248  17.686  1.00  0.00     0.154 C 
BRANCH  53  54
ATOM     54  N   UNL     1      18.170  27.971  17.818  1.00  0.00    -0.319 N 
ATOM     55  C   UNL     1      19.164  28.343  16.866  1.00  0.00     0.407 C 
ATOM     56  H   UNL     1      18.519  27.456  18.688  1.00  0.00     0.167 HD
ATOM     57  O   UNL     1      18.854  28.961  15.833  1.00  0.00    -0.225 OA
BRANCH  55  58
ATOM     58  O   UNL     1      20.491  28.030  17.062  1.00  0.00    -0.443 OA
BRANCH  58  59
ATOM     59  C   UNL     1      21.299  28.639  18.068  1.00  0.00     0.294 C 
BRANCH  59  60
ATOM     60  C   UNL     1      21.208  27.838  19.331  1.00  0.00     0.120 A 
ATOM     61  C   UNL     1      22.037  26.858  19.811  1.00  0.00     0.138 A 
ATOM     62  N   UNL     1      20.228  27.996  20.247  1.00  0.00    -0.132 NA
ATOM     63  N   UNL     1      21.553  26.430  21.016  1.00  0.00    -0.249 N 
ATOM     64  N   UNL     1      20.473  27.150  21.217  1.00  0.00    -0.067 NA
BRANCH  63  65
ATOM     65  C   UNL     1      22.147  25.401  21.854  1.00  0.00     0.182 C 
BRANCH  65  66
ATOM     66  C   UNL     1      21.559  25.467  23.252  1.00  0.00     0.166 C 
BRANCH  66  67
ATOM     67  O   UNL     1      20.468  24.566  23.225  1.00  0.00    -0.386 OA
ATOM     68  H   UNL     1      20.068  24.552  22.312  1.00  0.00     0.211 HD
ENDBRANCH  66  67
BRANCH  66  69
ATOM     69  C   UNL     1      22.496  25.097  24.317  1.00  0.00    -0.018 A 
ATOM     70  C   UNL     1      23.828  24.915  24.106  1.00  0.00     0.006 A 
ATOM     71  C   UNL     1      21.927  24.921  25.587  1.00  0.00     0.006 A 
ATOM     72  C   UNL     1      24.623  24.549  25.181  1.00  0.00     0.000 A 
ATOM     73  C   UNL     1      22.733  24.558  26.632  1.00  0.00     0.000 A 
ATOM     74  C   UNL     1      24.087  24.370  26.435  1.00  0.00     0.000 A 
ENDBRANCH  66  69
ENDBRANCH  65  66
ENDBRANCH  63  65
ENDBRANCH  59  60
ENDBRANCH  58  59
ENDBRANCH  55  58
ENDBRANCH  53  54
ENDBRANCH  50  53
ENDBRANCH  47  50
ENDBRANCH   5  47
BRANCH   4  75
ATOM     75  N   UNL     1      15.546  32.124  18.322  1.00  0.00    -0.348 N 
ATOM     76  C   UNL     1      14.448  32.993  18.104  1.00  0.00     0.217 C 
ATOM     77  H   UNL     1      15.859  31.534  17.522  1.00  0.00     0.163 HD
ATOM     78  C   UNL     1      13.726  33.109  16.811  1.00  0.00     0.114 C 
ATOM     79  O   UNL     1      14.064  33.711  19.069  1.00  0.00    -0.275 OA
ENDBRANCH   4  75
TORSDOF 33
