REMARK VINA RESULT:    -6.320     10.481     15.350
REMARK INTER + INTRA:         -21.278
REMARK INTER:                 -14.494
REMARK INTRA:                  -6.783
REMARK UNBOUND:                -5.351
REMARK SMILES CC(=O)N[C@@H]1[C@@H](O)C[C@](OC[C@H]2O[C@@H](O[C@H]3[C@H](O)[C@@H](O)[C@H](OCCN=[N+]=[N-])O[C@@H]3CO)[C@H](O)[C@@H](O)[C@H]2O)(C(=O)O)O[C@H]1C(O)[C@H](O)CNC(=O)OCc1cn(-c2ccc([N+](=O)[O-])cc2)nn1
REMARK SMILES IDX 9 1 8 2 6 3 5 4 42 5 41 6 10 7 11 8 12 9 14 10 13 11 32 12
REMARK SMILES IDX 34 13 36 14 15 15 16 16 29 17 28 18 21 19 17 20 19 21 30 22
REMARK SMILES IDX 31 23 22 25 23 26 24 27 25 28 26 29 27 30 18 31 20 33 33 35
REMARK SMILES IDX 35 37 37 39 38 41 39 42 40 43 7 45 43 47 44 48 45 50 46 51
REMARK SMILES IDX 47 53 48 54 49 55 50 57 51 58 52 59 53 60 54 61 66 62 55 63
REMARK SMILES IDX 65 64 56 65 57 66 64 67 58 68 63 69 59 70 60 71 61 72 62 73
REMARK SMILES IDX 4 74 2 75 1 77 3 78
REMARK H PARENT 31 24 18 32 20 34 33 36 35 38 37 40 40 44 7 46 44 49 46 52
REMARK H PARENT 48 56 4 76
REMARK Flexibility Score: inf
ROOT
ATOM      1  C   UNL     1      24.863  26.295  22.613  1.00  0.00     0.272 C 
ATOM      2  C   UNL     1      25.844  26.770  23.634  1.00  0.00     0.113 C 
ATOM      3  C   UNL     1      25.317  27.946  24.338  1.00  0.00     0.145 C 
ATOM      4  C   UNL     1      24.087  28.615  23.698  1.00  0.00     0.142 C 
ATOM      5  C   UNL     1      24.202  28.530  22.248  1.00  0.00     0.178 C 
ATOM      6  O   UNL     1      24.644  27.324  21.713  1.00  0.00    -0.332 OA
ENDROOT
BRANCH   1   7
ATOM      7  O   UNL     1      23.725  25.733  23.102  1.00  0.00    -0.338 OA
BRANCH   7   8
ATOM      8  C   UNL     1      23.869  24.777  24.054  1.00  0.00     0.199 C 
BRANCH   8   9
ATOM      9  C   UNL     1      22.533  24.393  24.678  1.00  0.00     0.179 C 
ATOM     10  C   UNL     1      21.900  26.072  26.177  1.00  0.00     0.282 C 
ATOM     11  O   UNL     1      22.395  24.823  25.970  1.00  0.00    -0.341 OA
ATOM     12  C   UNL     1      21.485  26.873  25.010  1.00  0.00     0.202 C 
ATOM     13  C   UNL     1      20.801  26.023  23.972  1.00  0.00     0.179 C 
ATOM     14  C   UNL     1      21.347  24.649  23.819  1.00  0.00     0.177 C 
BRANCH  10  15
ATOM     15  O   UNL     1      22.771  26.729  27.040  1.00  0.00    -0.341 OA
BRANCH  15  16
ATOM     16  C   UNL     1      22.830  26.288  28.319  1.00  0.00     0.184 C 
ATOM     17  C   UNL     1      22.484  27.334  29.355  1.00  0.00     0.178 C 
ATOM     18  O   UNL     1      22.644  26.759  30.632  1.00  0.00    -0.341 OA
ATOM     19  C   UNL     1      24.007  26.621  30.899  1.00  0.00     0.281 C 
ATOM     20  C   UNL     1      24.311  25.963  28.594  1.00  0.00     0.180 C 
ATOM     21  C   UNL     1      24.454  25.450  30.014  1.00  0.00     0.202 C 
BRANCH  17  22
ATOM     22  C   UNL     1      21.059  27.819  29.295  1.00  0.00     0.191 C 
BRANCH  22  23
ATOM     23  O   UNL     1      21.020  28.716  28.199  1.00  0.00    -0.394 OA
ATOM     24  H   UNL     1      20.993  29.656  28.521  1.00  0.00     0.210 HD
ENDBRANCH  22  23
ENDBRANCH  17  22
BRANCH  19  25
ATOM     25  O   UNL     1      24.206  26.273  32.209  1.00  0.00    -0.350 OA
BRANCH  25  26
ATOM     26  C   UNL     1      25.008  27.111  32.940  1.00  0.00     0.169 C 
BRANCH  26  27
ATOM     27  C   UNL     1      25.548  26.525  34.214  1.00  0.00     0.119 C 
BRANCH  27  28
ATOM     28  N   UNL     1      26.998  26.373  34.072  1.00  0.00    -0.092 NA
ATOM     29  N   UNL     1      27.443  25.618  33.220  1.00  0.00     0.001 N 
ATOM     30  N   UNL     1      27.854  25.050  32.221  1.00  0.00    -0.003 NA
ENDBRANCH  27  28
ENDBRANCH  26  27
ENDBRANCH  25  26
ENDBRANCH  19  25
BRANCH  20  31
ATOM     31  O   UNL     1      24.836  25.117  27.658  1.00  0.00    -0.387 OA
ATOM     32  H   UNL     1      24.442  25.175  26.765  1.00  0.00     0.211 HD
ENDBRANCH  20  31
BRANCH  21  33
ATOM     33  O   UNL     1      25.752  25.085  30.250  1.00  0.00    -0.385 OA
ATOM     34  H   UNL     1      26.319  25.416  29.513  1.00  0.00     0.211 HD
ENDBRANCH  21  33
ENDBRANCH  15  16
ENDBRANCH  10  15
BRANCH  12  35
ATOM     35  O   UNL     1      20.499  27.792  25.418  1.00  0.00    -0.385 OA
ATOM     36  H   UNL     1      20.036  27.496  26.224  1.00  0.00     0.211 HD
ENDBRANCH  12  35
BRANCH  13  37
ATOM     37  O   UNL     1      20.801  26.723  22.741  1.00  0.00    -0.387 OA
ATOM     38  H   UNL     1      19.947  26.551  22.310  1.00  0.00     0.211 HD
ENDBRANCH  13  37
BRANCH  14  39
ATOM     39  O   UNL     1      21.619  24.270  22.512  1.00  0.00    -0.387 OA
ATOM     40  H   UNL     1      22.607  24.182  22.433  1.00  0.00     0.211 HD
ENDBRANCH  14  39
ENDBRANCH   8   9
ENDBRANCH   7   8
ENDBRANCH   1   7
BRANCH   1  41
ATOM     41  C   UNL     1      25.564  25.265  21.752  1.00  0.00     0.364 C 
ATOM     42  O   UNL     1      26.760  24.985  21.959  1.00  0.00    -0.246 OA
BRANCH  41  43
ATOM     43  O   UNL     1      24.878  24.648  20.743  1.00  0.00    -0.477 OA
ATOM     44  H   UNL     1      24.467  23.721  20.799  1.00  0.00     0.296 HD
ENDBRANCH  41  43
ENDBRANCH   1  41
BRANCH   3  45
ATOM     45  O   UNL     1      24.943  27.627  25.642  1.00  0.00    -0.391 OA
ATOM     46  H   UNL     1      24.182  27.013  25.650  1.00  0.00     0.211 HD
ENDBRANCH   3  45
BRANCH   5  47
ATOM     47  C   UNL     1      23.133  28.953  21.341  1.00  0.00     0.176 C 
BRANCH  47  48
ATOM     48  O   UNL     1      22.542  27.951  20.566  1.00  0.00    -0.388 OA
ATOM     49  H   UNL     1      22.143  27.222  21.072  1.00  0.00     0.211 HD
ENDBRANCH  47  48
BRANCH  47  50
ATOM     50  C   UNL     1      22.005  29.803  21.830  1.00  0.00     0.165 C 
BRANCH  50  51
ATOM     51  O   UNL     1      21.465  29.474  23.034  1.00  0.00    -0.388 OA
ATOM     52  H   UNL     1      21.510  28.501  23.225  1.00  0.00     0.211 HD
ENDBRANCH  50  51
BRANCH  50  53
ATOM     53  C   UNL     1      21.054  30.213  20.738  1.00  0.00     0.154 C 
BRANCH  53  54
ATOM     54  N   UNL     1      19.736  29.644  20.833  1.00  0.00    -0.319 N 
ATOM     55  C   UNL     1      19.283  28.538  20.074  1.00  0.00     0.407 C 
ATOM     56  H   UNL     1      19.029  30.049  21.504  1.00  0.00     0.167 HD
ATOM     57  O   UNL     1      20.039  28.004  19.257  1.00  0.00    -0.225 OA
BRANCH  55  58
ATOM     58  O   UNL     1      17.992  28.026  20.219  1.00  0.00    -0.443 OA
BRANCH  58  59
ATOM     59  C   UNL     1      16.918  28.343  19.374  1.00  0.00     0.294 C 
BRANCH  59  60
ATOM     60  C   UNL     1      15.733  28.735  20.165  1.00  0.00     0.121 A 
ATOM     61  C   UNL     1      15.651  29.670  21.196  1.00  0.00     0.144 A 
ATOM     62  N   UNL     1      14.455  28.270  20.037  1.00  0.00    -0.131 NA
ATOM     63  N   UNL     1      14.382  29.740  21.640  1.00  0.00    -0.220 N 
ATOM     64  N   UNL     1      13.690  28.884  20.921  1.00  0.00    -0.062 NA
BRANCH  63  65
ATOM     65  C   UNL     1      13.873  30.584  22.678  1.00  0.00     0.067 A 
ATOM     66  C   UNL     1      14.620  31.544  23.317  1.00  0.00     0.035 A 
ATOM     67  C   UNL     1      12.554  30.436  23.085  1.00  0.00     0.035 A 
ATOM     68  C   UNL     1      14.077  32.333  24.330  1.00  0.00     0.088 A 
ATOM     69  C   UNL     1      12.014  31.215  24.087  1.00  0.00     0.088 A 
ATOM     70  C   UNL     1      12.762  32.178  24.730  1.00  0.00     0.269 A 
BRANCH  70  71
ATOM     71  N   UNL     1      12.219  32.987  25.767  1.00  0.00     0.062 N 
ATOM     72  O   UNL     1      12.794  33.220  26.842  1.00  0.00    -0.258 OA
ATOM     73  O   UNL     1      10.981  33.542  25.563  1.00  0.00    -0.258 OA
ENDBRANCH  70  71
ENDBRANCH  63  65
ENDBRANCH  59  60
ENDBRANCH  58  59
ENDBRANCH  55  58
ENDBRANCH  53  54
ENDBRANCH  50  53
ENDBRANCH  47  50
ENDBRANCH   5  47
BRANCH   4  74
ATOM     74  N   UNL     1      24.286  30.009  24.129  1.00  0.00    -0.348 N 
ATOM     75  C   UNL     1      23.589  30.573  25.211  1.00  0.00     0.217 C 
ATOM     76  H   UNL     1      24.977  30.574  23.606  1.00  0.00     0.163 HD
ATOM     77  C   UNL     1      23.863  31.999  25.564  1.00  0.00     0.114 C 
ATOM     78  O   UNL     1      22.762  29.936  25.880  1.00  0.00    -0.275 OA
ENDBRANCH   4  74
TORSDOF 31
