REMARK VINA RESULT:    -5.584      3.054      8.847
REMARK INTER + INTRA:         -22.220
REMARK INTER:                 -14.203
REMARK INTRA:                  -8.017
REMARK UNBOUND:                -8.149
REMARK SMILES CC(=O)N[C@@H]1[C@@H](O)C[C@](OC[C@H]2O[C@@H](O[C@H]3[C@H](O)[C@@H](O)[C@H](OCCN=[N+]=[N-])O[C@@H]3CO)[C@H](O)[C@@H](O)[C@H]2O)(C(=O)O)O[C@H]1C(O)[C@H](O)CNC(=O)OCc1cn(Cc2ccc3c(c2)OCO3)nn1
REMARK SMILES IDX 9 1 8 2 6 3 5 4 42 5 41 6 10 7 11 8 12 9 14 10 13 11 32 12
REMARK SMILES IDX 34 13 36 14 15 15 16 16 29 17 28 18 21 19 17 20 19 21 30 22
REMARK SMILES IDX 31 23 22 25 23 26 24 27 25 28 26 29 27 30 18 31 20 33 33 35
REMARK SMILES IDX 35 37 37 39 38 41 39 42 40 43 7 45 43 47 44 48 45 50 46 51
REMARK SMILES IDX 47 53 48 54 49 55 50 57 51 58 52 59 53 60 54 61 67 62 55 63
REMARK SMILES IDX 66 64 56 65 57 66 58 67 62 68 59 69 61 70 60 71 63 72 65 73
REMARK SMILES IDX 64 74 4 75 2 76 1 78 3 79
REMARK H PARENT 31 24 18 32 20 34 33 36 35 38 37 40 40 44 7 46 44 49 46 52
REMARK H PARENT 48 56 4 77
REMARK Flexibility Score: inf
ROOT
ATOM      1  C   UNL     1      21.512  28.277  22.490  1.00  0.00     0.272 C 
ATOM      2  C   UNL     1      22.377  29.246  21.709  1.00  0.00     0.113 C 
ATOM      3  C   UNL     1      21.898  30.646  21.950  1.00  0.00     0.145 C 
ATOM      4  C   UNL     1      20.451  30.709  21.391  1.00  0.00     0.142 C 
ATOM      5  C   UNL     1      19.680  29.618  22.043  1.00  0.00     0.178 C 
ATOM      6  O   UNL     1      20.395  28.896  22.995  1.00  0.00    -0.332 OA
ENDROOT
BRANCH   1   7
ATOM      7  O   UNL     1      22.261  27.656  23.503  1.00  0.00    -0.338 OA
BRANCH   7   8
ATOM      8  C   UNL     1      23.562  27.399  23.233  1.00  0.00     0.199 C 
BRANCH   8   9
ATOM      9  C   UNL     1      24.138  26.542  24.372  1.00  0.00     0.179 C 
ATOM     10  C   UNL     1      24.032  26.211  26.646  1.00  0.00     0.282 C 
ATOM     11  O   UNL     1      23.739  27.057  25.576  1.00  0.00    -0.341 OA
ATOM     12  C   UNL     1      23.178  24.948  26.505  1.00  0.00     0.202 C 
ATOM     13  C   UNL     1      22.855  24.593  25.099  1.00  0.00     0.179 C 
ATOM     14  C   UNL     1      23.900  25.091  24.159  1.00  0.00     0.177 C 
BRANCH  10  15
ATOM     15  O   UNL     1      23.671  26.802  27.791  1.00  0.00    -0.341 OA
BRANCH  15  16
ATOM     16  C   UNL     1      22.397  27.241  27.992  1.00  0.00     0.184 C 
ATOM     17  C   UNL     1      22.176  28.687  27.643  1.00  0.00     0.178 C 
ATOM     18  O   UNL     1      21.875  29.457  28.716  1.00  0.00    -0.341 OA
ATOM     19  C   UNL     1      20.698  29.114  29.412  1.00  0.00     0.281 C 
ATOM     20  C   UNL     1      22.008  26.982  29.424  1.00  0.00     0.180 C 
ATOM     21  C   UNL     1      20.656  27.624  29.665  1.00  0.00     0.202 C 
BRANCH  17  22
ATOM     22  C   UNL     1      21.078  28.781  26.613  1.00  0.00     0.191 C 
BRANCH  22  23
ATOM     23  O   UNL     1      20.782  27.495  26.088  1.00  0.00    -0.394 OA
ATOM     24  H   UNL     1      20.399  26.894  26.768  1.00  0.00     0.210 HD
ENDBRANCH  22  23
ENDBRANCH  17  22
BRANCH  19  25
ATOM     25  O   UNL     1      19.592  29.622  28.808  1.00  0.00    -0.350 OA
BRANCH  25  26
ATOM     26  C   UNL     1      19.080  30.818  29.087  1.00  0.00     0.169 C 
BRANCH  26  27
ATOM     27  C   UNL     1      17.661  30.851  29.559  1.00  0.00     0.119 C 
BRANCH  27  28
ATOM     28  N   UNL     1      16.680  31.162  28.581  1.00  0.00    -0.092 NA
ATOM     29  N   UNL     1      16.869  31.117  27.369  1.00  0.00     0.001 N 
ATOM     30  N   UNL     1      17.332  31.409  26.253  1.00  0.00    -0.003 NA
ENDBRANCH  27  28
ENDBRANCH  26  27
ENDBRANCH  25  26
ENDBRANCH  19  25
BRANCH  20  31
ATOM     31  O   UNL     1      21.885  25.605  29.594  1.00  0.00    -0.387 OA
ATOM     32  H   UNL     1      21.173  25.380  30.247  1.00  0.00     0.211 HD
ENDBRANCH  20  31
BRANCH  21  33
ATOM     33  O   UNL     1      20.338  27.364  30.996  1.00  0.00    -0.385 OA
ATOM     34  H   UNL     1      20.284  26.383  31.149  1.00  0.00     0.211 HD
ENDBRANCH  21  33
ENDBRANCH  15  16
ENDBRANCH  10  15
BRANCH  12  35
ATOM     35  O   UNL     1      23.787  23.880  27.162  1.00  0.00    -0.385 OA
ATOM     36  H   UNL     1      24.715  24.082  27.361  1.00  0.00     0.211 HD
ENDBRANCH  12  35
BRANCH  13  37
ATOM     37  O   UNL     1      21.580  24.970  24.708  1.00  0.00    -0.387 OA
ATOM     38  H   UNL     1      21.071  25.249  25.512  1.00  0.00     0.211 HD
ENDBRANCH  13  37
BRANCH  14  39
ATOM     39  O   UNL     1      23.458  24.830  22.853  1.00  0.00    -0.387 OA
ATOM     40  H   UNL     1      23.331  25.684  22.397  1.00  0.00     0.211 HD
ENDBRANCH  14  39
ENDBRANCH   8   9
ENDBRANCH   7   8
ENDBRANCH   1   7
BRANCH   1  41
ATOM     41  C   UNL     1      21.106  27.172  21.603  1.00  0.00     0.364 C 
ATOM     42  O   UNL     1      20.680  26.087  22.020  1.00  0.00    -0.246 OA
BRANCH  41  43
ATOM     43  O   UNL     1      21.184  27.297  20.212  1.00  0.00    -0.477 OA
ATOM     44  H   UNL     1      21.814  27.999  19.789  1.00  0.00     0.296 HD
ENDBRANCH  41  43
ENDBRANCH   1  41
BRANCH   3  45
ATOM     45  O   UNL     1      21.808  31.049  23.250  1.00  0.00    -0.391 OA
ATOM     46  H   UNL     1      22.207  30.418  23.900  1.00  0.00     0.211 HD
ENDBRANCH   3  45
BRANCH   5  47
ATOM     47  C   UNL     1      18.509  30.210  22.865  1.00  0.00     0.176 C 
BRANCH  47  48
ATOM     48  O   UNL     1      18.375  29.628  24.089  1.00  0.00    -0.388 OA
ATOM     49  H   UNL     1      18.134  30.306  24.762  1.00  0.00     0.211 HD
ENDBRANCH  47  48
BRANCH  47  50
ATOM     50  C   UNL     1      18.413  31.672  22.871  1.00  0.00     0.165 C 
BRANCH  50  51
ATOM     51  O   UNL     1      19.109  32.315  23.904  1.00  0.00    -0.388 OA
ATOM     52  H   UNL     1      18.993  33.299  23.844  1.00  0.00     0.211 HD
ENDBRANCH  50  51
BRANCH  50  53
ATOM     53  C   UNL     1      17.030  32.262  22.830  1.00  0.00     0.154 C 
BRANCH  53  54
ATOM     54  N   UNL     1      16.075  31.146  22.947  1.00  0.00    -0.319 N 
ATOM     55  C   UNL     1      14.842  31.284  23.647  1.00  0.00     0.407 C 
ATOM     56  H   UNL     1      16.323  30.254  22.506  1.00  0.00     0.167 HD
ATOM     57  O   UNL     1      14.598  32.406  24.164  1.00  0.00    -0.225 OA
BRANCH  55  58
ATOM     58  O   UNL     1      13.932  30.262  23.773  1.00  0.00    -0.443 OA
BRANCH  58  59
ATOM     59  C   UNL     1      12.871  30.117  22.859  1.00  0.00     0.294 C 
BRANCH  59  60
ATOM     60  C   UNL     1      13.425  29.656  21.564  1.00  0.00     0.120 A 
ATOM     61  C   UNL     1      13.507  30.357  20.366  1.00  0.00     0.138 A 
ATOM     62  N   UNL     1      13.955  28.448  21.286  1.00  0.00    -0.132 NA
ATOM     63  N   UNL     1      14.071  29.566  19.433  1.00  0.00    -0.248 N 
ATOM     64  N   UNL     1      14.330  28.423  20.014  1.00  0.00    -0.067 NA
BRANCH  63  65
ATOM     65  C   UNL     1      14.331  29.934  18.073  1.00  0.00     0.181 C 
BRANCH  65  66
ATOM     66  C   UNL     1      15.633  29.456  17.552  1.00  0.00    -0.023 A 
ATOM     67  C   UNL     1      15.848  29.389  16.210  1.00  0.00     0.010 A 
ATOM     68  C   UNL     1      16.645  29.068  18.437  1.00  0.00     0.056 A 
ATOM     69  C   UNL     1      17.060  28.941  15.749  1.00  0.00     0.051 A 
ATOM     70  C   UNL     1      17.856  28.618  17.990  1.00  0.00     0.166 A 
ATOM     71  C   UNL     1      18.044  28.562  16.621  1.00  0.00     0.165 A 
ATOM     72  O   UNL     1      19.031  28.173  18.565  1.00  0.00    -0.454 OA
ATOM     73  O   UNL     1      19.334  28.082  16.359  1.00  0.00    -0.454 OA
ATOM     74  C   UNL     1      20.051  28.198  17.569  1.00  0.00     0.468 C 
ENDBRANCH  65  66
ENDBRANCH  63  65
ENDBRANCH  59  60
ENDBRANCH  58  59
ENDBRANCH  55  58
ENDBRANCH  53  54
ENDBRANCH  50  53
ENDBRANCH  47  50
ENDBRANCH   5  47
BRANCH   4  75
ATOM     75  N   UNL     1      20.614  30.599  19.970  1.00  0.00    -0.348 N 
ATOM     76  C   UNL     1      20.117  31.663  19.145  1.00  0.00     0.217 C 
ATOM     77  H   UNL     1      21.062  29.824  19.447  1.00  0.00     0.163 HD
ATOM     78  C   UNL     1      20.271  31.572  17.653  1.00  0.00     0.114 C 
ATOM     79  O   UNL     1      19.560  32.659  19.665  1.00  0.00    -0.275 OA
ENDBRANCH   4  75
TORSDOF 31
