REMARK VINA RESULT:    -5.659     22.785     27.282
REMARK INTER + INTRA:         -21.348
REMARK INTER:                 -13.933
REMARK INTRA:                  -7.415
REMARK UNBOUND:                -7.419
REMARK SMILES CC(=O)N[C@@H]1[C@@H](O)C[C@](OC[C@H]2O[C@@H](O[C@H]3[C@H](O)[C@@H](O)[C@H](OCCN=[N+]=[N-])O[C@@H]3CO)[C@H](O)[C@@H](O)[C@H]2O)(C(=O)O)O[C@H]1C(O)[C@H](O)CNC(=O)OCc1cn(-c2ccc(C)cc2)nn1
REMARK SMILES IDX 9 1 8 2 6 3 5 4 42 5 41 6 10 7 11 8 12 9 14 10 13 11 32 12
REMARK SMILES IDX 34 13 36 14 15 15 16 16 29 17 28 18 21 19 17 20 19 21 30 22
REMARK SMILES IDX 31 23 22 25 23 26 24 27 25 28 26 29 27 30 18 31 20 33 33 35
REMARK SMILES IDX 35 37 37 39 38 41 39 42 40 43 7 45 43 47 44 48 45 50 46 51
REMARK SMILES IDX 47 53 48 54 49 55 50 57 51 58 52 59 53 60 54 61 64 62 55 63
REMARK SMILES IDX 63 64 56 65 57 66 62 67 58 68 61 69 59 70 60 71 4 72 2 73
REMARK SMILES IDX 1 75 3 76
REMARK H PARENT 31 24 18 32 20 34 33 36 35 38 37 40 40 44 7 46 44 49 46 52
REMARK H PARENT 48 56 4 74
REMARK Flexibility Score: inf
ROOT
ATOM      1  C   UNL     1       5.378  23.314  33.207  1.00  0.00     0.272 C 
ATOM      2  C   UNL     1       5.085  23.573  34.680  1.00  0.00     0.113 C 
ATOM      3  C   UNL     1       5.705  24.831  35.155  1.00  0.00     0.145 C 
ATOM      4  C   UNL     1       5.809  25.918  34.145  1.00  0.00     0.142 C 
ATOM      5  C   UNL     1       5.125  25.656  32.807  1.00  0.00     0.178 C 
ATOM      6  O   UNL     1       5.247  24.362  32.428  1.00  0.00    -0.332 OA
ENDROOT
BRANCH   1   7
ATOM      7  O   UNL     1       4.374  22.369  32.827  1.00  0.00    -0.338 OA
BRANCH   7   8
ATOM      8  C   UNL     1       3.485  22.227  33.894  1.00  0.00     0.199 C 
BRANCH   8   9
ATOM      9  C   UNL     1       2.394  21.268  33.601  1.00  0.00     0.179 C 
ATOM     10  C   UNL     1       0.648  20.801  32.193  1.00  0.00     0.282 C 
ATOM     11  O   UNL     1       1.811  21.544  32.363  1.00  0.00    -0.341 OA
ATOM     12  C   UNL     1       0.974  19.366  32.013  1.00  0.00     0.202 C 
ATOM     13  C   UNL     1       2.396  19.093  32.419  1.00  0.00     0.179 C 
ATOM     14  C   UNL     1       2.813  19.825  33.677  1.00  0.00     0.177 C 
BRANCH  10  15
ATOM     15  O   UNL     1      -0.034  21.266  31.071  1.00  0.00    -0.341 OA
BRANCH  15  16
ATOM     16  C   UNL     1       0.672  21.000  29.897  1.00  0.00     0.184 C 
ATOM     17  C   UNL     1       1.352  22.198  29.297  1.00  0.00     0.178 C 
ATOM     18  O   UNL     1       0.821  22.476  28.033  1.00  0.00    -0.341 OA
ATOM     19  C   UNL     1      -0.507  22.839  28.169  1.00  0.00     0.281 C 
ATOM     20  C   UNL     1      -0.358  20.506  28.904  1.00  0.00     0.180 C 
ATOM     21  C   UNL     1      -1.328  21.680  28.700  1.00  0.00     0.202 C 
BRANCH  17  22
ATOM     22  C   UNL     1       2.833  21.884  29.025  1.00  0.00     0.191 C 
BRANCH  22  23
ATOM     23  O   UNL     1       3.569  21.940  30.206  1.00  0.00    -0.394 OA
ATOM     24  H   UNL     1       3.748  20.990  30.477  1.00  0.00     0.210 HD
ENDBRANCH  22  23
ENDBRANCH  17  22
BRANCH  19  25
ATOM     25  O   UNL     1      -1.057  23.307  26.985  1.00  0.00    -0.350 OA
BRANCH  25  26
ATOM     26  C   UNL     1      -0.125  23.733  26.072  1.00  0.00     0.169 C 
BRANCH  26  27
ATOM     27  C   UNL     1      -0.146  23.015  24.753  1.00  0.00     0.119 C 
BRANCH  27  28
ATOM     28  N   UNL     1      -0.307  21.591  24.916  1.00  0.00    -0.092 NA
ATOM     29  N   UNL     1       0.408  20.819  24.300  1.00  0.00     0.001 N 
ATOM     30  N   UNL     1       1.182  20.030  23.756  1.00  0.00    -0.003 NA
ENDBRANCH  27  28
ENDBRANCH  26  27
ENDBRANCH  25  26
ENDBRANCH  19  25
BRANCH  20  31
ATOM     31  O   UNL     1       0.197  20.137  27.688  1.00  0.00    -0.387 OA
ATOM     32  H   UNL     1       0.529  19.212  27.790  1.00  0.00     0.211 HD
ENDBRANCH  20  31
BRANCH  21  33
ATOM     33  O   UNL     1      -1.739  22.035  30.001  1.00  0.00    -0.385 OA
ATOM     34  H   UNL     1      -1.568  22.983  30.205  1.00  0.00     0.211 HD
ENDBRANCH  21  33
ENDBRANCH  15  16
ENDBRANCH  10  15
BRANCH  12  35
ATOM     35  O   UNL     1       0.089  18.529  32.718  1.00  0.00    -0.385 OA
ATOM     36  H   UNL     1      -0.377  19.150  33.366  1.00  0.00     0.211 HD
ENDBRANCH  12  35
BRANCH  13  37
ATOM     37  O   UNL     1       3.224  19.304  31.344  1.00  0.00    -0.387 OA
ATOM     38  H   UNL     1       2.848  19.934  30.651  1.00  0.00     0.211 HD
ENDBRANCH  13  37
BRANCH  14  39
ATOM     39  O   UNL     1       4.190  19.781  33.786  1.00  0.00    -0.387 OA
ATOM     40  H   UNL     1       4.612  19.002  33.370  1.00  0.00     0.211 HD
ENDBRANCH  14  39
ENDBRANCH   8   9
ENDBRANCH   7   8
ENDBRANCH   1   7
BRANCH   1  41
ATOM     41  C   UNL     1       6.707  22.671  33.185  1.00  0.00     0.364 C 
ATOM     42  O   UNL     1       6.876  21.431  33.173  1.00  0.00    -0.246 OA
BRANCH  41  43
ATOM     43  O   UNL     1       7.836  23.512  33.172  1.00  0.00    -0.477 OA
ATOM     44  H   UNL     1       7.797  24.369  32.619  1.00  0.00     0.296 HD
ENDBRANCH  41  43
ENDBRANCH   1  41
BRANCH   3  45
ATOM     45  O   UNL     1       5.101  25.263  36.358  1.00  0.00    -0.391 OA
ATOM     46  H   UNL     1       5.842  25.726  36.866  1.00  0.00     0.211 HD
ENDBRANCH   3  45
BRANCH   5  47
ATOM     47  C   UNL     1       3.689  26.131  32.894  1.00  0.00     0.176 C 
BRANCH  47  48
ATOM     48  O   UNL     1       3.549  27.422  33.380  1.00  0.00    -0.388 OA
ATOM     49  H   UNL     1       2.583  27.640  33.293  1.00  0.00     0.211 HD
ENDBRANCH  47  48
BRANCH  47  50
ATOM     50  C   UNL     1       2.749  25.815  31.831  1.00  0.00     0.165 C 
BRANCH  50  51
ATOM     51  O   UNL     1       2.551  24.444  31.563  1.00  0.00    -0.388 OA
ATOM     52  H   UNL     1       1.955  24.046  32.251  1.00  0.00     0.211 HD
ENDBRANCH  50  51
BRANCH  50  53
ATOM     53  C   UNL     1       2.774  26.519  30.520  1.00  0.00     0.154 C 
BRANCH  53  54
ATOM     54  N   UNL     1       3.480  25.822  29.477  1.00  0.00    -0.319 N 
ATOM     55  C   UNL     1       2.847  25.511  28.238  1.00  0.00     0.407 C 
ATOM     56  H   UNL     1       4.475  25.531  29.618  1.00  0.00     0.167 HD
ATOM     57  O   UNL     1       1.658  25.871  28.057  1.00  0.00    -0.225 OA
BRANCH  55  58
ATOM     58  O   UNL     1       3.541  24.822  27.267  1.00  0.00    -0.443 OA
BRANCH  58  59
ATOM     59  C   UNL     1       3.655  25.246  25.952  1.00  0.00     0.294 C 
BRANCH  59  60
ATOM     60  C   UNL     1       4.813  26.122  25.765  1.00  0.00     0.121 A 
ATOM     61  C   UNL     1       4.849  27.512  25.985  1.00  0.00     0.144 A 
ATOM     62  N   UNL     1       6.037  25.815  25.359  1.00  0.00    -0.131 NA
ATOM     63  N   UNL     1       6.076  27.947  25.702  1.00  0.00    -0.220 N 
ATOM     64  N   UNL     1       6.782  26.903  25.323  1.00  0.00    -0.062 NA
BRANCH  63  65
ATOM     65  C   UNL     1       6.485  29.323  25.805  1.00  0.00     0.066 A 
ATOM     66  C   UNL     1       6.131  30.065  26.910  1.00  0.00     0.029 A 
ATOM     67  C   UNL     1       7.244  29.937  24.831  1.00  0.00     0.029 A 
ATOM     68  C   UNL     1       6.536  31.398  27.029  1.00  0.00     0.005 A 
ATOM     69  C   UNL     1       7.651  31.271  24.948  1.00  0.00     0.005 A 
ATOM     70  C   UNL     1       7.295  32.007  26.054  1.00  0.00    -0.051 A 
ATOM     71  C   UNL     1       7.739  33.432  26.186  1.00  0.00     0.044 C 
ENDBRANCH  63  65
ENDBRANCH  59  60
ENDBRANCH  58  59
ENDBRANCH  55  58
ENDBRANCH  53  54
ENDBRANCH  50  53
ENDBRANCH  47  50
ENDBRANCH   5  47
BRANCH   4  72
ATOM     72  N   UNL     1       7.164  26.411  33.986  1.00  0.00    -0.348 N 
ATOM     73  C   UNL     1       7.489  27.786  33.782  1.00  0.00     0.217 C 
ATOM     74  H   UNL     1       7.973  25.760  34.008  1.00  0.00     0.163 HD
ATOM     75  C   UNL     1       8.904  28.240  33.614  1.00  0.00     0.114 C 
ATOM     76  O   UNL     1       6.508  28.572  33.757  1.00  0.00    -0.275 OA
ENDBRANCH   4  72
TORSDOF 30
