REMARK VINA RESULT:    -5.572      9.365     12.589
REMARK INTER + INTRA:         -21.230
REMARK INTER:                 -15.805
REMARK INTRA:                  -5.425
REMARK UNBOUND:                -6.864
REMARK SMILES CC(=O)N[C@@H]1[C@@H](O)C[C@](OC[C@H]2O[C@@H](O[C@H]3[C@H](O)[C@@H](O)[C@H](OCCN=[N+]=[N-])O[C@@H]3CO)[C@H](O)[C@@H](O)[C@H]2O)(C(=O)O)O[C@H]1C(O)[C@H](O)CNC(=O)OCc1cn(CCC2OCCO2)nn1
REMARK SMILES IDX 9 1 8 2 6 3 5 4 42 5 41 6 10 7 11 8 12 9 14 10 13 11 32 12
REMARK SMILES IDX 34 13 36 14 15 15 16 16 29 17 28 18 21 19 17 20 19 21 30 22
REMARK SMILES IDX 31 23 22 25 23 26 24 27 25 28 26 29 27 30 18 31 20 33 33 35
REMARK SMILES IDX 35 37 37 39 38 41 39 42 40 43 7 45 43 47 44 48 45 50 46 51
REMARK SMILES IDX 47 53 48 54 49 55 50 57 51 58 52 59 53 60 54 61 64 62 55 63
REMARK SMILES IDX 63 64 56 65 57 66 58 67 59 68 62 69 60 70 61 71 4 72 2 73
REMARK SMILES IDX 1 75 3 76
REMARK H PARENT 31 24 18 32 20 34 33 36 35 38 37 40 40 44 7 46 44 49 46 52
REMARK H PARENT 48 56 4 74
REMARK Flexibility Score: inf
ROOT
ATOM      1  C   UNL     1      21.539  21.941  11.287  1.00  0.00     0.272 C 
ATOM      2  C   UNL     1      20.229  21.422  11.985  1.00  0.00     0.113 C 
ATOM      3  C   UNL     1      19.696  20.234  11.304  1.00  0.00     0.145 C 
ATOM      4  C   UNL     1      20.740  19.135  11.302  1.00  0.00     0.142 C 
ATOM      5  C   UNL     1      22.123  19.666  11.465  1.00  0.00     0.178 C 
ATOM      6  O   UNL     1      22.382  20.901  10.984  1.00  0.00    -0.332 OA
ENDROOT
BRANCH   1   7
ATOM      7  O   UNL     1      22.073  22.724  12.224  1.00  0.00    -0.338 OA
BRANCH   7   8
ATOM      8  C   UNL     1      22.615  23.915  12.106  1.00  0.00     0.199 C 
BRANCH   8   9
ATOM      9  C   UNL     1      24.089  24.133  12.229  1.00  0.00     0.179 C 
ATOM     10  C   UNL     1      25.711  24.696  13.819  1.00  0.00     0.282 C 
ATOM     11  O   UNL     1      24.390  24.741  13.426  1.00  0.00    -0.341 OA
ATOM     12  C   UNL     1      26.683  24.271  12.781  1.00  0.00     0.202 C 
ATOM     13  C   UNL     1      26.259  23.049  12.013  1.00  0.00     0.179 C 
ATOM     14  C   UNL     1      24.819  22.768  12.286  1.00  0.00     0.177 C 
BRANCH  10  15
ATOM     15  O   UNL     1      25.785  24.011  15.032  1.00  0.00    -0.341 OA
BRANCH  15  16
ATOM     16  C   UNL     1      25.221  24.699  16.097  1.00  0.00     0.184 C 
ATOM     17  C   UNL     1      26.170  24.981  17.222  1.00  0.00     0.178 C 
ATOM     18  O   UNL     1      25.488  25.744  18.173  1.00  0.00    -0.341 OA
ATOM     19  C   UNL     1      24.474  25.047  18.813  1.00  0.00     0.281 C 
ATOM     20  C   UNL     1      24.106  23.818  16.730  1.00  0.00     0.180 C 
ATOM     21  C   UNL     1      23.431  24.732  17.745  1.00  0.00     0.202 C 
BRANCH  17  22
ATOM     22  C   UNL     1      27.296  25.867  16.721  1.00  0.00     0.191 C 
BRANCH  22  23
ATOM     23  O   UNL     1      26.656  26.925  16.027  1.00  0.00    -0.394 OA
ATOM     24  H   UNL     1      26.542  26.734  15.073  1.00  0.00     0.210 HD
ENDBRANCH  22  23
ENDBRANCH  17  22
BRANCH  19  25
ATOM     25  O   UNL     1      23.947  25.836  19.796  1.00  0.00    -0.350 OA
BRANCH  25  26
ATOM     26  C   UNL     1      24.230  25.469  21.081  1.00  0.00     0.169 C 
BRANCH  26  27
ATOM     27  C   UNL     1      23.821  24.058  21.445  1.00  0.00     0.119 C 
BRANCH  27  28
ATOM     28  N   UNL     1      22.380  23.914  21.349  1.00  0.00    -0.092 NA
ATOM     29  N   UNL     1      21.594  24.714  21.849  1.00  0.00     0.001 N 
ATOM     30  N   UNL     1      20.748  25.543  22.173  1.00  0.00    -0.003 NA
ENDBRANCH  27  28
ENDBRANCH  26  27
ENDBRANCH  25  26
ENDBRANCH  19  25
BRANCH  20  31
ATOM     31  O   UNL     1      23.219  23.463  15.743  1.00  0.00    -0.387 OA
ATOM     32  H   UNL     1      22.427  23.032  16.167  1.00  0.00     0.211 HD
ENDBRANCH  20  31
BRANCH  21  33
ATOM     33  O   UNL     1      22.349  24.048  18.258  1.00  0.00    -0.385 OA
ATOM     34  H   UNL     1      22.688  23.306  18.820  1.00  0.00     0.211 HD
ENDBRANCH  21  33
ENDBRANCH  15  16
ENDBRANCH  10  15
BRANCH  12  35
ATOM     35  O   UNL     1      26.931  25.356  11.903  1.00  0.00    -0.385 OA
ATOM     36  H   UNL     1      27.390  24.951  11.121  1.00  0.00     0.211 HD
ENDBRANCH  12  35
BRANCH  13  37
ATOM     37  O   UNL     1      27.084  21.956  12.275  1.00  0.00    -0.387 OA
ATOM     38  H   UNL     1      26.650  21.415  12.985  1.00  0.00     0.211 HD
ENDBRANCH  13  37
BRANCH  14  39
ATOM     39  O   UNL     1      24.577  22.188  13.514  1.00  0.00    -0.387 OA
ATOM     40  H   UNL     1      25.151  21.406  13.711  1.00  0.00     0.211 HD
ENDBRANCH  14  39
ENDBRANCH   8   9
ENDBRANCH   7   8
ENDBRANCH   1   7
BRANCH   1  41
ATOM     41  C   UNL     1      21.039  22.496  10.029  1.00  0.00     0.364 C 
ATOM     42  O   UNL     1      21.512  22.042   8.906  1.00  0.00    -0.246 OA
BRANCH  41  43
ATOM     43  O   UNL     1      20.089  23.473   9.841  1.00  0.00    -0.477 OA
ATOM     44  H   UNL     1      19.970  23.891   8.929  1.00  0.00     0.296 HD
ENDBRANCH  41  43
ENDBRANCH   1  41
BRANCH   3  45
ATOM     45  O   UNL     1      18.562  19.815  12.057  1.00  0.00    -0.391 OA
ATOM     46  H   UNL     1      18.854  19.828  13.020  1.00  0.00     0.211 HD
ENDBRANCH   3  45
BRANCH   5  47
ATOM     47  C   UNL     1      22.612  19.413  12.860  1.00  0.00     0.176 C 
BRANCH  47  48
ATOM     48  O   UNL     1      21.738  18.613  13.611  1.00  0.00    -0.388 OA
ATOM     49  H   UNL     1      21.337  17.894  13.041  1.00  0.00     0.211 HD
ENDBRANCH  47  48
BRANCH  47  50
ATOM     50  C   UNL     1      23.910  18.558  12.812  1.00  0.00     0.165 C 
BRANCH  50  51
ATOM     51  O   UNL     1      24.532  18.646  14.035  1.00  0.00    -0.388 OA
ATOM     52  H   UNL     1      25.295  19.252  14.054  1.00  0.00     0.211 HD
ENDBRANCH  50  51
BRANCH  50  53
ATOM     53  C   UNL     1      24.681  18.957  11.621  1.00  0.00     0.154 C 
BRANCH  53  54
ATOM     54  N   UNL     1      26.090  18.956  11.859  1.00  0.00    -0.319 N 
ATOM     55  C   UNL     1      26.917  17.843  11.719  1.00  0.00     0.407 C 
ATOM     56  H   UNL     1      26.517  19.868  12.159  1.00  0.00     0.167 HD
ATOM     57  O   UNL     1      26.463  16.739  11.378  1.00  0.00    -0.225 OA
BRANCH  55  58
ATOM     58  O   UNL     1      28.300  17.880  11.950  1.00  0.00    -0.443 OA
BRANCH  58  59
ATOM     59  C   UNL     1      28.910  19.010  12.546  1.00  0.00     0.294 C 
BRANCH  59  60
ATOM     60  C   UNL     1      28.399  19.284  13.910  1.00  0.00     0.120 A 
ATOM     61  C   UNL     1      29.025  18.884  15.095  1.00  0.00     0.138 A 
ATOM     62  N   UNL     1      27.294  19.931  14.310  1.00  0.00    -0.132 NA
ATOM     63  N   UNL     1      28.281  19.302  16.154  1.00  0.00    -0.252 N 
ATOM     64  N   UNL     1      27.244  19.929  15.649  1.00  0.00    -0.067 NA
BRANCH  63  65
ATOM     65  C   UNL     1      28.667  19.048  17.534  1.00  0.00     0.151 C 
BRANCH  65  66
ATOM     66  C   UNL     1      28.292  20.231  18.417  1.00  0.00     0.086 C 
BRANCH  66  67
ATOM     67  C   UNL     1      28.791  20.047  19.822  1.00  0.00     0.251 C 
ATOM     68  O   UNL     1      28.655  18.707  20.189  1.00  0.00    -0.350 OA
ATOM     69  O   UNL     1      30.132  20.339  19.974  1.00  0.00    -0.350 OA
ATOM     70  C   UNL     1      29.500  18.554  21.281  1.00  0.00     0.192 C 
ATOM     71  C   UNL     1      30.364  19.803  21.262  1.00  0.00     0.192 C 
ENDBRANCH  66  67
ENDBRANCH  65  66
ENDBRANCH  63  65
ENDBRANCH  59  60
ENDBRANCH  58  59
ENDBRANCH  55  58
ENDBRANCH  53  54
ENDBRANCH  50  53
ENDBRANCH  47  50
ENDBRANCH   5  47
BRANCH   4  72
ATOM     72  N   UNL     1      20.589  18.285  10.123  1.00  0.00    -0.348 N 
ATOM     73  C   UNL     1      19.785  18.617   9.029  1.00  0.00     0.217 C 
ATOM     74  H   UNL     1      21.133  17.373  10.130  1.00  0.00     0.163 HD
ATOM     75  C   UNL     1      19.682  17.690   7.856  1.00  0.00     0.114 C 
ATOM     76  O   UNL     1      19.161  19.712   9.073  1.00  0.00    -0.275 OA
ENDBRANCH   4  72
TORSDOF 32
