REMARK VINA RESULT:    -8.013      4.261      8.521
REMARK INTER + INTRA:         -19.459
REMARK INTER:                 -12.365
REMARK INTRA:                  -7.094
REMARK UNBOUND:                 3.076
REMARK SMILES CC(=O)N[C@@H]1[C@@H](O)C[C@](OC[C@H]2O[C@@H](O[C@H]3[C@H](O)[C@@H](O)[C@H](OCCN=[N+]=[N-])O[C@@H]3CO)[C@H](O)[C@@H](O)[C@H]2O)(C(=O)O)O[C@H]1C(O)[C@H](O)CNC(=O)OCc1cn(C2CC(O)C=C[C@@H](O)C2)nn1
REMARK SMILES IDX 43 1 42 2 9 3 8 4 41 5 6 6 5 7 10 8 11 9 12 10 14 11 13 12
REMARK SMILES IDX 32 13 34 14 36 15 15 16 16 17 29 18 28 19 21 20 17 21 19 22
REMARK SMILES IDX 30 23 31 24 22 26 23 27 24 28 25 29 26 30 27 31 18 32 20 34
REMARK SMILES IDX 33 36 35 38 37 40 38 42 39 43 40 44 7 46 4 48 2 49 1 51 3 52
REMARK SMILES IDX 44 53 45 55 46 56 47 58 48 59 49 60 50 62 51 63 52 64 53 65
REMARK SMILES IDX 54 66 66 67 55 68 65 69 56 70 57 71 58 72 59 74 64 76 62 77
REMARK SMILES IDX 61 78 60 79 63 81
REMARK H PARENT 31 25 18 33 20 35 33 37 35 39 37 41 40 45 7 47 4 50 44 54
REMARK H PARENT 46 57 48 61 59 75 63 82
REMARK Flexibility Score: 90.00
ROOT
ATOM      1  C   UNL     1      15.821  32.645  21.845  1.00  0.00     0.176 C 
ENDROOT
BRANCH   1   2
ATOM      2  C   UNL     1      15.226  31.248  21.798  1.00  0.00     0.178 C 
ATOM      3  C   UNL     1      14.642  29.703  20.123  1.00  0.00     0.272 C 
ATOM      4  C   UNL     1      13.772  28.950  21.062  1.00  0.00     0.113 C 
ATOM      5  O   UNL     1      15.002  30.962  20.421  1.00  0.00    -0.332 OA
ATOM      6  C   UNL     1      13.755  29.471  22.453  1.00  0.00     0.145 C 
ATOM      7  C   UNL     1      13.933  31.021  22.452  1.00  0.00     0.142 C 
BRANCH   3   8
ATOM      8  O   UNL     1      14.068  29.616  18.838  1.00  0.00    -0.338 OA
BRANCH   8   9
ATOM      9  C   UNL     1      13.827  30.816  18.235  1.00  0.00     0.199 C 
BRANCH   9  10
ATOM     10  C   UNL     1      14.466  30.868  16.846  1.00  0.00     0.179 C 
ATOM     11  C   UNL     1      13.715  31.690  14.823  1.00  0.00     0.282 C 
ATOM     12  O   UNL     1      13.466  30.872  15.926  1.00  0.00    -0.341 OA
ATOM     13  C   UNL     1      13.735  33.097  15.392  1.00  0.00     0.202 C 
ATOM     14  C   UNL     1      15.040  33.223  16.145  1.00  0.00     0.179 C 
ATOM     15  C   UNL     1      15.503  31.933  16.743  1.00  0.00     0.177 C 
BRANCH  11  16
ATOM     16  O   UNL     1      12.735  31.484  13.882  1.00  0.00    -0.341 OA
BRANCH  16  17
ATOM     17  C   UNL     1      12.317  30.151  13.923  1.00  0.00     0.184 C 
ATOM     18  C   UNL     1      11.889  29.697  12.550  1.00  0.00     0.178 C 
ATOM     19  O   UNL     1      10.663  30.163  12.148  1.00  0.00    -0.341 OA
ATOM     20  C   UNL     1       9.964  30.853  13.136  1.00  0.00     0.281 C 
ATOM     21  C   UNL     1      11.263  29.903  14.968  1.00  0.00     0.180 C 
ATOM     22  C   UNL     1       9.875  29.999  14.396  1.00  0.00     0.202 C 
BRANCH  18  23
ATOM     23  C   UNL     1      11.925  28.178  12.450  1.00  0.00     0.191 C 
BRANCH  23  24
ATOM     24  O   UNL     1      12.955  27.630  13.191  1.00  0.00    -0.394 OA
ATOM     25  H   UNL     1      13.467  28.292  13.684  1.00  0.00     0.210 HD
ENDBRANCH  23  24
ENDBRANCH  18  23
BRANCH  20  26
ATOM     26  O   UNL     1       8.692  31.080  12.620  1.00  0.00    -0.350 OA
BRANCH  26  27
ATOM     27  C   UNL     1       8.076  29.853  12.401  1.00  0.00     0.169 C 
BRANCH  27  28
ATOM     28  C   UNL     1       6.579  29.936  12.642  1.00  0.00     0.119 C 
BRANCH  28  29
ATOM     29  N   UNL     1       6.221  29.296  13.890  1.00  0.00    -0.092 NA
ATOM     30  N   UNL     1       5.983  30.004  14.882  1.00  0.00     0.001 N 
ATOM     31  N   UNL     1       5.871  30.813  15.814  1.00  0.00    -0.003 NA
ENDBRANCH  28  29
ENDBRANCH  27  28
ENDBRANCH  26  27
ENDBRANCH  20  26
BRANCH  21  32
ATOM     32  O   UNL     1      11.448  28.651  15.554  1.00  0.00    -0.387 OA
ATOM     33  H   UNL     1      11.764  28.722  16.486  1.00  0.00     0.211 HD
ENDBRANCH  21  32
BRANCH  22  34
ATOM     34  O   UNL     1       9.001  30.594  15.299  1.00  0.00    -0.385 OA
ATOM     35  H   UNL     1       8.477  29.907  15.787  1.00  0.00     0.211 HD
ENDBRANCH  22  34
ENDBRANCH  16  17
ENDBRANCH  11  16
BRANCH  13  36
ATOM     36  O   UNL     1      13.628  34.088  14.454  1.00  0.00    -0.385 OA
ATOM     37  H   UNL     1      12.741  34.468  14.349  1.00  0.00     0.211 HD
ENDBRANCH  13  36
BRANCH  14  38
ATOM     38  O   UNL     1      14.858  34.226  17.096  1.00  0.00    -0.387 OA
ATOM     39  H   UNL     1      15.437  35.014  16.898  1.00  0.00     0.211 HD
ENDBRANCH  14  38
BRANCH  15  40
ATOM     40  O   UNL     1      15.995  32.155  18.044  1.00  0.00    -0.387 OA
ATOM     41  H   UNL     1      15.648  31.535  18.702  1.00  0.00     0.211 HD
ENDBRANCH  15  40
ENDBRANCH   9  10
ENDBRANCH   8   9
ENDBRANCH   3   8
BRANCH   3  42
ATOM     42  C   UNL     1      15.926  28.908  20.026  1.00  0.00     0.364 C 
ATOM     43  O   UNL     1      16.017  27.720  20.434  1.00  0.00    -0.246 OA
BRANCH  42  44
ATOM     44  O   UNL     1      17.025  29.534  19.462  1.00  0.00    -0.477 OA
ATOM     45  H   UNL     1      17.131  29.604  18.450  1.00  0.00     0.296 HD
ENDBRANCH  42  44
ENDBRANCH   3  42
BRANCH   6  46
ATOM     46  O   UNL     1      12.601  29.130  23.113  1.00  0.00    -0.391 OA
ATOM     47  H   UNL     1      12.410  29.781  23.822  1.00  0.00     0.211 HD
ENDBRANCH   6  46
BRANCH   7  48
ATOM     48  N   UNL     1      13.663  31.507  23.749  1.00  0.00    -0.348 N 
ATOM     49  C   UNL     1      12.694  32.524  23.943  1.00  0.00     0.217 C 
ATOM     50  H   UNL     1      14.140  31.114  24.581  1.00  0.00     0.163 HD
ATOM     51  C   UNL     1      12.392  33.051  25.300  1.00  0.00     0.114 C 
ATOM     52  O   UNL     1      12.077  32.989  22.956  1.00  0.00    -0.275 OA
ENDBRANCH   7  48
ENDBRANCH   1   2
BRANCH   1  53
ATOM     53  O   UNL     1      15.260  33.209  20.616  1.00  0.00    -0.388 OA
ATOM     54  H   UNL     1      14.289  32.942  20.584  1.00  0.00     0.211 HD
ENDBRANCH   1  53
BRANCH   1  55
ATOM     55  C   UNL     1      17.292  32.699  21.547  1.00  0.00     0.165 C 
BRANCH  55  56
ATOM     56  O   UNL     1      17.560  32.534  20.210  1.00  0.00    -0.388 OA
ATOM     57  H   UNL     1      18.431  32.118  20.023  1.00  0.00     0.211 HD
ENDBRANCH  55  56
BRANCH  55  58
ATOM     58  C   UNL     1      18.032  31.584  22.278  1.00  0.00     0.154 C 
BRANCH  58  59
ATOM     59  N   UNL     1      18.883  30.801  21.441  1.00  0.00    -0.319 N 
ATOM     60  C   UNL     1      19.687  29.736  21.934  1.00  0.00     0.407 C 
ATOM     61  H   UNL     1      18.931  31.008  20.399  1.00  0.00     0.167 HD
ATOM     62  O   UNL     1      19.624  29.501  23.175  1.00  0.00    -0.225 OA
BRANCH  60  63
ATOM     63  O   UNL     1      20.486  29.013  21.078  1.00  0.00    -0.443 OA
BRANCH  63  64
ATOM     64  C   UNL     1      21.017  29.613  19.900  1.00  0.00     0.294 C 
BRANCH  64  65
ATOM     65  C   UNL     1      20.185  29.179  18.756  1.00  0.00     0.120 A 
ATOM     66  C   UNL     1      19.930  29.847  17.587  1.00  0.00     0.138 A 
ATOM     67  N   UNL     1      19.516  28.015  18.679  1.00  0.00    -0.132 NA
ATOM     68  N   UNL     1      19.110  29.066  16.840  1.00  0.00    -0.249 N 
ATOM     69  N   UNL     1      18.880  27.967  17.528  1.00  0.00    -0.067 NA
BRANCH  68  70
ATOM     70  C   UNL     1      18.571  29.384  15.510  1.00  0.00     0.115 C 
BRANCH  70  71
ATOM     71  C   UNL     1      17.120  29.037  15.490  1.00  0.00     0.063 C 
BRANCH  71  72
ATOM     72  C   UNL     1      16.698  28.750  14.045  1.00  0.00     0.139 CG0
ATOM     73  G   UNL     1      16.553  30.025  13.325  1.00  0.00     0.000 G0
BRANCH  72  74
ATOM     74  O   UNL     1      15.511  28.021  14.034  1.00  0.00    -0.389 OA
ATOM     75  H   UNL     1      14.815  28.579  13.582  1.00  0.00     0.211 HD
ENDBRANCH  72  74
ENDBRANCH  71  72
ENDBRANCH  70  71
BRANCH  70  76
ATOM     76  C   UNL     1      18.788  30.841  15.247  1.00  0.00     0.063 C 
BRANCH  76  77
ATOM     77  C   UNL     1      18.847  31.006  13.724  1.00  0.00     0.139 C 
BRANCH  77  78
ATOM     78  C   UNL     1      17.467  31.002  13.169  1.00  0.00     0.002 C 
ATOM     79  C   UNL     1      16.571  30.036  13.308  1.00  0.00     0.002 CG0
ATOM     80  G   UNL     1      16.677  28.750  14.018  1.00  0.00     0.000 G0
ENDBRANCH  77  78
BRANCH  77  81
ATOM     81  O   UNL     1      19.539  32.151  13.359  1.00  0.00    -0.389 OA
ATOM     82  H   UNL     1      19.173  32.453  12.481  1.00  0.00     0.211 HD
ENDBRANCH  77  81
ENDBRANCH  76  77
ENDBRANCH  70  76
ENDBRANCH  68  70
ENDBRANCH  64  65
ENDBRANCH  63  64
ENDBRANCH  60  63
ENDBRANCH  58  59
ENDBRANCH  55  58
ENDBRANCH   1  55
TORSDOF 32
