REMARK VINA RESULT:    -5.920     21.472     28.458
REMARK INTER + INTRA:         -22.494
REMARK INTER:                 -13.903
REMARK INTRA:                  -8.591
REMARK UNBOUND:                -6.885
REMARK SMILES CCOC(=O)c1cccc(-n2cc(COC(=O)NC[C@@H](O)C(O)[C@@H]3O[C@@](OC[C@H]4O[C@@H](O[C@H]5[C@H](O)[C@@H](O)[C@H](OCCN=[N+]=[N-])O[C@@H]5CO)[C@H](O)[C@@H](O)[C@H]4O)(C(=O)O)C[C@H](O)[C@H]3NC(C)=O)nn2)c1
REMARK SMILES IDX 22 1 24 2 26 3 58 4 25 5 59 6 61 7 27 8 28 9 29 10 31 11
REMARK SMILES IDX 30 12 49 13 51 14 53 15 32 16 33 17 46 18 45 19 38 20 34 21
REMARK SMILES IDX 36 22 47 23 48 24 39 26 40 27 41 28 42 29 43 30 44 31 35 32
REMARK SMILES IDX 37 34 50 36 52 38 54 40 55 42 56 43 57 44 60 46 62 48 63 49
REMARK SMILES IDX 64 51 65 52 23 53 20 55 21 56 19 58 18 59 16 60 17 62 15 63
REMARK SMILES IDX 14 64 13 65 12 66 66 67 11 68 67 69 10 70 68 71 9 72 6 73
REMARK SMILES IDX 8 74 7 75 4 76 5 77 3 78 2 79 1 80
REMARK H PARENT 48 25 35 33 37 35 50 37 52 39 54 41 57 45 60 47 62 50 23 54
REMARK H PARENT 21 57 18 61
REMARK Flexibility Score: inf
ROOT
ATOM      1  C   UNL     1      23.313  19.683  13.533  1.00  0.00     0.176 C 
ENDROOT
BRANCH   1   2
ATOM      2  C   UNL     1      22.493  20.810  13.061  1.00  0.00     0.178 C 
ATOM      3  C   UNL     1      20.874  21.115  11.365  1.00  0.00     0.272 C 
ATOM      4  C   UNL     1      20.904  22.468  11.999  1.00  0.00     0.113 C 
ATOM      5  O   UNL     1      22.155  20.563  11.728  1.00  0.00    -0.332 OA
ATOM      6  C   UNL     1      22.303  23.052  12.112  1.00  0.00     0.145 C 
ATOM      7  C   UNL     1      23.085  22.172  13.144  1.00  0.00     0.142 C 
BRANCH   3   8
ATOM      8  O   UNL     1      20.905  21.220  10.010  1.00  0.00    -0.338 OA
BRANCH   8   9
ATOM      9  C   UNL     1      20.095  20.646   9.156  1.00  0.00     0.199 C 
BRANCH   9  10
ATOM     10  C   UNL     1      20.434  19.677   8.105  1.00  0.00     0.179 C 
ATOM     11  C   UNL     1      22.187  18.820   6.814  1.00  0.00     0.282 C 
ATOM     12  O   UNL     1      21.624  19.912   7.516  1.00  0.00    -0.341 OA
ATOM     13  C   UNL     1      21.163  17.763   6.540  1.00  0.00     0.202 C 
ATOM     14  C   UNL     1      20.468  17.271   7.768  1.00  0.00     0.179 C 
ATOM     15  C   UNL     1      20.553  18.303   8.840  1.00  0.00     0.177 C 
BRANCH  11  16
ATOM     16  O   UNL     1      23.270  18.442   7.551  1.00  0.00    -0.341 OA
BRANCH  16  17
ATOM     17  C   UNL     1      24.351  19.252   7.612  1.00  0.00     0.184 C 
ATOM     18  C   UNL     1      25.546  18.496   7.092  1.00  0.00     0.178 C 
ATOM     19  O   UNL     1      26.689  19.297   7.080  1.00  0.00    -0.341 OA
ATOM     20  C   UNL     1      27.055  19.539   8.433  1.00  0.00     0.281 C 
ATOM     21  C   UNL     1      24.693  19.676   9.051  1.00  0.00     0.180 C 
ATOM     22  C   UNL     1      25.997  20.465   8.967  1.00  0.00     0.202 C 
BRANCH  18  23
ATOM     23  C   UNL     1      25.306  17.995   5.697  1.00  0.00     0.191 C 
BRANCH  23  24
ATOM     24  O   UNL     1      25.644  18.998   4.752  1.00  0.00    -0.394 OA
ATOM     25  H   UNL     1      26.341  19.597   5.122  1.00  0.00     0.210 HD
ENDBRANCH  23  24
ENDBRANCH  18  23
BRANCH  20  26
ATOM     26  O   UNL     1      28.318  20.057   8.438  1.00  0.00    -0.350 OA
BRANCH  26  27
ATOM     27  C   UNL     1      28.543  20.918   7.373  1.00  0.00     0.169 C 
BRANCH  27  28
ATOM     28  C   UNL     1      29.340  22.134   7.741  1.00  0.00     0.119 C 
BRANCH  28  29
ATOM     29  N   UNL     1      29.005  22.528   9.115  1.00  0.00    -0.092 NA
ATOM     30  N   UNL     1      28.139  23.400   9.265  1.00  0.00     0.001 N 
ATOM     31  N   UNL     1      27.136  24.070   9.580  1.00  0.00    -0.003 NA
ENDBRANCH  28  29
ENDBRANCH  27  28
ENDBRANCH  26  27
ENDBRANCH  20  26
BRANCH  21  32
ATOM     32  O   UNL     1      23.756  20.571   9.545  1.00  0.00    -0.387 OA
ATOM     33  H   UNL     1      23.856  20.589  10.526  1.00  0.00     0.211 HD
ENDBRANCH  21  32
BRANCH  22  34
ATOM     34  O   UNL     1      26.338  20.994  10.208  1.00  0.00    -0.385 OA
ATOM     35  H   UNL     1      25.838  20.567  10.967  1.00  0.00     0.211 HD
ENDBRANCH  22  34
ENDBRANCH  16  17
ENDBRANCH  11  16
BRANCH  13  36
ATOM     36  O   UNL     1      20.262  18.238   5.567  1.00  0.00    -0.385 OA
ATOM     37  H   UNL     1      19.326  18.046   5.800  1.00  0.00     0.211 HD
ENDBRANCH  13  36
BRANCH  14  38
ATOM     38  O   UNL     1      20.830  15.996   8.138  1.00  0.00    -0.387 OA
ATOM     39  H   UNL     1      20.255  15.742   8.909  1.00  0.00     0.211 HD
ENDBRANCH  14  38
BRANCH  15  40
ATOM     40  O   UNL     1      21.692  18.218   9.578  1.00  0.00    -0.387 OA
ATOM     41  H   UNL     1      22.170  19.084   9.555  1.00  0.00     0.211 HD
ENDBRANCH  15  40
ENDBRANCH   9  10
ENDBRANCH   8   9
ENDBRANCH   3   8
BRANCH   3  42
ATOM     42  C   UNL     1      19.862  20.195  11.864  1.00  0.00     0.364 C 
ATOM     43  O   UNL     1      20.103  19.001  12.104  1.00  0.00    -0.246 OA
BRANCH  42  44
ATOM     44  O   UNL     1      18.558  20.634  12.095  1.00  0.00    -0.477 OA
ATOM     45  H   UNL     1      18.313  21.590  12.251  1.00  0.00     0.296 HD
ENDBRANCH  42  44
ENDBRANCH   3  42
BRANCH   6  46
ATOM     46  O   UNL     1      22.945  22.885  10.910  1.00  0.00    -0.391 OA
ATOM     47  H   UNL     1      22.662  23.594  10.284  1.00  0.00     0.211 HD
ENDBRANCH   6  46
BRANCH   7  48
ATOM     48  N   UNL     1      22.891  22.805  14.427  1.00  0.00    -0.348 N 
ATOM     49  C   UNL     1      23.964  23.224  15.280  1.00  0.00     0.217 C 
ATOM     50  H   UNL     1      21.920  23.002  14.817  1.00  0.00     0.163 HD
ATOM     51  C   UNL     1      23.727  23.873  16.597  1.00  0.00     0.114 C 
ATOM     52  O   UNL     1      25.145  23.046  14.920  1.00  0.00    -0.275 OA
ENDBRANCH   7  48
ENDBRANCH   1   2
BRANCH   1  53
ATOM     53  O   UNL     1      23.034  19.204  14.784  1.00  0.00    -0.388 OA
ATOM     54  H   UNL     1      22.152  18.766  14.838  1.00  0.00     0.211 HD
ENDBRANCH   1  53
BRANCH   1  55
ATOM     55  C   UNL     1      23.559  18.562  12.556  1.00  0.00     0.165 C 
BRANCH  55  56
ATOM     56  O   UNL     1      22.445  17.719  12.485  1.00  0.00    -0.388 OA
ATOM     57  H   UNL     1      22.664  16.829  12.865  1.00  0.00     0.211 HD
ENDBRANCH  55  56
BRANCH  55  58
ATOM     58  C   UNL     1      24.873  17.860  12.721  1.00  0.00     0.154 C 
BRANCH  58  59
ATOM     59  N   UNL     1      25.858  18.691  13.375  1.00  0.00    -0.319 N 
ATOM     60  C   UNL     1      27.114  18.950  12.783  1.00  0.00     0.407 C 
ATOM     61  H   UNL     1      25.650  19.128  14.326  1.00  0.00     0.167 HD
ATOM     62  O   UNL     1      27.492  18.515  11.672  1.00  0.00    -0.225 OA
BRANCH  60  63
ATOM     63  O   UNL     1      28.061  19.748  13.454  1.00  0.00    -0.443 OA
BRANCH  63  64
ATOM     64  C   UNL     1      27.751  20.787  14.331  1.00  0.00     0.294 C 
BRANCH  64  65
ATOM     65  C   UNL     1      27.919  20.495  15.760  1.00  0.00     0.121 A 
ATOM     66  C   UNL     1      27.768  21.400  16.806  1.00  0.00     0.144 A 
ATOM     67  N   UNL     1      28.242  19.335  16.320  1.00  0.00    -0.131 NA
ATOM     68  N   UNL     1      28.008  20.747  17.942  1.00  0.00    -0.220 N 
ATOM     69  N   UNL     1      28.292  19.500  17.641  1.00  0.00    -0.062 NA
BRANCH  68  70
ATOM     70  C   UNL     1      27.957  21.303  19.238  1.00  0.00     0.067 A 
ATOM     71  C   UNL     1      27.389  22.553  19.474  1.00  0.00     0.044 A 
ATOM     72  C   UNL     1      28.452  20.641  20.330  1.00  0.00     0.028 A 
ATOM     73  C   UNL     1      27.307  23.128  20.714  1.00  0.00     0.062 A 
ATOM     74  C   UNL     1      28.388  21.189  21.601  1.00  0.00     0.003 A 
ATOM     75  C   UNL     1      27.820  22.426  21.799  1.00  0.00     0.016 A 
BRANCH  73  76
ATOM     76  C   UNL     1      26.705  24.433  20.888  1.00  0.00     0.338 C 
ATOM     77  O   UNL     1      26.198  25.012  19.908  1.00  0.00    -0.246 OA
BRANCH  76  78
ATOM     78  O   UNL     1      26.692  25.026  22.125  1.00  0.00    -0.462 OA
BRANCH  78  79
ATOM     79  C   UNL     1      25.521  25.426  22.798  1.00  0.00     0.230 C 
ATOM     80  C   UNL     1      24.649  24.220  23.077  1.00  0.00     0.049 C 
ENDBRANCH  78  79
ENDBRANCH  76  78
ENDBRANCH  73  76
ENDBRANCH  68  70
ENDBRANCH  64  65
ENDBRANCH  63  64
ENDBRANCH  60  63
ENDBRANCH  58  59
ENDBRANCH  55  58
ENDBRANCH   1  55
TORSDOF 33
