REMARK VINA RESULT:    -4.688     13.831     19.744
REMARK INTER + INTRA:         -20.663
REMARK INTER:                 -14.472
REMARK INTRA:                  -6.190
REMARK UNBOUND:                -8.028
REMARK SMILES CCN(CC)CCn1cc(COC(=O)NC[C@@H](O)C(O)[C@@H]2O[C@@](OC[C@H]3O[C@@H](O[C@H]4[C@H](O)[C@@H](O)[C@H](OCCN=[N+]=[N-])O[C@@H]4CO)[C@H](O)[C@@H](O)[C@H]3O)(C(=O)O)C[C@H](O)[C@H]2NC(C)=O)nn1
REMARK SMILES IDX 19 1 21 2 23 3 55 4 22 5 56 6 58 7 24 8 25 9 26 10 28 11
REMARK SMILES IDX 27 12 46 13 48 14 50 15 29 16 30 17 43 18 42 19 35 20 31 21
REMARK SMILES IDX 33 22 44 23 45 24 36 26 37 27 38 28 39 29 40 30 41 31 32 32
REMARK SMILES IDX 34 34 47 36 49 38 51 40 52 42 53 43 54 44 57 46 59 48 60 49
REMARK SMILES IDX 61 51 62 52 20 53 17 55 18 56 16 58 15 59 13 60 14 62 12 63
REMARK SMILES IDX 11 64 10 65 9 66 63 67 8 68 64 69 7 70 6 71 3 72 2 73 1 74
REMARK SMILES IDX 4 75 5 76
REMARK H PARENT 45 25 32 33 34 35 47 37 49 39 51 41 54 45 57 47 59 50 20 54
REMARK H PARENT 18 57 15 61
REMARK Flexibility Score: inf
ROOT
ATOM      1  C   UNL     1       4.676  25.190  31.607  1.00  0.00     0.176 C 
ENDROOT
BRANCH   1   2
ATOM      2  C   UNL     1       4.737  25.362  33.102  1.00  0.00     0.178 C 
ATOM      3  C   UNL     1       5.280  26.838  34.782  1.00  0.00     0.272 C 
ATOM      4  C   UNL     1       4.637  25.689  35.574  1.00  0.00     0.113 C 
ATOM      5  O   UNL     1       5.156  26.630  33.426  1.00  0.00    -0.332 OA
ATOM      6  C   UNL     1       5.200  24.346  35.241  1.00  0.00     0.145 C 
ATOM      7  C   UNL     1       5.684  24.399  33.784  1.00  0.00     0.142 C 
BRANCH   3   8
ATOM      8  O   UNL     1       6.575  26.945  35.230  1.00  0.00    -0.338 OA
BRANCH   8   9
ATOM      9  C   UNL     1       7.427  27.687  34.452  1.00  0.00     0.199 C 
BRANCH   9  10
ATOM     10  C   UNL     1       8.841  27.728  35.058  1.00  0.00     0.179 C 
ATOM     11  C   UNL     1       9.760  26.598  36.905  1.00  0.00     0.282 C 
ATOM     12  O   UNL     1       8.717  27.314  36.335  1.00  0.00    -0.341 OA
ATOM     13  C   UNL     1      11.064  26.908  36.287  1.00  0.00     0.202 C 
ATOM     14  C   UNL     1      11.096  26.723  34.795  1.00  0.00     0.179 C 
ATOM     15  C   UNL     1       9.688  26.795  34.245  1.00  0.00     0.177 C 
BRANCH  11  16
ATOM     16  O   UNL     1       9.330  25.278  36.896  1.00  0.00    -0.341 OA
BRANCH  16  17
ATOM     17  C   UNL     1       9.681  24.559  37.983  1.00  0.00     0.184 C 
ATOM     18  C   UNL     1       9.879  23.096  37.683  1.00  0.00     0.178 C 
ATOM     19  O   UNL     1      10.351  22.469  38.873  1.00  0.00    -0.341 OA
ATOM     20  C   UNL     1       9.267  22.236  39.690  1.00  0.00     0.281 C 
ATOM     21  C   UNL     1       8.662  24.635  39.116  1.00  0.00     0.180 C 
ATOM     22  C   UNL     1       8.251  23.291  39.627  1.00  0.00     0.202 C 
BRANCH  18  23
ATOM     23  C   UNL     1      10.752  22.783  36.523  1.00  0.00     0.191 C 
BRANCH  23  24
ATOM     24  O   UNL     1      10.092  23.184  35.368  1.00  0.00    -0.394 OA
ATOM     25  H   UNL     1       9.429  22.527  35.039  1.00  0.00     0.210 HD
ENDBRANCH  23  24
ENDBRANCH  18  23
BRANCH  20  26
ATOM     26  O   UNL     1       9.654  21.875  40.977  1.00  0.00    -0.350 OA
BRANCH  26  27
ATOM     27  C   UNL     1       8.629  21.582  41.825  1.00  0.00     0.169 C 
BRANCH  27  28
ATOM     28  C   UNL     1       8.890  20.348  42.668  1.00  0.00     0.119 C 
BRANCH  28  29
ATOM     29  N   UNL     1      10.275  19.930  42.572  1.00  0.00    -0.092 NA
ATOM     30  N   UNL     1      10.758  19.043  43.286  1.00  0.00     0.001 N 
ATOM     31  N   UNL     1      11.320  18.538  44.260  1.00  0.00    -0.003 NA
ENDBRANCH  28  29
ENDBRANCH  27  28
ENDBRANCH  26  27
ENDBRANCH  20  26
BRANCH  21  32
ATOM     32  O   UNL     1       9.214  25.370  40.148  1.00  0.00    -0.387 OA
ATOM     33  H   UNL     1       9.021  25.018  41.041  1.00  0.00     0.211 HD
ENDBRANCH  21  32
BRANCH  22  34
ATOM     34  O   UNL     1       7.113  22.807  38.934  1.00  0.00    -0.385 OA
ATOM     35  H   UNL     1       6.395  22.731  39.615  1.00  0.00     0.211 HD
ENDBRANCH  22  34
ENDBRANCH  16  17
ENDBRANCH  11  16
BRANCH  13  36
ATOM     36  O   UNL     1      11.354  28.283  36.529  1.00  0.00    -0.385 OA
ATOM     37  H   UNL     1      11.315  28.799  35.704  1.00  0.00     0.211 HD
ENDBRANCH  13  36
BRANCH  14  38
ATOM     38  O   UNL     1      11.752  25.575  34.381  1.00  0.00    -0.387 OA
ATOM     39  H   UNL     1      11.171  24.935  33.939  1.00  0.00     0.211 HD
ENDBRANCH  14  38
BRANCH  15  40
ATOM     40  O   UNL     1       9.139  25.522  34.312  1.00  0.00    -0.387 OA
ATOM     41  H   UNL     1       8.232  25.514  33.892  1.00  0.00     0.211 HD
ENDBRANCH  15  40
ENDBRANCH   9  10
ENDBRANCH   8   9
ENDBRANCH   3   8
BRANCH   3  42
ATOM     42  C   UNL     1       4.485  28.033  35.161  1.00  0.00     0.364 C 
ATOM     43  O   UNL     1       4.041  28.168  36.351  1.00  0.00    -0.246 OA
BRANCH  42  44
ATOM     44  O   UNL     1       4.163  29.064  34.301  1.00  0.00    -0.477 OA
ATOM     45  H   UNL     1       3.730  29.908  34.662  1.00  0.00     0.296 HD
ENDBRANCH  42  44
ENDBRANCH   3  42
BRANCH   6  46
ATOM     46  O   UNL     1       6.158  23.880  36.108  1.00  0.00    -0.391 OA
ATOM     47  H   UNL     1       5.870  22.980  36.410  1.00  0.00     0.211 HD
ENDBRANCH   6  46
BRANCH   7  48
ATOM     48  N   UNL     1       5.741  23.101  33.202  1.00  0.00    -0.348 N 
ATOM     49  C   UNL     1       7.017  22.431  33.154  1.00  0.00     0.217 C 
ATOM     50  H   UNL     1       4.940  22.578  32.805  1.00  0.00     0.163 HD
ATOM     51  C   UNL     1       7.152  21.077  32.560  1.00  0.00     0.114 C 
ATOM     52  O   UNL     1       8.059  22.970  33.612  1.00  0.00    -0.275 OA
ENDBRANCH   7  48
ENDBRANCH   1   2
BRANCH   1  53
ATOM     53  O   UNL     1       3.871  24.094  31.326  1.00  0.00    -0.388 OA
ATOM     54  H   UNL     1       3.989  23.837  30.358  1.00  0.00     0.211 HD
ENDBRANCH   1  53
BRANCH   1  55
ATOM     55  C   UNL     1       4.026  26.431  31.052  1.00  0.00     0.165 C 
BRANCH  55  56
ATOM     56  O   UNL     1       2.915  26.757  31.838  1.00  0.00    -0.388 OA
ATOM     57  H   UNL     1       2.995  26.274  32.696  1.00  0.00     0.211 HD
ENDBRANCH  55  56
BRANCH  55  58
ATOM     58  C   UNL     1       3.623  26.362  29.626  1.00  0.00     0.154 C 
BRANCH  58  59
ATOM     59  N   UNL     1       4.700  26.151  28.720  1.00  0.00    -0.319 N 
ATOM     60  C   UNL     1       4.963  27.130  27.701  1.00  0.00     0.407 C 
ATOM     61  H   UNL     1       5.290  25.320  28.766  1.00  0.00     0.167 HD
ATOM     62  O   UNL     1       4.258  28.153  27.597  1.00  0.00    -0.225 OA
BRANCH  60  63
ATOM     63  O   UNL     1       6.020  26.906  26.834  1.00  0.00    -0.443 OA
BRANCH  63  64
ATOM     64  C   UNL     1       5.864  27.287  25.457  1.00  0.00     0.294 C 
BRANCH  64  65
ATOM     65  C   UNL     1       6.995  28.156  25.107  1.00  0.00     0.120 A 
ATOM     66  C   UNL     1       8.325  27.723  25.075  1.00  0.00     0.138 A 
ATOM     67  N   UNL     1       7.038  29.441  24.767  1.00  0.00    -0.132 NA
ATOM     68  N   UNL     1       9.106  28.758  24.718  1.00  0.00    -0.251 N 
ATOM     69  N   UNL     1       8.309  29.778  24.539  1.00  0.00    -0.067 NA
BRANCH  68  70
ATOM     70  C   UNL     1      10.547  28.762  24.560  1.00  0.00     0.161 C 
BRANCH  70  71
ATOM     71  C   UNL     1      10.958  30.149  24.115  1.00  0.00     0.108 C 
BRANCH  71  72
ATOM     72  N   UNL     1      12.331  30.454  24.392  1.00  0.00    -0.302 NA
BRANCH  72  73
ATOM     73  C   UNL     1      12.552  31.865  24.564  1.00  0.00     0.081 C 
ATOM     74  C   UNL     1      11.205  32.575  24.504  1.00  0.00     0.021 C 
ENDBRANCH  72  73
BRANCH  72  75
ATOM     75  C   UNL     1      13.242  29.843  23.475  1.00  0.00     0.081 C 
ATOM     76  C   UNL     1      12.838  30.122  22.041  1.00  0.00     0.021 C 
ENDBRANCH  72  75
ENDBRANCH  71  72
ENDBRANCH  70  71
ENDBRANCH  68  70
ENDBRANCH  64  65
ENDBRANCH  63  64
ENDBRANCH  60  63
ENDBRANCH  58  59
ENDBRANCH  55  58
ENDBRANCH   1  55
TORSDOF 34
