REMARK VINA RESULT:    -5.444     12.018     16.603
REMARK INTER + INTRA:         -21.053
REMARK INTER:                 -13.817
REMARK INTRA:                  -7.236
REMARK UNBOUND:                -7.652
REMARK SMILES CC(=O)N[C@@H]1[C@@H](O)C[C@](OC[C@H]2O[C@@H](O[C@H]3[C@H](O)[C@@H](O)[C@H](OCCN=[N+]=[N-])O[C@@H]3CO)[C@H](O)[C@@H](O)[C@H]2O)(C(=O)O)O[C@H]1C(O)[C@H](O)CNC(=O)OCc1cn(-c2ccc(Br)cc2)nn1
REMARK SMILES IDX 9 1 8 2 6 3 5 4 42 5 41 6 10 7 11 8 12 9 14 10 13 11 32 12
REMARK SMILES IDX 34 13 36 14 15 15 16 16 29 17 28 18 21 19 17 20 19 21 30 22
REMARK SMILES IDX 31 23 22 25 23 26 24 27 25 28 26 29 27 30 18 31 20 33 33 35
REMARK SMILES IDX 35 37 37 39 38 41 39 42 40 43 7 45 43 47 44 48 45 50 46 51
REMARK SMILES IDX 47 53 48 54 49 55 50 57 51 58 52 59 53 60 54 61 64 62 55 63
REMARK SMILES IDX 63 64 56 65 57 66 62 67 58 68 61 69 59 70 60 71 4 72 2 73
REMARK SMILES IDX 1 75 3 76
REMARK H PARENT 31 24 18 32 20 34 33 36 35 38 37 40 40 44 7 46 44 49 46 52
REMARK H PARENT 48 56 4 74
REMARK Flexibility Score: inf
ROOT
ATOM      1  C   UNL     1      19.722  28.458  19.004  1.00  0.00     0.272 C 
ATOM      2  C   UNL     1      20.428  29.443  18.034  1.00  0.00     0.113 C 
ATOM      3  C   UNL     1      21.764  29.758  18.597  1.00  0.00     0.145 C 
ATOM      4  C   UNL     1      22.510  28.417  18.754  1.00  0.00     0.142 C 
ATOM      5  C   UNL     1      21.761  27.692  19.848  1.00  0.00     0.178 C 
ATOM      6  O   UNL     1      20.522  27.399  19.322  1.00  0.00    -0.332 OA
ENDROOT
BRANCH   1   7
ATOM      7  O   UNL     1      18.655  27.990  18.229  1.00  0.00    -0.338 OA
BRANCH   7   8
ATOM      8  C   UNL     1      18.413  28.675  17.077  1.00  0.00     0.199 C 
BRANCH   8   9
ATOM      9  C   UNL     1      16.923  29.071  17.104  1.00  0.00     0.179 C 
ATOM     10  C   UNL     1      15.359  29.720  18.697  1.00  0.00     0.282 C 
ATOM     11  O   UNL     1      16.379  28.874  18.340  1.00  0.00    -0.341 OA
ATOM     12  C   UNL     1      14.638  30.326  17.561  1.00  0.00     0.202 C 
ATOM     13  C   UNL     1      15.486  30.945  16.496  1.00  0.00     0.179 C 
ATOM     14  C   UNL     1      16.910  30.533  16.687  1.00  0.00     0.177 C 
BRANCH  10  15
ATOM     15  O   UNL     1      15.885  30.599  19.643  1.00  0.00    -0.341 OA
BRANCH  15  16
ATOM     16  C   UNL     1      15.204  30.537  20.845  1.00  0.00     0.184 C 
ATOM     17  C   UNL     1      15.233  31.843  21.573  1.00  0.00     0.178 C 
ATOM     18  O   UNL     1      14.422  31.785  22.670  1.00  0.00    -0.341 OA
ATOM     19  C   UNL     1      14.048  30.566  23.147  1.00  0.00     0.281 C 
ATOM     20  C   UNL     1      15.887  29.541  21.797  1.00  0.00     0.180 C 
ATOM     21  C   UNL     1      15.107  29.488  23.093  1.00  0.00     0.202 C 
BRANCH  17  22
ATOM     22  C   UNL     1      14.714  32.940  20.662  1.00  0.00     0.191 C 
BRANCH  22  23
ATOM     23  O   UNL     1      15.497  34.066  20.759  1.00  0.00    -0.394 OA
ATOM     24  H   UNL     1      15.396  34.637  19.977  1.00  0.00     0.210 HD
ENDBRANCH  22  23
ENDBRANCH  17  22
BRANCH  19  25
ATOM     25  O   UNL     1      12.831  30.126  22.637  1.00  0.00    -0.350 OA
BRANCH  25  26
ATOM     26  C   UNL     1      11.773  30.981  22.878  1.00  0.00     0.169 C 
BRANCH  26  27
ATOM     27  C   UNL     1      10.833  30.519  23.941  1.00  0.00     0.119 C 
BRANCH  27  28
ATOM     28  N   UNL     1      11.363  29.330  24.585  1.00  0.00    -0.092 NA
ATOM     29  N   UNL     1      10.572  28.410  24.808  1.00  0.00     0.001 N 
ATOM     30  N   UNL     1       9.875  27.385  24.959  1.00  0.00    -0.003 NA
ENDBRANCH  27  28
ENDBRANCH  26  27
ENDBRANCH  25  26
ENDBRANCH  19  25
BRANCH  20  31
ATOM     31  O   UNL     1      16.031  28.310  21.182  1.00  0.00    -0.387 OA
ATOM     32  H   UNL     1      15.203  27.765  21.258  1.00  0.00     0.211 HD
ENDBRANCH  20  31
BRANCH  21  33
ATOM     33  O   UNL     1      15.896  29.530  24.220  1.00  0.00    -0.385 OA
ATOM     34  H   UNL     1      15.308  29.597  25.010  1.00  0.00     0.211 HD
ENDBRANCH  21  33
ENDBRANCH  15  16
ENDBRANCH  10  15
BRANCH  12  35
ATOM     35  O   UNL     1      13.808  29.309  17.016  1.00  0.00    -0.385 OA
ATOM     36  H   UNL     1      13.319  29.674  16.223  1.00  0.00     0.211 HD
ENDBRANCH  12  35
BRANCH  13  37
ATOM     37  O   UNL     1      15.414  32.357  16.560  1.00  0.00    -0.387 OA
ATOM     38  H   UNL     1      15.502  32.665  15.623  1.00  0.00     0.211 HD
ENDBRANCH  13  37
BRANCH  14  39
ATOM     39  O   UNL     1      17.579  31.338  17.606  1.00  0.00    -0.387 OA
ATOM     40  H   UNL     1      18.383  31.745  17.198  1.00  0.00     0.211 HD
ENDBRANCH  14  39
ENDBRANCH   8   9
ENDBRANCH   7   8
ENDBRANCH   1   7
BRANCH   1  41
ATOM     41  C   UNL     1      19.196  29.265  20.103  1.00  0.00     0.364 C 
ATOM     42  O   UNL     1      19.056  28.838  21.274  1.00  0.00    -0.246 OA
BRANCH  41  43
ATOM     43  O   UNL     1      18.823  30.578  19.889  1.00  0.00    -0.477 OA
ATOM     44  H   UNL     1      17.909  30.957  20.133  1.00  0.00     0.296 HD
ENDBRANCH  41  43
ENDBRANCH   1  41
BRANCH   3  45
ATOM     45  O   UNL     1      22.539  30.502  17.719  1.00  0.00    -0.391 OA
ATOM     46  H   UNL     1      21.967  31.135  17.235  1.00  0.00     0.211 HD
ENDBRANCH   3  45
BRANCH   5  47
ATOM     47  C   UNL     1      22.375  26.407  20.289  1.00  0.00     0.176 C 
BRANCH  47  48
ATOM     48  O   UNL     1      22.478  25.619  19.108  1.00  0.00    -0.388 OA
ATOM     49  H   UNL     1      21.590  25.603  18.669  1.00  0.00     0.211 HD
ENDBRANCH  47  48
BRANCH  47  50
ATOM     50  C   UNL     1      21.493  25.564  21.199  1.00  0.00     0.165 C 
BRANCH  50  51
ATOM     51  O   UNL     1      20.861  26.533  22.027  1.00  0.00    -0.388 OA
ATOM     52  H   UNL     1      21.528  26.867  22.705  1.00  0.00     0.211 HD
ENDBRANCH  50  51
BRANCH  50  53
ATOM     53  C   UNL     1      22.297  24.696  22.104  1.00  0.00     0.154 C 
BRANCH  53  54
ATOM     54  N   UNL     1      22.902  25.440  23.162  1.00  0.00    -0.319 N 
ATOM     55  C   UNL     1      22.692  25.201  24.557  1.00  0.00     0.407 C 
ATOM     56  H   UNL     1      23.569  26.247  22.942  1.00  0.00     0.167 HD
ATOM     57  O   UNL     1      21.917  24.278  24.899  1.00  0.00    -0.225 OA
BRANCH  55  58
ATOM     58  O   UNL     1      23.316  25.950  25.527  1.00  0.00    -0.443 OA
BRANCH  58  59
ATOM     59  C   UNL     1      22.566  26.804  26.352  1.00  0.00     0.294 C 
BRANCH  59  60
ATOM     60  C   UNL     1      21.661  27.612  25.505  1.00  0.00     0.121 A 
ATOM     61  C   UNL     1      22.052  28.759  24.804  1.00  0.00     0.144 A 
ATOM     62  N   UNL     1      20.357  27.466  25.227  1.00  0.00    -0.131 NA
ATOM     63  N   UNL     1      20.985  29.245  24.147  1.00  0.00    -0.220 N 
ATOM     64  N   UNL     1      19.977  28.442  24.422  1.00  0.00    -0.062 NA
BRANCH  63  65
ATOM     65  C   UNL     1      21.027  30.412  23.335  1.00  0.00     0.066 A 
ATOM     66  C   UNL     1      21.950  30.658  22.370  1.00  0.00     0.029 A 
ATOM     67  C   UNL     1      20.028  31.353  23.565  1.00  0.00     0.029 A 
ATOM     68  C   UNL     1      21.872  31.828  21.644  1.00  0.00     0.018 A 
ATOM     69  C   UNL     1      19.964  32.517  22.832  1.00  0.00     0.018 A 
ATOM     70  C   UNL     1      20.897  32.773  21.850  1.00  0.00     0.018 A 
ATOM     71  Br  UNL     1      20.823  34.378  20.821  1.00  0.00    -0.051 Br
ENDBRANCH  63  65
ENDBRANCH  59  60
ENDBRANCH  58  59
ENDBRANCH  55  58
ENDBRANCH  53  54
ENDBRANCH  50  53
ENDBRANCH  47  50
ENDBRANCH   5  47
BRANCH   4  72
ATOM     72  N   UNL     1      23.869  28.745  19.060  1.00  0.00    -0.348 N 
ATOM     73  C   UNL     1      24.967  28.051  18.483  1.00  0.00     0.217 C 
ATOM     74  H   UNL     1      24.069  29.513  19.725  1.00  0.00     0.163 HD
ATOM     75  C   UNL     1      26.383  28.367  18.783  1.00  0.00     0.114 C 
ATOM     76  O   UNL     1      24.747  27.101  17.663  1.00  0.00    -0.275 OA
ENDBRANCH   4  72
TORSDOF 30
