REMARK VINA RESULT:    -5.433     16.112     21.649
REMARK INTER + INTRA:         -22.307
REMARK INTER:                 -16.866
REMARK INTRA:                  -5.441
REMARK UNBOUND:                -8.458
REMARK SMILES CC(=O)N[C@@H]1[C@@H](O)C[C@](OC[C@H]2O[C@@H](O[C@H]3[C@H](O)[C@@H](O)[C@H](OCCN=[N+]=[N-])O[C@@H]3CO)[C@H](O)[C@@H](O)[C@H]2O)(C(=O)O)O[C@H]1C(O)[C@H](O)CNC(=O)OCc1cn(-c2ccc(O)c([N+](=O)[O-])c2)nn1
REMARK SMILES IDX 9 1 8 2 6 3 5 4 42 5 41 6 10 7 11 8 12 9 14 10 13 11 32 12
REMARK SMILES IDX 34 13 36 14 15 15 16 16 29 17 28 18 21 19 17 20 19 21 30 22
REMARK SMILES IDX 31 23 22 25 23 26 24 27 25 28 26 29 27 30 18 31 20 33 33 35
REMARK SMILES IDX 35 37 37 39 38 41 39 42 40 43 7 45 43 47 44 48 45 50 46 51
REMARK SMILES IDX 47 53 48 54 49 55 50 57 51 58 52 59 53 60 54 61 67 62 55 63
REMARK SMILES IDX 66 64 56 65 57 66 65 67 58 68 61 69 59 70 62 71 63 72 64 73
REMARK SMILES IDX 60 74 4 76 2 77 1 79 3 80
REMARK H PARENT 31 24 18 32 20 34 33 36 35 38 37 40 40 44 7 46 44 49 46 52
REMARK H PARENT 48 56 60 75 4 78
REMARK Flexibility Score: inf
ROOT
ATOM      1  C   UNL     1      31.540  19.598  22.379  1.00  0.00     0.272 C 
ATOM      2  C   UNL     1      30.189  20.196  22.815  1.00  0.00     0.113 C 
ATOM      3  C   UNL     1      29.073  19.528  22.018  1.00  0.00     0.145 C 
ATOM      4  C   UNL     1      29.291  20.034  20.569  1.00  0.00     0.142 C 
ATOM      5  C   UNL     1      30.760  20.033  20.252  1.00  0.00     0.178 C 
ATOM      6  O   UNL     1      31.451  19.133  21.085  1.00  0.00    -0.332 OA
ENDROOT
BRANCH   1   7
ATOM      7  O   UNL     1      31.741  18.531  23.235  1.00  0.00    -0.338 OA
BRANCH   7   8
ATOM      8  C   UNL     1      32.965  17.936  23.202  1.00  0.00     0.199 C 
BRANCH   8   9
ATOM      9  C   UNL     1      33.415  17.830  24.679  1.00  0.00     0.179 C 
ATOM     10  C   UNL     1      32.417  17.924  26.714  1.00  0.00     0.282 C 
ATOM     11  O   UNL     1      32.402  18.389  25.397  1.00  0.00    -0.341 OA
ATOM     12  C   UNL     1      31.939  16.514  26.682  1.00  0.00     0.202 C 
ATOM     13  C   UNL     1      32.924  15.676  25.908  1.00  0.00     0.179 C 
ATOM     14  C   UNL     1      33.784  16.428  24.962  1.00  0.00     0.177 C 
BRANCH  10  15
ATOM     15  O   UNL     1      31.645  18.770  27.521  1.00  0.00    -0.341 OA
BRANCH  15  16
ATOM     16  C   UNL     1      32.419  19.855  27.885  1.00  0.00     0.184 C 
ATOM     17  C   UNL     1      32.649  20.017  29.347  1.00  0.00     0.178 C 
ATOM     18  O   UNL     1      33.667  20.949  29.507  1.00  0.00    -0.341 OA
ATOM     19  C   UNL     1      33.198  22.253  29.168  1.00  0.00     0.281 C 
ATOM     20  C   UNL     1      31.704  21.161  27.446  1.00  0.00     0.180 C 
ATOM     21  C   UNL     1      32.678  22.288  27.779  1.00  0.00     0.202 C 
BRANCH  17  22
ATOM     22  C   UNL     1      32.984  18.772  30.098  1.00  0.00     0.191 C 
BRANCH  22  23
ATOM     23  O   UNL     1      31.868  17.972  30.266  1.00  0.00    -0.394 OA
ATOM     24  H   UNL     1      32.190  17.066  30.572  1.00  0.00     0.210 HD
ENDBRANCH  22  23
ENDBRANCH  17  22
BRANCH  19  25
ATOM     25  O   UNL     1      34.338  23.040  29.283  1.00  0.00    -0.350 OA
BRANCH  25  26
ATOM     26  C   UNL     1      34.208  24.081  30.182  1.00  0.00     0.169 C 
BRANCH  26  27
ATOM     27  C   UNL     1      34.147  25.409  29.494  1.00  0.00     0.119 C 
BRANCH  27  28
ATOM     28  N   UNL     1      32.750  25.837  29.453  1.00  0.00    -0.092 NA
ATOM     29  N   UNL     1      31.978  25.493  30.376  1.00  0.00     0.001 N 
ATOM     30  N   UNL     1      31.221  25.624  31.355  1.00  0.00    -0.003 NA
ENDBRANCH  27  28
ENDBRANCH  26  27
ENDBRANCH  25  26
ENDBRANCH  19  25
BRANCH  20  31
ATOM     31  O   UNL     1      31.506  21.177  26.075  1.00  0.00    -0.387 OA
ATOM     32  H   UNL     1      30.615  20.811  25.819  1.00  0.00     0.211 HD
ENDBRANCH  20  31
BRANCH  21  33
ATOM     33  O   UNL     1      31.957  23.460  27.564  1.00  0.00    -0.385 OA
ATOM     34  H   UNL     1      31.170  23.304  27.009  1.00  0.00     0.211 HD
ENDBRANCH  21  33
ENDBRANCH  15  16
ENDBRANCH  10  15
BRANCH  12  35
ATOM     35  O   UNL     1      31.743  15.967  27.946  1.00  0.00    -0.385 OA
ATOM     36  H   UNL     1      30.827  15.574  28.030  1.00  0.00     0.211 HD
ENDBRANCH  12  35
BRANCH  13  37
ATOM     37  O   UNL     1      32.198  14.632  25.324  1.00  0.00    -0.387 OA
ATOM     38  H   UNL     1      31.237  14.810  25.513  1.00  0.00     0.211 HD
ENDBRANCH  13  37
BRANCH  14  39
ATOM     39  O   UNL     1      33.914  15.660  23.784  1.00  0.00    -0.387 OA
ATOM     40  H   UNL     1      33.530  16.107  23.001  1.00  0.00     0.211 HD
ENDBRANCH  14  39
ENDBRANCH   8   9
ENDBRANCH   7   8
ENDBRANCH   1   7
BRANCH   1  41
ATOM     41  C   UNL     1      32.533  20.634  22.637  1.00  0.00     0.364 C 
ATOM     42  O   UNL     1      32.526  21.445  23.600  1.00  0.00    -0.246 OA
BRANCH  41  43
ATOM     43  O   UNL     1      33.611  20.776  21.760  1.00  0.00    -0.477 OA
ATOM     44  H   UNL     1      34.396  20.134  21.748  1.00  0.00     0.296 HD
ENDBRANCH  41  43
ENDBRANCH   1  41
BRANCH   3  45
ATOM     45  O   UNL     1      29.165  18.162  22.068  1.00  0.00    -0.391 OA
ATOM     46  H   UNL     1      28.259  17.772  22.019  1.00  0.00     0.211 HD
ENDBRANCH   3  45
BRANCH   5  47
ATOM     47  C   UNL     1      30.967  19.542  18.840  1.00  0.00     0.176 C 
BRANCH  47  48
ATOM     48  O   UNL     1      32.251  19.027  18.747  1.00  0.00    -0.388 OA
ATOM     49  H   UNL     1      32.621  18.761  19.625  1.00  0.00     0.211 HD
ENDBRANCH  47  48
BRANCH  47  50
ATOM     50  C   UNL     1      29.982  18.490  18.399  1.00  0.00     0.165 C 
BRANCH  50  51
ATOM     51  O   UNL     1      30.566  17.264  18.815  1.00  0.00    -0.388 OA
ATOM     52  H   UNL     1      31.187  16.910  18.119  1.00  0.00     0.211 HD
ENDBRANCH  50  51
BRANCH  50  53
ATOM     53  C   UNL     1      29.880  18.411  16.902  1.00  0.00     0.154 C 
BRANCH  53  54
ATOM     54  N   UNL     1      28.539  18.712  16.477  1.00  0.00    -0.319 N 
ATOM     55  C   UNL     1      28.165  19.755  15.605  1.00  0.00     0.407 C 
ATOM     56  H   UNL     1      27.737  18.109  16.838  1.00  0.00     0.167 HD
ATOM     57  O   UNL     1      29.063  20.486  15.166  1.00  0.00    -0.225 OA
BRANCH  55  58
ATOM     58  O   UNL     1      26.876  20.018  15.205  1.00  0.00    -0.443 OA
BRANCH  58  59
ATOM     59  C   UNL     1      26.439  21.335  14.986  1.00  0.00     0.294 C 
BRANCH  59  60
ATOM     60  C   UNL     1      25.074  21.276  14.383  1.00  0.00     0.121 A 
ATOM     61  C   UNL     1      24.616  20.306  13.487  1.00  0.00     0.144 A 
ATOM     62  N   UNL     1      24.019  22.087  14.532  1.00  0.00    -0.131 NA
ATOM     63  N   UNL     1      23.358  20.580  13.162  1.00  0.00    -0.220 N 
ATOM     64  N   UNL     1      23.027  21.680  13.823  1.00  0.00    -0.062 NA
BRANCH  63  65
ATOM     65  C   UNL     1      22.520  19.836  12.262  1.00  0.00     0.073 A 
ATOM     66  C   UNL     1      23.059  19.048  11.291  1.00  0.00     0.033 A 
ATOM     67  C   UNL     1      21.155  19.887  12.346  1.00  0.00     0.118 A 
ATOM     68  C   UNL     1      22.300  18.315  10.409  1.00  0.00     0.056 A 
ATOM     69  C   UNL     1      20.351  19.147  11.456  1.00  0.00     0.312 A 
ATOM     70  C   UNL     1      20.889  18.352  10.479  1.00  0.00     0.194 A 
BRANCH  69  71
ATOM     71  N   UNL     1      18.958  19.254  11.616  1.00  0.00     0.066 N 
ATOM     72  O   UNL     1      18.502  20.375  12.001  1.00  0.00    -0.258 OA
ATOM     73  O   UNL     1      18.123  18.211  11.377  1.00  0.00    -0.258 OA
ENDBRANCH  69  71
BRANCH  70  74
ATOM     74  O   UNL     1      20.174  17.593   9.570  1.00  0.00    -0.502 OA
ATOM     75  H   UNL     1      20.586  16.988   8.934  1.00  0.00     0.293 HD
ENDBRANCH  70  74
ENDBRANCH  63  65
ENDBRANCH  59  60
ENDBRANCH  58  59
ENDBRANCH  55  58
ENDBRANCH  53  54
ENDBRANCH  50  53
ENDBRANCH  47  50
ENDBRANCH   5  47
BRANCH   4  76
ATOM     76  N   UNL     1      28.722  21.367  20.573  1.00  0.00    -0.348 N 
ATOM     77  C   UNL     1      27.886  21.823  19.502  1.00  0.00     0.217 C 
ATOM     78  H   UNL     1      28.905  22.027  21.351  1.00  0.00     0.163 HD
ATOM     79  C   UNL     1      27.316  23.191  19.527  1.00  0.00     0.114 C 
ATOM     80  O   UNL     1      27.650  21.030  18.541  1.00  0.00    -0.275 OA
ENDBRANCH   4  76
TORSDOF 32
