REMARK VINA RESULT:    -6.506      5.731      9.288
REMARK INTER + INTRA:         -24.367
REMARK INTER:                 -18.261
REMARK INTRA:                  -6.107
REMARK UNBOUND:                -7.402
REMARK SMILES CC(=O)N[C@@H]1[C@@H](O)C[C@](OC[C@H]2O[C@@H](O[C@H]3[C@H](O)[C@@H](O)[C@H](OCCN=[N+]=[N-])O[C@@H]3CO)[C@H](O)[C@@H](O)[C@H]2O)(C(=O)O)O[C@H]1C(O)[C@H](O)CNC(=O)OCc1cn(-c2ccc(S(=O)(=O)c3ccc(N)cc3)cc2)nn1
REMARK SMILES IDX 43 1 42 2 9 3 8 4 41 5 6 6 5 7 10 8 11 9 12 10 14 11 13 12
REMARK SMILES IDX 32 13 34 14 36 15 15 16 16 17 29 18 28 19 21 20 17 21 19 22
REMARK SMILES IDX 30 23 31 24 22 26 23 27 24 28 25 29 26 30 27 31 18 32 20 34
REMARK SMILES IDX 33 36 35 38 37 40 38 42 39 43 40 44 7 46 4 48 2 49 1 51 3 52
REMARK SMILES IDX 44 53 45 55 46 56 47 58 48 59 49 60 50 62 51 63 52 64 53 65
REMARK SMILES IDX 54 66 73 67 55 68 72 69 56 70 57 71 71 72 58 73 70 74 59 75
REMARK SMILES IDX 60 76 61 77 62 78 63 79 64 80 69 81 65 82 68 83 66 84 67 85
REMARK H PARENT 31 25 18 33 20 35 33 37 35 39 37 41 40 45 7 47 4 50 44 54
REMARK H PARENT 46 57 48 61 67 86 67 87
REMARK Flexibility Score: inf
ROOT
ATOM      1  C   UNL     1      21.474  25.084  21.795  1.00  0.00     0.176 C 
ENDROOT
BRANCH   1   2
ATOM      2  C   UNL     1      21.913  26.536  21.614  1.00  0.00     0.178 C 
ATOM      3  C   UNL     1      21.582  28.695  22.374  1.00  0.00     0.272 C 
ATOM      4  C   UNL     1      21.559  29.204  20.969  1.00  0.00     0.113 C 
ATOM      5  O   UNL     1      21.178  27.349  22.422  1.00  0.00    -0.332 OA
ATOM      6  C   UNL     1      20.923  28.145  20.082  1.00  0.00     0.145 C 
ATOM      7  C   UNL     1      21.768  26.918  20.132  1.00  0.00     0.142 C 
BRANCH   3   8
ATOM      8  O   UNL     1      20.706  29.343  23.250  1.00  0.00    -0.338 OA
BRANCH   8   9
ATOM      9  C   UNL     1      20.418  30.644  22.967  1.00  0.00     0.199 C 
BRANCH   9  10
ATOM     10  C   UNL     1      18.918  30.836  22.956  1.00  0.00     0.179 C 
ATOM     11  C   UNL     1      16.943  29.892  22.307  1.00  0.00     0.282 C 
ATOM     12  O   UNL     1      18.335  29.662  22.467  1.00  0.00    -0.341 OA
ATOM     13  C   UNL     1      16.386  29.931  23.702  1.00  0.00     0.202 C 
ATOM     14  C   UNL     1      16.915  31.161  24.405  1.00  0.00     0.179 C 
ATOM     15  C   UNL     1      18.432  31.168  24.325  1.00  0.00     0.177 C 
BRANCH  11  16
ATOM     16  O   UNL     1      16.447  28.902  21.500  1.00  0.00    -0.341 OA
BRANCH  16  17
ATOM     17  C   UNL     1      16.628  29.228  20.135  1.00  0.00     0.184 C 
ATOM     18  C   UNL     1      16.187  30.643  19.941  1.00  0.00     0.178 C 
ATOM     19  O   UNL     1      15.266  30.842  18.947  1.00  0.00    -0.341 OA
ATOM     20  C   UNL     1      14.159  30.046  18.942  1.00  0.00     0.281 C 
ATOM     21  C   UNL     1      15.730  28.249  19.390  1.00  0.00     0.180 C 
ATOM     22  C   UNL     1      14.315  28.723  19.658  1.00  0.00     0.202 C 
BRANCH  18  23
ATOM     23  C   UNL     1      17.446  31.415  19.501  1.00  0.00     0.191 C 
BRANCH  23  24
ATOM     24  O   UNL     1      18.565  30.622  19.451  1.00  0.00    -0.394 OA
ATOM     25  H   UNL     1      19.152  30.682  20.245  1.00  0.00     0.210 HD
ENDBRANCH  23  24
ENDBRANCH  18  23
BRANCH  20  26
ATOM     26  O   UNL     1      13.859  29.748  17.618  1.00  0.00    -0.350 OA
BRANCH  26  27
ATOM     27  C   UNL     1      13.101  30.680  16.963  1.00  0.00     0.169 C 
BRANCH  27  28
ATOM     28  C   UNL     1      13.607  30.911  15.579  1.00  0.00     0.119 C 
BRANCH  28  29
ATOM     29  N   UNL     1      13.788  29.616  14.900  1.00  0.00    -0.092 NA
ATOM     30  N   UNL     1      12.827  28.890  14.652  1.00  0.00     0.001 N 
ATOM     31  N   UNL     1      11.888  28.379  14.017  1.00  0.00    -0.003 NA
ENDBRANCH  28  29
ENDBRANCH  27  28
ENDBRANCH  26  27
ENDBRANCH  20  26
BRANCH  21  32
ATOM     32  O   UNL     1      15.975  28.311  18.038  1.00  0.00    -0.387 OA
ATOM     33  H   UNL     1      15.241  28.792  17.570  1.00  0.00     0.211 HD
ENDBRANCH  21  32
BRANCH  22  34
ATOM     34  O   UNL     1      14.021  28.786  21.000  1.00  0.00    -0.385 OA
ATOM     35  H   UNL     1      14.683  29.315  21.518  1.00  0.00     0.211 HD
ENDBRANCH  22  34
ENDBRANCH  16  17
ENDBRANCH  11  16
BRANCH  13  36
ATOM     36  O   UNL     1      14.994  29.886  23.724  1.00  0.00    -0.385 OA
ATOM     37  H   UNL     1      14.746  29.037  24.211  1.00  0.00     0.211 HD
ENDBRANCH  13  36
BRANCH  14  38
ATOM     38  O   UNL     1      16.611  31.053  25.769  1.00  0.00    -0.387 OA
ATOM     39  H   UNL     1      17.187  30.390  26.193  1.00  0.00     0.211 HD
ENDBRANCH  14  38
BRANCH  15  40
ATOM     40  O   UNL     1      18.983  30.336  25.289  1.00  0.00    -0.387 OA
ATOM     41  H   UNL     1      19.471  30.867  25.960  1.00  0.00     0.211 HD
ENDBRANCH  15  40
ENDBRANCH   9  10
ENDBRANCH   8   9
ENDBRANCH   3   8
BRANCH   3  42
ATOM     42  C   UNL     1      22.925  28.765  23.008  1.00  0.00     0.364 C 
ATOM     43  O   UNL     1      23.176  28.507  24.209  1.00  0.00    -0.246 OA
BRANCH  42  44
ATOM     44  O   UNL     1      24.010  29.144  22.236  1.00  0.00    -0.477 OA
ATOM     45  H   UNL     1      24.363  30.114  22.238  1.00  0.00     0.296 HD
ENDBRANCH  42  44
ENDBRANCH   3  42
BRANCH   6  46
ATOM     46  O   UNL     1      19.694  27.838  20.674  1.00  0.00    -0.391 OA
ATOM     47  H   UNL     1      19.430  26.892  20.509  1.00  0.00     0.211 HD
ENDBRANCH   6  46
BRANCH   7  48
ATOM     48  N   UNL     1      23.057  27.030  19.528  1.00  0.00    -0.348 N 
ATOM     49  C   UNL     1      23.529  26.194  18.477  1.00  0.00     0.217 C 
ATOM     50  H   UNL     1      23.713  27.776  19.866  1.00  0.00     0.163 HD
ATOM     51  C   UNL     1      24.891  26.411  17.930  1.00  0.00     0.114 C 
ATOM     52  O   UNL     1      22.773  25.308  18.056  1.00  0.00    -0.275 OA
ENDBRANCH   7  48
ENDBRANCH   1   2
BRANCH   1  53
ATOM     53  O   UNL     1      22.104  24.255  20.882  1.00  0.00    -0.388 OA
ATOM     54  H   UNL     1      22.903  23.819  21.304  1.00  0.00     0.211 HD
ENDBRANCH   1  53
BRANCH   1  55
ATOM     55  C   UNL     1      21.568  24.628  23.200  1.00  0.00     0.165 C 
BRANCH  55  56
ATOM     56  O   UNL     1      20.635  25.286  24.006  1.00  0.00    -0.388 OA
ATOM     57  H   UNL     1      20.319  24.760  24.758  1.00  0.00     0.211 HD
ENDBRANCH  55  56
BRANCH  55  58
ATOM     58  C   UNL     1      22.923  24.951  23.793  1.00  0.00     0.154 C 
BRANCH  58  59
ATOM     59  N   UNL     1      24.009  24.264  23.155  1.00  0.00    -0.319 N 
ATOM     60  C   UNL     1      25.247  24.938  23.003  1.00  0.00     0.407 C 
ATOM     61  H   UNL     1      23.911  23.297  22.807  1.00  0.00     0.167 HD
ATOM     62  O   UNL     1      25.351  26.118  23.447  1.00  0.00    -0.225 OA
BRANCH  60  63
ATOM     63  O   UNL     1      26.361  24.400  22.400  1.00  0.00    -0.443 OA
BRANCH  63  64
ATOM     64  C   UNL     1      26.322  23.460  21.348  1.00  0.00     0.294 C 
BRANCH  64  65
ATOM     65  C   UNL     1      27.583  22.677  21.368  1.00  0.00     0.121 A 
ATOM     66  C   UNL     1      28.207  22.016  22.406  1.00  0.00     0.144 A 
ATOM     67  N   UNL     1      28.387  22.447  20.282  1.00  0.00    -0.131 NA
ATOM     68  N   UNL     1      29.343  21.416  21.932  1.00  0.00    -0.220 N 
ATOM     69  N   UNL     1      29.404  21.704  20.656  1.00  0.00    -0.062 NA
BRANCH  68  70
ATOM     70  C   UNL     1      30.270  20.625  22.644  1.00  0.00     0.066 A 
ATOM     71  C   UNL     1      30.830  19.486  22.057  1.00  0.00     0.030 A 
ATOM     72  C   UNL     1      30.674  20.909  23.924  1.00  0.00     0.030 A 
ATOM     73  C   UNL     1      31.736  18.685  22.706  1.00  0.00     0.023 A 
ATOM     74  C   UNL     1      31.594  20.098  24.590  1.00  0.00     0.023 A 
ATOM     75  C   UNL     1      32.133  18.981  23.991  1.00  0.00     0.072 A 
BRANCH  75  76
ATOM     76  S   UNL     1      33.290  17.968  24.828  1.00  0.00     0.206 S 
ATOM     77  O   UNL     1      34.639  18.670  24.809  1.00  0.00    -0.219 OA
ATOM     78  O   UNL     1      33.380  16.591  24.263  1.00  0.00    -0.219 OA
BRANCH  76  79
ATOM     79  C   UNL     1      32.835  17.878  26.530  1.00  0.00     0.072 A 
ATOM     80  C   UNL     1      33.540  18.576  27.472  1.00  0.00     0.023 A 
ATOM     81  C   UNL     1      31.769  17.108  26.932  1.00  0.00     0.023 A 
ATOM     82  C   UNL     1      33.180  18.497  28.787  1.00  0.00     0.027 A 
ATOM     83  C   UNL     1      31.419  17.038  28.256  1.00  0.00     0.027 A 
ATOM     84  C   UNL     1      32.105  17.723  29.219  1.00  0.00     0.031 A 
BRANCH  84  85
ATOM     85  N   UNL     1      31.769  17.668  30.589  1.00  0.00    -0.399 N 
ATOM     86  H   UNL     1      31.710  16.771  31.090  1.00  0.00     0.156 HD
ATOM     87  H   UNL     1      31.577  18.546  31.103  1.00  0.00     0.156 HD
ENDBRANCH  84  85
ENDBRANCH  76  79
ENDBRANCH  75  76
ENDBRANCH  68  70
ENDBRANCH  64  65
ENDBRANCH  63  64
ENDBRANCH  60  63
ENDBRANCH  58  59
ENDBRANCH  55  58
ENDBRANCH   1  55
TORSDOF 33
