REMARK VINA RESULT:    -5.044      5.473     11.000
REMARK INTER + INTRA:         -21.793
REMARK INTER:                 -13.676
REMARK INTRA:                  -8.118
REMARK UNBOUND:                -8.936
REMARK SMILES CC(=O)N[C@@H]1[C@@H](O)C[C@](OC[C@H]2O[C@@H](O[C@H]3[C@H](O)[C@@H](O)[C@H](OCCN=[N+]=[N-])O[C@@H]3CO)[C@H](O)[C@@H](O)[C@H]2O)(C(=O)O)O[C@H]1C(O)[C@H](O)CNC(=O)OCc1cn(-c2ccc(S(N)(=O)=O)cc2)nn1
REMARK SMILES IDX 9 1 8 2 6 3 5 4 42 5 41 6 10 7 11 8 12 9 14 10 13 11 32 12
REMARK SMILES IDX 34 13 36 14 15 15 16 16 29 17 28 18 21 19 17 20 19 21 30 22
REMARK SMILES IDX 31 23 22 25 23 26 24 27 25 28 26 29 27 30 18 31 20 33 33 35
REMARK SMILES IDX 35 37 37 39 38 41 39 42 40 43 7 45 43 47 44 48 45 50 46 51
REMARK SMILES IDX 47 53 48 54 49 55 50 57 51 58 52 59 53 60 54 61 67 62 55 63
REMARK SMILES IDX 66 64 56 65 57 66 65 67 58 68 64 69 59 70 60 71 62 72 63 73
REMARK SMILES IDX 61 74 4 77 2 78 1 80 3 81
REMARK H PARENT 31 24 18 32 20 34 33 36 35 38 37 40 40 44 7 46 44 49 46 52
REMARK H PARENT 48 56 61 75 61 76 4 79
REMARK Flexibility Score: inf
ROOT
ATOM      1  C   UNL     1      20.276  30.324  23.541  1.00  0.00     0.272 C 
ATOM      2  C   UNL     1      21.439  29.981  24.486  1.00  0.00     0.113 C 
ATOM      3  C   UNL     1      22.751  29.986  23.787  1.00  0.00     0.145 C 
ATOM      4  C   UNL     1      22.585  29.374  22.419  1.00  0.00     0.142 C 
ATOM      5  C   UNL     1      21.313  28.523  22.512  1.00  0.00     0.178 C 
ATOM      6  O   UNL     1      20.257  29.431  22.496  1.00  0.00    -0.332 OA
ENDROOT
BRANCH   1   7
ATOM      7  O   UNL     1      20.481  31.645  23.165  1.00  0.00    -0.338 OA
BRANCH   7   8
ATOM      8  C   UNL     1      20.225  31.908  21.849  1.00  0.00     0.199 C 
BRANCH   8   9
ATOM      9  C   UNL     1      19.020  32.864  21.795  1.00  0.00     0.179 C 
ATOM     10  C   UNL     1      16.777  32.799  22.457  1.00  0.00     0.282 C 
ATOM     11  O   UNL     1      17.908  32.096  21.934  1.00  0.00    -0.341 OA
ATOM     12  C   UNL     1      17.195  33.134  23.860  1.00  0.00     0.202 C 
ATOM     13  C   UNL     1      18.292  34.191  23.831  1.00  0.00     0.179 C 
ATOM     14  C   UNL     1      19.182  34.053  22.651  1.00  0.00     0.177 C 
BRANCH  10  15
ATOM     15  O   UNL     1      15.732  31.943  22.433  1.00  0.00    -0.341 OA
BRANCH  15  16
ATOM     16  C   UNL     1      15.591  31.200  21.231  1.00  0.00     0.184 C 
ATOM     17  C   UNL     1      14.348  31.611  20.586  1.00  0.00     0.178 C 
ATOM     18  O   UNL     1      13.584  30.621  20.004  1.00  0.00    -0.341 OA
ATOM     19  C   UNL     1      14.238  29.485  19.617  1.00  0.00     0.281 C 
ATOM     20  C   UNL     1      15.720  29.727  21.541  1.00  0.00     0.180 C 
ATOM     21  C   UNL     1      14.770  28.822  20.859  1.00  0.00     0.202 C 
BRANCH  17  22
ATOM     22  C   UNL     1      14.520  32.688  19.533  1.00  0.00     0.191 C 
BRANCH  22  23
ATOM     23  O   UNL     1      15.729  32.533  18.869  1.00  0.00    -0.394 OA
ATOM     24  H   UNL     1      15.766  33.067  18.036  1.00  0.00     0.210 HD
ENDBRANCH  22  23
ENDBRANCH  17  22
BRANCH  19  25
ATOM     25  O   UNL     1      15.195  29.640  18.643  1.00  0.00    -0.350 OA
BRANCH  25  26
ATOM     26  C   UNL     1      15.811  28.423  18.377  1.00  0.00     0.169 C 
BRANCH  26  27
ATOM     27  C   UNL     1      17.167  28.714  17.742  1.00  0.00     0.119 C 
BRANCH  27  28
ATOM     28  N   UNL     1      17.677  29.932  18.309  1.00  0.00    -0.092 NA
ATOM     29  N   UNL     1      18.533  30.631  17.722  1.00  0.00     0.001 N 
ATOM     30  N   UNL     1      19.698  31.017  17.529  1.00  0.00    -0.003 NA
ENDBRANCH  27  28
ENDBRANCH  26  27
ENDBRANCH  25  26
ENDBRANCH  19  25
BRANCH  20  31
ATOM     31  O   UNL     1      17.013  29.269  21.274  1.00  0.00    -0.387 OA
ATOM     32  H   UNL     1      17.029  28.849  20.383  1.00  0.00     0.211 HD
ENDBRANCH  20  31
BRANCH  21  33
ATOM     33  O   UNL     1      13.712  28.398  21.654  1.00  0.00    -0.385 OA
ATOM     34  H   UNL     1      13.665  27.400  21.500  1.00  0.00     0.211 HD
ENDBRANCH  21  33
ENDBRANCH  15  16
ENDBRANCH  10  15
BRANCH  12  35
ATOM     35  O   UNL     1      16.180  33.437  24.719  1.00  0.00    -0.385 OA
ATOM     36  H   UNL     1      15.629  34.203  24.469  1.00  0.00     0.211 HD
ENDBRANCH  12  35
BRANCH  13  37
ATOM     37  O   UNL     1      18.939  34.283  25.052  1.00  0.00    -0.387 OA
ATOM     38  H   UNL     1      18.834  33.510  25.643  1.00  0.00     0.211 HD
ENDBRANCH  13  37
BRANCH  14  39
ATOM     39  O   UNL     1      20.514  34.048  23.134  1.00  0.00    -0.387 OA
ATOM     40  H   UNL     1      20.912  34.903  22.799  1.00  0.00     0.211 HD
ENDBRANCH  14  39
ENDBRANCH   8   9
ENDBRANCH   7   8
ENDBRANCH   1   7
BRANCH   1  41
ATOM     41  C   UNL     1      19.052  30.207  24.418  1.00  0.00     0.364 C 
ATOM     42  O   UNL     1      18.030  29.594  24.024  1.00  0.00    -0.246 OA
BRANCH  41  43
ATOM     43  O   UNL     1      19.019  30.767  25.680  1.00  0.00    -0.477 OA
ATOM     44  H   UNL     1      18.131  30.811  26.157  1.00  0.00     0.296 HD
ENDBRANCH  41  43
ENDBRANCH   1  41
BRANCH   3  45
ATOM     45  O   UNL     1      23.235  31.292  23.752  1.00  0.00    -0.391 OA
ATOM     46  H   UNL     1      24.217  31.275  23.828  1.00  0.00     0.211 HD
ENDBRANCH   3  45
BRANCH   5  47
ATOM     47  C   UNL     1      21.192  27.606  21.325  1.00  0.00     0.176 C 
BRANCH  47  48
ATOM     48  O   UNL     1      20.522  26.428  21.585  1.00  0.00    -0.388 OA
ATOM     49  H   UNL     1      19.822  26.526  22.278  1.00  0.00     0.211 HD
ENDBRANCH  47  48
BRANCH  47  50
ATOM     50  C   UNL     1      20.531  28.325  20.171  1.00  0.00     0.165 C 
BRANCH  50  51
ATOM     51  O   UNL     1      19.155  28.017  20.129  1.00  0.00    -0.388 OA
ATOM     52  H   UNL     1      18.850  27.685  21.021  1.00  0.00     0.211 HD
ENDBRANCH  50  51
BRANCH  50  53
ATOM     53  C   UNL     1      21.171  27.981  18.850  1.00  0.00     0.154 C 
BRANCH  53  54
ATOM     54  N   UNL     1      22.454  27.340  19.023  1.00  0.00    -0.319 N 
ATOM     55  C   UNL     1      23.175  26.892  17.886  1.00  0.00     0.407 C 
ATOM     56  H   UNL     1      22.879  27.188  19.958  1.00  0.00     0.167 HD
ATOM     57  O   UNL     1      22.669  27.067  16.739  1.00  0.00    -0.225 OA
BRANCH  55  58
ATOM     58  O   UNL     1      24.411  26.271  17.943  1.00  0.00    -0.443 OA
BRANCH  58  59
ATOM     59  C   UNL     1      24.562  24.913  18.283  1.00  0.00     0.294 C 
BRANCH  59  60
ATOM     60  C   UNL     1      23.781  24.633  19.517  1.00  0.00     0.121 A 
ATOM     61  C   UNL     1      24.178  24.932  20.826  1.00  0.00     0.144 A 
ATOM     62  N   UNL     1      22.577  24.054  19.662  1.00  0.00    -0.131 NA
ATOM     63  N   UNL     1      23.212  24.527  21.686  1.00  0.00    -0.220 N 
ATOM     64  N   UNL     1      22.265  24.006  20.966  1.00  0.00    -0.062 NA
BRANCH  63  65
ATOM     65  C   UNL     1      23.233  24.648  23.114  1.00  0.00     0.066 A 
ATOM     66  C   UNL     1      24.416  24.809  23.798  1.00  0.00     0.030 A 
ATOM     67  C   UNL     1      22.068  24.608  23.846  1.00  0.00     0.030 A 
ATOM     68  C   UNL     1      24.432  24.928  25.186  1.00  0.00     0.024 A 
ATOM     69  C   UNL     1      22.073  24.727  25.234  1.00  0.00     0.024 A 
ATOM     70  C   UNL     1      23.262  24.888  25.917  1.00  0.00     0.082 A 
BRANCH  70  71
ATOM     71  S   UNL     1      23.317  25.043  27.673  1.00  0.00     0.238 S 
ATOM     72  O   UNL     1      22.507  26.229  28.136  1.00  0.00    -0.207 OA
ATOM     73  O   UNL     1      22.733  23.826  28.323  1.00  0.00    -0.207 OA
BRANCH  71  74
ATOM     74  N   UNL     1      24.952  25.228  28.227  1.00  0.00    -0.225 NA
ATOM     75  H   UNL     1      24.910  25.671  29.188  1.00  0.00     0.137 HD
ATOM     76  H   UNL     1      25.526  25.817  27.578  1.00  0.00     0.137 HD
ENDBRANCH  71  74
ENDBRANCH  70  71
ENDBRANCH  63  65
ENDBRANCH  59  60
ENDBRANCH  58  59
ENDBRANCH  55  58
ENDBRANCH  53  54
ENDBRANCH  50  53
ENDBRANCH  47  50
ENDBRANCH   5  47
BRANCH   4  77
ATOM     77  N   UNL     1      23.703  28.580  21.983  1.00  0.00    -0.348 N 
ATOM     78  C   UNL     1      24.795  29.188  21.329  1.00  0.00     0.217 C 
ATOM     79  H   UNL     1      23.724  27.556  22.143  1.00  0.00     0.163 HD
ATOM     80  C   UNL     1      25.928  28.335  20.893  1.00  0.00     0.114 C 
ATOM     81  O   UNL     1      24.851  30.418  21.099  1.00  0.00    -0.275 OA
ENDBRANCH   4  77
TORSDOF 32
