REMARK VINA RESULT:    -5.855      3.839      5.927
REMARK INTER + INTRA:         -22.324
REMARK INTER:                 -15.439
REMARK INTRA:                  -6.885
REMARK UNBOUND:                -6.885
REMARK SMILES CCOC(=O)c1cccc(-n2cc(COC(=O)NC[C@@H](O)C(O)[C@@H]3O[C@@](OC[C@H]4O[C@@H](O[C@H]5[C@H](O)[C@@H](O)[C@H](OCCN=[N+]=[N-])O[C@@H]5CO)[C@H](O)[C@@H](O)[C@H]4O)(C(=O)O)C[C@H](O)[C@H]3NC(C)=O)nn2)c1
REMARK SMILES IDX 22 1 24 2 26 3 58 4 25 5 59 6 61 7 27 8 28 9 29 10 31 11
REMARK SMILES IDX 30 12 49 13 51 14 53 15 32 16 33 17 46 18 45 19 38 20 34 21
REMARK SMILES IDX 36 22 47 23 48 24 39 26 40 27 41 28 42 29 43 30 44 31 35 32
REMARK SMILES IDX 37 34 50 36 52 38 54 40 55 42 56 43 57 44 60 46 62 48 63 49
REMARK SMILES IDX 64 51 65 52 23 53 20 55 21 56 19 58 18 59 16 60 17 62 15 63
REMARK SMILES IDX 14 64 13 65 12 66 66 67 11 68 67 69 10 70 68 71 9 72 6 73
REMARK SMILES IDX 8 74 7 75 4 76 5 77 3 78 2 79 1 80
REMARK H PARENT 48 25 35 33 37 35 50 37 52 39 54 41 57 45 60 47 62 50 23 54
REMARK H PARENT 21 57 18 61
REMARK Flexibility Score: inf
ROOT
ATOM      1  C   UNL     1       3.265  20.278  30.956  1.00  0.00     0.176 C 
ENDROOT
BRANCH   1   2
ATOM      2  C   UNL     1       2.889  21.186  32.050  1.00  0.00     0.178 C 
ATOM      3  C   UNL     1       2.566  23.519  32.261  1.00  0.00     0.272 C 
ATOM      4  C   UNL     1       2.238  23.044  33.640  1.00  0.00     0.113 C 
ATOM      5  O   UNL     1       3.389  22.454  31.743  1.00  0.00    -0.332 OA
ATOM      6  C   UNL     1       3.316  22.161  34.248  1.00  0.00     0.145 C 
ATOM      7  C   UNL     1       3.338  20.831  33.423  1.00  0.00     0.142 C 
BRANCH   3   8
ATOM      8  O   UNL     1       3.383  24.604  32.311  1.00  0.00    -0.338 OA
BRANCH   8   9
ATOM      9  C   UNL     1       3.176  25.717  32.971  1.00  0.00     0.199 C 
BRANCH   9  10
ATOM     10  C   UNL     1       4.087  26.394  33.903  1.00  0.00     0.179 C 
ATOM     11  C   UNL     1       5.423  26.090  35.799  1.00  0.00     0.282 C 
ATOM     12  O   UNL     1       4.277  25.721  35.057  1.00  0.00    -0.341 OA
ATOM     13  C   UNL     1       5.961  27.413  35.350  1.00  0.00     0.202 C 
ATOM     14  C   UNL     1       6.265  27.469  33.888  1.00  0.00     0.179 C 
ATOM     15  C   UNL     1       5.465  26.437  33.169  1.00  0.00     0.177 C 
BRANCH  11  16
ATOM     16  O   UNL     1       6.269  25.024  35.703  1.00  0.00    -0.341 OA
BRANCH  16  17
ATOM     17  C   UNL     1       7.272  24.886  36.599  1.00  0.00     0.184 C 
ATOM     18  C   UNL     1       8.410  24.155  35.936  1.00  0.00     0.178 C 
ATOM     19  O   UNL     1       9.502  24.025  36.795  1.00  0.00    -0.341 OA
ATOM     20  C   UNL     1       9.128  23.120  37.827  1.00  0.00     0.281 C 
ATOM     21  C   UNL     1       6.863  24.043  37.819  1.00  0.00     0.180 C 
ATOM     22  C   UNL     1       8.125  23.867  38.661  1.00  0.00     0.202 C 
BRANCH  18  23
ATOM     23  C   UNL     1       8.867  24.873  34.698  1.00  0.00     0.191 C 
BRANCH  23  24
ATOM     24  O   UNL     1       8.833  23.996  33.583  1.00  0.00    -0.394 OA
ATOM     25  H   UNL     1       8.426  24.451  32.802  1.00  0.00     0.210 HD
ENDBRANCH  23  24
ENDBRANCH  18  23
BRANCH  20  26
ATOM     26  O   UNL     1      10.261  22.754  38.493  1.00  0.00    -0.350 OA
BRANCH  26  27
ATOM     27  C   UNL     1      11.007  23.846  38.912  1.00  0.00     0.169 C 
BRANCH  27  28
ATOM     28  C   UNL     1      11.689  23.639  40.231  1.00  0.00     0.119 C 
BRANCH  28  29
ATOM     29  N   UNL     1      11.165  22.417  40.853  1.00  0.00    -0.092 NA
ATOM     30  N   UNL     1      10.358  22.549  41.783  1.00  0.00     0.001 N 
ATOM     31  N   UNL     1       9.372  22.515  42.546  1.00  0.00    -0.003 NA
ENDBRANCH  28  29
ENDBRANCH  27  28
ENDBRANCH  26  27
ENDBRANCH  20  26
BRANCH  21  32
ATOM     32  O   UNL     1       5.976  24.735  38.631  1.00  0.00    -0.387 OA
ATOM     33  H   UNL     1       5.959  25.670  38.317  1.00  0.00     0.211 HD
ENDBRANCH  21  32
BRANCH  22  34
ATOM     34  O   UNL     1       7.838  23.210  39.853  1.00  0.00    -0.385 OA
ATOM     35  H   UNL     1       7.038  22.606  39.787  1.00  0.00     0.211 HD
ENDBRANCH  22  34
ENDBRANCH  16  17
ENDBRANCH  11  16
BRANCH  13  36
ATOM     36  O   UNL     1       5.074  28.430  35.754  1.00  0.00    -0.385 OA
ATOM     37  H   UNL     1       4.158  28.094  35.886  1.00  0.00     0.211 HD
ENDBRANCH  13  36
BRANCH  14  38
ATOM     38  O   UNL     1       7.611  27.487  33.601  1.00  0.00    -0.387 OA
ATOM     39  H   UNL     1       7.722  27.077  32.701  1.00  0.00     0.211 HD
ENDBRANCH  14  38
BRANCH  15  40
ATOM     40  O   UNL     1       6.065  25.218  33.139  1.00  0.00    -0.387 OA
ATOM     41  H   UNL     1       5.928  24.801  32.252  1.00  0.00     0.211 HD
ENDBRANCH  15  40
ENDBRANCH   9  10
ENDBRANCH   8   9
ENDBRANCH   3   8
BRANCH   3  42
ATOM     42  C   UNL     1       1.442  23.665  31.348  1.00  0.00     0.364 C 
ATOM     43  O   UNL     1       1.585  23.965  30.153  1.00  0.00    -0.246 OA
BRANCH  42  44
ATOM     44  O   UNL     1       0.135  23.468  31.797  1.00  0.00    -0.477 OA
ATOM     45  H   UNL     1      -0.290  22.569  31.895  1.00  0.00     0.296 HD
ENDBRANCH  42  44
ENDBRANCH   3  42
BRANCH   6  46
ATOM     46  O   UNL     1       4.536  22.755  34.040  1.00  0.00    -0.391 OA
ATOM     47  H   UNL     1       4.550  23.174  33.145  1.00  0.00     0.211 HD
ENDBRANCH   6  46
BRANCH   7  48
ATOM     48  N   UNL     1       2.440  19.929  34.106  1.00  0.00    -0.348 N 
ATOM     49  C   UNL     1       2.857  19.000  35.114  1.00  0.00     0.217 C 
ATOM     50  H   UNL     1       1.397  19.907  33.895  1.00  0.00     0.163 HD
ATOM     51  C   UNL     1       1.904  18.085  35.796  1.00  0.00     0.114 C 
ATOM     52  O   UNL     1       4.060  18.943  35.442  1.00  0.00    -0.275 OA
ENDBRANCH   7  48
ENDBRANCH   1   2
BRANCH   1  53
ATOM     53  O   UNL     1       3.228  18.937  31.231  1.00  0.00    -0.388 OA
ATOM     54  H   UNL     1       3.167  18.382  30.419  1.00  0.00     0.211 HD
ENDBRANCH   1  53
BRANCH   1  55
ATOM     55  C   UNL     1       2.692  20.575  29.594  1.00  0.00     0.165 C 
BRANCH  55  56
ATOM     56  O   UNL     1       3.234  21.757  29.079  1.00  0.00    -0.388 OA
ATOM     57  H   UNL     1       4.022  21.553  28.511  1.00  0.00     0.211 HD
ENDBRANCH  55  56
BRANCH  55  58
ATOM     58  C   UNL     1       1.200  20.472  29.503  1.00  0.00     0.154 C 
BRANCH  58  59
ATOM     59  N   UNL     1       0.618  21.577  28.775  1.00  0.00    -0.319 N 
ATOM     60  C   UNL     1       0.038  21.396  27.500  1.00  0.00     0.407 C 
ATOM     61  H   UNL     1       0.615  22.558  29.195  1.00  0.00     0.167 HD
ATOM     62  O   UNL     1      -0.039  20.307  26.890  1.00  0.00    -0.225 OA
BRANCH  60  63
ATOM     63  O   UNL     1      -0.504  22.497  26.808  1.00  0.00    -0.443 OA
BRANCH  63  64
ATOM     64  C   UNL     1       0.160  23.225  25.821  1.00  0.00     0.294 C 
BRANCH  64  65
ATOM     65  C   UNL     1       1.554  23.583  26.113  1.00  0.00     0.121 A 
ATOM     66  C   UNL     1       2.087  24.867  26.119  1.00  0.00     0.144 A 
ATOM     67  N   UNL     1       2.554  22.766  26.422  1.00  0.00    -0.131 NA
ATOM     68  N   UNL     1       3.379  24.766  26.427  1.00  0.00    -0.220 N 
ATOM     69  N   UNL     1       3.654  23.494  26.610  1.00  0.00    -0.062 NA
BRANCH  68  70
ATOM     70  C   UNL     1       4.286  25.841  26.541  1.00  0.00     0.067 A 
ATOM     71  C   UNL     1       5.325  26.020  25.631  1.00  0.00     0.044 A 
ATOM     72  C   UNL     1       4.185  26.770  27.543  1.00  0.00     0.028 A 
ATOM     73  C   UNL     1       6.221  27.053  25.693  1.00  0.00     0.062 A 
ATOM     74  C   UNL     1       5.072  27.831  27.640  1.00  0.00     0.003 A 
ATOM     75  C   UNL     1       6.087  27.976  26.723  1.00  0.00     0.016 A 
BRANCH  73  76
ATOM     76  C   UNL     1       7.280  27.177  24.714  1.00  0.00     0.338 C 
ATOM     77  O   UNL     1       8.001  26.193  24.461  1.00  0.00    -0.246 OA
BRANCH  76  78
ATOM     78  O   UNL     1       7.485  28.370  24.069  1.00  0.00    -0.462 OA
BRANCH  78  79
ATOM     79  C   UNL     1       8.408  29.348  24.488  1.00  0.00     0.230 C 
ATOM     80  C   UNL     1       7.715  30.686  24.624  1.00  0.00     0.049 C 
ENDBRANCH  78  79
ENDBRANCH  76  78
ENDBRANCH  73  76
ENDBRANCH  68  70
ENDBRANCH  64  65
ENDBRANCH  63  64
ENDBRANCH  60  63
ENDBRANCH  58  59
ENDBRANCH  55  58
ENDBRANCH   1  55
TORSDOF 33
