REMARK VINA RESULT:    -6.178      8.567     11.994
REMARK INTER + INTRA:         -21.935
REMARK INTER:                 -16.509
REMARK INTRA:                  -5.426
REMARK UNBOUND:                -6.367
REMARK SMILES CC(=O)N[C@@H]1[C@@H](O)C[C@](OC[C@H]2O[C@@H](O[C@H]3[C@H](O)[C@@H](O)[C@H](OCCN=[N+]=[N-])O[C@@H]3CO)[C@H](O)[C@@H](O)[C@H]2O)(C(=O)O)O[C@H]1C(O)[C@H](O)CNC(=O)OCc1cn(-c2ncn3c2c(=O)n(C(C)C)c2ccccc23)nn1
REMARK SMILES IDX 9 1 8 2 6 3 5 4 42 5 41 6 10 7 11 8 12 9 14 10 13 11 32 12
REMARK SMILES IDX 34 13 36 14 15 15 16 16 29 17 28 18 21 19 17 20 19 21 30 22
REMARK SMILES IDX 31 23 22 25 23 26 24 27 25 28 26 29 27 30 18 31 20 33 33 35
REMARK SMILES IDX 35 37 37 39 38 41 39 42 40 43 7 45 43 47 44 48 45 50 46 51
REMARK SMILES IDX 47 53 48 54 49 55 50 57 51 58 52 59 53 60 54 61 74 62 55 63
REMARK SMILES IDX 73 64 56 65 57 66 60 67 58 68 59 69 61 70 72 71 63 72 62 73
REMARK SMILES IDX 71 74 67 75 70 76 68 77 69 78 64 79 65 80 66 81 4 82 2 83
REMARK SMILES IDX 1 85 3 86
REMARK H PARENT 31 24 18 32 20 34 33 36 35 38 37 40 40 44 7 46 44 49 46 52
REMARK H PARENT 48 56 4 84
REMARK Flexibility Score: inf
ROOT
ATOM      1  C   UNL     1      13.585  31.398  15.946  1.00  0.00     0.272 C 
ATOM      2  C   UNL     1      12.913  30.094  16.278  1.00  0.00     0.113 C 
ATOM      3  C   UNL     1      12.065  29.590  15.187  1.00  0.00     0.145 C 
ATOM      4  C   UNL     1      12.681  29.675  13.820  1.00  0.00     0.142 C 
ATOM      5  C   UNL     1      13.665  30.779  13.672  1.00  0.00     0.178 C 
ATOM      6  O   UNL     1      14.337  31.178  14.749  1.00  0.00    -0.332 OA
ENDROOT
BRANCH   1   7
ATOM      7  O   UNL     1      14.584  31.556  16.866  1.00  0.00    -0.338 OA
BRANCH   7   8
ATOM      8  C   UNL     1      15.869  31.506  16.657  1.00  0.00     0.199 C 
BRANCH   8   9
ATOM      9  C   UNL     1      16.882  30.838  17.521  1.00  0.00     0.179 C 
ATOM     10  C   UNL     1      17.140  30.381  19.791  1.00  0.00     0.282 C 
ATOM     11  O   UNL     1      16.334  30.954  18.841  1.00  0.00    -0.341 OA
ATOM     12  C   UNL     1      17.281  28.882  19.601  1.00  0.00     0.202 C 
ATOM     13  C   UNL     1      17.708  28.559  18.180  1.00  0.00     0.179 C 
ATOM     14  C   UNL     1      16.835  29.336  17.234  1.00  0.00     0.177 C 
BRANCH  10  15
ATOM     15  O   UNL     1      16.533  30.598  21.023  1.00  0.00    -0.341 OA
BRANCH  15  16
ATOM     16  C   UNL     1      15.232  30.167  21.017  1.00  0.00     0.184 C 
ATOM     17  C   UNL     1      14.301  31.311  21.193  1.00  0.00     0.178 C 
ATOM     18  O   UNL     1      13.826  31.518  22.462  1.00  0.00    -0.341 OA
ATOM     19  C   UNL     1      14.616  31.066  23.486  1.00  0.00     0.281 C 
ATOM     20  C   UNL     1      14.977  29.051  22.010  1.00  0.00     0.180 C 
ATOM     21  C   UNL     1      14.924  29.591  23.391  1.00  0.00     0.202 C 
BRANCH  17  22
ATOM     22  C   UNL     1      13.140  31.206  20.227  1.00  0.00     0.191 C 
BRANCH  22  23
ATOM     23  O   UNL     1      13.531  30.234  19.275  1.00  0.00    -0.394 OA
ATOM     24  H   UNL     1      14.407  30.524  18.934  1.00  0.00     0.210 HD
ENDBRANCH  22  23
ENDBRANCH  17  22
BRANCH  19  25
ATOM     25  O   UNL     1      13.885  31.225  24.676  1.00  0.00    -0.350 OA
BRANCH  25  26
ATOM     26  C   UNL     1      12.686  31.864  24.516  1.00  0.00     0.169 C 
BRANCH  26  27
ATOM     27  C   UNL     1      11.473  31.095  24.932  1.00  0.00     0.119 C 
BRANCH  27  28
ATOM     28  N   UNL     1      11.671  29.726  24.427  1.00  0.00    -0.092 NA
ATOM     29  N   UNL     1      10.872  28.828  24.585  1.00  0.00     0.001 N 
ATOM     30  N   UNL     1      10.277  27.802  24.926  1.00  0.00    -0.003 NA
ENDBRANCH  27  28
ENDBRANCH  26  27
ENDBRANCH  25  26
ENDBRANCH  19  25
BRANCH  20  31
ATOM     31  O   UNL     1      13.816  28.368  21.629  1.00  0.00    -0.387 OA
ATOM     32  H   UNL     1      14.010  28.028  20.706  1.00  0.00     0.211 HD
ENDBRANCH  20  31
BRANCH  21  33
ATOM     33  O   UNL     1      16.186  29.378  23.974  1.00  0.00    -0.385 OA
ATOM     34  H   UNL     1      16.824  28.974  23.329  1.00  0.00     0.211 HD
ENDBRANCH  21  33
ENDBRANCH  15  16
ENDBRANCH  10  15
BRANCH  12  35
ATOM     35  O   UNL     1      18.321  28.455  20.424  1.00  0.00    -0.385 OA
ATOM     36  H   UNL     1      18.081  28.491  21.380  1.00  0.00     0.211 HD
ENDBRANCH  12  35
BRANCH  13  37
ATOM     37  O   UNL     1      17.403  27.200  17.975  1.00  0.00    -0.387 OA
ATOM     38  H   UNL     1      17.366  26.723  18.849  1.00  0.00     0.211 HD
ENDBRANCH  13  37
BRANCH  14  39
ATOM     39  O   UNL     1      15.508  28.898  17.483  1.00  0.00    -0.387 OA
ATOM     40  H   UNL     1      15.424  28.581  18.414  1.00  0.00     0.211 HD
ENDBRANCH  14  39
ENDBRANCH   8   9
ENDBRANCH   7   8
ENDBRANCH   1   7
BRANCH   1  41
ATOM     41  C   UNL     1      12.678  32.508  15.688  1.00  0.00     0.364 C 
ATOM     42  O   UNL     1      11.478  32.511  15.961  1.00  0.00    -0.246 OA
BRANCH  41  43
ATOM     43  O   UNL     1      13.154  33.687  15.084  1.00  0.00    -0.477 OA
ATOM     44  H   UNL     1      13.419  33.674  14.107  1.00  0.00     0.296 HD
ENDBRANCH  41  43
ENDBRANCH   1  41
BRANCH   3  45
ATOM     45  O   UNL     1      11.783  28.230  15.484  1.00  0.00    -0.391 OA
ATOM     46  H   UNL     1      12.474  27.853  16.075  1.00  0.00     0.211 HD
ENDBRANCH   3  45
BRANCH   5  47
ATOM     47  C   UNL     1      14.646  30.527  12.542  1.00  0.00     0.176 C 
BRANCH  47  48
ATOM     48  O   UNL     1      14.773  29.172  12.327  1.00  0.00    -0.388 OA
ATOM     49  H   UNL     1      15.689  28.830  12.482  1.00  0.00     0.211 HD
ENDBRANCH  47  48
BRANCH  47  50
ATOM     50  C   UNL     1      15.980  31.161  12.725  1.00  0.00     0.165 C 
BRANCH  50  51
ATOM     51  O   UNL     1      16.173  32.369  12.111  1.00  0.00    -0.388 OA
ATOM     52  H   UNL     1      17.083  32.508  11.761  1.00  0.00     0.211 HD
ENDBRANCH  50  51
BRANCH  50  53
ATOM     53  C   UNL     1      17.131  30.244  12.444  1.00  0.00     0.154 C 
BRANCH  53  54
ATOM     54  N   UNL     1      17.710  29.742  13.695  1.00  0.00    -0.319 N 
ATOM     55  C   UNL     1      19.083  29.492  13.848  1.00  0.00     0.407 C 
ATOM     56  H   UNL     1      17.073  29.557  14.527  1.00  0.00     0.167 HD
ATOM     57  O   UNL     1      19.888  29.679  12.900  1.00  0.00    -0.225 OA
BRANCH  55  58
ATOM     58  O   UNL     1      19.536  29.028  15.092  1.00  0.00    -0.443 OA
BRANCH  58  59
ATOM     59  C   UNL     1      20.833  29.319  15.531  1.00  0.00     0.294 C 
BRANCH  59  60
ATOM     60  C   UNL     1      20.991  29.133  17.023  1.00  0.00     0.121 A 
ATOM     61  C   UNL     1      21.272  27.952  17.672  1.00  0.00     0.146 A 
ATOM     62  N   UNL     1      20.897  30.061  17.989  1.00  0.00    -0.131 NA
ATOM     63  N   UNL     1      21.345  28.181  19.016  1.00  0.00    -0.200 N 
ATOM     64  N   UNL     1      21.111  29.471  19.162  1.00  0.00    -0.060 NA
BRANCH  63  65
ATOM     65  C   UNL     1      21.624  27.199  20.013  1.00  0.00     0.186 A 
ATOM     66  N   UNL     1      21.966  25.924  19.762  1.00  0.00    -0.216 NA
ATOM     67  C   UNL     1      21.600  27.293  21.382  1.00  0.00     0.158 A 
ATOM     68  C   UNL     1      22.146  25.262  20.921  1.00  0.00     0.207 A 
ATOM     69  N   UNL     1      21.920  26.104  21.952  1.00  0.00    -0.291 N 
ATOM     70  C   UNL     1      21.310  28.369  22.182  1.00  0.00     0.279 A 
ATOM     71  C   UNL     1      21.960  25.952  23.288  1.00  0.00     0.071 A 
ATOM     72  N   UNL     1      21.342  28.246  23.533  1.00  0.00    -0.302 N 
ATOM     73  O   UNL     1      21.008  29.494  21.676  1.00  0.00    -0.267 OA
ATOM     74  C   UNL     1      22.277  24.752  23.864  1.00  0.00     0.029 A 
ATOM     75  C   UNL     1      21.664  27.048  24.068  1.00  0.00     0.068 A 
ATOM     76  C   UNL     1      22.313  24.592  25.258  1.00  0.00     0.002 A 
ATOM     77  C   UNL     1      21.701  26.886  25.440  1.00  0.00     0.028 A 
ATOM     78  C   UNL     1      22.019  25.678  26.049  1.00  0.00     0.002 A 
BRANCH  72  79
ATOM     79  C   UNL     1      21.041  29.396  24.387  1.00  0.00     0.085 C 
ATOM     80  C   UNL     1      22.116  30.434  24.393  1.00  0.00     0.031 C 
ATOM     81  C   UNL     1      19.653  29.935  24.152  1.00  0.00     0.031 C 
ENDBRANCH  72  79
ENDBRANCH  63  65
ENDBRANCH  59  60
ENDBRANCH  58  59
ENDBRANCH  55  58
ENDBRANCH  53  54
ENDBRANCH  50  53
ENDBRANCH  47  50
ENDBRANCH   5  47
BRANCH   4  82
ATOM     82  N   UNL     1      11.615  29.737  12.842  1.00  0.00    -0.348 N 
ATOM     83  C   UNL     1      11.369  28.719  11.893  1.00  0.00     0.217 C 
ATOM     84  H   UNL     1      10.980  30.571  12.819  1.00  0.00     0.163 HD
ATOM     85  C   UNL     1      10.267  28.797  10.889  1.00  0.00     0.114 C 
ATOM     86  O   UNL     1      12.127  27.705  11.907  1.00  0.00    -0.275 OA
ENDBRANCH   4  82
TORSDOF 31
