REMARK VINA RESULT:    -4.886     19.366     23.003
REMARK INTER + INTRA:         -21.161
REMARK INTER:                 -12.599
REMARK INTRA:                  -8.562
REMARK UNBOUND:                -8.562
REMARK SMILES CC(=O)N[C@@H]1[C@@H](O)C[C@](OC[C@H]2O[C@@H](O[C@H]3[C@H](O)[C@@H](O)[C@H](OCCN=[N+]=[N-])O[C@@H]3CO)[C@H](O)[C@@H](O)[C@H]2O)(C(=O)O)O[C@H]1C(O)[C@H](O)CNC(=O)OCc1cn(Cc2ccc(C#N)cc2)nn1
REMARK SMILES IDX 9 1 8 2 6 3 5 4 42 5 41 6 10 7 11 8 12 9 14 10 13 11 32 12
REMARK SMILES IDX 34 13 36 14 15 15 16 16 29 17 28 18 21 19 17 20 19 21 30 22
REMARK SMILES IDX 31 23 22 25 23 26 24 27 25 28 26 29 27 30 18 31 20 33 33 35
REMARK SMILES IDX 35 37 37 39 38 41 39 42 40 43 7 45 43 47 44 48 45 50 46 51
REMARK SMILES IDX 47 53 48 54 49 55 50 57 51 58 52 59 53 60 54 61 66 62 55 63
REMARK SMILES IDX 65 64 56 65 57 66 58 67 64 68 59 69 63 70 60 71 61 72 62 73
REMARK SMILES IDX 4 74 2 75 1 77 3 78
REMARK H PARENT 31 24 18 32 20 34 33 36 35 38 37 40 40 44 7 46 44 49 46 52
REMARK H PARENT 48 56 4 76
REMARK Flexibility Score: inf
ROOT
ATOM      1  C   UNL     1       2.235  21.777  31.411  1.00  0.00     0.272 C 
ATOM      2  C   UNL     1       1.319  21.986  32.566  1.00  0.00     0.113 C 
ATOM      3  C   UNL     1       1.318  23.359  33.138  1.00  0.00     0.145 C 
ATOM      4  C   UNL     1       2.721  23.955  32.932  1.00  0.00     0.142 C 
ATOM      5  C   UNL     1       3.666  22.792  32.890  1.00  0.00     0.178 C 
ATOM      6  O   UNL     1       3.560  22.143  31.693  1.00  0.00    -0.332 OA
ENDROOT
BRANCH   1   7
ATOM      7  O   UNL     1       1.835  22.327  30.212  1.00  0.00    -0.338 OA
BRANCH   7   8
ATOM      8  C   UNL     1       0.544  22.098  29.875  1.00  0.00     0.199 C 
BRANCH   8   9
ATOM      9  C   UNL     1       0.193  22.681  28.495  1.00  0.00     0.179 C 
ATOM     10  C   UNL     1       0.790  24.446  27.133  1.00  0.00     0.282 C 
ATOM     11  O   UNL     1       0.861  23.904  28.416  1.00  0.00    -0.341 OA
ATOM     12  C   UNL     1       1.436  23.587  26.096  1.00  0.00     0.202 C 
ATOM     13  C   UNL     1       1.933  22.313  26.738  1.00  0.00     0.179 C 
ATOM     14  C   UNL     1       0.733  21.724  27.466  1.00  0.00     0.177 C 
BRANCH  10  15
ATOM     15  O   UNL     1       1.467  25.663  27.173  1.00  0.00    -0.341 OA
BRANCH  15  16
ATOM     16  C   UNL     1       1.928  25.996  28.445  1.00  0.00     0.184 C 
ATOM     17  C   UNL     1       1.573  27.407  28.752  1.00  0.00     0.178 C 
ATOM     18  O   UNL     1       2.543  28.340  28.527  1.00  0.00    -0.341 OA
ATOM     19  C   UNL     1       3.657  27.919  27.847  1.00  0.00     0.281 C 
ATOM     20  C   UNL     1       3.363  25.634  28.651  1.00  0.00     0.180 C 
ATOM     21  C   UNL     1       4.312  26.803  28.630  1.00  0.00     0.202 C 
BRANCH  17  22
ATOM     22  C   UNL     1       1.014  27.486  30.171  1.00  0.00     0.191 C 
BRANCH  22  23
ATOM     23  O   UNL     1       0.916  26.183  30.659  1.00  0.00    -0.394 OA
ATOM     24  H   UNL     1       1.826  25.784  30.808  1.00  0.00     0.210 HD
ENDBRANCH  22  23
ENDBRANCH  17  22
BRANCH  19  25
ATOM     25  O   UNL     1       4.549  29.011  27.835  1.00  0.00    -0.350 OA
BRANCH  25  26
ATOM     26  C   UNL     1       4.625  29.571  26.568  1.00  0.00     0.169 C 
BRANCH  26  27
ATOM     27  C   UNL     1       4.331  28.536  25.500  1.00  0.00     0.119 C 
BRANCH  27  28
ATOM     28  N   UNL     1       5.461  27.659  25.261  1.00  0.00    -0.092 NA
ATOM     29  N   UNL     1       6.434  28.066  24.647  1.00  0.00     0.001 N 
ATOM     30  N   UNL     1       7.615  28.385  24.438  1.00  0.00    -0.003 NA
ENDBRANCH  27  28
ENDBRANCH  26  27
ENDBRANCH  25  26
ENDBRANCH  19  25
BRANCH  20  31
ATOM     31  O   UNL     1       3.570  24.847  29.790  1.00  0.00    -0.387 OA
ATOM     32  H   UNL     1       4.532  24.574  29.848  1.00  0.00     0.211 HD
ENDBRANCH  20  31
BRANCH  21  33
ATOM     33  O   UNL     1       5.546  26.462  28.072  1.00  0.00    -0.385 OA
ATOM     34  H   UNL     1       6.090  27.293  28.056  1.00  0.00     0.211 HD
ENDBRANCH  21  33
ENDBRANCH  15  16
ENDBRANCH  10  15
BRANCH  12  35
ATOM     35  O   UNL     1       0.623  23.254  25.036  1.00  0.00    -0.385 OA
ATOM     36  H   UNL     1       0.213  22.357  25.195  1.00  0.00     0.211 HD
ENDBRANCH  12  35
BRANCH  13  37
ATOM     37  O   UNL     1       2.968  22.637  27.600  1.00  0.00    -0.387 OA
ATOM     38  H   UNL     1       3.300  21.890  28.144  1.00  0.00     0.211 HD
ENDBRANCH  13  37
BRANCH  14  39
ATOM     39  O   UNL     1       0.962  20.465  27.965  1.00  0.00    -0.387 OA
ATOM     40  H   UNL     1       1.326  20.526  28.874  1.00  0.00     0.211 HD
ENDBRANCH  14  39
ENDBRANCH   8   9
ENDBRANCH   7   8
ENDBRANCH   1   7
BRANCH   1  41
ATOM     41  C   UNL     1       2.333  20.291  31.217  1.00  0.00     0.364 C 
ATOM     42  O   UNL     1       1.739  19.524  31.981  1.00  0.00    -0.246 OA
BRANCH  41  43
ATOM     43  O   UNL     1       3.091  19.811  30.175  1.00  0.00    -0.477 OA
ATOM     44  H   UNL     1       3.131  20.240  29.260  1.00  0.00     0.296 HD
ENDBRANCH  41  43
ENDBRANCH   1  41
BRANCH   3  45
ATOM     45  O   UNL     1       0.321  24.194  32.723  1.00  0.00    -0.391 OA
ATOM     46  H   UNL     1      -0.006  24.754  33.456  1.00  0.00     0.211 HD
ENDBRANCH   3  45
BRANCH   5  47
ATOM     47  C   UNL     1       5.119  23.187  33.186  1.00  0.00     0.176 C 
BRANCH  47  48
ATOM     48  O   UNL     1       5.189  23.247  34.597  1.00  0.00    -0.388 OA
ATOM     49  H   UNL     1       4.956  24.168  34.874  1.00  0.00     0.211 HD
ENDBRANCH  47  48
BRANCH  47  50
ATOM     50  C   UNL     1       6.068  22.185  32.700  1.00  0.00     0.165 C 
BRANCH  50  51
ATOM     51  O   UNL     1       5.737  20.885  33.189  1.00  0.00    -0.388 OA
ATOM     52  H   UNL     1       6.632  20.489  33.431  1.00  0.00     0.211 HD
ENDBRANCH  50  51
BRANCH  50  53
ATOM     53  C   UNL     1       7.507  22.438  32.922  1.00  0.00     0.154 C 
BRANCH  53  54
ATOM     54  N   UNL     1       8.067  22.549  34.196  1.00  0.00    -0.319 N 
ATOM     55  C   UNL     1       8.269  23.684  35.003  1.00  0.00     0.407 C 
ATOM     56  H   UNL     1       8.406  21.634  34.657  1.00  0.00     0.167 HD
ATOM     57  O   UNL     1       7.927  24.828  34.671  1.00  0.00    -0.225 OA
BRANCH  55  58
ATOM     58  O   UNL     1       8.882  23.575  36.261  1.00  0.00    -0.443 OA
BRANCH  58  59
ATOM     59  C   UNL     1       8.517  24.461  37.307  1.00  0.00     0.294 C 
BRANCH  59  60
ATOM     60  C   UNL     1       7.454  23.792  38.137  1.00  0.00     0.120 A 
ATOM     61  C   UNL     1       6.101  24.007  37.978  1.00  0.00     0.138 A 
ATOM     62  N   UNL     1       7.582  22.913  39.147  1.00  0.00    -0.132 NA
ATOM     63  N   UNL     1       5.448  23.251  38.899  1.00  0.00    -0.248 N 
ATOM     64  N   UNL     1       6.367  22.627  39.560  1.00  0.00    -0.067 NA
BRANCH  63  65
ATOM     65  C   UNL     1       3.999  23.252  39.024  1.00  0.00     0.181 C 
BRANCH  65  66
ATOM     66  C   UNL     1       3.541  22.083  38.188  1.00  0.00    -0.026 A 
ATOM     67  C   UNL     1       2.980  22.340  36.962  1.00  0.00     0.007 A 
ATOM     68  C   UNL     1       3.692  20.780  38.668  1.00  0.00     0.007 A 
ATOM     69  C   UNL     1       2.530  21.338  36.133  1.00  0.00     0.020 A 
ATOM     70  C   UNL     1       3.244  19.781  37.841  1.00  0.00     0.020 A 
ATOM     71  C   UNL     1       2.689  20.040  36.630  1.00  0.00     0.052 A 
BRANCH  71  72
ATOM     72  C   UNL     1       2.202  18.961  35.780  1.00  0.00     0.099 C 
ATOM     73  N   UNL     1       1.815  18.086  35.116  1.00  0.00    -0.192 NA
ENDBRANCH  71  72
ENDBRANCH  65  66
ENDBRANCH  63  65
ENDBRANCH  59  60
ENDBRANCH  58  59
ENDBRANCH  55  58
ENDBRANCH  53  54
ENDBRANCH  50  53
ENDBRANCH  47  50
ENDBRANCH   5  47
BRANCH   4  74
ATOM     74  N   UNL     1       3.002  24.925  33.960  1.00  0.00    -0.348 N 
ATOM     75  C   UNL     1       3.376  26.239  33.573  1.00  0.00     0.217 C 
ATOM     76  H   UNL     1       2.939  24.705  34.966  1.00  0.00     0.163 HD
ATOM     77  C   UNL     1       3.677  27.285  34.566  1.00  0.00     0.114 C 
ATOM     78  O   UNL     1       3.464  26.558  32.340  1.00  0.00    -0.275 OA
ENDBRANCH   4  74
TORSDOF 32
