REMARK VINA RESULT:    -6.590      7.162     14.641
REMARK INTER + INTRA:         -22.336
REMARK INTER:                 -15.550
REMARK INTRA:                  -6.787
REMARK UNBOUND:                -5.152
REMARK SMILES CC(=O)N[C@@H]1[C@@H](O)C[C@](OC[C@H]2O[C@@H](O[C@H]3[C@H](O)[C@@H](O)[C@H](OCCN=[N+]=[N-])O[C@@H]3CO)[C@H](O)[C@@H](O)[C@H]2O)(C(=O)O)O[C@H]1C(O)[C@H](O)CNC(=O)OCc1cn(CC(O)c2ccccc2)nn1
REMARK SMILES IDX 9 1 8 2 6 3 5 4 42 5 41 6 10 7 11 8 12 9 14 10 13 11 32 12
REMARK SMILES IDX 34 13 36 14 15 15 16 16 29 17 28 18 21 19 17 20 19 21 30 22
REMARK SMILES IDX 31 23 22 25 23 26 24 27 25 28 26 29 27 30 18 31 20 33 33 35
REMARK SMILES IDX 35 37 37 39 38 41 39 42 40 43 7 45 43 47 44 48 45 50 46 51
REMARK SMILES IDX 47 53 48 54 49 55 50 57 51 58 52 59 53 60 54 61 66 62 55 63
REMARK SMILES IDX 65 64 56 65 57 66 58 67 59 69 60 70 64 71 61 72 63 73 62 74
REMARK SMILES IDX 4 75 2 76 1 78 3 79
REMARK H PARENT 31 24 18 32 20 34 33 36 35 38 37 40 40 44 7 46 44 49 46 52
REMARK H PARENT 48 56 58 68 4 77
REMARK Flexibility Score: inf
ROOT
ATOM      1  C   UNL     1      19.634  19.181  10.681  1.00  0.00     0.272 C 
ATOM      2  C   UNL     1      18.947  18.460   9.583  1.00  0.00     0.113 C 
ATOM      3  C   UNL     1      19.594  18.498   8.244  1.00  0.00     0.145 C 
ATOM      4  C   UNL     1      20.635  19.572   8.233  1.00  0.00     0.142 C 
ATOM      5  C   UNL     1      20.085  20.752   9.013  1.00  0.00     0.178 C 
ATOM      6  O   UNL     1      19.862  20.518  10.335  1.00  0.00    -0.332 OA
ENDROOT
BRANCH   1   7
ATOM      7  O   UNL     1      20.821  18.680  11.124  1.00  0.00    -0.338 OA
BRANCH   7   8
ATOM      8  C   UNL     1      21.453  19.324  12.141  1.00  0.00     0.199 C 
BRANCH   8   9
ATOM      9  C   UNL     1      22.621  18.518  12.662  1.00  0.00     0.179 C 
ATOM     10  C   UNL     1      24.463  17.432  11.814  1.00  0.00     0.282 C 
ATOM     11  O   UNL     1      23.127  17.696  11.674  1.00  0.00    -0.341 OA
ATOM     12  C   UNL     1      25.368  18.638  11.688  1.00  0.00     0.202 C 
ATOM     13  C   UNL     1      24.633  19.833  12.255  1.00  0.00     0.179 C 
ATOM     14  C   UNL     1      23.696  19.311  13.325  1.00  0.00     0.177 C 
BRANCH  10  15
ATOM     15  O   UNL     1      24.919  16.530  10.858  1.00  0.00    -0.341 OA
BRANCH  15  16
ATOM     16  C   UNL     1      24.907  15.215  11.235  1.00  0.00     0.184 C 
ATOM     17  C   UNL     1      25.688  14.449  10.173  1.00  0.00     0.178 C 
ATOM     18  O   UNL     1      24.839  13.833   9.277  1.00  0.00    -0.341 OA
ATOM     19  C   UNL     1      23.917  14.795   8.827  1.00  0.00     0.281 C 
ATOM     20  C   UNL     1      23.448  14.781  11.272  1.00  0.00     0.180 C 
ATOM     21  C   UNL     1      22.826  14.880   9.889  1.00  0.00     0.202 C 
BRANCH  17  22
ATOM     22  C   UNL     1      26.646  13.461  10.815  1.00  0.00     0.191 C 
BRANCH  22  23
ATOM     23  O   UNL     1      27.921  14.004  10.946  1.00  0.00    -0.394 OA
ATOM     24  H   UNL     1      28.015  14.540  11.776  1.00  0.00     0.210 HD
ENDBRANCH  22  23
ENDBRANCH  17  22
BRANCH  19  25
ATOM     25  O   UNL     1      23.448  14.358   7.612  1.00  0.00    -0.350 OA
BRANCH  25  26
ATOM     26  C   UNL     1      23.282  15.332   6.657  1.00  0.00     0.169 C 
BRANCH  26  27
ATOM     27  C   UNL     1      22.344  14.955   5.543  1.00  0.00     0.119 C 
BRANCH  27  28
ATOM     28  N   UNL     1      21.083  15.690   5.685  1.00  0.00    -0.092 NA
ATOM     29  N   UNL     1      20.085  15.090   5.253  1.00  0.00     0.001 N 
ATOM     30  N   UNL     1      18.959  14.637   5.049  1.00  0.00    -0.003 NA
ENDBRANCH  27  28
ENDBRANCH  26  27
ENDBRANCH  25  26
ENDBRANCH  19  25
BRANCH  20  31
ATOM     31  O   UNL     1      23.345  13.484  11.757  1.00  0.00    -0.387 OA
ATOM     32  H   UNL     1      24.258  13.106  11.901  1.00  0.00     0.211 HD
ENDBRANCH  20  31
BRANCH  21  33
ATOM     33  O   UNL     1      22.058  16.024   9.770  1.00  0.00    -0.385 OA
ATOM     34  H   UNL     1      22.101  16.508  10.631  1.00  0.00     0.211 HD
ENDBRANCH  21  33
ENDBRANCH  15  16
ENDBRANCH  10  15
BRANCH  12  35
ATOM     35  O   UNL     1      26.523  18.408  12.443  1.00  0.00    -0.385 OA
ATOM     36  H   UNL     1      26.288  17.739  13.143  1.00  0.00     0.211 HD
ENDBRANCH  12  35
BRANCH  13  37
ATOM     37  O   UNL     1      23.923  20.391  11.195  1.00  0.00    -0.387 OA
ATOM     38  H   UNL     1      24.066  19.947  10.341  1.00  0.00     0.211 HD
ENDBRANCH  13  37
BRANCH  14  39
ATOM     39  O   UNL     1      23.233  20.278  14.185  1.00  0.00    -0.387 OA
ATOM     40  H   UNL     1      23.081  21.159  13.756  1.00  0.00     0.211 HD
ENDBRANCH  14  39
ENDBRANCH   8   9
ENDBRANCH   7   8
ENDBRANCH   1   7
BRANCH   1  41
ATOM     41  C   UNL     1      18.615  19.272  11.807  1.00  0.00     0.364 C 
ATOM     42  O   UNL     1      18.193  18.254  12.330  1.00  0.00    -0.246 OA
BRANCH  41  43
ATOM     43  O   UNL     1      18.226  20.548  12.171  1.00  0.00    -0.477 OA
ATOM     44  H   UNL     1      18.938  21.153  12.522  1.00  0.00     0.296 HD
ENDBRANCH  41  43
ENDBRANCH   1  41
BRANCH   3  45
ATOM     45  O   UNL     1      20.079  17.247   7.860  1.00  0.00    -0.391 OA
ATOM     46  H   UNL     1      20.667  16.943   8.607  1.00  0.00     0.211 HD
ENDBRANCH   3  45
BRANCH   5  47
ATOM     47  C   UNL     1      21.008  21.908   8.720  1.00  0.00     0.176 C 
BRANCH  47  48
ATOM     48  O   UNL     1      22.318  21.526   9.048  1.00  0.00    -0.388 OA
ATOM     49  H   UNL     1      22.672  22.229   9.659  1.00  0.00     0.211 HD
ENDBRANCH  47  48
BRANCH  47  50
ATOM     50  C   UNL     1      20.594  23.161   9.416  1.00  0.00     0.165 C 
BRANCH  50  51
ATOM     51  O   UNL     1      19.703  23.904   8.689  1.00  0.00    -0.388 OA
ATOM     52  H   UNL     1      18.774  23.811   8.950  1.00  0.00     0.211 HD
ENDBRANCH  50  51
BRANCH  50  53
ATOM     53  C   UNL     1      21.724  23.933  10.046  1.00  0.00     0.154 C 
BRANCH  53  54
ATOM     54  N   UNL     1      22.054  23.566  11.391  1.00  0.00    -0.319 N 
ATOM     55  C   UNL     1      23.375  23.312  11.863  1.00  0.00     0.407 C 
ATOM     56  H   UNL     1      21.270  23.475  12.114  1.00  0.00     0.167 HD
ATOM     57  O   UNL     1      24.352  23.411  11.100  1.00  0.00    -0.225 OA
BRANCH  55  58
ATOM     58  O   UNL     1      23.609  22.954  13.172  1.00  0.00    -0.443 OA
BRANCH  58  59
ATOM     59  C   UNL     1      24.519  23.647  14.025  1.00  0.00     0.294 C 
BRANCH  59  60
ATOM     60  C   UNL     1      23.757  24.323  15.123  1.00  0.00     0.120 A 
ATOM     61  C   UNL     1      24.191  24.791  16.335  1.00  0.00     0.138 A 
ATOM     62  N   UNL     1      22.436  24.597  15.056  1.00  0.00    -0.132 NA
ATOM     63  N   UNL     1      23.130  25.347  16.994  1.00  0.00    -0.249 N 
ATOM     64  N   UNL     1      22.114  25.198  16.175  1.00  0.00    -0.067 NA
BRANCH  63  65
ATOM     65  C   UNL     1      23.174  25.960  18.312  1.00  0.00     0.182 C 
BRANCH  65  66
ATOM     66  C   UNL     1      22.811  24.937  19.373  1.00  0.00     0.166 C 
BRANCH  66  67
ATOM     67  O   UNL     1      22.343  23.817  18.645  1.00  0.00    -0.386 OA
ATOM     68  H   UNL     1      22.878  23.713  17.810  1.00  0.00     0.211 HD
ENDBRANCH  66  67
BRANCH  66  69
ATOM     69  C   UNL     1      23.926  24.548  20.241  1.00  0.00    -0.018 A 
ATOM     70  C   UNL     1      25.224  24.549  19.830  1.00  0.00     0.006 A 
ATOM     71  C   UNL     1      23.572  24.152  21.538  1.00  0.00     0.006 A 
ATOM     72  C   UNL     1      26.200  24.147  20.727  1.00  0.00     0.000 A 
ATOM     73  C   UNL     1      24.555  23.758  22.405  1.00  0.00     0.000 A 
ATOM     74  C   UNL     1      25.876  23.753  22.004  1.00  0.00     0.000 A 
ENDBRANCH  66  69
ENDBRANCH  65  66
ENDBRANCH  63  65
ENDBRANCH  59  60
ENDBRANCH  58  59
ENDBRANCH  55  58
ENDBRANCH  53  54
ENDBRANCH  50  53
ENDBRANCH  47  50
ENDBRANCH   5  47
BRANCH   4  75
ATOM     75  N   UNL     1      20.824  20.081   6.865  1.00  0.00    -0.348 N 
ATOM     76  C   UNL     1      21.842  19.593   6.008  1.00  0.00     0.217 C 
ATOM     77  H   UNL     1      20.199  20.828   6.494  1.00  0.00     0.163 HD
ATOM     78  C   UNL     1      22.063  20.082   4.622  1.00  0.00     0.114 C 
ATOM     79  O   UNL     1      22.602  18.688   6.450  1.00  0.00    -0.275 OA
ENDBRANCH   4  75
TORSDOF 33
