REMARK VINA RESULT:    -6.461      4.755     10.528
REMARK INTER + INTRA:         -22.857
REMARK INTER:                 -14.116
REMARK INTRA:                  -8.740
REMARK UNBOUND:                -6.197
REMARK SMILES CC(=O)N[C@@H]1[C@@H](O)C[C@](OC[C@H]2O[C@@H](O[C@H]3[C@H](O)[C@@H](O)[C@H](OCCN=[N+]=[N-])O[C@@H]3CO)[C@H](O)[C@@H](O)[C@H]2O)(C(=O)O)O[C@H]1C(O)[C@H](O)CNC(=O)OCc1cn(Cc2cccc(C#N)c2)nn1
REMARK SMILES IDX 9 1 8 2 6 3 5 4 42 5 41 6 10 7 11 8 12 9 14 10 13 11 32 12
REMARK SMILES IDX 34 13 36 14 15 15 16 16 29 17 28 18 21 19 17 20 19 21 30 22
REMARK SMILES IDX 31 23 22 25 23 26 24 27 25 28 26 29 27 30 18 31 20 33 33 35
REMARK SMILES IDX 35 37 37 39 38 41 39 42 40 43 7 45 43 47 44 48 45 50 46 51
REMARK SMILES IDX 47 53 48 54 49 55 50 57 51 58 52 59 53 60 54 61 66 62 55 63
REMARK SMILES IDX 65 64 56 65 57 66 58 67 64 68 59 69 61 70 60 71 62 72 63 73
REMARK SMILES IDX 4 74 2 75 1 77 3 78
REMARK H PARENT 31 24 18 32 20 34 33 36 35 38 37 40 40 44 7 46 44 49 46 52
REMARK H PARENT 48 56 4 76
REMARK Flexibility Score: inf
ROOT
ATOM      1  C   UNL     1      22.951  25.272  25.016  1.00  0.00     0.272 C 
ATOM      2  C   UNL     1      22.219  25.231  26.336  1.00  0.00     0.113 C 
ATOM      3  C   UNL     1      22.057  26.500  27.060  1.00  0.00     0.145 C 
ATOM      4  C   UNL     1      23.227  27.457  26.811  1.00  0.00     0.142 C 
ATOM      5  C   UNL     1      23.598  27.557  25.401  1.00  0.00     0.178 C 
ATOM      6  O   UNL     1      23.392  26.484  24.596  1.00  0.00    -0.332 OA
ENDROOT
BRANCH   1   7
ATOM      7  O   UNL     1      22.166  24.767  24.082  1.00  0.00    -0.338 OA
BRANCH   7   8
ATOM      8  C   UNL     1      21.280  24.929  23.222  1.00  0.00     0.199 C 
BRANCH   8   9
ATOM      9  C   UNL     1      21.445  25.332  21.783  1.00  0.00     0.179 C 
ATOM     10  C   UNL     1      21.352  27.126  20.423  1.00  0.00     0.282 C 
ATOM     11  O   UNL     1      21.624  26.767  21.750  1.00  0.00    -0.341 OA
ATOM     12  C   UNL     1      22.418  26.656  19.494  1.00  0.00     0.202 C 
ATOM     13  C   UNL     1      22.877  25.243  19.804  1.00  0.00     0.179 C 
ATOM     14  C   UNL     1      22.823  24.892  21.251  1.00  0.00     0.177 C 
BRANCH  10  15
ATOM     15  O   UNL     1      21.232  28.512  20.345  1.00  0.00    -0.341 OA
BRANCH  15  16
ATOM     16  C   UNL     1      19.929  28.935  20.365  1.00  0.00     0.184 C 
ATOM     17  C   UNL     1      19.613  29.891  19.274  1.00  0.00     0.178 C 
ATOM     18  O   UNL     1      18.333  30.392  19.325  1.00  0.00    -0.341 OA
ATOM     19  C   UNL     1      17.937  30.914  20.536  1.00  0.00     0.281 C 
ATOM     20  C   UNL     1      19.804  29.788  21.670  1.00  0.00     0.180 C 
ATOM     21  C   UNL     1      18.327  30.117  21.740  1.00  0.00     0.202 C 
BRANCH  17  22
ATOM     22  C   UNL     1      19.768  29.228  17.924  1.00  0.00     0.191 C 
BRANCH  22  23
ATOM     23  O   UNL     1      21.097  29.321  17.501  1.00  0.00    -0.394 OA
ATOM     24  H   UNL     1      21.463  28.475  17.195  1.00  0.00     0.210 HD
ENDBRANCH  22  23
ENDBRANCH  17  22
BRANCH  19  25
ATOM     25  O   UNL     1      16.526  30.933  20.521  1.00  0.00    -0.350 OA
BRANCH  25  26
ATOM     26  C   UNL     1      16.038  29.886  21.258  1.00  0.00     0.169 C 
BRANCH  26  27
ATOM     27  C   UNL     1      14.716  29.383  20.750  1.00  0.00     0.119 C 
BRANCH  27  28
ATOM     28  N   UNL     1      14.808  28.751  19.455  1.00  0.00    -0.092 NA
ATOM     29  N   UNL     1      15.783  28.023  19.218  1.00  0.00     0.001 N 
ATOM     30  N   UNL     1      16.756  27.341  18.824  1.00  0.00    -0.003 NA
ENDBRANCH  27  28
ENDBRANCH  26  27
ENDBRANCH  25  26
ENDBRANCH  19  25
BRANCH  20  31
ATOM     31  O   UNL     1      20.255  29.020  22.710  1.00  0.00    -0.387 OA
ATOM     32  H   UNL     1      20.953  29.492  23.250  1.00  0.00     0.211 HD
ENDBRANCH  20  31
BRANCH  21  33
ATOM     33  O   UNL     1      18.128  30.897  22.876  1.00  0.00    -0.385 OA
ATOM     34  H   UNL     1      17.960  30.262  23.632  1.00  0.00     0.211 HD
ENDBRANCH  21  33
ENDBRANCH  15  16
ENDBRANCH  10  15
BRANCH  12  35
ATOM     35  O   UNL     1      21.858  26.574  18.199  1.00  0.00    -0.385 OA
ATOM     36  H   UNL     1      20.943  26.942  18.277  1.00  0.00     0.211 HD
ENDBRANCH  12  35
BRANCH  13  37
ATOM     37  O   UNL     1      24.222  25.183  19.410  1.00  0.00    -0.387 OA
ATOM     38  H   UNL     1      24.797  24.743  20.065  1.00  0.00     0.211 HD
ENDBRANCH  13  37
BRANCH  14  39
ATOM     39  O   UNL     1      23.789  25.678  21.899  1.00  0.00    -0.387 OA
ATOM     40  H   UNL     1      23.436  26.545  22.178  1.00  0.00     0.211 HD
ENDBRANCH  14  39
ENDBRANCH   8   9
ENDBRANCH   7   8
ENDBRANCH   1   7
BRANCH   1  41
ATOM     41  C   UNL     1      24.198  24.450  25.215  1.00  0.00     0.364 C 
ATOM     42  O   UNL     1      24.588  24.131  26.389  1.00  0.00    -0.246 OA
BRANCH  41  43
ATOM     43  O   UNL     1      24.954  24.017  24.160  1.00  0.00    -0.477 OA
ATOM     44  H   UNL     1      24.931  23.005  23.950  1.00  0.00     0.296 HD
ENDBRANCH  41  43
ENDBRANCH   1  41
BRANCH   3  45
ATOM     45  O   UNL     1      20.880  27.125  26.676  1.00  0.00    -0.391 OA
ATOM     46  H   UNL     1      20.069  26.667  27.002  1.00  0.00     0.211 HD
ENDBRANCH   3  45
BRANCH   5  47
ATOM     47  C   UNL     1      22.934  28.684  24.637  1.00  0.00     0.176 C 
BRANCH  47  48
ATOM     48  O   UNL     1      22.496  29.584  25.665  1.00  0.00    -0.388 OA
ATOM     49  H   UNL     1      23.300  29.855  26.165  1.00  0.00     0.211 HD
ENDBRANCH  47  48
BRANCH  47  50
ATOM     50  C   UNL     1      23.751  29.508  23.732  1.00  0.00     0.165 C 
BRANCH  50  51
ATOM     51  O   UNL     1      23.096  29.291  22.442  1.00  0.00    -0.388 OA
ATOM     52  H   UNL     1      23.464  28.432  22.074  1.00  0.00     0.211 HD
ENDBRANCH  50  51
BRANCH  50  53
ATOM     53  C   UNL     1      25.154  29.101  23.467  1.00  0.00     0.154 C 
BRANCH  53  54
ATOM     54  N   UNL     1      25.355  27.964  22.629  1.00  0.00    -0.319 N 
ATOM     55  C   UNL     1      25.755  28.149  21.263  1.00  0.00     0.407 C 
ATOM     56  H   UNL     1      25.234  26.995  22.947  1.00  0.00     0.167 HD
ATOM     57  O   UNL     1      25.913  29.327  20.869  1.00  0.00    -0.225 OA
BRANCH  55  58
ATOM     58  O   UNL     1      25.969  27.115  20.398  1.00  0.00    -0.443 OA
BRANCH  58  59
ATOM     59  C   UNL     1      27.293  26.602  20.140  1.00  0.00     0.294 C 
BRANCH  59  60
ATOM     60  C   UNL     1      27.462  25.313  20.870  1.00  0.00     0.120 A 
ATOM     61  C   UNL     1      28.646  24.674  21.158  1.00  0.00     0.138 A 
ATOM     62  N   UNL     1      26.497  24.538  21.374  1.00  0.00    -0.132 NA
ATOM     63  N   UNL     1      28.381  23.521  21.834  1.00  0.00    -0.248 N 
ATOM     64  N   UNL     1      27.063  23.468  21.949  1.00  0.00    -0.067 NA
BRANCH  63  65
ATOM     65  C   UNL     1      29.348  22.570  22.302  1.00  0.00     0.181 C 
BRANCH  65  66
ATOM     66  C   UNL     1      29.098  21.259  21.661  1.00  0.00    -0.025 A 
ATOM     67  C   UNL     1      29.049  20.079  22.356  1.00  0.00     0.006 A 
ATOM     68  C   UNL     1      28.904  21.204  20.285  1.00  0.00     0.025 A 
ATOM     69  C   UNL     1      28.822  18.870  21.754  1.00  0.00     0.002 A 
ATOM     70  C   UNL     1      28.676  19.991  19.682  1.00  0.00     0.052 A 
ATOM     71  C   UNL     1      28.626  18.787  20.383  1.00  0.00     0.019 A 
BRANCH  70  72
ATOM     72  C   UNL     1      28.471  19.944  18.258  1.00  0.00     0.099 C 
ATOM     73  N   UNL     1      28.291  19.912  17.103  1.00  0.00    -0.192 NA
ENDBRANCH  70  72
ENDBRANCH  65  66
ENDBRANCH  63  65
ENDBRANCH  59  60
ENDBRANCH  58  59
ENDBRANCH  55  58
ENDBRANCH  53  54
ENDBRANCH  50  53
ENDBRANCH  47  50
ENDBRANCH   5  47
BRANCH   4  74
ATOM     74  N   UNL     1      24.305  27.121  27.741  1.00  0.00    -0.348 N 
ATOM     75  C   UNL     1      24.989  28.157  28.409  1.00  0.00     0.217 C 
ATOM     76  H   UNL     1      24.613  26.153  27.957  1.00  0.00     0.163 HD
ATOM     77  C   UNL     1      26.099  27.907  29.371  1.00  0.00     0.114 C 
ATOM     78  O   UNL     1      24.655  29.332  28.186  1.00  0.00    -0.275 OA
ENDBRANCH   4  74
TORSDOF 32
