REMARK VINA RESULT:    -6.828      3.875      8.583
REMARK INTER + INTRA:         -23.065
REMARK INTER:                 -14.626
REMARK INTRA:                  -8.439
REMARK UNBOUND:                -5.460
REMARK SMILES CC(=O)N[C@@H]1[C@@H](O)C[C@](OC[C@H]2O[C@@H](O[C@H]3[C@H](O)[C@@H](O)[C@H](OCCN=[N+]=[N-])O[C@@H]3CO)[C@H](O)[C@@H](O)[C@H]2O)(C(=O)O)O[C@H]1C(O)[C@H](O)CNC(=O)OCc1cn(C(c2ccccc2)c2ccccc2)nn1
REMARK SMILES IDX 9 1 8 2 6 3 5 4 42 5 41 6 10 7 11 8 12 9 14 10 13 11 32 12
REMARK SMILES IDX 34 13 36 14 15 15 16 16 29 17 28 18 21 19 17 20 19 21 30 22
REMARK SMILES IDX 31 23 22 25 23 26 24 27 25 28 26 29 27 30 18 31 20 33 33 35
REMARK SMILES IDX 35 37 37 39 38 41 39 42 40 43 7 45 43 47 44 48 45 50 46 51
REMARK SMILES IDX 47 53 48 54 49 55 50 57 51 58 52 59 53 60 54 61 70 62 55 63
REMARK SMILES IDX 69 64 56 65 57 66 58 67 62 68 59 69 61 70 60 71 63 72 64 73
REMARK SMILES IDX 68 74 65 75 67 76 66 77 4 78 2 79 1 81 3 82
REMARK H PARENT 31 24 18 32 20 34 33 36 35 38 37 40 40 44 7 46 44 49 46 52
REMARK H PARENT 48 56 4 80
REMARK Flexibility Score: inf
ROOT
ATOM      1  C   UNL     1      15.818  30.268  20.723  1.00  0.00     0.272 C 
ATOM      2  C   UNL     1      15.812  28.728  20.617  1.00  0.00     0.113 C 
ATOM      3  C   UNL     1      16.273  28.316  19.279  1.00  0.00     0.145 C 
ATOM      4  C   UNL     1      17.659  28.853  19.026  1.00  0.00     0.142 C 
ATOM      5  C   UNL     1      18.001  30.025  19.870  1.00  0.00     0.178 C 
ATOM      6  O   UNL     1      16.962  30.803  20.269  1.00  0.00    -0.332 OA
ENDROOT
BRANCH   1   7
ATOM      7  O   UNL     1      15.656  30.593  22.080  1.00  0.00    -0.338 OA
BRANCH   7   8
ATOM      8  C   UNL     1      15.554  29.472  22.860  1.00  0.00     0.199 C 
BRANCH   8   9
ATOM      9  C   UNL     1      14.854  29.749  24.190  1.00  0.00     0.179 C 
ATOM     10  C   UNL     1      14.873  32.040  24.855  1.00  0.00     0.282 C 
ATOM     11  O   UNL     1      15.359  30.784  24.806  1.00  0.00    -0.341 OA
ATOM     12  C   UNL     1      13.683  32.285  24.058  1.00  0.00     0.202 C 
ATOM     13  C   UNL     1      12.765  31.121  23.918  1.00  0.00     0.179 C 
ATOM     14  C   UNL     1      13.351  29.768  24.027  1.00  0.00     0.177 C 
BRANCH  10  15
ATOM     15  O   UNL     1      16.006  32.840  24.510  1.00  0.00    -0.341 OA
BRANCH  15  16
ATOM     16  C   UNL     1      17.075  32.579  25.314  1.00  0.00     0.184 C 
ATOM     17  C   UNL     1      17.534  33.787  26.049  1.00  0.00     0.178 C 
ATOM     18  O   UNL     1      18.482  33.435  27.019  1.00  0.00    -0.341 OA
ATOM     19  C   UNL     1      19.660  33.091  26.413  1.00  0.00     0.281 C 
ATOM     20  C   UNL     1      18.273  32.091  24.509  1.00  0.00     0.180 C 
ATOM     21  C   UNL     1      19.530  32.694  24.999  1.00  0.00     0.202 C 
BRANCH  17  22
ATOM     22  C   UNL     1      16.426  34.623  26.658  1.00  0.00     0.191 C 
BRANCH  22  23
ATOM     23  O   UNL     1      15.701  33.839  27.549  1.00  0.00    -0.394 OA
ATOM     24  H   UNL     1      15.002  33.297  27.126  1.00  0.00     0.210 HD
ENDBRANCH  22  23
ENDBRANCH  17  22
BRANCH  19  25
ATOM     25  O   UNL     1      20.378  32.149  27.169  1.00  0.00    -0.350 OA
BRANCH  25  26
ATOM     26  C   UNL     1      19.654  31.069  27.586  1.00  0.00     0.169 C 
BRANCH  26  27
ATOM     27  C   UNL     1      20.564  29.869  27.708  1.00  0.00     0.119 C 
BRANCH  27  28
ATOM     28  N   UNL     1      21.316  29.633  26.478  1.00  0.00    -0.092 NA
ATOM     29  N   UNL     1      20.797  29.160  25.475  1.00  0.00     0.001 N 
ATOM     30  N   UNL     1      20.280  28.387  24.659  1.00  0.00    -0.003 NA
ENDBRANCH  27  28
ENDBRANCH  26  27
ENDBRANCH  25  26
ENDBRANCH  19  25
BRANCH  20  31
ATOM     31  O   UNL     1      18.244  30.695  24.540  1.00  0.00    -0.387 OA
ATOM     32  H   UNL     1      18.655  30.339  25.373  1.00  0.00     0.211 HD
ENDBRANCH  20  31
BRANCH  21  33
ATOM     33  O   UNL     1      19.826  33.810  24.162  1.00  0.00    -0.385 OA
ATOM     34  H   UNL     1      18.958  34.289  24.052  1.00  0.00     0.211 HD
ENDBRANCH  21  33
ENDBRANCH  15  16
ENDBRANCH  10  15
BRANCH  12  35
ATOM     35  O   UNL     1      12.877  33.339  24.561  1.00  0.00    -0.385 OA
ATOM     36  H   UNL     1      12.816  33.180  25.534  1.00  0.00     0.211 HD
ENDBRANCH  12  35
BRANCH  13  37
ATOM     37  O   UNL     1      12.033  31.193  22.704  1.00  0.00    -0.387 OA
ATOM     38  H   UNL     1      11.301  31.855  22.803  1.00  0.00     0.211 HD
ENDBRANCH  13  37
BRANCH  14  39
ATOM     39  O   UNL     1      13.089  29.054  22.846  1.00  0.00    -0.387 OA
ATOM     40  H   UNL     1      12.177  29.218  22.511  1.00  0.00     0.211 HD
ENDBRANCH  14  39
ENDBRANCH   8   9
ENDBRANCH   7   8
ENDBRANCH   1   7
BRANCH   1  41
ATOM     41  C   UNL     1      14.640  30.712  19.979  1.00  0.00     0.364 C 
ATOM     42  O   UNL     1      13.493  30.361  20.319  1.00  0.00    -0.246 OA
BRANCH  41  43
ATOM     43  O   UNL     1      14.731  31.543  18.860  1.00  0.00    -0.477 OA
ATOM     44  H   UNL     1      15.017  31.178  17.963  1.00  0.00     0.296 HD
ENDBRANCH  41  43
ENDBRANCH   1  41
BRANCH   3  45
ATOM     45  O   UNL     1      16.305  26.904  19.267  1.00  0.00    -0.391 OA
ATOM     46  H   UNL     1      16.967  26.562  19.918  1.00  0.00     0.211 HD
ENDBRANCH   3  45
BRANCH   5  47
ATOM     47  C   UNL     1      18.928  29.779  21.026  1.00  0.00     0.176 C 
BRANCH  47  48
ATOM     48  O   UNL     1      19.280  31.051  21.522  1.00  0.00    -0.388 OA
ATOM     49  H   UNL     1      19.347  31.080  22.492  1.00  0.00     0.211 HD
ENDBRANCH  47  48
BRANCH  47  50
ATOM     50  C   UNL     1      20.182  29.044  20.719  1.00  0.00     0.165 C 
BRANCH  50  51
ATOM     51  O   UNL     1      20.343  28.078  21.707  1.00  0.00    -0.388 OA
ATOM     52  H   UNL     1      19.827  28.276  22.530  1.00  0.00     0.211 HD
ENDBRANCH  50  51
BRANCH  50  53
ATOM     53  C   UNL     1      21.419  29.866  20.618  1.00  0.00     0.154 C 
BRANCH  53  54
ATOM     54  N   UNL     1      22.313  29.809  21.730  1.00  0.00    -0.319 N 
ATOM     55  C   UNL     1      22.509  30.771  22.725  1.00  0.00     0.407 C 
ATOM     56  H   UNL     1      22.910  28.925  21.822  1.00  0.00     0.167 HD
ATOM     57  O   UNL     1      21.877  31.834  22.699  1.00  0.00    -0.225 OA
BRANCH  55  58
ATOM     58  O   UNL     1      23.412  30.563  23.764  1.00  0.00    -0.443 OA
BRANCH  58  59
ATOM     59  C   UNL     1      24.750  30.133  23.470  1.00  0.00     0.294 C 
BRANCH  59  60
ATOM     60  C   UNL     1      24.974  28.818  24.123  1.00  0.00     0.120 A 
ATOM     61  C   UNL     1      24.016  27.849  24.212  1.00  0.00     0.139 A 
ATOM     62  N   UNL     1      26.102  28.404  24.691  1.00  0.00    -0.132 NA
ATOM     63  N   UNL     1      24.598  26.824  24.858  1.00  0.00    -0.240 N 
ATOM     64  N   UNL     1      25.859  27.173  25.141  1.00  0.00    -0.066 NA
BRANCH  63  65
ATOM     65  C   UNL     1      24.051  25.532  25.214  1.00  0.00     0.169 C 
BRANCH  65  66
ATOM     66  C   UNL     1      23.166  25.099  24.126  1.00  0.00    -0.019 A 
ATOM     67  C   UNL     1      23.689  24.671  22.923  1.00  0.00     0.006 A 
ATOM     68  C   UNL     1      21.791  25.109  24.230  1.00  0.00     0.006 A 
ATOM     69  C   UNL     1      22.870  24.272  21.875  1.00  0.00     0.000 A 
ATOM     70  C   UNL     1      20.960  24.711  23.187  1.00  0.00     0.000 A 
ATOM     71  C   UNL     1      21.502  24.286  21.990  1.00  0.00     0.000 A 
ENDBRANCH  65  66
BRANCH  65  72
ATOM     72  C   UNL     1      23.420  25.587  26.548  1.00  0.00    -0.019 A 
ATOM     73  C   UNL     1      23.169  24.374  27.179  1.00  0.00     0.006 A 
ATOM     74  C   UNL     1      23.044  26.732  27.188  1.00  0.00     0.006 A 
ATOM     75  C   UNL     1      22.563  24.339  28.407  1.00  0.00     0.000 A 
ATOM     76  C   UNL     1      22.431  26.704  28.428  1.00  0.00     0.000 A 
ATOM     77  C   UNL     1      22.187  25.504  29.044  1.00  0.00     0.000 A 
ENDBRANCH  65  72
ENDBRANCH  63  65
ENDBRANCH  59  60
ENDBRANCH  58  59
ENDBRANCH  55  58
ENDBRANCH  53  54
ENDBRANCH  50  53
ENDBRANCH  47  50
ENDBRANCH   5  47
BRANCH   4  78
ATOM     78  N   UNL     1      17.655  29.244  17.603  1.00  0.00    -0.348 N 
ATOM     79  C   UNL     1      18.616  28.750  16.677  1.00  0.00     0.217 C 
ATOM     80  H   UNL     1      16.934  29.906  17.221  1.00  0.00     0.163 HD
ATOM     81  C   UNL     1      18.583  29.164  15.233  1.00  0.00     0.114 C 
ATOM     82  O   UNL     1      19.513  27.958  17.035  1.00  0.00    -0.275 OA
ENDBRANCH   4  78
TORSDOF 32
