REMARK VINA RESULT:    -5.578      5.748     13.553
REMARK INTER + INTRA:         -20.841
REMARK INTER:                 -13.480
REMARK INTRA:                  -7.360
REMARK UNBOUND:                -6.131
REMARK SMILES COCC(C(N)=O)n1cc(COC(=O)NC[C@@H](O)C(O)[C@@H]2O[C@@](OC[C@H]3O[C@@H](O[C@H]4[C@H](O)[C@@H](O)[C@H](OCCN=[N+]=[N-])O[C@@H]4CO)[C@H](O)[C@@H](O)[C@H]3O)(C(=O)O)C[C@H](O)[C@H]2NC(C)=O)nn1
REMARK SMILES IDX 23 1 55 2 56 3 58 4 21 5 22 6 24 7 25 8 26 9 28 10 27 11
REMARK SMILES IDX 46 12 48 13 50 14 29 15 30 16 43 17 42 18 35 19 31 20 33 21
REMARK SMILES IDX 44 22 45 23 36 25 37 26 38 27 39 28 40 29 41 30 32 31 34 33
REMARK SMILES IDX 47 35 49 37 51 39 52 41 53 42 54 43 57 45 19 47 20 48 17 50
REMARK SMILES IDX 18 51 16 53 15 54 13 55 14 57 12 58 11 59 10 60 9 61 63 62
REMARK SMILES IDX 8 63 64 64 4 65 3 66 2 67 1 68 5 69 7 70 6 71 59 74 60 75
REMARK SMILES IDX 61 77 62 78
REMARK H PARENT 45 24 32 32 34 34 47 36 49 38 51 40 54 44 57 46 20 49 18 52
REMARK H PARENT 15 56 6 72 6 73 59 76
REMARK Flexibility Score: inf
ROOT
ATOM      1  C   UNL     1      16.939  29.488  19.037  1.00  0.00     0.272 C 
ATOM      2  C   UNL     1      16.533  30.412  20.119  1.00  0.00     0.113 C 
ATOM      3  C   UNL     1      17.517  31.442  20.536  1.00  0.00     0.145 C 
ATOM      4  C   UNL     1      18.908  30.868  20.517  1.00  0.00     0.142 C 
ATOM      5  C   UNL     1      18.765  29.354  20.486  1.00  0.00     0.178 C 
ATOM      6  O   UNL     1      18.210  28.974  19.292  1.00  0.00    -0.332 OA
ENDROOT
BRANCH   1   7
ATOM      7  O   UNL     1      16.948  29.977  17.760  1.00  0.00    -0.338 OA
BRANCH   7   8
ATOM      8  C   UNL     1      17.842  29.461  16.882  1.00  0.00     0.199 C 
BRANCH   8   9
ATOM      9  C   UNL     1      18.113  30.400  15.699  1.00  0.00     0.179 C 
ATOM     10  C   UNL     1      16.097  30.725  14.592  1.00  0.00     0.282 C 
ATOM     11  O   UNL     1      17.334  30.095  14.620  1.00  0.00    -0.341 OA
ATOM     12  C   UNL     1      16.187  32.205  14.735  1.00  0.00     0.202 C 
ATOM     13  C   UNL     1      16.914  32.611  15.975  1.00  0.00     0.179 C 
ATOM     14  C   UNL     1      18.175  31.832  16.094  1.00  0.00     0.177 C 
BRANCH  10  15
ATOM     15  O   UNL     1      15.201  30.178  15.492  1.00  0.00    -0.341 OA
BRANCH  15  16
ATOM     16  C   UNL     1      13.947  30.012  14.906  1.00  0.00     0.184 C 
ATOM     17  C   UNL     1      12.814  29.895  15.853  1.00  0.00     0.178 C 
ATOM     18  O   UNL     1      11.603  29.916  15.207  1.00  0.00    -0.341 OA
ATOM     19  C   UNL     1      11.617  29.358  13.928  1.00  0.00     0.281 C 
ATOM     20  C   UNL     1      14.025  28.679  14.140  1.00  0.00     0.180 C 
ATOM     21  C   UNL     1      12.636  28.233  13.839  1.00  0.00     0.202 C 
BRANCH  17  22
ATOM     22  C   UNL     1      12.761  30.977  16.915  1.00  0.00     0.191 C 
BRANCH  22  23
ATOM     23  O   UNL     1      13.877  30.883  17.743  1.00  0.00    -0.394 OA
ATOM     24  H   UNL     1      14.602  30.358  17.331  1.00  0.00     0.210 HD
ENDBRANCH  22  23
ENDBRANCH  17  22
BRANCH  19  25
ATOM     25  O   UNL     1      11.804  30.328  13.008  1.00  0.00    -0.350 OA
BRANCH  25  26
ATOM     26  C   UNL     1      11.621  30.080  11.692  1.00  0.00     0.169 C 
BRANCH  26  27
ATOM     27  C   UNL     1      11.718  31.222  10.741  1.00  0.00     0.119 C 
BRANCH  27  28
ATOM     28  N   UNL     1      13.011  31.357  10.150  1.00  0.00    -0.092 NA
ATOM     29  N   UNL     1      13.834  30.451  10.250  1.00  0.00     0.001 N 
ATOM     30  N   UNL     1      14.500  29.463   9.899  1.00  0.00    -0.003 NA
ENDBRANCH  27  28
ENDBRANCH  26  27
ENDBRANCH  25  26
ENDBRANCH  19  25
BRANCH  20  31
ATOM     31  O   UNL     1      14.773  28.853  12.977  1.00  0.00    -0.387 OA
ATOM     32  H   UNL     1      14.224  28.496  12.241  1.00  0.00     0.211 HD
ENDBRANCH  20  31
BRANCH  21  33
ATOM     33  O   UNL     1      12.214  27.246  14.756  1.00  0.00    -0.385 OA
ATOM     34  H   UNL     1      11.314  27.499  15.113  1.00  0.00     0.211 HD
ENDBRANCH  21  33
ENDBRANCH  15  16
ENDBRANCH  10  15
BRANCH  12  35
ATOM     35  O   UNL     1      16.949  32.675  13.649  1.00  0.00    -0.385 OA
ATOM     36  H   UNL     1      17.403  31.934  13.194  1.00  0.00     0.211 HD
ENDBRANCH  12  35
BRANCH  13  37
ATOM     37  O   UNL     1      16.107  32.572  17.111  1.00  0.00    -0.387 OA
ATOM     38  H   UNL     1      16.686  32.255  17.856  1.00  0.00     0.211 HD
ENDBRANCH  13  37
BRANCH  14  39
ATOM     39  O   UNL     1      18.695  31.917  17.386  1.00  0.00    -0.387 OA
ATOM     40  H   UNL     1      18.050  32.366  17.995  1.00  0.00     0.211 HD
ENDBRANCH  14  39
ENDBRANCH   8   9
ENDBRANCH   7   8
ENDBRANCH   1   7
BRANCH   1  41
ATOM     41  C   UNL     1      16.033  28.286  19.122  1.00  0.00     0.364 C 
ATOM     42  O   UNL     1      16.475  27.156  19.404  1.00  0.00    -0.246 OA
BRANCH  41  43
ATOM     43  O   UNL     1      14.695  28.459  18.881  1.00  0.00    -0.477 OA
ATOM     44  H   UNL     1      13.983  27.880  19.297  1.00  0.00     0.296 HD
ENDBRANCH  41  43
ENDBRANCH   1  41
BRANCH   3  45
ATOM     45  O   UNL     1      17.429  32.635  19.825  1.00  0.00    -0.391 OA
ATOM     46  H   UNL     1      18.187  32.709  19.194  1.00  0.00     0.211 HD
ENDBRANCH   3  45
BRANCH   5  47
ATOM     47  C   UNL     1      20.130  28.712  20.636  1.00  0.00     0.176 C 
BRANCH  47  48
ATOM     48  O   UNL     1      20.079  27.438  21.115  1.00  0.00    -0.388 OA
ATOM     49  H   UNL     1      19.214  27.020  21.222  1.00  0.00     0.211 HD
ENDBRANCH  47  48
BRANCH  47  50
ATOM     50  C   UNL     1      20.870  28.752  19.327  1.00  0.00     0.165 C 
BRANCH  50  51
ATOM     51  O   UNL     1      20.439  27.619  18.594  1.00  0.00    -0.388 OA
ATOM     52  H   UNL     1      20.126  26.920  19.231  1.00  0.00     0.211 HD
ENDBRANCH  50  51
BRANCH  50  53
ATOM     53  C   UNL     1      22.352  28.633  19.444  1.00  0.00     0.154 C 
BRANCH  53  54
ATOM     54  N   UNL     1      22.834  27.511  20.180  1.00  0.00    -0.319 N 
ATOM     55  C   UNL     1      23.154  26.267  19.573  1.00  0.00     0.407 C 
ATOM     56  H   UNL     1      22.969  27.570  21.226  1.00  0.00     0.167 HD
ATOM     57  O   UNL     1      23.011  26.136  18.348  1.00  0.00    -0.225 OA
BRANCH  55  58
ATOM     58  O   UNL     1      23.628  25.182  20.318  1.00  0.00    -0.443 OA
BRANCH  58  59
ATOM     59  C   UNL     1      22.777  24.278  20.956  1.00  0.00     0.294 C 
BRANCH  59  60
ATOM     60  C   UNL     1      22.123  24.789  22.167  1.00  0.00     0.120 A 
ATOM     61  C   UNL     1      22.785  25.116  23.324  1.00  0.00     0.139 A 
ATOM     62  N   UNL     1      20.814  25.013  22.327  1.00  0.00    -0.132 NA
ATOM     63  N   UNL     1      21.847  25.536  24.175  1.00  0.00    -0.237 N 
ATOM     64  N   UNL     1      20.664  25.469  23.560  1.00  0.00    -0.066 NA
BRANCH  63  65
ATOM     65  C   UNL     1      22.089  25.987  25.533  1.00  0.00     0.223 C 
BRANCH  65  66
ATOM     66  C   UNL     1      23.536  26.330  25.669  1.00  0.00     0.197 C 
BRANCH  66  67
ATOM     67  O   UNL     1      23.958  26.274  26.974  1.00  0.00    -0.382 OA
ATOM     68  C   UNL     1      23.628  25.081  27.561  1.00  0.00     0.195 C 
ENDBRANCH  66  67
ENDBRANCH  65  66
BRANCH  65  69
ATOM     69  C   UNL     1      21.234  27.205  25.734  1.00  0.00     0.244 C 
ATOM     70  O   UNL     1      20.650  27.353  26.826  1.00  0.00    -0.273 OA
ATOM     71  N   UNL     1      21.120  28.146  24.680  1.00  0.00    -0.368 N 
ATOM     72  H   UNL     1      20.277  28.263  24.093  1.00  0.00     0.159 HD
ATOM     73  H   UNL     1      21.944  28.755  24.487  1.00  0.00     0.159 HD
ENDBRANCH  65  69
ENDBRANCH  63  65
ENDBRANCH  59  60
ENDBRANCH  58  59
ENDBRANCH  55  58
ENDBRANCH  53  54
ENDBRANCH  50  53
ENDBRANCH  47  50
ENDBRANCH   5  47
BRANCH   4  74
ATOM     74  N   UNL     1      19.680  31.315  21.673  1.00  0.00    -0.348 N 
ATOM     75  C   UNL     1      20.414  32.532  21.702  1.00  0.00     0.217 C 
ATOM     76  H   UNL     1      19.714  30.732  22.547  1.00  0.00     0.163 HD
ATOM     77  C   UNL     1      21.197  33.004  22.856  1.00  0.00     0.114 C 
ATOM     78  O   UNL     1      20.379  33.254  20.649  1.00  0.00    -0.275 OA
ENDBRANCH   4  74
TORSDOF 33
