REMARK VINA RESULT:    -6.108      4.944     13.212
REMARK INTER + INTRA:         -21.758
REMARK INTER:                 -15.392
REMARK INTRA:                  -6.367
REMARK UNBOUND:                -6.367
REMARK SMILES CC(=O)N[C@@H]1[C@@H](O)C[C@](OC[C@H]2O[C@@H](O[C@H]3[C@H](O)[C@@H](O)[C@H](OCCN=[N+]=[N-])O[C@@H]3CO)[C@H](O)[C@@H](O)[C@H]2O)(C(=O)O)O[C@H]1C(O)[C@H](O)CNC(=O)OCc1cn(-c2ncn3c2c(=O)n(C(C)C)c2ccccc23)nn1
REMARK SMILES IDX 9 1 8 2 6 3 5 4 42 5 41 6 10 7 11 8 12 9 14 10 13 11 32 12
REMARK SMILES IDX 34 13 36 14 15 15 16 16 29 17 28 18 21 19 17 20 19 21 30 22
REMARK SMILES IDX 31 23 22 25 23 26 24 27 25 28 26 29 27 30 18 31 20 33 33 35
REMARK SMILES IDX 35 37 37 39 38 41 39 42 40 43 7 45 43 47 44 48 45 50 46 51
REMARK SMILES IDX 47 53 48 54 49 55 50 57 51 58 52 59 53 60 54 61 74 62 55 63
REMARK SMILES IDX 73 64 56 65 57 66 60 67 58 68 59 69 61 70 72 71 63 72 62 73
REMARK SMILES IDX 71 74 67 75 70 76 68 77 69 78 64 79 65 80 66 81 4 82 2 83
REMARK SMILES IDX 1 85 3 86
REMARK H PARENT 31 24 18 32 20 34 33 36 35 38 37 40 40 44 7 46 44 49 46 52
REMARK H PARENT 48 56 4 84
REMARK Flexibility Score: inf
ROOT
ATOM      1  C   UNL     1      23.534  25.457  23.463  1.00  0.00     0.272 C 
ATOM      2  C   UNL     1      23.335  24.536  24.636  1.00  0.00     0.113 C 
ATOM      3  C   UNL     1      23.326  25.243  25.927  1.00  0.00     0.145 C 
ATOM      4  C   UNL     1      22.515  26.507  25.947  1.00  0.00     0.142 C 
ATOM      5  C   UNL     1      22.418  27.179  24.625  1.00  0.00     0.178 C 
ATOM      6  O   UNL     1      22.488  26.431  23.526  1.00  0.00    -0.332 OA
ENDROOT
BRANCH   1   7
ATOM      7  O   UNL     1      23.170  24.743  22.354  1.00  0.00    -0.338 OA
BRANCH   7   8
ATOM      8  C   UNL     1      22.704  25.209  21.231  1.00  0.00     0.199 C 
BRANCH   8   9
ATOM      9  C   UNL     1      23.490  25.499  19.999  1.00  0.00     0.179 C 
ATOM     10  C   UNL     1      25.324  24.577  18.900  1.00  0.00     0.282 C 
ATOM     11  O   UNL     1      24.491  24.474  19.983  1.00  0.00    -0.341 OA
ATOM     12  C   UNL     1      24.591  24.371  17.586  1.00  0.00     0.202 C 
ATOM     13  C   UNL     1      23.380  25.281  17.499  1.00  0.00     0.179 C 
ATOM     14  C   UNL     1      22.612  25.176  18.788  1.00  0.00     0.177 C 
BRANCH  10  15
ATOM     15  O   UNL     1      26.273  23.568  19.018  1.00  0.00    -0.341 OA
BRANCH  15  16
ATOM     16  C   UNL     1      27.485  24.072  19.414  1.00  0.00     0.184 C 
ATOM     17  C   UNL     1      28.556  23.059  19.232  1.00  0.00     0.178 C 
ATOM     18  O   UNL     1      28.917  22.349  20.349  1.00  0.00    -0.341 OA
ATOM     19  C   UNL     1      27.960  22.223  21.321  1.00  0.00     0.281 C 
ATOM     20  C   UNL     1      27.455  24.643  20.817  1.00  0.00     0.180 C 
ATOM     21  C   UNL     1      27.441  23.549  21.820  1.00  0.00     0.202 C 
BRANCH  17  22
ATOM     22  C   UNL     1      29.785  23.690  18.613  1.00  0.00     0.191 C 
BRANCH  22  23
ATOM     23  O   UNL     1      30.689  23.883  19.685  1.00  0.00    -0.394 OA
ATOM     24  H   UNL     1      31.073  22.997  19.879  1.00  0.00     0.210 HD
ENDBRANCH  22  23
ENDBRANCH  17  22
BRANCH  19  25
ATOM     25  O   UNL     1      28.573  21.614  22.431  1.00  0.00    -0.350 OA
BRANCH  25  26
ATOM     26  C   UNL     1      28.795  20.272  22.281  1.00  0.00     0.169 C 
BRANCH  26  27
ATOM     27  C   UNL     1      30.135  19.777  22.724  1.00  0.00     0.119 C 
BRANCH  27  28
ATOM     28  N   UNL     1      30.865  19.432  21.494  1.00  0.00    -0.092 NA
ATOM     29  N   UNL     1      30.396  18.764  20.598  1.00  0.00     0.001 N 
ATOM     30  N   UNL     1      30.126  17.880  19.779  1.00  0.00    -0.003 NA
ENDBRANCH  27  28
ENDBRANCH  26  27
ENDBRANCH  25  26
ENDBRANCH  19  25
BRANCH  20  31
ATOM     31  O   UNL     1      28.531  25.527  20.965  1.00  0.00    -0.387 OA
ATOM     32  H   UNL     1      29.299  25.074  20.507  1.00  0.00     0.211 HD
ENDBRANCH  20  31
BRANCH  21  33
ATOM     33  O   UNL     1      26.105  23.364  22.220  1.00  0.00    -0.385 OA
ATOM     34  H   UNL     1      25.597  24.217  22.207  1.00  0.00     0.211 HD
ENDBRANCH  21  33
ENDBRANCH  15  16
ENDBRANCH  10  15
BRANCH  12  35
ATOM     35  O   UNL     1      25.449  24.770  16.564  1.00  0.00    -0.385 OA
ATOM     36  H   UNL     1      24.962  25.063  15.758  1.00  0.00     0.211 HD
ENDBRANCH  12  35
BRANCH  13  37
ATOM     37  O   UNL     1      22.550  24.741  16.498  1.00  0.00    -0.387 OA
ATOM     38  H   UNL     1      22.938  23.889  16.157  1.00  0.00     0.211 HD
ENDBRANCH  13  37
BRANCH  14  39
ATOM     39  O   UNL     1      22.224  23.815  18.897  1.00  0.00    -0.387 OA
ATOM     40  H   UNL     1      21.462  23.728  19.518  1.00  0.00     0.211 HD
ENDBRANCH  14  39
ENDBRANCH   8   9
ENDBRANCH   7   8
ENDBRANCH   1   7
BRANCH   1  41
ATOM     41  C   UNL     1      24.798  26.179  23.456  1.00  0.00     0.364 C 
ATOM     42  O   UNL     1      25.801  25.843  24.084  1.00  0.00    -0.246 OA
BRANCH  41  43
ATOM     43  O   UNL     1      24.940  27.355  22.696  1.00  0.00    -0.477 OA
ATOM     44  H   UNL     1      25.195  28.219  23.157  1.00  0.00     0.296 HD
ENDBRANCH  41  43
ENDBRANCH   1  41
BRANCH   3  45
ATOM     45  O   UNL     1      22.796  24.339  26.884  1.00  0.00    -0.391 OA
ATOM     46  H   UNL     1      22.112  23.761  26.475  1.00  0.00     0.211 HD
ENDBRANCH   3  45
BRANCH   5  47
ATOM     47  C   UNL     1      21.204  28.086  24.529  1.00  0.00     0.176 C 
BRANCH  47  48
ATOM     48  O   UNL     1      20.069  27.383  24.865  1.00  0.00    -0.388 OA
ATOM     49  H   UNL     1      19.658  26.905  24.101  1.00  0.00     0.211 HD
ENDBRANCH  47  48
BRANCH  47  50
ATOM     50  C   UNL     1      21.039  28.764  23.214  1.00  0.00     0.165 C 
BRANCH  50  51
ATOM     51  O   UNL     1      20.484  28.020  22.207  1.00  0.00    -0.388 OA
ATOM     52  H   UNL     1      21.013  27.232  21.943  1.00  0.00     0.211 HD
ENDBRANCH  50  51
BRANCH  50  53
ATOM     53  C   UNL     1      22.278  29.454  22.729  1.00  0.00     0.154 C 
BRANCH  53  54
ATOM     54  N   UNL     1      22.673  28.941  21.412  1.00  0.00    -0.319 N 
ATOM     55  C   UNL     1      23.061  29.781  20.355  1.00  0.00     0.407 C 
ATOM     56  H   UNL     1      22.670  27.891  21.239  1.00  0.00     0.167 HD
ATOM     57  O   UNL     1      23.073  31.032  20.491  1.00  0.00    -0.225 OA
BRANCH  55  58
ATOM     58  O   UNL     1      23.435  29.188  19.141  1.00  0.00    -0.443 OA
BRANCH  58  59
ATOM     59  C   UNL     1      22.557  29.179  18.052  1.00  0.00     0.294 C 
BRANCH  59  60
ATOM     60  C   UNL     1      21.129  28.904  18.465  1.00  0.00     0.121 A 
ATOM     61  C   UNL     1      20.039  29.706  18.214  1.00  0.00     0.146 A 
ATOM     62  N   UNL     1      20.651  27.844  19.136  1.00  0.00    -0.131 NA
ATOM     63  N   UNL     1      18.920  29.122  18.735  1.00  0.00    -0.200 N 
ATOM     64  N   UNL     1      19.337  27.998  19.284  1.00  0.00    -0.060 NA
BRANCH  63  65
ATOM     65  C   UNL     1      17.597  29.654  18.670  1.00  0.00     0.186 A 
ATOM     66  N   UNL     1      16.936  29.930  17.533  1.00  0.00    -0.216 NA
ATOM     67  C   UNL     1      16.732  30.007  19.675  1.00  0.00     0.158 A 
ATOM     68  C   UNL     1      15.719  30.431  17.823  1.00  0.00     0.207 A 
ATOM     69  N   UNL     1      15.571  30.488  19.164  1.00  0.00    -0.291 N 
ATOM     70  C   UNL     1      16.894  29.938  21.035  1.00  0.00     0.279 A 
ATOM     71  C   UNL     1      14.569  30.901  19.960  1.00  0.00     0.071 A 
ATOM     72  N   UNL     1      15.900  30.348  21.864  1.00  0.00    -0.302 N 
ATOM     73  O   UNL     1      17.970  29.492  21.541  1.00  0.00    -0.267 OA
ATOM     74  C   UNL     1      13.400  31.392  19.446  1.00  0.00     0.029 A 
ATOM     75  C   UNL     1      14.757  30.822  21.323  1.00  0.00     0.068 A 
ATOM     76  C   UNL     1      12.357  31.829  20.278  1.00  0.00     0.002 A 
ATOM     77  C   UNL     1      13.728  31.253  22.138  1.00  0.00     0.028 A 
ATOM     78  C   UNL     1      12.531  31.755  21.640  1.00  0.00     0.002 A 
BRANCH  72  79
ATOM     79  C   UNL     1      16.069  30.266  23.316  1.00  0.00     0.085 C 
ATOM     80  C   UNL     1      16.303  31.590  23.966  1.00  0.00     0.031 C 
ATOM     81  C   UNL     1      14.999  29.429  23.969  1.00  0.00     0.031 C 
ENDBRANCH  72  79
ENDBRANCH  63  65
ENDBRANCH  59  60
ENDBRANCH  58  59
ENDBRANCH  55  58
ENDBRANCH  53  54
ENDBRANCH  50  53
ENDBRANCH  47  50
ENDBRANCH   5  47
BRANCH   4  82
ATOM     82  N   UNL     1      23.045  27.373  26.980  1.00  0.00    -0.348 N 
ATOM     83  C   UNL     1      22.533  27.416  28.297  1.00  0.00     0.217 C 
ATOM     84  H   UNL     1      23.849  28.009  26.762  1.00  0.00     0.163 HD
ATOM     85  C   UNL     1      23.088  28.314  29.352  1.00  0.00     0.114 C 
ATOM     86  O   UNL     1      21.561  26.654  28.576  1.00  0.00    -0.275 OA
ENDBRANCH   4  82
TORSDOF 31
