REMARK VINA RESULT:    -6.385      1.578      1.980
REMARK INTER + INTRA:         -21.576
REMARK INTER:                 -14.303
REMARK INTRA:                  -7.273
REMARK UNBOUND:                -5.485
REMARK SMILES CC(=O)N[C@@H]1[C@@H](O)C[C@](OC[C@H]2O[C@@H](O[C@H]3[C@H](O)[C@@H](O)[C@H](OCCN=[N+]=[N-])O[C@@H]3CO)[C@H](O)[C@@H](O)[C@H]2O)(C(=O)O)O[C@H]1C(O)[C@H](O)CNC(=O)OCc1cn(Cc2ccc(Br)cc2)nn1
REMARK SMILES IDX 9 1 8 2 6 3 5 4 42 5 41 6 10 7 11 8 12 9 14 10 13 11 32 12
REMARK SMILES IDX 34 13 36 14 15 15 16 16 29 17 28 18 21 19 17 20 19 21 30 22
REMARK SMILES IDX 31 23 22 25 23 26 24 27 25 28 26 29 27 30 18 31 20 33 33 35
REMARK SMILES IDX 35 37 37 39 38 41 39 42 40 43 7 45 43 47 44 48 45 50 46 51
REMARK SMILES IDX 47 53 48 54 49 55 50 57 51 58 52 59 53 60 54 61 65 62 55 63
REMARK SMILES IDX 64 64 56 65 57 66 58 67 63 68 59 69 62 70 60 71 61 72 4 73
REMARK SMILES IDX 2 74 1 76 3 77
REMARK H PARENT 31 24 18 32 20 34 33 36 35 38 37 40 40 44 7 46 44 49 46 52
REMARK H PARENT 48 56 4 75
REMARK Flexibility Score: inf
ROOT
ATOM      1  C   UNL     1      21.242  29.488  20.584  1.00  0.00     0.272 C 
ATOM      2  C   UNL     1      21.732  30.692  19.864  1.00  0.00     0.113 C 
ATOM      3  C   UNL     1      22.583  31.656  20.591  1.00  0.00     0.145 C 
ATOM      4  C   UNL     1      22.469  31.555  22.136  1.00  0.00     0.142 C 
ATOM      5  C   UNL     1      21.060  31.065  22.321  1.00  0.00     0.178 C 
ATOM      6  O   UNL     1      21.162  29.688  21.973  1.00  0.00    -0.332 OA
ENDROOT
BRANCH   1   7
ATOM      7  O   UNL     1      21.671  28.275  20.252  1.00  0.00    -0.338 OA
BRANCH   7   8
ATOM      8  C   UNL     1      22.751  27.598  20.351  1.00  0.00     0.199 C 
BRANCH   8   9
ATOM      9  C   UNL     1      22.812  26.582  21.467  1.00  0.00     0.179 C 
ATOM     10  C   UNL     1      23.121  26.263  23.692  1.00  0.00     0.282 C 
ATOM     11  O   UNL     1      23.265  27.108  22.648  1.00  0.00    -0.341 OA
ATOM     12  C   UNL     1      22.789  24.820  23.359  1.00  0.00     0.202 C 
ATOM     13  C   UNL     1      21.631  24.723  22.391  1.00  0.00     0.179 C 
ATOM     14  C   UNL     1      21.386  26.075  21.737  1.00  0.00     0.177 C 
BRANCH  10  15
ATOM     15  O   UNL     1      22.301  26.637  24.704  1.00  0.00    -0.341 OA
BRANCH  15  16
ATOM     16  C   UNL     1      22.693  26.787  25.976  1.00  0.00     0.184 C 
ATOM     17  C   UNL     1      23.676  25.793  26.504  1.00  0.00     0.178 C 
ATOM     18  O   UNL     1      23.191  25.010  27.515  1.00  0.00    -0.341 OA
ATOM     19  C   UNL     1      22.807  25.709  28.651  1.00  0.00     0.281 C 
ATOM     20  C   UNL     1      21.477  26.796  26.879  1.00  0.00     0.180 C 
ATOM     21  C   UNL     1      21.957  26.914  28.303  1.00  0.00     0.202 C 
BRANCH  17  22
ATOM     22  C   UNL     1      24.946  26.509  26.901  1.00  0.00     0.191 C 
BRANCH  22  23
ATOM     23  O   UNL     1      24.782  27.909  26.850  1.00  0.00    -0.394 OA
ATOM     24  H   UNL     1      25.556  28.369  27.221  1.00  0.00     0.210 HD
ENDBRANCH  22  23
ENDBRANCH  17  22
BRANCH  19  25
ATOM     25  O   UNL     1      23.857  26.059  29.483  1.00  0.00    -0.350 OA
BRANCH  25  26
ATOM     26  C   UNL     1      24.013  25.283  30.600  1.00  0.00     0.169 C 
BRANCH  26  27
ATOM     27  C   UNL     1      24.554  26.022  31.788  1.00  0.00     0.119 C 
BRANCH  27  28
ATOM     28  N   UNL     1      25.938  26.409  31.547  1.00  0.00    -0.092 NA
ATOM     29  N   UNL     1      26.832  25.569  31.615  1.00  0.00     0.001 N 
ATOM     30  N   UNL     1      27.847  24.879  31.864  1.00  0.00    -0.003 NA
ENDBRANCH  27  28
ENDBRANCH  26  27
ENDBRANCH  25  26
ENDBRANCH  19  25
BRANCH  20  31
ATOM     31  O   UNL     1      20.768  27.978  26.584  1.00  0.00    -0.387 OA
ATOM     32  H   UNL     1      19.806  27.862  26.819  1.00  0.00     0.211 HD
ENDBRANCH  20  31
BRANCH  21  33
ATOM     33  O   UNL     1      20.908  27.085  29.200  1.00  0.00    -0.385 OA
ATOM     34  H   UNL     1      21.198  27.761  29.864  1.00  0.00     0.211 HD
ENDBRANCH  21  33
ENDBRANCH  15  16
ENDBRANCH  10  15
BRANCH  12  35
ATOM     35  O   UNL     1      23.862  24.104  22.859  1.00  0.00    -0.385 OA
ATOM     36  H   UNL     1      23.759  23.805  21.926  1.00  0.00     0.211 HD
ENDBRANCH  12  35
BRANCH  13  37
ATOM     37  O   UNL     1      20.467  24.241  22.978  1.00  0.00    -0.387 OA
ATOM     38  H   UNL     1      19.866  23.965  22.243  1.00  0.00     0.211 HD
ENDBRANCH  13  37
BRANCH  14  39
ATOM     39  O   UNL     1      20.817  26.984  22.637  1.00  0.00    -0.387 OA
ATOM     40  H   UNL     1      20.331  26.499  23.332  1.00  0.00     0.211 HD
ENDBRANCH  14  39
ENDBRANCH   8   9
ENDBRANCH   7   8
ENDBRANCH   1   7
BRANCH   1  41
ATOM     41  C   UNL     1      19.752  29.394  20.215  1.00  0.00     0.364 C 
ATOM     42  O   UNL     1      19.303  30.215  19.418  1.00  0.00    -0.246 OA
BRANCH  41  43
ATOM     43  O   UNL     1      18.920  28.439  20.738  1.00  0.00    -0.477 OA
ATOM     44  H   UNL     1      18.860  27.514  20.283  1.00  0.00     0.296 HD
ENDBRANCH  41  43
ENDBRANCH   1  41
BRANCH   3  45
ATOM     45  O   UNL     1      23.910  31.728  20.198  1.00  0.00    -0.391 OA
ATOM     46  H   UNL     1      24.386  32.319  20.820  1.00  0.00     0.211 HD
ENDBRANCH   3  45
BRANCH   5  47
ATOM     47  C   UNL     1      20.455  31.189  23.669  1.00  0.00     0.176 C 
BRANCH  47  48
ATOM     48  O   UNL     1      20.542  32.440  24.184  1.00  0.00    -0.388 OA
ATOM     49  H   UNL     1      21.445  32.704  24.392  1.00  0.00     0.211 HD
ENDBRANCH  47  48
BRANCH  47  50
ATOM     50  C   UNL     1      19.196  30.490  23.970  1.00  0.00     0.165 C 
BRANCH  50  51
ATOM     51  O   UNL     1      19.322  29.093  23.894  1.00  0.00    -0.388 OA
ATOM     52  H   UNL     1      20.210  28.753  24.077  1.00  0.00     0.211 HD
ENDBRANCH  50  51
BRANCH  50  53
ATOM     53  C   UNL     1      17.931  30.949  23.367  1.00  0.00     0.154 C 
BRANCH  53  54
ATOM     54  N   UNL     1      17.243  29.969  22.545  1.00  0.00    -0.319 N 
ATOM     55  C   UNL     1      15.899  29.593  22.800  1.00  0.00     0.407 C 
ATOM     56  H   UNL     1      17.698  29.496  21.725  1.00  0.00     0.167 HD
ATOM     57  O   UNL     1      15.263  30.128  23.764  1.00  0.00    -0.225 OA
BRANCH  55  58
ATOM     58  O   UNL     1      15.210  28.647  22.047  1.00  0.00    -0.443 OA
BRANCH  58  59
ATOM     59  C   UNL     1      14.754  28.974  20.720  1.00  0.00     0.294 C 
BRANCH  59  60
ATOM     60  C   UNL     1      15.690  28.521  19.679  1.00  0.00     0.120 A 
ATOM     61  C   UNL     1      16.038  29.240  18.553  1.00  0.00     0.138 A 
ATOM     62  N   UNL     1      16.354  27.366  19.620  1.00  0.00    -0.132 NA
ATOM     63  N   UNL     1      16.903  28.503  17.845  1.00  0.00    -0.248 N 
ATOM     64  N   UNL     1      17.073  27.380  18.512  1.00  0.00    -0.067 NA
BRANCH  63  65
ATOM     65  C   UNL     1      17.566  28.836  16.600  1.00  0.00     0.181 C 
BRANCH  65  66
ATOM     66  C   UNL     1      16.653  29.357  15.558  1.00  0.00    -0.026 A 
ATOM     67  C   UNL     1      16.788  30.696  15.178  1.00  0.00     0.007 A 
ATOM     68  C   UNL     1      15.696  28.612  14.930  1.00  0.00     0.007 A 
ATOM     69  C   UNL     1      15.969  31.228  14.197  1.00  0.00     0.016 A 
ATOM     70  C   UNL     1      14.864  29.136  13.939  1.00  0.00     0.016 A 
ATOM     71  C   UNL     1      15.008  30.448  13.578  1.00  0.00     0.017 A 
ATOM     72  Br  UNL     1      13.890  31.221  12.216  1.00  0.00    -0.051 Br
ENDBRANCH  65  66
ENDBRANCH  63  65
ENDBRANCH  59  60
ENDBRANCH  58  59
ENDBRANCH  55  58
ENDBRANCH  53  54
ENDBRANCH  50  53
ENDBRANCH  47  50
ENDBRANCH   5  47
BRANCH   4  73
ATOM     73  N   UNL     1      22.804  32.803  22.720  1.00  0.00    -0.348 N 
ATOM     74  C   UNL     1      23.954  32.931  23.536  1.00  0.00     0.217 C 
ATOM     75  H   UNL     1      22.221  33.638  22.542  1.00  0.00     0.163 HD
ATOM     76  C   UNL     1      24.398  34.168  24.183  1.00  0.00     0.114 C 
ATOM     77  O   UNL     1      24.673  31.886  23.729  1.00  0.00    -0.275 OA
ENDBRANCH   4  73
TORSDOF 31
