REMARK VINA RESULT:    -6.111      7.564     13.542
REMARK INTER + INTRA:         -20.256
REMARK INTER:                 -15.021
REMARK INTRA:                  -5.235
REMARK UNBOUND:                -5.215
REMARK SMILES CC(=O)N[C@@H]1[C@@H](O)C[C@](OC[C@H]2O[C@@H](O[C@H]3[C@H](O)[C@@H](O)[C@H](OCCN=[N+]=[N-])O[C@@H]3CO)[C@H](O)[C@@H](O)[C@H]2O)(C(=O)O)O[C@H]1C(O)[C@H](O)CNC(=O)OCc1cn(C2CCCC2)nn1
REMARK SMILES IDX 9 1 8 2 6 3 5 4 42 5 41 6 10 7 11 8 12 9 14 10 13 11 32 12
REMARK SMILES IDX 34 13 36 14 15 15 16 16 29 17 28 18 21 19 17 20 19 21 30 22
REMARK SMILES IDX 31 23 22 25 23 26 24 27 25 28 26 29 27 30 18 31 20 33 33 35
REMARK SMILES IDX 35 37 37 39 38 41 39 42 40 43 7 45 43 47 44 48 45 50 46 51
REMARK SMILES IDX 47 53 48 54 49 55 50 57 51 58 52 59 53 60 54 61 62 62 55 63
REMARK SMILES IDX 61 64 56 65 57 66 60 67 58 68 59 69 4 70 2 71 1 73 3 74
REMARK H PARENT 31 24 18 32 20 34 33 36 35 38 37 40 40 44 7 46 44 49 46 52
REMARK H PARENT 48 56 4 72
REMARK Flexibility Score: inf
ROOT
ATOM      1  C   UNL     1      31.888  21.348  24.910  1.00  0.00     0.272 C 
ATOM      2  C   UNL     1      32.698  20.125  25.128  1.00  0.00     0.113 C 
ATOM      3  C   UNL     1      32.547  19.513  26.477  1.00  0.00     0.145 C 
ATOM      4  C   UNL     1      32.708  20.592  27.575  1.00  0.00     0.142 C 
ATOM      5  C   UNL     1      32.984  21.886  26.892  1.00  0.00     0.178 C 
ATOM      6  O   UNL     1      31.807  22.110  26.098  1.00  0.00    -0.332 OA
ENDROOT
BRANCH   1   7
ATOM      7  O   UNL     1      30.629  21.108  24.491  1.00  0.00    -0.338 OA
BRANCH   7   8
ATOM      8  C   UNL     1      30.341  21.134  23.151  1.00  0.00     0.199 C 
BRANCH   8   9
ATOM      9  C   UNL     1      29.291  20.056  22.892  1.00  0.00     0.179 C 
ATOM     10  C   UNL     1      28.302  20.758  20.905  1.00  0.00     0.282 C 
ATOM     11  O   UNL     1      28.176  20.512  22.266  1.00  0.00    -0.341 OA
ATOM     12  C   UNL     1      29.260  19.851  20.215  1.00  0.00     0.202 C 
ATOM     13  C   UNL     1      29.491  18.548  20.914  1.00  0.00     0.179 C 
ATOM     14  C   UNL     1      29.938  18.851  22.322  1.00  0.00     0.177 C 
BRANCH  10  15
ATOM     15  O   UNL     1      28.520  22.109  20.642  1.00  0.00    -0.341 OA
BRANCH  15  16
ATOM     16  C   UNL     1      27.349  22.769  20.274  1.00  0.00     0.184 C 
ATOM     17  C   UNL     1      27.425  23.472  18.960  1.00  0.00     0.178 C 
ATOM     18  O   UNL     1      26.229  24.156  18.751  1.00  0.00    -0.341 OA
ATOM     19  C   UNL     1      26.201  25.301  19.526  1.00  0.00     0.281 C 
ATOM     20  C   UNL     1      27.125  23.839  21.335  1.00  0.00     0.180 C 
ATOM     21  C   UNL     1      26.073  24.834  20.965  1.00  0.00     0.202 C 
BRANCH  17  22
ATOM     22  C   UNL     1      27.554  22.529  17.769  1.00  0.00     0.191 C 
BRANCH  22  23
ATOM     23  O   UNL     1      28.925  22.244  17.666  1.00  0.00    -0.394 OA
ATOM     24  H   UNL     1      29.441  23.050  17.502  1.00  0.00     0.210 HD
ENDBRANCH  22  23
ENDBRANCH  17  22
BRANCH  19  25
ATOM     25  O   UNL     1      25.049  26.022  19.225  1.00  0.00    -0.350 OA
BRANCH  25  26
ATOM     26  C   UNL     1      24.060  25.153  18.736  1.00  0.00     0.169 C 
BRANCH  26  27
ATOM     27  C   UNL     1      22.689  25.570  19.240  1.00  0.00     0.119 C 
BRANCH  27  28
ATOM     28  N   UNL     1      22.746  25.978  20.613  1.00  0.00    -0.092 NA
ATOM     29  N   UNL     1      21.876  25.638  21.440  1.00  0.00     0.001 N 
ATOM     30  N   UNL     1      20.805  25.682  22.040  1.00  0.00    -0.003 NA
ENDBRANCH  27  28
ENDBRANCH  26  27
ENDBRANCH  25  26
ENDBRANCH  19  25
BRANCH  20  31
ATOM     31  O   UNL     1      26.713  23.166  22.482  1.00  0.00    -0.387 OA
ATOM     32  H   UNL     1      25.986  22.517  22.310  1.00  0.00     0.211 HD
ENDBRANCH  20  31
BRANCH  21  33
ATOM     33  O   UNL     1      26.245  25.969  21.774  1.00  0.00    -0.385 OA
ATOM     34  H   UNL     1      25.355  26.147  22.173  1.00  0.00     0.211 HD
ENDBRANCH  21  33
ENDBRANCH  15  16
ENDBRANCH  10  15
BRANCH  12  35
ATOM     35  O   UNL     1      28.805  19.518  18.917  1.00  0.00    -0.385 OA
ATOM     36  H   UNL     1      29.323  18.747  18.619  1.00  0.00     0.211 HD
ENDBRANCH  12  35
BRANCH  13  37
ATOM     37  O   UNL     1      30.501  17.854  20.273  1.00  0.00    -0.387 OA
ATOM     38  H   UNL     1      31.348  18.069  20.722  1.00  0.00     0.211 HD
ENDBRANCH  13  37
BRANCH  14  39
ATOM     39  O   UNL     1      31.327  18.888  22.340  1.00  0.00    -0.387 OA
ATOM     40  H   UNL     1      31.699  19.503  21.693  1.00  0.00     0.211 HD
ENDBRANCH  14  39
ENDBRANCH   8   9
ENDBRANCH   7   8
ENDBRANCH   1   7
BRANCH   1  41
ATOM     41  C   UNL     1      32.643  22.260  23.968  1.00  0.00     0.364 C 
ATOM     42  O   UNL     1      32.435  23.482  23.911  1.00  0.00    -0.246 OA
BRANCH  41  43
ATOM     43  O   UNL     1      33.596  21.637  23.156  1.00  0.00    -0.477 OA
ATOM     44  H   UNL     1      33.477  20.641  22.928  1.00  0.00     0.296 HD
ENDBRANCH  41  43
ENDBRANCH   1  41
BRANCH   3  45
ATOM     45  O   UNL     1      31.418  18.757  26.669  1.00  0.00    -0.391 OA
ATOM     46  H   UNL     1      31.010  18.968  27.540  1.00  0.00     0.211 HD
ENDBRANCH   3  45
BRANCH   5  47
ATOM     47  C   UNL     1      33.038  23.092  27.795  1.00  0.00     0.176 C 
BRANCH  47  48
ATOM     48  O   UNL     1      32.459  22.655  29.059  1.00  0.00    -0.388 OA
ATOM     49  H   UNL     1      32.836  23.302  29.699  1.00  0.00     0.211 HD
ENDBRANCH  47  48
BRANCH  47  50
ATOM     50  C   UNL     1      32.132  24.233  27.423  1.00  0.00     0.165 C 
BRANCH  50  51
ATOM     51  O   UNL     1      32.585  25.140  26.531  1.00  0.00    -0.388 OA
ATOM     52  H   UNL     1      32.215  26.046  26.618  1.00  0.00     0.211 HD
ENDBRANCH  50  51
BRANCH  50  53
ATOM     53  C   UNL     1      31.771  24.975  28.704  1.00  0.00     0.154 C 
BRANCH  53  54
ATOM     54  N   UNL     1      30.423  24.554  29.109  1.00  0.00    -0.319 N 
ATOM     55  C   UNL     1      29.679  25.301  30.058  1.00  0.00     0.407 C 
ATOM     56  H   UNL     1      29.975  23.690  28.709  1.00  0.00     0.167 HD
ATOM     57  O   UNL     1      30.189  26.339  30.554  1.00  0.00    -0.225 OA
BRANCH  55  58
ATOM     58  O   UNL     1      28.416  24.918  30.448  1.00  0.00    -0.443 OA
BRANCH  58  59
ATOM     59  C   UNL     1      27.460  25.841  30.934  1.00  0.00     0.294 C 
BRANCH  59  60
ATOM     60  C   UNL     1      26.177  25.792  30.197  1.00  0.00     0.120 A 
ATOM     61  C   UNL     1      25.847  26.244  28.939  1.00  0.00     0.138 A 
ATOM     62  N   UNL     1      25.036  25.256  30.682  1.00  0.00    -0.132 NA
ATOM     63  N   UNL     1      24.559  25.977  28.706  1.00  0.00    -0.249 N 
ATOM     64  N   UNL     1      24.097  25.374  29.789  1.00  0.00    -0.067 NA
BRANCH  63  65
ATOM     65  C   UNL     1      23.773  26.269  27.513  1.00  0.00     0.109 C 
ATOM     66  C   UNL     1      24.598  26.306  26.269  1.00  0.00     0.027 C 
ATOM     67  C   UNL     1      22.802  25.130  27.290  1.00  0.00     0.027 C 
ATOM     68  C   UNL     1      24.548  24.936  25.645  1.00  0.00     0.002 C 
ATOM     69  C   UNL     1      23.480  24.159  26.373  1.00  0.00     0.002 C 
ENDBRANCH  63  65
ENDBRANCH  59  60
ENDBRANCH  58  59
ENDBRANCH  55  58
ENDBRANCH  53  54
ENDBRANCH  50  53
ENDBRANCH  47  50
ENDBRANCH   5  47
BRANCH   4  70
ATOM     70  N   UNL     1      33.699  20.136  28.521  1.00  0.00    -0.348 N 
ATOM     71  C   UNL     1      33.304  19.298  29.634  1.00  0.00     0.217 C 
ATOM     72  H   UNL     1      34.713  20.358  28.447  1.00  0.00     0.163 HD
ATOM     73  C   UNL     1      34.306  18.818  30.618  1.00  0.00     0.114 C 
ATOM     74  O   UNL     1      32.100  18.960  29.790  1.00  0.00    -0.275 OA
ENDBRANCH   4  70
TORSDOF 30
