REMARK VINA RESULT:    -6.325     16.523     21.276
REMARK INTER + INTRA:         -21.770
REMARK INTER:                 -16.692
REMARK INTRA:                  -5.078
REMARK UNBOUND:                -5.460
REMARK SMILES CC(=O)N[C@@H]1[C@@H](O)C[C@](OC[C@H]2O[C@@H](O[C@H]3[C@H](O)[C@@H](O)[C@H](OCCN=[N+]=[N-])O[C@@H]3CO)[C@H](O)[C@@H](O)[C@H]2O)(C(=O)O)O[C@H]1C(O)[C@H](O)CNC(=O)OCc1cn(C(c2ccccc2)c2ccccc2)nn1
REMARK SMILES IDX 9 1 8 2 6 3 5 4 42 5 41 6 10 7 11 8 12 9 14 10 13 11 32 12
REMARK SMILES IDX 34 13 36 14 15 15 16 16 29 17 28 18 21 19 17 20 19 21 30 22
REMARK SMILES IDX 31 23 22 25 23 26 24 27 25 28 26 29 27 30 18 31 20 33 33 35
REMARK SMILES IDX 35 37 37 39 38 41 39 42 40 43 7 45 43 47 44 48 45 50 46 51
REMARK SMILES IDX 47 53 48 54 49 55 50 57 51 58 52 59 53 60 54 61 70 62 55 63
REMARK SMILES IDX 69 64 56 65 57 66 58 67 62 68 59 69 61 70 60 71 63 72 64 73
REMARK SMILES IDX 68 74 65 75 67 76 66 77 4 78 2 79 1 81 3 82
REMARK H PARENT 31 24 18 32 20 34 33 36 35 38 37 40 40 44 7 46 44 49 46 52
REMARK H PARENT 48 56 4 80
REMARK Flexibility Score: inf
ROOT
ATOM      1  C   UNL     1       4.108  23.680  33.655  1.00  0.00     0.272 C 
ATOM      2  C   UNL     1       5.359  23.165  32.914  1.00  0.00     0.113 C 
ATOM      3  C   UNL     1       5.194  21.738  32.582  1.00  0.00     0.145 C 
ATOM      4  C   UNL     1       3.964  21.549  31.730  1.00  0.00     0.142 C 
ATOM      5  C   UNL     1       2.980  22.653  31.860  1.00  0.00     0.178 C 
ATOM      6  O   UNL     1       2.970  23.313  33.046  1.00  0.00    -0.332 OA
ENDROOT
BRANCH   1   7
ATOM      7  O   UNL     1       4.189  25.082  33.687  1.00  0.00    -0.338 OA
BRANCH   7   8
ATOM      8  C   UNL     1       5.481  25.516  33.552  1.00  0.00     0.199 C 
BRANCH   8   9
ATOM      9  C   UNL     1       5.879  26.510  34.642  1.00  0.00     0.179 C 
ATOM     10  C   UNL     1       8.226  26.638  35.050  1.00  0.00     0.282 C 
ATOM     11  O   UNL     1       6.981  26.161  35.248  1.00  0.00    -0.341 OA
ATOM     12  C   UNL     1       8.364  27.605  33.974  1.00  0.00     0.202 C 
ATOM     13  C   UNL     1       7.173  28.469  33.743  1.00  0.00     0.179 C 
ATOM     14  C   UNL     1       5.850  27.932  34.129  1.00  0.00     0.177 C 
BRANCH  10  15
ATOM     15  O   UNL     1       9.009  25.453  34.901  1.00  0.00    -0.341 OA
BRANCH  15  16
ATOM     16  C   UNL     1       9.570  25.064  36.080  1.00  0.00     0.184 C 
ATOM     17  C   UNL     1      11.031  24.815  35.952  1.00  0.00     0.178 C 
ATOM     18  O   UNL     1      11.606  24.633  37.217  1.00  0.00    -0.341 OA
ATOM     19  C   UNL     1      11.224  23.424  37.731  1.00  0.00     0.281 C 
ATOM     20  C   UNL     1       8.960  23.763  36.587  1.00  0.00     0.180 C 
ATOM     21  C   UNL     1       9.996  22.864  37.138  1.00  0.00     0.202 C 
BRANCH  17  22
ATOM     22  C   UNL     1      11.790  25.861  35.161  1.00  0.00     0.191 C 
BRANCH  22  23
ATOM     23  O   UNL     1      13.156  25.638  35.305  1.00  0.00    -0.394 OA
ATOM     24  H   UNL     1      13.403  25.213  36.152  1.00  0.00     0.210 HD
ENDBRANCH  22  23
ENDBRANCH  17  22
BRANCH  19  25
ATOM     25  O   UNL     1      11.178  23.446  39.135  1.00  0.00    -0.350 OA
BRANCH  25  26
ATOM     26  C   UNL     1      10.802  24.639  39.682  1.00  0.00     0.169 C 
BRANCH  26  27
ATOM     27  C   UNL     1       9.836  24.391  40.818  1.00  0.00     0.119 C 
BRANCH  27  28
ATOM     28  N   UNL     1       8.450  24.596  40.404  1.00  0.00    -0.092 NA
ATOM     29  N   UNL     1       7.541  23.867  40.780  1.00  0.00     0.001 N 
ATOM     30  N   UNL     1       6.777  22.906  40.933  1.00  0.00    -0.003 NA
ENDBRANCH  27  28
ENDBRANCH  26  27
ENDBRANCH  25  26
ENDBRANCH  19  25
BRANCH  20  31
ATOM     31  O   UNL     1       7.950  24.111  37.486  1.00  0.00    -0.387 OA
ATOM     32  H   UNL     1       7.046  23.967  37.095  1.00  0.00     0.211 HD
ENDBRANCH  20  31
BRANCH  21  33
ATOM     33  O   UNL     1      10.342  21.931  36.117  1.00  0.00    -0.385 OA
ATOM     34  H   UNL     1      10.707  22.486  35.372  1.00  0.00     0.211 HD
ENDBRANCH  21  33
ENDBRANCH  15  16
ENDBRANCH  10  15
BRANCH  12  35
ATOM     35  O   UNL     1       9.447  28.502  34.159  1.00  0.00    -0.385 OA
ATOM     36  H   UNL     1      10.200  27.943  34.467  1.00  0.00     0.211 HD
ENDBRANCH  12  35
BRANCH  13  37
ATOM     37  O   UNL     1       7.105  28.892  32.390  1.00  0.00    -0.387 OA
ATOM     38  H   UNL     1       6.830  29.845  32.360  1.00  0.00     0.211 HD
ENDBRANCH  13  37
BRANCH  14  39
ATOM     39  O   UNL     1       5.014  27.909  33.000  1.00  0.00    -0.387 OA
ATOM     40  H   UNL     1       4.158  28.370  33.167  1.00  0.00     0.211 HD
ENDBRANCH  14  39
ENDBRANCH   8   9
ENDBRANCH   7   8
ENDBRANCH   1   7
BRANCH   1  41
ATOM     41  C   UNL     1       4.224  23.162  35.018  1.00  0.00     0.364 C 
ATOM     42  O   UNL     1       3.351  22.413  35.499  1.00  0.00    -0.246 OA
BRANCH  41  43
ATOM     43  O   UNL     1       5.304  23.474  35.848  1.00  0.00    -0.477 OA
ATOM     44  H   UNL     1       6.120  22.882  35.884  1.00  0.00     0.296 HD
ENDBRANCH  41  43
ENDBRANCH   1  41
BRANCH   3  45
ATOM     45  O   UNL     1       6.337  21.345  31.854  1.00  0.00    -0.391 OA
ATOM     46  H   UNL     1       6.085  20.778  31.083  1.00  0.00     0.211 HD
ENDBRANCH   3  45
BRANCH   5  47
ATOM     47  C   UNL     1       2.915  23.637  30.727  1.00  0.00     0.176 C 
BRANCH  47  48
ATOM     48  O   UNL     1       2.158  24.729  31.201  1.00  0.00    -0.388 OA
ATOM     49  H   UNL     1       2.260  24.880  32.157  1.00  0.00     0.211 HD
ENDBRANCH  47  48
BRANCH  47  50
ATOM     50  C   UNL     1       2.285  23.154  29.471  1.00  0.00     0.165 C 
BRANCH  50  51
ATOM     51  O   UNL     1       3.216  23.326  28.453  1.00  0.00    -0.388 OA
ATOM     52  H   UNL     1       2.816  23.273  27.547  1.00  0.00     0.211 HD
ENDBRANCH  50  51
BRANCH  50  53
ATOM     53  C   UNL     1       1.000  23.802  29.087  1.00  0.00     0.154 C 
BRANCH  53  54
ATOM     54  N   UNL     1       1.074  24.811  28.079  1.00  0.00    -0.319 N 
ATOM     55  C   UNL     1       0.634  24.734  26.754  1.00  0.00     0.407 C 
ATOM     56  H   UNL     1       1.518  25.743  28.363  1.00  0.00     0.167 HD
ATOM     57  O   UNL     1       0.121  23.694  26.325  1.00  0.00    -0.225 OA
BRANCH  55  58
ATOM     58  O   UNL     1       0.761  25.817  25.887  1.00  0.00    -0.443 OA
BRANCH  58  59
ATOM     59  C   UNL     1       1.759  25.790  24.854  1.00  0.00     0.294 C 
BRANCH  59  60
ATOM     60  C   UNL     1       3.036  26.291  25.424  1.00  0.00     0.120 A 
ATOM     61  C   UNL     1       3.525  27.543  25.189  1.00  0.00     0.139 A 
ATOM     62  N   UNL     1       3.857  25.616  26.222  1.00  0.00    -0.132 NA
ATOM     63  N   UNL     1       4.680  27.613  25.874  1.00  0.00    -0.240 N 
ATOM     64  N   UNL     1       4.868  26.442  26.494  1.00  0.00    -0.066 NA
BRANCH  63  65
ATOM     65  C   UNL     1       5.612  28.714  25.994  1.00  0.00     0.169 C 
BRANCH  65  66
ATOM     66  C   UNL     1       6.954  28.209  25.678  1.00  0.00    -0.019 A 
ATOM     67  C   UNL     1       7.831  28.967  24.929  1.00  0.00     0.006 A 
ATOM     68  C   UNL     1       7.403  26.971  26.085  1.00  0.00     0.006 A 
ATOM     69  C   UNL     1       9.098  28.502  24.605  1.00  0.00     0.000 A 
ATOM     70  C   UNL     1       8.671  26.494  25.766  1.00  0.00     0.000 A 
ATOM     71  C   UNL     1       9.535  27.267  25.015  1.00  0.00     0.000 A 
ENDBRANCH  65  66
BRANCH  65  72
ATOM     72  C   UNL     1       5.483  29.359  27.317  1.00  0.00    -0.019 A 
ATOM     73  C   UNL     1       5.876  30.689  27.412  1.00  0.00     0.006 A 
ATOM     74  C   UNL     1       5.037  28.740  28.448  1.00  0.00     0.006 A 
ATOM     75  C   UNL     1       5.812  31.351  28.610  1.00  0.00     0.000 A 
ATOM     76  C   UNL     1       4.969  29.402  29.661  1.00  0.00     0.000 A 
ATOM     77  C   UNL     1       5.358  30.714  29.747  1.00  0.00     0.000 A 
ENDBRANCH  65  72
ENDBRANCH  63  65
ENDBRANCH  59  60
ENDBRANCH  58  59
ENDBRANCH  55  58
ENDBRANCH  53  54
ENDBRANCH  50  53
ENDBRANCH  47  50
ENDBRANCH   5  47
BRANCH   4  78
ATOM     78  N   UNL     1       3.368  20.286  32.208  1.00  0.00    -0.348 N 
ATOM     79  C   UNL     1       2.672  19.399  31.342  1.00  0.00     0.217 C 
ATOM     80  H   UNL     1       3.438  19.997  33.216  1.00  0.00     0.163 HD
ATOM     81  C   UNL     1       2.078  18.119  31.859  1.00  0.00     0.114 C 
ATOM     82  O   UNL     1       2.534  19.655  30.127  1.00  0.00    -0.275 OA
ENDBRANCH   4  78
TORSDOF 32
