REMARK VINA RESULT:    -6.558      4.650      8.315
REMARK INTER + INTRA:         -22.244
REMARK INTER:                 -13.425
REMARK INTRA:                  -8.819
REMARK UNBOUND:                -5.144
REMARK SMILES CC(=O)N[C@@H]1[C@@H](O)C[C@](OC[C@H]2O[C@@H](O[C@H]3[C@H](O)[C@@H](O)[C@H](OCCN=[N+]=[N-])O[C@@H]3CO)[C@H](O)[C@@H](O)[C@H]2O)(C(=O)O)O[C@H]1C(O)[C@H](O)CNC(=O)OCc1cn(-c2cccc(C=CC(=O)O)c2)nn1
REMARK SMILES IDX 43 1 42 2 9 3 8 4 41 5 6 6 5 7 10 8 11 9 12 10 14 11 13 12
REMARK SMILES IDX 32 13 34 14 36 15 15 16 16 17 29 18 28 19 21 20 17 21 19 22
REMARK SMILES IDX 30 23 31 24 22 26 23 27 24 28 25 29 26 30 27 31 18 32 20 34
REMARK SMILES IDX 33 36 35 38 37 40 38 42 39 43 40 44 7 46 4 48 2 49 1 51 3 52
REMARK SMILES IDX 44 53 45 55 46 56 47 58 48 59 49 60 50 62 51 63 52 64 53 65
REMARK SMILES IDX 54 66 68 67 55 68 67 69 56 70 66 71 57 72 60 73 58 74 59 75
REMARK SMILES IDX 61 76 62 77 63 78 64 79 65 80
REMARK H PARENT 31 25 18 33 20 35 33 37 35 39 37 41 40 45 7 47 4 50 44 54
REMARK H PARENT 46 57 48 61 65 81
REMARK Flexibility Score: inf
ROOT
ATOM      1  C   UNL     1      16.802  31.874  18.974  1.00  0.00     0.176 C 
ENDROOT
BRANCH   1   2
ATOM      2  C   UNL     1      17.245  30.454  18.683  1.00  0.00     0.178 C 
ATOM      3  C   UNL     1      18.841  29.372  17.326  1.00  0.00     0.272 C 
ATOM      4  C   UNL     1      18.062  28.181  18.066  1.00  0.00     0.113 C 
ATOM      5  O   UNL     1      18.193  30.531  17.701  1.00  0.00    -0.332 OA
ATOM      6  C   UNL     1      16.641  28.330  17.653  1.00  0.00     0.145 C 
ATOM      7  C   UNL     1      16.083  29.624  18.214  1.00  0.00     0.142 C 
BRANCH   3   8
ATOM      8  O   UNL     1      18.590  29.116  16.037  1.00  0.00    -0.338 OA
BRANCH   8   9
ATOM      9  C   UNL     1      19.312  29.498  14.999  1.00  0.00     0.199 C 
BRANCH   9  10
ATOM     10  C   UNL     1      18.619  30.087  13.788  1.00  0.00     0.179 C 
ATOM     11  C   UNL     1      16.306  30.234  13.320  1.00  0.00     0.282 C 
ATOM     12  O   UNL     1      17.419  29.494  13.665  1.00  0.00    -0.341 OA
ATOM     13  C   UNL     1      16.697  31.353  12.439  1.00  0.00     0.202 C 
ATOM     14  C   UNL     1      17.747  32.270  12.987  1.00  0.00     0.179 C 
ATOM     15  C   UNL     1      18.467  31.568  14.108  1.00  0.00     0.177 C 
BRANCH  11  16
ATOM     16  O   UNL     1      15.659  30.533  14.499  1.00  0.00    -0.341 OA
BRANCH  16  17
ATOM     17  C   UNL     1      14.310  30.438  14.482  1.00  0.00     0.184 C 
ATOM     18  C   UNL     1      13.679  31.396  15.444  1.00  0.00     0.178 C 
ATOM     19  O   UNL     1      12.320  31.466  15.052  1.00  0.00    -0.341 OA
ATOM     20  C   UNL     1      11.669  30.284  15.411  1.00  0.00     0.281 C 
ATOM     21  C   UNL     1      13.809  29.057  14.918  1.00  0.00     0.180 C 
ATOM     22  C   UNL     1      12.298  29.064  14.822  1.00  0.00     0.202 C 
BRANCH  18  23
ATOM     23  C   UNL     1      14.258  32.765  15.446  1.00  0.00     0.191 C 
BRANCH  23  24
ATOM     24  O   UNL     1      13.705  33.494  16.496  1.00  0.00    -0.394 OA
ATOM     25  H   UNL     1      13.865  34.479  16.356  1.00  0.00     0.210 HD
ENDBRANCH  23  24
ENDBRANCH  18  23
BRANCH  20  26
ATOM     26  O   UNL     1      10.358  30.377  14.955  1.00  0.00    -0.350 OA
BRANCH  26  27
ATOM     27  C   UNL     1      10.298  30.529  13.571  1.00  0.00     0.169 C 
BRANCH  27  28
ATOM     28  C   UNL     1       9.085  29.776  13.072  1.00  0.00     0.119 C 
BRANCH  28  29
ATOM     29  N   UNL     1       9.499  28.499  12.543  1.00  0.00    -0.092 NA
ATOM     30  N   UNL     1      10.558  28.397  11.899  1.00  0.00     0.001 N 
ATOM     31  N   UNL     1      11.353  28.347  10.947  1.00  0.00    -0.003 NA
ENDBRANCH  28  29
ENDBRANCH  27  28
ENDBRANCH  26  27
ENDBRANCH  20  26
BRANCH  21  32
ATOM     32  O   UNL     1      14.262  28.044  14.082  1.00  0.00    -0.387 OA
ATOM     33  H   UNL     1      15.187  27.851  14.380  1.00  0.00     0.211 HD
ENDBRANCH  21  32
BRANCH  22  34
ATOM     34  O   UNL     1      11.861  27.961  15.592  1.00  0.00    -0.385 OA
ATOM     35  H   UNL     1      11.279  28.236  16.335  1.00  0.00     0.211 HD
ENDBRANCH  22  34
ENDBRANCH  16  17
ENDBRANCH  11  16
BRANCH  13  36
ATOM     36  O   UNL     1      17.211  30.825  11.218  1.00  0.00    -0.385 OA
ATOM     37  H   UNL     1      18.208  30.817  11.260  1.00  0.00     0.211 HD
ENDBRANCH  13  36
BRANCH  14  38
ATOM     38  O   UNL     1      17.256  33.515  13.389  1.00  0.00    -0.387 OA
ATOM     39  H   UNL     1      16.963  33.508  14.335  1.00  0.00     0.211 HD
ENDBRANCH  14  38
BRANCH  15  40
ATOM     40  O   UNL     1      17.765  31.749  15.283  1.00  0.00    -0.387 OA
ATOM     41  H   UNL     1      17.039  31.061  15.401  1.00  0.00     0.211 HD
ENDBRANCH  15  40
ENDBRANCH   9  10
ENDBRANCH   8   9
ENDBRANCH   3   8
BRANCH   3  42
ATOM     42  C   UNL     1      20.191  29.328  17.863  1.00  0.00     0.364 C 
ATOM     43  O   UNL     1      20.949  30.272  18.150  1.00  0.00    -0.246 OA
BRANCH  42  44
ATOM     44  O   UNL     1      20.750  28.049  18.104  1.00  0.00    -0.477 OA
ATOM     45  H   UNL     1      21.591  27.792  17.566  1.00  0.00     0.296 HD
ENDBRANCH  42  44
ENDBRANCH   3  42
BRANCH   6  46
ATOM     46  O   UNL     1      16.657  28.434  16.222  1.00  0.00    -0.391 OA
ATOM     47  H   UNL     1      16.279  27.600  15.828  1.00  0.00     0.211 HD
ENDBRANCH   6  46
BRANCH   7  48
ATOM     48  N   UNL     1      15.010  29.478  19.130  1.00  0.00    -0.348 N 
ATOM     49  C   UNL     1      14.972  28.734  20.313  1.00  0.00     0.217 C 
ATOM     50  H   UNL     1      14.076  29.977  18.895  1.00  0.00     0.163 HD
ATOM     51  C   UNL     1      13.693  28.715  21.127  1.00  0.00     0.114 C 
ATOM     52  O   UNL     1      15.941  28.064  20.763  1.00  0.00    -0.275 OA
ENDBRANCH   7  48
ENDBRANCH   1   2
BRANCH   1  53
ATOM     53  O   UNL     1      16.362  31.959  20.282  1.00  0.00    -0.388 OA
ATOM     54  H   UNL     1      16.036  32.837  20.552  1.00  0.00     0.211 HD
ENDBRANCH   1  53
BRANCH   1  55
ATOM     55  C   UNL     1      17.959  32.866  18.850  1.00  0.00     0.165 C 
BRANCH  55  56
ATOM     56  O   UNL     1      18.954  32.670  19.768  1.00  0.00    -0.388 OA
ATOM     57  H   UNL     1      19.865  32.673  19.395  1.00  0.00     0.211 HD
ENDBRANCH  55  56
BRANCH  55  58
ATOM     58  C   UNL     1      17.463  34.277  18.854  1.00  0.00     0.154 C 
BRANCH  58  59
ATOM     59  N   UNL     1      16.096  34.366  18.486  1.00  0.00    -0.319 N 
ATOM     60  C   UNL     1      15.267  35.441  18.877  1.00  0.00     0.407 C 
ATOM     61  H   UNL     1      15.646  33.616  17.896  1.00  0.00     0.167 HD
ATOM     62  O   UNL     1      15.714  36.384  19.586  1.00  0.00    -0.225 OA
BRANCH  60  63
ATOM     63  O   UNL     1      13.926  35.524  18.506  1.00  0.00    -0.443 OA
BRANCH  63  64
ATOM     64  C   UNL     1      12.966  35.446  19.566  1.00  0.00     0.294 C 
BRANCH  64  65
ATOM     65  C   UNL     1      13.069  34.094  20.144  1.00  0.00     0.121 A 
ATOM     66  C   UNL     1      12.906  33.720  21.475  1.00  0.00     0.144 A 
ATOM     67  N   UNL     1      13.335  32.963  19.471  1.00  0.00    -0.131 NA
ATOM     68  N   UNL     1      13.077  32.380  21.554  1.00  0.00    -0.220 N 
ATOM     69  N   UNL     1      13.334  31.955  20.334  1.00  0.00    -0.062 NA
BRANCH  68  70
ATOM     70  C   UNL     1      12.971  31.645  22.762  1.00  0.00     0.067 A 
ATOM     71  C   UNL     1      11.829  30.883  23.010  1.00  0.00     0.036 A 
ATOM     72  C   UNL     1      13.959  31.660  23.688  1.00  0.00     0.028 A 
ATOM     73  C   UNL     1      11.682  30.159  24.152  1.00  0.00    -0.023 A 
ATOM     74  C   UNL     1      13.853  30.935  24.873  1.00  0.00     0.003 A 
ATOM     75  C   UNL     1      12.709  30.198  25.076  1.00  0.00     0.008 A 
BRANCH  73  76
ATOM     76  C   UNL     1      10.497  29.371  24.414  1.00  0.00     0.015 C 
ATOM     77  C   UNL     1      10.583  28.133  24.830  1.00  0.00     0.094 C 
BRANCH  77  78
ATOM     78  C   UNL     1       9.357  27.373  25.083  1.00  0.00     0.328 C 
ATOM     79  O   UNL     1       8.367  27.483  24.350  1.00  0.00    -0.247 OA
BRANCH  78  80
ATOM     80  O   UNL     1       9.282  26.501  26.166  1.00  0.00    -0.478 OA
ATOM     81  H   UNL     1      10.164  26.140  26.537  1.00  0.00     0.297 HD
ENDBRANCH  78  80
ENDBRANCH  77  78
ENDBRANCH  73  76
ENDBRANCH  68  70
ENDBRANCH  64  65
ENDBRANCH  63  64
ENDBRANCH  60  63
ENDBRANCH  58  59
ENDBRANCH  55  58
ENDBRANCH   1  55
TORSDOF 33
