REMARK VINA RESULT:    -6.318      3.226      7.500
REMARK INTER + INTRA:         -21.377
REMARK INTER:                 -12.948
REMARK INTRA:                  -8.429
REMARK UNBOUND:                -5.087
REMARK SMILES CC(=O)N[C@@H]1[C@@H](O)C[C@](OC[C@H]2O[C@@H](O[C@H]3[C@H](O)[C@@H](O)[C@H](OCCN=[N+]=[N-])O[C@@H]3CO)[C@H](O)[C@@H](O)[C@H]2O)(C(=O)O)O[C@H]1C(O)[C@H](O)CNC(=O)OCc1cn(CS(=O)(=O)c2ccccc2)nn1
REMARK SMILES IDX 9 1 8 2 6 3 5 4 42 5 41 6 10 7 11 8 12 9 14 10 13 11 32 12
REMARK SMILES IDX 34 13 36 14 15 15 16 16 29 17 28 18 21 19 17 20 19 21 30 22
REMARK SMILES IDX 31 23 22 25 23 26 24 27 25 28 26 29 27 30 18 31 20 33 33 35
REMARK SMILES IDX 35 37 37 39 38 41 39 42 40 43 7 45 43 47 44 48 45 50 46 51
REMARK SMILES IDX 47 53 48 54 49 55 50 57 51 58 52 59 53 60 54 61 67 62 55 63
REMARK SMILES IDX 66 64 56 65 57 66 58 67 59 68 60 69 61 70 65 71 62 72 64 73
REMARK SMILES IDX 63 74 4 75 2 76 1 78 3 79
REMARK H PARENT 31 24 18 32 20 34 33 36 35 38 37 40 40 44 7 46 44 49 46 52
REMARK H PARENT 48 56 4 77
REMARK Flexibility Score: inf
ROOT
ATOM      1  C   UNL     1      17.702  30.133  14.781  1.00  0.00     0.272 C 
ATOM      2  C   UNL     1      17.465  31.440  15.421  1.00  0.00     0.113 C 
ATOM      3  C   UNL     1      16.009  31.779  15.669  1.00  0.00     0.145 C 
ATOM      4  C   UNL     1      15.292  31.550  14.385  1.00  0.00     0.142 C 
ATOM      5  C   UNL     1      15.580  30.209  13.770  1.00  0.00     0.178 C 
ATOM      6  O   UNL     1      16.866  29.809  13.725  1.00  0.00    -0.332 OA
ENDROOT
BRANCH   1   7
ATOM      7  O   UNL     1      17.852  29.096  15.677  1.00  0.00    -0.338 OA
BRANCH   7   8
ATOM      8  C   UNL     1      18.622  29.324  16.771  1.00  0.00     0.199 C 
BRANCH   8   9
ATOM      9  C   UNL     1      18.456  28.188  17.803  1.00  0.00     0.179 C 
ATOM     10  C   UNL     1      19.737  28.398  19.782  1.00  0.00     0.282 C 
ATOM     11  O   UNL     1      19.616  28.070  18.461  1.00  0.00    -0.341 OA
ATOM     12  C   UNL     1      18.816  29.491  20.170  1.00  0.00     0.202 C 
ATOM     13  C   UNL     1      17.399  29.202  19.776  1.00  0.00     0.179 C 
ATOM     14  C   UNL     1      17.241  28.288  18.630  1.00  0.00     0.177 C 
BRANCH  10  15
ATOM     15  O   UNL     1      21.089  28.745  19.945  1.00  0.00    -0.341 OA
BRANCH  15  16
ATOM     16  C   UNL     1      21.874  27.840  20.574  1.00  0.00     0.184 C 
ATOM     17  C   UNL     1      22.429  26.805  19.641  1.00  0.00     0.178 C 
ATOM     18  O   UNL     1      23.525  26.225  20.275  1.00  0.00    -0.341 OA
ATOM     19  C   UNL     1      23.316  25.852  21.574  1.00  0.00     0.281 C 
ATOM     20  C   UNL     1      21.061  27.000  21.589  1.00  0.00     0.180 C 
ATOM     21  C   UNL     1      21.914  25.882  22.045  1.00  0.00     0.202 C 
BRANCH  17  22
ATOM     22  C   UNL     1      22.853  27.292  18.301  1.00  0.00     0.191 C 
BRANCH  22  23
ATOM     23  O   UNL     1      21.886  26.953  17.361  1.00  0.00    -0.394 OA
ATOM     24  H   UNL     1      21.939  25.991  17.156  1.00  0.00     0.210 HD
ENDBRANCH  22  23
ENDBRANCH  17  22
BRANCH  19  25
ATOM     25  O   UNL     1      24.078  26.709  22.363  1.00  0.00    -0.350 OA
BRANCH  25  26
ATOM     26  C   UNL     1      24.212  26.215  23.681  1.00  0.00     0.169 C 
BRANCH  26  27
ATOM     27  C   UNL     1      23.821  27.301  24.658  1.00  0.00     0.119 C 
BRANCH  27  28
ATOM     28  N   UNL     1      23.003  26.685  25.699  1.00  0.00    -0.092 NA
ATOM     29  N   UNL     1      21.766  26.833  25.626  1.00  0.00     0.001 N 
ATOM     30  N   UNL     1      20.587  27.233  25.642  1.00  0.00    -0.003 NA
ENDBRANCH  27  28
ENDBRANCH  26  27
ENDBRANCH  25  26
ENDBRANCH  19  25
BRANCH  20  31
ATOM     31  O   UNL     1      20.673  27.787  22.661  1.00  0.00    -0.387 OA
ATOM     32  H   UNL     1      21.489  28.051  23.158  1.00  0.00     0.211 HD
ENDBRANCH  20  31
BRANCH  21  33
ATOM     33  O   UNL     1      21.309  24.676  21.610  1.00  0.00    -0.385 OA
ATOM     34  H   UNL     1      21.703  23.886  22.035  1.00  0.00     0.211 HD
ENDBRANCH  21  33
ENDBRANCH  15  16
ENDBRANCH  10  15
BRANCH  12  35
ATOM     35  O   UNL     1      18.757  29.629  21.594  1.00  0.00    -0.385 OA
ATOM     36  H   UNL     1      19.185  30.498  21.781  1.00  0.00     0.211 HD
ENDBRANCH  12  35
BRANCH  13  37
ATOM     37  O   UNL     1      16.684  30.408  19.566  1.00  0.00    -0.387 OA
ATOM     38  H   UNL     1      15.845  30.209  19.060  1.00  0.00     0.211 HD
ENDBRANCH  13  37
BRANCH  14  39
ATOM     39  O   UNL     1      16.110  28.670  17.884  1.00  0.00    -0.387 OA
ATOM     40  H   UNL     1      16.432  29.078  17.039  1.00  0.00     0.211 HD
ENDBRANCH  14  39
ENDBRANCH   8   9
ENDBRANCH   7   8
ENDBRANCH   1   7
BRANCH   1  41
ATOM     41  C   UNL     1      19.040  30.277  14.073  1.00  0.00     0.364 C 
ATOM     42  O   UNL     1      19.506  31.420  13.938  1.00  0.00    -0.246 OA
BRANCH  41  43
ATOM     43  O   UNL     1      19.707  29.158  13.603  1.00  0.00    -0.477 OA
ATOM     44  H   UNL     1      20.610  29.262  13.115  1.00  0.00     0.296 HD
ENDBRANCH  41  43
ENDBRANCH   1  41
BRANCH   3  45
ATOM     45  O   UNL     1      15.554  31.046  16.730  1.00  0.00    -0.391 OA
ATOM     46  H   UNL     1      15.339  31.680  17.468  1.00  0.00     0.211 HD
ENDBRANCH   3  45
BRANCH   5  47
ATOM     47  C   UNL     1      14.620  29.137  14.231  1.00  0.00     0.176 C 
BRANCH  47  48
ATOM     48  O   UNL     1      14.832  28.723  15.544  1.00  0.00    -0.388 OA
ATOM     49  H   UNL     1      15.763  28.653  15.802  1.00  0.00     0.211 HD
ENDBRANCH  47  48
BRANCH  47  50
ATOM     50  C   UNL     1      13.162  29.539  14.060  1.00  0.00     0.165 C 
BRANCH  50  51
ATOM     51  O   UNL     1      13.010  30.735  13.398  1.00  0.00    -0.388 OA
ATOM     52  H   UNL     1      12.323  31.324  13.747  1.00  0.00     0.211 HD
ENDBRANCH  50  51
BRANCH  50  53
ATOM     53  C   UNL     1      12.360  29.481  15.304  1.00  0.00     0.154 C 
BRANCH  53  54
ATOM     54  N   UNL     1      12.766  30.317  16.391  1.00  0.00    -0.319 N 
ATOM     55  C   UNL     1      12.382  31.660  16.607  1.00  0.00     0.407 C 
ATOM     56  H   UNL     1      13.425  29.891  17.113  1.00  0.00     0.167 HD
ATOM     57  O   UNL     1      11.607  32.242  15.826  1.00  0.00    -0.225 OA
BRANCH  55  58
ATOM     58  O   UNL     1      12.887  32.326  17.713  1.00  0.00    -0.443 OA
BRANCH  58  59
ATOM     59  C   UNL     1      12.409  32.175  19.017  1.00  0.00     0.294 C 
BRANCH  59  60
ATOM     60  C   UNL     1      13.089  31.038  19.666  1.00  0.00     0.120 A 
ATOM     61  C   UNL     1      13.149  30.853  21.037  1.00  0.00     0.139 A 
ATOM     62  N   UNL     1      13.750  29.996  19.139  1.00  0.00    -0.132 NA
ATOM     63  N   UNL     1      13.831  29.723  21.300  1.00  0.00    -0.237 N 
ATOM     64  N   UNL     1      14.183  29.229  20.117  1.00  0.00    -0.066 NA
BRANCH  63  65
ATOM     65  C   UNL     1      14.115  29.167  22.593  1.00  0.00     0.287 C 
BRANCH  65  66
ATOM     66  S   UNL     1      15.438  30.150  23.297  1.00  0.00     0.198 S 
ATOM     67  O   UNL     1      15.932  31.146  22.318  1.00  0.00    -0.222 OA
ATOM     68  O   UNL     1      16.532  29.178  23.707  1.00  0.00    -0.222 OA
BRANCH  66  69
ATOM     69  C   UNL     1      14.802  30.935  24.719  1.00  0.00     0.069 A 
ATOM     70  C   UNL     1      13.548  31.506  24.739  1.00  0.00     0.020 A 
ATOM     71  C   UNL     1      15.541  31.008  25.879  1.00  0.00     0.020 A 
ATOM     72  C   UNL     1      13.046  32.124  25.855  1.00  0.00     0.001 A 
ATOM     73  C   UNL     1      15.054  31.623  27.003  1.00  0.00     0.001 A 
ATOM     74  C   UNL     1      13.801  32.183  26.988  1.00  0.00     0.000 A 
ENDBRANCH  66  69
ENDBRANCH  65  66
ENDBRANCH  63  65
ENDBRANCH  59  60
ENDBRANCH  58  59
ENDBRANCH  55  58
ENDBRANCH  53  54
ENDBRANCH  50  53
ENDBRANCH  47  50
ENDBRANCH   5  47
BRANCH   4  75
ATOM     75  N   UNL     1      15.725  32.560  13.426  1.00  0.00    -0.348 N 
ATOM     76  C   UNL     1      14.858  33.603  12.997  1.00  0.00     0.217 C 
ATOM     77  H   UNL     1      16.703  32.559  13.005  1.00  0.00     0.163 HD
ATOM     78  C   UNL     1      15.355  34.621  12.004  1.00  0.00     0.114 C 
ATOM     79  O   UNL     1      13.676  33.687  13.439  1.00  0.00    -0.275 OA
ENDBRANCH   4  75
TORSDOF 32
