REMARK VINA RESULT:    -6.036      7.189     12.124
REMARK INTER + INTRA:         -20.823
REMARK INTER:                 -14.620
REMARK INTRA:                  -6.203
REMARK UNBOUND:                -5.964
REMARK SMILES CC(=O)N[C@@H]1[C@@H](O)C[C@](OC[C@H]2O[C@@H](O[C@H]3[C@H](O)[C@@H](O)[C@H](OCCN=[N+]=[N-])O[C@@H]3CO)[C@H](O)[C@@H](O)[C@H]2O)(C(=O)O)O[C@H]1C(O)[C@H](O)CNC(=O)OCc1cn(C2CCN(C)CC2)nn1
REMARK SMILES IDX 9 1 8 2 6 3 5 4 42 5 41 6 10 7 11 8 12 9 14 10 13 11 32 12
REMARK SMILES IDX 34 13 36 14 15 15 16 16 29 17 28 18 21 19 17 20 19 21 30 22
REMARK SMILES IDX 31 23 22 25 23 26 24 27 25 28 26 29 27 30 18 31 20 33 33 35
REMARK SMILES IDX 35 37 37 39 38 41 39 42 40 43 7 45 43 47 44 48 45 50 46 51
REMARK SMILES IDX 47 53 48 54 49 55 50 57 51 58 52 59 53 60 54 61 64 62 55 63
REMARK SMILES IDX 63 64 56 65 57 66 62 67 58 68 61 69 59 70 60 71 4 72 2 73
REMARK SMILES IDX 1 75 3 76
REMARK H PARENT 31 24 18 32 20 34 33 36 35 38 37 40 40 44 7 46 44 49 46 52
REMARK H PARENT 48 56 4 74
REMARK Flexibility Score: inf
ROOT
ATOM      1  C   UNL     1      20.916  28.604  23.686  1.00  0.00     0.272 C 
ATOM      2  C   UNL     1      22.252  29.308  23.528  1.00  0.00     0.113 C 
ATOM      3  C   UNL     1      23.435  28.442  23.396  1.00  0.00     0.145 C 
ATOM      4  C   UNL     1      23.223  27.199  22.561  1.00  0.00     0.142 C 
ATOM      5  C   UNL     1      21.803  26.800  22.447  1.00  0.00     0.178 C 
ATOM      6  O   UNL     1      20.830  27.693  22.584  1.00  0.00    -0.332 OA
ENDROOT
BRANCH   1   7
ATOM      7  O   UNL     1      19.940  29.482  23.409  1.00  0.00    -0.338 OA
BRANCH   7   8
ATOM      8  C   UNL     1      18.986  29.998  24.106  1.00  0.00     0.199 C 
BRANCH   8   9
ATOM      9  C   UNL     1      18.155  31.164  23.668  1.00  0.00     0.179 C 
ATOM     10  C   UNL     1      16.153  30.314  22.683  1.00  0.00     0.282 C 
ATOM     11  O   UNL     1      17.433  30.746  22.585  1.00  0.00    -0.341 OA
ATOM     12  C   UNL     1      15.623  30.265  24.050  1.00  0.00     0.202 C 
ATOM     13  C   UNL     1      15.878  31.661  24.645  1.00  0.00     0.179 C 
ATOM     14  C   UNL     1      17.354  31.789  24.761  1.00  0.00     0.177 C 
BRANCH  10  15
ATOM     15  O   UNL     1      16.128  29.147  21.930  1.00  0.00    -0.341 OA
BRANCH  15  16
ATOM     16  C   UNL     1      16.336  29.250  20.616  1.00  0.00     0.184 C 
ATOM     17  C   UNL     1      15.132  28.841  19.840  1.00  0.00     0.178 C 
ATOM     18  O   UNL     1      15.242  29.356  18.543  1.00  0.00    -0.341 OA
ATOM     19  C   UNL     1      16.273  28.733  17.879  1.00  0.00     0.281 C 
ATOM     20  C   UNL     1      17.446  28.329  20.085  1.00  0.00     0.180 C 
ATOM     21  C   UNL     1      17.585  28.713  18.615  1.00  0.00     0.202 C 
BRANCH  17  22
ATOM     22  C   UNL     1      13.823  29.164  20.473  1.00  0.00     0.191 C 
BRANCH  22  23
ATOM     23  O   UNL     1      13.602  28.280  21.520  1.00  0.00    -0.394 OA
ATOM     24  H   UNL     1      14.448  27.979  21.939  1.00  0.00     0.210 HD
ENDBRANCH  22  23
ENDBRANCH  17  22
BRANCH  19  25
ATOM     25  O   UNL     1      16.498  29.477  16.713  1.00  0.00    -0.350 OA
BRANCH  25  26
ATOM     26  C   UNL     1      15.393  29.618  15.914  1.00  0.00     0.169 C 
BRANCH  26  27
ATOM     27  C   UNL     1      15.360  28.652  14.746  1.00  0.00     0.119 C 
BRANCH  27  28
ATOM     28  N   UNL     1      16.129  29.162  13.627  1.00  0.00    -0.092 NA
ATOM     29  N   UNL     1      17.319  28.882  13.495  1.00  0.00     0.001 N 
ATOM     30  N   UNL     1      18.537  29.070  13.487  1.00  0.00    -0.003 NA
ENDBRANCH  27  28
ENDBRANCH  26  27
ENDBRANCH  25  26
ENDBRANCH  19  25
BRANCH  20  31
ATOM     31  O   UNL     1      18.663  28.560  20.668  1.00  0.00    -0.387 OA
ATOM     32  H   UNL     1      18.574  28.473  21.642  1.00  0.00     0.211 HD
ENDBRANCH  20  31
BRANCH  21  33
ATOM     33  O   UNL     1      18.463  27.854  18.003  1.00  0.00    -0.385 OA
ATOM     34  H   UNL     1      18.157  26.933  17.999  1.00  0.00     0.211 HD
ENDBRANCH  21  33
ENDBRANCH  15  16
ENDBRANCH  10  15
BRANCH  12  35
ATOM     35  O   UNL     1      14.239  30.129  24.142  1.00  0.00    -0.385 OA
ATOM     36  H   UNL     1      13.818  30.316  23.267  1.00  0.00     0.211 HD
ENDBRANCH  12  35
BRANCH  13  37
ATOM     37  O   UNL     1      15.228  31.852  25.838  1.00  0.00    -0.387 OA
ATOM     38  H   UNL     1      15.417  31.069  26.414  1.00  0.00     0.211 HD
ENDBRANCH  13  37
BRANCH  14  39
ATOM     39  O   UNL     1      17.748  31.242  25.979  1.00  0.00    -0.387 OA
ATOM     40  H   UNL     1      18.495  31.728  26.399  1.00  0.00     0.211 HD
ENDBRANCH  14  39
ENDBRANCH   8   9
ENDBRANCH   7   8
ENDBRANCH   1   7
BRANCH   1  41
ATOM     41  C   UNL     1      20.929  27.833  24.920  1.00  0.00     0.364 C 
ATOM     42  O   UNL     1      20.067  26.867  25.016  1.00  0.00    -0.246 OA
BRANCH  41  43
ATOM     43  O   UNL     1      21.709  27.947  26.040  1.00  0.00    -0.477 OA
ATOM     44  H   UNL     1      21.471  28.518  26.851  1.00  0.00     0.296 HD
ENDBRANCH  41  43
ENDBRANCH   1  41
BRANCH   3  45
ATOM     45  O   UNL     1      24.493  29.202  22.811  1.00  0.00    -0.391 OA
ATOM     46  H   UNL     1      24.634  30.039  23.300  1.00  0.00     0.211 HD
ENDBRANCH   3  45
BRANCH   5  47
ATOM     47  C   UNL     1      21.547  26.055  21.107  1.00  0.00     0.176 C 
BRANCH  47  48
ATOM     48  O   UNL     1      22.156  24.809  21.158  1.00  0.00    -0.388 OA
ATOM     49  H   UNL     1      21.975  24.326  21.991  1.00  0.00     0.211 HD
ENDBRANCH  47  48
BRANCH  47  50
ATOM     50  C   UNL     1      22.018  26.848  19.976  1.00  0.00     0.165 C 
BRANCH  50  51
ATOM     51  O   UNL     1      20.857  27.555  19.473  1.00  0.00    -0.388 OA
ATOM     52  H   UNL     1      20.050  27.193  19.911  1.00  0.00     0.211 HD
ENDBRANCH  50  51
BRANCH  50  53
ATOM     53  C   UNL     1      22.665  26.212  18.822  1.00  0.00     0.154 C 
BRANCH  53  54
ATOM     54  N   UNL     1      23.861  25.486  18.913  1.00  0.00    -0.319 N 
ATOM     55  C   UNL     1      24.373  24.552  17.979  1.00  0.00     0.407 C 
ATOM     56  H   UNL     1      24.467  25.646  19.789  1.00  0.00     0.167 HD
ATOM     57  O   UNL     1      23.781  24.310  16.909  1.00  0.00    -0.225 OA
BRANCH  55  58
ATOM     58  O   UNL     1      25.583  23.889  18.287  1.00  0.00    -0.443 OA
BRANCH  58  59
ATOM     59  C   UNL     1      26.775  24.632  18.305  1.00  0.00     0.294 C 
BRANCH  59  60
ATOM     60  C   UNL     1      27.623  24.140  19.417  1.00  0.00     0.120 A 
ATOM     61  C   UNL     1      27.536  22.872  20.018  1.00  0.00     0.138 A 
ATOM     62  N   UNL     1      28.625  24.737  20.079  1.00  0.00    -0.132 NA
ATOM     63  N   UNL     1      28.463  22.764  20.986  1.00  0.00    -0.249 N 
ATOM     64  N   UNL     1      29.105  23.903  21.000  1.00  0.00    -0.067 NA
BRANCH  63  65
ATOM     65  C   UNL     1      28.691  21.615  21.831  1.00  0.00     0.111 C 
ATOM     66  C   UNL     1      29.220  20.509  20.962  1.00  0.00     0.043 C 
ATOM     67  C   UNL     1      29.680  21.901  22.927  1.00  0.00     0.043 C 
ATOM     68  C   UNL     1      30.711  20.381  21.171  1.00  0.00     0.086 C 
ATOM     69  C   UNL     1      30.289  20.657  23.515  1.00  0.00     0.086 C 
ATOM     70  N   UNL     1      30.924  19.831  22.509  1.00  0.00    -0.306 NA
ATOM     71  C   UNL     1      30.331  18.505  22.539  1.00  0.00     0.105 C 
ENDBRANCH  63  65
ENDBRANCH  59  60
ENDBRANCH  58  59
ENDBRANCH  55  58
ENDBRANCH  53  54
ENDBRANCH  50  53
ENDBRANCH  47  50
ENDBRANCH   5  47
BRANCH   4  72
ATOM     72  N   UNL     1      24.047  26.099  23.024  1.00  0.00    -0.348 N 
ATOM     73  C   UNL     1      25.233  25.781  22.324  1.00  0.00     0.217 C 
ATOM     74  H   UNL     1      23.794  25.525  23.866  1.00  0.00     0.163 HD
ATOM     75  C   UNL     1      26.118  24.653  22.759  1.00  0.00     0.114 C 
ATOM     76  O   UNL     1      25.567  26.461  21.301  1.00  0.00    -0.275 OA
ENDBRANCH   4  72
TORSDOF 30
