REMARK VINA RESULT:    -5.577      2.518      9.021
REMARK INTER + INTRA:         -20.758
REMARK INTER:                 -14.707
REMARK INTRA:                  -6.052
REMARK UNBOUND:                -6.052
REMARK SMILES CC(=O)N[C@@H]1[C@@H](O)C[C@](OC[C@H]2O[C@@H](O[C@H]3[C@H](O)[C@@H](O)[C@H](OCCN=[N+]=[N-])O[C@@H]3CO)[C@H](O)[C@@H](O)[C@H]2O)(C(=O)O)O[C@H]1C(O)[C@H](O)CNC(=O)OCc1cn(CC(O)CO)nn1
REMARK SMILES IDX 43 1 42 2 9 3 8 4 41 5 6 6 5 7 10 8 11 9 12 10 14 11 13 12
REMARK SMILES IDX 32 13 34 14 36 15 15 16 16 17 29 18 28 19 21 20 17 21 19 22
REMARK SMILES IDX 30 23 31 24 22 26 23 27 24 28 25 29 26 30 27 31 18 32 20 34
REMARK SMILES IDX 33 36 35 38 37 40 38 42 39 43 40 44 7 46 4 48 2 49 1 51 3 52
REMARK SMILES IDX 44 53 45 55 46 56 47 58 48 59 49 60 50 62 51 63 52 64 53 65
REMARK SMILES IDX 54 66 62 67 55 68 61 69 56 70 57 71 58 72 59 74 60 75
REMARK H PARENT 31 25 18 33 20 35 33 37 35 39 37 41 40 45 7 47 4 50 44 54
REMARK H PARENT 46 57 48 61 58 73 60 76
REMARK Flexibility Score: inf
ROOT
ATOM      1  C   UNL     1       6.556  24.425  34.861  1.00  0.00     0.176 C 
ENDROOT
BRANCH   1   2
ATOM      2  C   UNL     1       5.303  25.227  34.463  1.00  0.00     0.178 C 
ATOM      3  C   UNL     1       3.042  24.980  33.822  1.00  0.00     0.272 C 
ATOM      4  C   UNL     1       3.259  25.884  32.640  1.00  0.00     0.113 C 
ATOM      5  O   UNL     1       4.273  24.426  34.203  1.00  0.00    -0.332 OA
ATOM      6  C   UNL     1       4.661  26.188  32.266  1.00  0.00     0.145 C 
ATOM      7  C   UNL     1       5.663  26.148  33.358  1.00  0.00     0.142 C 
BRANCH   3   8
ATOM      8  O   UNL     1       2.235  23.987  33.513  1.00  0.00    -0.338 OA
BRANCH   8   9
ATOM      9  C   UNL     1       2.132  22.732  33.385  1.00  0.00     0.199 C 
BRANCH   9  10
ATOM     10  C   UNL     1       2.464  21.962  32.149  1.00  0.00     0.179 C 
ATOM     11  C   UNL     1       2.326  22.108  29.870  1.00  0.00     0.282 C 
ATOM     12  O   UNL     1       2.467  22.873  31.024  1.00  0.00    -0.341 OA
ATOM     13  C   UNL     1       2.803  20.701  29.977  1.00  0.00     0.202 C 
ATOM     14  C   UNL     1       3.935  20.473  30.932  1.00  0.00     0.179 C 
ATOM     15  C   UNL     1       3.905  21.452  32.094  1.00  0.00     0.177 C 
BRANCH  11  16
ATOM     16  O   UNL     1       2.855  22.685  28.734  1.00  0.00    -0.341 OA
BRANCH  16  17
ATOM     17  C   UNL     1       2.170  23.818  28.301  1.00  0.00     0.184 C 
ATOM     18  C   UNL     1       1.961  23.739  26.819  1.00  0.00     0.178 C 
ATOM     19  O   UNL     1       2.615  24.740  26.117  1.00  0.00    -0.341 OA
ATOM     20  C   UNL     1       3.915  24.934  26.611  1.00  0.00     0.281 C 
ATOM     21  C   UNL     1       2.832  25.035  28.796  1.00  0.00     0.180 C 
ATOM     22  C   UNL     1       3.745  25.756  27.866  1.00  0.00     0.202 C 
BRANCH  18  23
ATOM     23  C   UNL     1       0.494  23.802  26.445  1.00  0.00     0.191 C 
BRANCH  23  24
ATOM     24  O   UNL     1      -0.326  23.728  27.562  1.00  0.00    -0.394 OA
ATOM     25  H   UNL     1      -1.268  23.599  27.219  1.00  0.00     0.210 HD
ENDBRANCH  23  24
ENDBRANCH  18  23
BRANCH  20  26
ATOM     26  O   UNL     1       4.598  25.643  25.636  1.00  0.00    -0.350 OA
BRANCH  26  27
ATOM     27  C   UNL     1       4.071  26.896  25.367  1.00  0.00     0.169 C 
BRANCH  27  28
ATOM     28  C   UNL     1       5.133  27.960  25.202  1.00  0.00     0.119 C 
BRANCH  28  29
ATOM     29  N   UNL     1       6.174  27.857  26.189  1.00  0.00    -0.092 NA
ATOM     30  N   UNL     1       7.300  27.417  25.991  1.00  0.00     0.001 N 
ATOM     31  N   UNL     1       8.355  26.865  25.680  1.00  0.00    -0.003 NA
ENDBRANCH  28  29
ENDBRANCH  27  28
ENDBRANCH  26  27
ENDBRANCH  20  26
BRANCH  21  32
ATOM     32  O   UNL     1       1.898  25.976  29.296  1.00  0.00    -0.387 OA
ATOM     33  H   UNL     1       1.382  26.261  28.475  1.00  0.00     0.211 HD
ENDBRANCH  21  32
BRANCH  22  34
ATOM     34  O   UNL     1       4.969  26.099  28.434  1.00  0.00    -0.385 OA
ATOM     35  H   UNL     1       5.414  25.354  28.870  1.00  0.00     0.211 HD
ENDBRANCH  22  34
ENDBRANCH  16  17
ENDBRANCH  11  16
BRANCH  13  36
ATOM     36  O   UNL     1       1.736  19.792  30.166  1.00  0.00    -0.385 OA
ATOM     37  H   UNL     1       1.320  19.869  31.045  1.00  0.00     0.211 HD
ENDBRANCH  13  36
BRANCH  14  38
ATOM     38  O   UNL     1       5.186  20.467  30.319  1.00  0.00    -0.387 OA
ATOM     39  H   UNL     1       5.209  19.754  29.637  1.00  0.00     0.211 HD
ENDBRANCH  14  38
BRANCH  15  40
ATOM     40  O   UNL     1       4.695  22.564  31.698  1.00  0.00    -0.387 OA
ATOM     41  H   UNL     1       4.378  23.389  32.140  1.00  0.00     0.211 HD
ENDBRANCH  15  40
ENDBRANCH   9  10
ENDBRANCH   8   9
ENDBRANCH   3   8
BRANCH   3  42
ATOM     42  C   UNL     1       2.524  25.749  35.000  1.00  0.00     0.364 C 
ATOM     43  O   UNL     1       2.250  25.070  36.038  1.00  0.00    -0.246 OA
BRANCH  42  44
ATOM     44  O   UNL     1       2.338  27.107  35.002  1.00  0.00    -0.477 OA
ATOM     45  H   UNL     1       2.484  27.677  34.162  1.00  0.00     0.296 HD
ENDBRANCH  42  44
ENDBRANCH   3  42
BRANCH   6  46
ATOM     46  O   UNL     1       5.042  25.241  31.284  1.00  0.00    -0.391 OA
ATOM     47  H   UNL     1       5.887  25.516  30.879  1.00  0.00     0.211 HD
ENDBRANCH   6  46
BRANCH   7  48
ATOM     48  N   UNL     1       5.941  27.511  33.803  1.00  0.00    -0.348 N 
ATOM     49  C   UNL     1       6.194  28.565  32.889  1.00  0.00     0.217 C 
ATOM     50  H   UNL     1       5.965  27.759  34.813  1.00  0.00     0.163 HD
ATOM     51  C   UNL     1       6.478  29.952  33.337  1.00  0.00     0.114 C 
ATOM     52  O   UNL     1       6.172  28.288  31.663  1.00  0.00    -0.275 OA
ENDBRANCH   7  48
ENDBRANCH   1   2
BRANCH   1  53
ATOM     53  O   UNL     1       7.556  24.656  33.937  1.00  0.00    -0.388 OA
ATOM     54  H   UNL     1       7.909  25.575  34.027  1.00  0.00     0.211 HD
ENDBRANCH   1  53
BRANCH   1  55
ATOM     55  C   UNL     1       7.026  24.851  36.243  1.00  0.00     0.165 C 
BRANCH  55  56
ATOM     56  O   UNL     1       7.800  26.015  36.014  1.00  0.00    -0.388 OA
ATOM     57  H   UNL     1       7.384  26.782  36.477  1.00  0.00     0.211 HD
ENDBRANCH  55  56
BRANCH  55  58
ATOM     58  C   UNL     1       7.882  23.843  36.929  1.00  0.00     0.154 C 
BRANCH  58  59
ATOM     59  N   UNL     1       9.278  24.224  36.936  1.00  0.00    -0.319 N 
ATOM     60  C   UNL     1      10.259  23.368  37.487  1.00  0.00     0.407 C 
ATOM     61  H   UNL     1       9.611  25.143  36.532  1.00  0.00     0.167 HD
ATOM     62  O   UNL     1       9.965  22.263  37.999  1.00  0.00    -0.225 OA
BRANCH  60  63
ATOM     63  O   UNL     1      11.595  23.714  37.479  1.00  0.00    -0.443 OA
BRANCH  63  64
ATOM     64  C   UNL     1      12.483  23.646  36.418  1.00  0.00     0.294 C 
BRANCH  64  65
ATOM     65  C   UNL     1      12.849  24.941  35.803  1.00  0.00     0.120 A 
ATOM     66  C   UNL     1      11.992  25.748  35.109  1.00  0.00     0.138 A 
ATOM     67  N   UNL     1      14.085  25.524  35.819  1.00  0.00    -0.132 NA
ATOM     68  N   UNL     1      12.722  26.808  34.715  1.00  0.00    -0.249 N 
ATOM     69  N   UNL     1      13.952  26.658  35.143  1.00  0.00    -0.067 NA
BRANCH  68  70
ATOM     70  C   UNL     1      12.257  27.936  33.938  1.00  0.00     0.180 C 
BRANCH  70  71
ATOM     71  C   UNL     1      10.865  28.302  34.472  1.00  0.00     0.161 C 
BRANCH  71  72
ATOM     72  O   UNL     1      10.932  29.596  34.928  1.00  0.00    -0.389 OA
ATOM     73  H   UNL     1      10.300  29.768  35.669  1.00  0.00     0.211 HD
ENDBRANCH  71  72
BRANCH  71  74
ATOM     74  C   UNL     1       9.844  28.146  33.371  1.00  0.00     0.189 C 
BRANCH  74  75
ATOM     75  O   UNL     1       9.076  27.024  33.591  1.00  0.00    -0.394 OA
ATOM     76  H   UNL     1       8.960  26.530  32.738  1.00  0.00     0.210 HD
ENDBRANCH  74  75
ENDBRANCH  71  74
ENDBRANCH  70  71
ENDBRANCH  68  70
ENDBRANCH  64  65
ENDBRANCH  63  64
ENDBRANCH  60  63
ENDBRANCH  58  59
ENDBRANCH  55  58
ENDBRANCH   1  55
TORSDOF 34
