REMARK VINA RESULT:    -6.210      2.770      6.404
REMARK INTER + INTRA:         -21.920
REMARK INTER:                 -14.348
REMARK INTRA:                  -7.572
REMARK UNBOUND:                -6.272
REMARK SMILES CC(=O)N[C@@H]1[C@@H](O)C[C@](OC[C@H]2O[C@@H](O[C@H]3[C@H](O)[C@@H](O)[C@H](OCCN=[N+]=[N-])O[C@@H]3CO)[C@H](O)[C@@H](O)[C@H]2O)(C(=O)O)O[C@H]1C(O)[C@H](O)CNC(=O)OCc1cn(Cc2cccc(Br)c2)nn1
REMARK SMILES IDX 9 1 8 2 6 3 5 4 42 5 41 6 10 7 11 8 12 9 14 10 13 11 32 12
REMARK SMILES IDX 34 13 36 14 15 15 16 16 29 17 28 18 21 19 17 20 19 21 30 22
REMARK SMILES IDX 31 23 22 25 23 26 24 27 25 28 26 29 27 30 18 31 20 33 33 35
REMARK SMILES IDX 35 37 37 39 38 41 39 42 40 43 7 45 43 47 44 48 45 50 46 51
REMARK SMILES IDX 47 53 48 54 49 55 50 57 51 58 52 59 53 60 54 61 65 62 55 63
REMARK SMILES IDX 64 64 56 65 57 66 58 67 63 68 59 69 61 70 60 71 62 72 4 73
REMARK SMILES IDX 2 74 1 76 3 77
REMARK H PARENT 31 24 18 32 20 34 33 36 35 38 37 40 40 44 7 46 44 49 46 52
REMARK H PARENT 48 56 4 75
REMARK Flexibility Score: inf
ROOT
ATOM      1  C   UNL     1      18.096  30.052  20.545  1.00  0.00     0.272 C 
ATOM      2  C   UNL     1      18.693  31.259  21.164  1.00  0.00     0.113 C 
ATOM      3  C   UNL     1      19.090  32.333  20.203  1.00  0.00     0.145 C 
ATOM      4  C   UNL     1      19.552  31.790  18.869  1.00  0.00     0.142 C 
ATOM      5  C   UNL     1      18.945  30.515  18.483  1.00  0.00     0.178 C 
ATOM      6  O   UNL     1      17.866  30.099  19.199  1.00  0.00    -0.332 OA
ENDROOT
BRANCH   1   7
ATOM      7  O   UNL     1      16.875  29.745  21.224  1.00  0.00    -0.338 OA
BRANCH   7   8
ATOM      8  C   UNL     1      16.861  30.199  22.511  1.00  0.00     0.199 C 
BRANCH   8   9
ATOM      9  C   UNL     1      15.461  30.734  22.879  1.00  0.00     0.179 C 
ATOM     10  C   UNL     1      13.579  31.524  21.730  1.00  0.00     0.282 C 
ATOM     11  O   UNL     1      14.978  31.315  21.753  1.00  0.00    -0.341 OA
ATOM     12  C   UNL     1      12.966  31.364  23.064  1.00  0.00     0.202 C 
ATOM     13  C   UNL     1      13.289  30.030  23.712  1.00  0.00     0.179 C 
ATOM     14  C   UNL     1      14.630  29.516  23.221  1.00  0.00     0.177 C 
BRANCH  10  15
ATOM     15  O   UNL     1      13.139  30.704  20.719  1.00  0.00    -0.341 OA
BRANCH  15  16
ATOM     16  C   UNL     1      13.657  30.901  19.491  1.00  0.00     0.184 C 
ATOM     17  C   UNL     1      12.595  31.480  18.592  1.00  0.00     0.178 C 
ATOM     18  O   UNL     1      13.181  31.841  17.382  1.00  0.00    -0.341 OA
ATOM     19  C   UNL     1      13.662  30.751  16.653  1.00  0.00     0.281 C 
ATOM     20  C   UNL     1      14.081  29.617  18.784  1.00  0.00     0.180 C 
ATOM     21  C   UNL     1      14.742  30.101  17.484  1.00  0.00     0.202 C 
BRANCH  17  22
ATOM     22  C   UNL     1      12.037  32.714  19.217  1.00  0.00     0.191 C 
BRANCH  22  23
ATOM     23  O   UNL     1      11.510  33.561  18.258  1.00  0.00    -0.394 OA
ATOM     24  H   UNL     1      10.574  33.764  18.517  1.00  0.00     0.210 HD
ENDBRANCH  22  23
ENDBRANCH  17  22
BRANCH  19  25
ATOM     25  O   UNL     1      14.130  31.264  15.461  1.00  0.00    -0.350 OA
BRANCH  25  26
ATOM     26  C   UNL     1      13.597  30.706  14.333  1.00  0.00     0.169 C 
BRANCH  26  27
ATOM     27  C   UNL     1      14.505  29.718  13.635  1.00  0.00     0.119 C 
BRANCH  27  28
ATOM     28  N   UNL     1      14.010  28.395  13.941  1.00  0.00    -0.092 NA
ATOM     29  N   UNL     1      12.873  28.013  13.709  1.00  0.00     0.001 N 
ATOM     30  N   UNL     1      11.758  27.684  13.311  1.00  0.00    -0.003 NA
ENDBRANCH  27  28
ENDBRANCH  26  27
ENDBRANCH  25  26
ENDBRANCH  19  25
BRANCH  20  31
ATOM     31  O   UNL     1      15.008  28.885  19.469  1.00  0.00    -0.387 OA
ATOM     32  H   UNL     1      15.558  28.283  18.921  1.00  0.00     0.211 HD
ENDBRANCH  20  31
BRANCH  21  33
ATOM     33  O   UNL     1      15.325  29.007  16.900  1.00  0.00    -0.385 OA
ATOM     34  H   UNL     1      16.084  28.631  17.453  1.00  0.00     0.211 HD
ENDBRANCH  21  33
ENDBRANCH  15  16
ENDBRANCH  10  15
BRANCH  12  35
ATOM     35  O   UNL     1      13.492  32.388  23.894  1.00  0.00    -0.385 OA
ATOM     36  H   UNL     1      13.823  31.983  24.738  1.00  0.00     0.211 HD
ENDBRANCH  12  35
BRANCH  13  37
ATOM     37  O   UNL     1      12.265  29.100  23.554  1.00  0.00    -0.387 OA
ATOM     38  H   UNL     1      12.511  28.485  22.790  1.00  0.00     0.211 HD
ENDBRANCH  13  37
BRANCH  14  39
ATOM     39  O   UNL     1      14.544  28.721  22.102  1.00  0.00    -0.387 OA
ATOM     40  H   UNL     1      15.453  28.374  21.846  1.00  0.00     0.211 HD
ENDBRANCH  14  39
ENDBRANCH   8   9
ENDBRANCH   7   8
ENDBRANCH   1   7
BRANCH   1  41
ATOM     41  C   UNL     1      18.965  28.874  20.843  1.00  0.00     0.364 C 
ATOM     42  O   UNL     1      18.632  27.726  20.380  1.00  0.00    -0.246 OA
BRANCH  41  43
ATOM     43  O   UNL     1      20.114  28.890  21.583  1.00  0.00    -0.477 OA
ATOM     44  H   UNL     1      20.082  28.478  22.525  1.00  0.00     0.296 HD
ENDBRANCH  41  43
ENDBRANCH   1  41
BRANCH   3  45
ATOM     45  O   UNL     1      18.107  33.304  20.083  1.00  0.00    -0.391 OA
ATOM     46  H   UNL     1      18.430  34.156  19.715  1.00  0.00     0.211 HD
ENDBRANCH   3  45
BRANCH   5  47
ATOM     47  C   UNL     1      18.610  30.448  16.984  1.00  0.00     0.176 C 
BRANCH  47  48
ATOM     48  O   UNL     1      19.474  31.440  16.367  1.00  0.00    -0.388 OA
ATOM     49  H   UNL     1      19.412  31.282  15.391  1.00  0.00     0.211 HD
ENDBRANCH  47  48
BRANCH  47  50
ATOM     50  C   UNL     1      18.926  29.155  16.326  1.00  0.00     0.165 C 
BRANCH  50  51
ATOM     51  O   UNL     1      19.281  28.275  17.416  1.00  0.00    -0.388 OA
ATOM     52  H   UNL     1      18.423  27.964  17.837  1.00  0.00     0.211 HD
ENDBRANCH  50  51
BRANCH  50  53
ATOM     53  C   UNL     1      20.120  29.098  15.433  1.00  0.00     0.154 C 
BRANCH  53  54
ATOM     54  N   UNL     1      21.386  29.040  16.145  1.00  0.00    -0.319 N 
ATOM     55  C   UNL     1      22.339  28.059  15.774  1.00  0.00     0.407 C 
ATOM     56  H   UNL     1      21.611  29.696  16.914  1.00  0.00     0.167 HD
ATOM     57  O   UNL     1      22.084  27.247  14.841  1.00  0.00    -0.225 OA
BRANCH  55  58
ATOM     58  O   UNL     1      23.571  27.968  16.421  1.00  0.00    -0.443 OA
BRANCH  58  59
ATOM     59  C   UNL     1      23.665  28.446  17.771  1.00  0.00     0.294 C 
BRANCH  59  60
ATOM     60  C   UNL     1      23.019  27.454  18.660  1.00  0.00     0.120 A 
ATOM     61  C   UNL     1      23.502  26.240  19.080  1.00  0.00     0.138 A 
ATOM     62  N   UNL     1      21.808  27.606  19.212  1.00  0.00    -0.132 NA
ATOM     63  N   UNL     1      22.563  25.694  19.877  1.00  0.00    -0.248 N 
ATOM     64  N   UNL     1      21.545  26.539  19.940  1.00  0.00    -0.067 NA
BRANCH  63  65
ATOM     65  C   UNL     1      22.677  24.397  20.538  1.00  0.00     0.181 C 
BRANCH  65  66
ATOM     66  C   UNL     1      22.420  24.511  21.997  1.00  0.00    -0.025 A 
ATOM     67  C   UNL     1      21.129  24.529  22.483  1.00  0.00     0.006 A 
ATOM     68  C   UNL     1      23.427  24.608  22.925  1.00  0.00     0.021 A 
ATOM     69  C   UNL     1      20.824  24.636  23.822  1.00  0.00     0.002 A 
ATOM     70  C   UNL     1      23.159  24.716  24.270  1.00  0.00     0.018 A 
ATOM     71  C   UNL     1      21.873  24.732  24.747  1.00  0.00     0.016 A 
ATOM     72  Br  UNL     1      24.560  24.849  25.567  1.00  0.00    -0.051 Br
ENDBRANCH  65  66
ENDBRANCH  63  65
ENDBRANCH  59  60
ENDBRANCH  58  59
ENDBRANCH  55  58
ENDBRANCH  53  54
ENDBRANCH  50  53
ENDBRANCH  47  50
ENDBRANCH   5  47
BRANCH   4  73
ATOM     73  N   UNL     1      21.033  31.677  18.878  1.00  0.00    -0.348 N 
ATOM     74  C   UNL     1      21.832  32.643  18.219  1.00  0.00     0.217 C 
ATOM     75  H   UNL     1      21.512  30.881  19.371  1.00  0.00     0.163 HD
ATOM     76  C   UNL     1      23.334  32.549  18.215  1.00  0.00     0.114 C 
ATOM     77  O   UNL     1      21.260  33.597  17.628  1.00  0.00    -0.275 OA
ENDBRANCH   4  73
TORSDOF 31
