REMARK VINA RESULT:    -5.562     13.519     19.689
REMARK INTER + INTRA:         -21.544
REMARK INTER:                 -15.991
REMARK INTRA:                  -5.552
REMARK UNBOUND:                -7.364
REMARK SMILES CC(=O)N[C@@H]1[C@@H](O)C[C@](OC[C@H]2O[C@@H](O[C@H]3[C@H](O)[C@@H](O)[C@H](OCCN=[N+]=[N-])O[C@@H]3CO)[C@H](O)[C@@H](O)[C@H]2O)(C(=O)O)O[C@H]1C(O)[C@H](O)CNC(=O)OCc1cn([C@@H](C)C(=O)O)nn1
REMARK SMILES IDX 9 1 8 2 6 3 5 4 42 5 41 6 10 7 11 8 12 9 14 10 13 11 32 12
REMARK SMILES IDX 34 13 36 14 15 15 16 16 29 17 28 18 21 19 17 20 19 21 30 22
REMARK SMILES IDX 31 23 22 25 23 26 24 27 25 28 26 29 27 30 18 31 20 33 33 35
REMARK SMILES IDX 35 37 37 39 38 41 39 42 40 43 7 45 43 47 44 48 45 50 46 51
REMARK SMILES IDX 47 53 48 54 49 55 50 57 51 58 52 59 53 60 54 61 62 62 55 63
REMARK SMILES IDX 61 64 56 65 57 66 58 67 59 68 60 69 4 71 2 72 1 74 3 75
REMARK H PARENT 31 24 18 32 20 34 33 36 35 38 37 40 40 44 7 46 44 49 46 52
REMARK H PARENT 48 56 60 70 4 73
REMARK Flexibility Score: inf
ROOT
ATOM      1  C   UNL     1      19.460  29.003  16.862  1.00  0.00     0.272 C 
ATOM      2  C   UNL     1      20.099  29.957  17.795  1.00  0.00     0.113 C 
ATOM      3  C   UNL     1      19.654  29.579  19.189  1.00  0.00     0.145 C 
ATOM      4  C   UNL     1      18.157  30.053  19.211  1.00  0.00     0.142 C 
ATOM      5  C   UNL     1      17.487  29.692  17.974  1.00  0.00     0.178 C 
ATOM      6  O   UNL     1      18.106  28.795  17.144  1.00  0.00    -0.332 OA
ENDROOT
BRANCH   1   7
ATOM      7  O   UNL     1      20.128  27.821  16.772  1.00  0.00    -0.338 OA
BRANCH   7   8
ATOM      8  C   UNL     1      21.343  27.788  16.196  1.00  0.00     0.199 C 
BRANCH   8   9
ATOM      9  C   UNL     1      22.366  27.054  17.098  1.00  0.00     0.179 C 
ATOM     10  C   UNL     1      22.621  26.401  19.297  1.00  0.00     0.282 C 
ATOM     11  O   UNL     1      21.765  26.896  18.318  1.00  0.00    -0.341 OA
ATOM     12  C   UNL     1      23.936  25.940  18.739  1.00  0.00     0.202 C 
ATOM     13  C   UNL     1      23.727  25.095  17.497  1.00  0.00     0.179 C 
ATOM     14  C   UNL     1      22.766  25.743  16.514  1.00  0.00     0.177 C 
BRANCH  10  15
ATOM     15  O   UNL     1      22.072  25.321  20.003  1.00  0.00    -0.341 OA
BRANCH  15  16
ATOM     16  C   UNL     1      21.636  25.701  21.264  1.00  0.00     0.184 C 
ATOM     17  C   UNL     1      22.304  26.973  21.680  1.00  0.00     0.178 C 
ATOM     18  O   UNL     1      23.212  26.780  22.722  1.00  0.00    -0.341 OA
ATOM     19  C   UNL     1      24.113  25.754  22.423  1.00  0.00     0.281 C 
ATOM     20  C   UNL     1      21.976  24.585  22.224  1.00  0.00     0.180 C 
ATOM     21  C   UNL     1      23.452  24.405  22.443  1.00  0.00     0.202 C 
BRANCH  17  22
ATOM     22  C   UNL     1      21.306  28.017  22.127  1.00  0.00     0.191 C 
BRANCH  22  23
ATOM     23  O   UNL     1      20.910  27.830  23.449  1.00  0.00    -0.394 OA
ATOM     24  H   UNL     1      21.364  28.477  24.026  1.00  0.00     0.210 HD
ENDBRANCH  22  23
ENDBRANCH  17  22
BRANCH  19  25
ATOM     25  O   UNL     1      25.083  25.790  23.409  1.00  0.00    -0.350 OA
BRANCH  25  26
ATOM     26  C   UNL     1      24.695  26.668  24.400  1.00  0.00     0.169 C 
BRANCH  26  27
ATOM     27  C   UNL     1      25.296  26.268  25.732  1.00  0.00     0.119 C 
BRANCH  27  28
ATOM     28  N   UNL     1      24.791  24.943  26.084  1.00  0.00    -0.092 NA
ATOM     29  N   UNL     1      23.596  24.729  26.289  1.00  0.00     0.001 N 
ATOM     30  N   UNL     1      22.390  24.567  26.231  1.00  0.00    -0.003 NA
ENDBRANCH  27  28
ENDBRANCH  26  27
ENDBRANCH  25  26
ENDBRANCH  19  25
BRANCH  20  31
ATOM     31  O   UNL     1      21.342  24.743  23.456  1.00  0.00    -0.387 OA
ATOM     32  H   UNL     1      21.907  24.513  24.224  1.00  0.00     0.211 HD
ENDBRANCH  20  31
BRANCH  21  33
ATOM     33  O   UNL     1      23.999  23.634  21.419  1.00  0.00    -0.385 OA
ATOM     34  H   UNL     1      24.166  24.174  20.613  1.00  0.00     0.211 HD
ENDBRANCH  21  33
ENDBRANCH  15  16
ENDBRANCH  10  15
BRANCH  12  35
ATOM     35  O   UNL     1      24.862  26.941  18.566  1.00  0.00    -0.385 OA
ATOM     36  H   UNL     1      24.650  27.466  17.733  1.00  0.00     0.211 HD
ENDBRANCH  12  35
BRANCH  13  37
ATOM     37  O   UNL     1      23.172  23.871  17.931  1.00  0.00    -0.387 OA
ATOM     38  H   UNL     1      23.026  23.879  18.914  1.00  0.00     0.211 HD
ENDBRANCH  13  37
BRANCH  14  39
ATOM     39  O   UNL     1      21.660  24.926  16.288  1.00  0.00    -0.387 OA
ATOM     40  H   UNL     1      21.811  24.039  16.706  1.00  0.00     0.211 HD
ENDBRANCH  14  39
ENDBRANCH   8   9
ENDBRANCH   7   8
ENDBRANCH   1   7
BRANCH   1  41
ATOM     41  C   UNL     1      19.422  29.647  15.522  1.00  0.00     0.364 C 
ATOM     42  O   UNL     1      19.904  30.778  15.361  1.00  0.00    -0.246 OA
BRANCH  41  43
ATOM     43  O   UNL     1      18.853  29.007  14.431  1.00  0.00    -0.477 OA
ATOM     44  H   UNL     1      18.913  27.983  14.330  1.00  0.00     0.296 HD
ENDBRANCH  41  43
ENDBRANCH   1  41
BRANCH   3  45
ATOM     45  O   UNL     1      19.587  28.193  19.255  1.00  0.00    -0.391 OA
ATOM     46  H   UNL     1      19.643  27.843  20.160  1.00  0.00     0.211 HD
ENDBRANCH   3  45
BRANCH   5  47
ATOM     47  C   UNL     1      16.038  29.248  18.091  1.00  0.00     0.176 C 
BRANCH  47  48
ATOM     48  O   UNL     1      15.260  30.444  18.292  1.00  0.00    -0.388 OA
ATOM     49  H   UNL     1      14.804  30.388  19.148  1.00  0.00     0.211 HD
ENDBRANCH  47  48
BRANCH  47  50
ATOM     50  C   UNL     1      15.740  28.444  19.341  1.00  0.00     0.165 C 
BRANCH  50  51
ATOM     51  O   UNL     1      16.272  27.193  19.385  1.00  0.00    -0.388 OA
ATOM     52  H   UNL     1      15.747  26.464  18.987  1.00  0.00     0.211 HD
ENDBRANCH  50  51
BRANCH  50  53
ATOM     53  C   UNL     1      14.317  28.567  19.769  1.00  0.00     0.154 C 
BRANCH  53  54
ATOM     54  N   UNL     1      14.062  28.687  21.156  1.00  0.00    -0.319 N 
ATOM     55  C   UNL     1      13.319  29.704  21.811  1.00  0.00     0.407 C 
ATOM     56  H   UNL     1      14.475  27.925  21.778  1.00  0.00     0.167 HD
ATOM     57  O   UNL     1      12.809  30.608  21.138  1.00  0.00    -0.225 OA
BRANCH  55  58
ATOM     58  O   UNL     1      13.176  29.672  23.208  1.00  0.00    -0.443 OA
BRANCH  58  59
ATOM     59  C   UNL     1      12.122  30.353  23.836  1.00  0.00     0.294 C 
BRANCH  59  60
ATOM     60  C   UNL     1      11.017  29.475  24.239  1.00  0.00     0.120 A 
ATOM     61  C   UNL     1       9.661  29.719  24.235  1.00  0.00     0.139 A 
ATOM     62  N   UNL     1      11.202  28.211  24.702  1.00  0.00    -0.132 NA
ATOM     63  N   UNL     1       9.069  28.613  24.687  1.00  0.00    -0.238 N 
ATOM     64  N   UNL     1       9.991  27.702  24.971  1.00  0.00    -0.066 NA
BRANCH  63  65
ATOM     65  C   UNL     1       7.642  28.426  24.851  1.00  0.00     0.215 C 
ATOM     66  C   UNL     1       6.908  29.158  23.771  1.00  0.00     0.046 C 
BRANCH  65  67
ATOM     67  C   UNL     1       7.281  26.988  24.830  1.00  0.00     0.328 C 
ATOM     68  O   UNL     1       6.491  26.556  25.704  1.00  0.00    -0.250 OA
BRANCH  67  69
ATOM     69  O   UNL     1       7.784  26.109  23.884  1.00  0.00    -0.480 OA
ATOM     70  H   UNL     1       7.677  25.106  23.976  1.00  0.00     0.296 HD
ENDBRANCH  67  69
ENDBRANCH  65  67
ENDBRANCH  63  65
ENDBRANCH  59  60
ENDBRANCH  58  59
ENDBRANCH  55  58
ENDBRANCH  53  54
ENDBRANCH  50  53
ENDBRANCH  47  50
ENDBRANCH   5  47
BRANCH   4  71
ATOM     71  N   UNL     1      18.160  31.463  19.555  1.00  0.00    -0.348 N 
ATOM     72  C   UNL     1      17.289  32.116  20.426  1.00  0.00     0.217 C 
ATOM     73  H   UNL     1      18.910  32.046  19.085  1.00  0.00     0.163 HD
ATOM     74  C   UNL     1      17.393  33.570  20.695  1.00  0.00     0.114 C 
ATOM     75  O   UNL     1      16.397  31.460  20.995  1.00  0.00    -0.275 OA
ENDBRANCH   4  71
TORSDOF 32
