REMARK VINA RESULT:    -5.580      6.304      9.624
REMARK INTER + INTRA:         -21.155
REMARK INTER:                 -14.799
REMARK INTRA:                  -6.356
REMARK UNBOUND:                -7.419
REMARK SMILES CC(=O)N[C@@H]1[C@@H](O)C[C@](OC[C@H]2O[C@@H](O[C@H]3[C@H](O)[C@@H](O)[C@H](OCCN=[N+]=[N-])O[C@@H]3CO)[C@H](O)[C@@H](O)[C@H]2O)(C(=O)O)O[C@H]1C(O)[C@H](O)CNC(=O)OCc1cn(-c2ccc(C)cc2)nn1
REMARK SMILES IDX 9 1 8 2 6 3 5 4 42 5 41 6 10 7 11 8 12 9 14 10 13 11 32 12
REMARK SMILES IDX 34 13 36 14 15 15 16 16 29 17 28 18 21 19 17 20 19 21 30 22
REMARK SMILES IDX 31 23 22 25 23 26 24 27 25 28 26 29 27 30 18 31 20 33 33 35
REMARK SMILES IDX 35 37 37 39 38 41 39 42 40 43 7 45 43 47 44 48 45 50 46 51
REMARK SMILES IDX 47 53 48 54 49 55 50 57 51 58 52 59 53 60 54 61 64 62 55 63
REMARK SMILES IDX 63 64 56 65 57 66 62 67 58 68 61 69 59 70 60 71 4 72 2 73
REMARK SMILES IDX 1 75 3 76
REMARK H PARENT 31 24 18 32 20 34 33 36 35 38 37 40 40 44 7 46 44 49 46 52
REMARK H PARENT 48 56 4 74
REMARK Flexibility Score: inf
ROOT
ATOM      1  C   UNL     1      18.030  30.174  19.988  1.00  0.00     0.272 C 
ATOM      2  C   UNL     1      17.623  28.720  20.204  1.00  0.00     0.113 C 
ATOM      3  C   UNL     1      16.431  28.353  19.404  1.00  0.00     0.145 C 
ATOM      4  C   UNL     1      16.297  29.048  18.096  1.00  0.00     0.142 C 
ATOM      5  C   UNL     1      17.476  29.921  17.678  1.00  0.00     0.178 C 
ATOM      6  O   UNL     1      18.021  30.566  18.736  1.00  0.00    -0.332 OA
ENDROOT
BRANCH   1   7
ATOM      7  O   UNL     1      19.385  30.213  20.441  1.00  0.00    -0.338 OA
BRANCH   7   8
ATOM      8  C   UNL     1      19.739  28.931  20.864  1.00  0.00     0.199 C 
BRANCH   8   9
ATOM      9  C   UNL     1      21.196  28.680  20.762  1.00  0.00     0.179 C 
ATOM     10  C   UNL     1      23.031  27.864  21.866  1.00  0.00     0.282 C 
ATOM     11  O   UNL     1      21.641  27.903  21.834  1.00  0.00    -0.341 OA
ATOM     12  C   UNL     1      23.550  27.065  20.732  1.00  0.00     0.202 C 
ATOM     13  C   UNL     1      22.474  26.842  19.706  1.00  0.00     0.179 C 
ATOM     14  C   UNL     1      21.620  28.068  19.455  1.00  0.00     0.177 C 
BRANCH  10  15
ATOM     15  O   UNL     1      23.446  27.292  23.066  1.00  0.00    -0.341 OA
BRANCH  15  16
ATOM     16  C   UNL     1      23.235  25.913  23.075  1.00  0.00     0.184 C 
ATOM     17  C   UNL     1      22.180  25.452  24.042  1.00  0.00     0.178 C 
ATOM     18  O   UNL     1      22.744  24.622  25.017  1.00  0.00    -0.341 OA
ATOM     19  C   UNL     1      23.640  25.355  25.774  1.00  0.00     0.281 C 
ATOM     20  C   UNL     1      24.552  25.300  23.500  1.00  0.00     0.180 C 
ATOM     21  C   UNL     1      24.806  25.819  24.923  1.00  0.00     0.202 C 
BRANCH  17  22
ATOM     22  C   UNL     1      21.159  24.554  23.324  1.00  0.00     0.191 C 
BRANCH  22  23
ATOM     23  O   UNL     1      20.466  25.280  22.358  1.00  0.00    -0.394 OA
ATOM     24  H   UNL     1      19.783  24.657  21.967  1.00  0.00     0.210 HD
ENDBRANCH  22  23
ENDBRANCH  17  22
BRANCH  19  25
ATOM     25  O   UNL     1      24.107  24.655  26.876  1.00  0.00    -0.350 OA
BRANCH  25  26
ATOM     26  C   UNL     1      23.940  25.321  28.064  1.00  0.00     0.169 C 
BRANCH  26  27
ATOM     27  C   UNL     1      22.585  25.175  28.697  1.00  0.00     0.119 C 
BRANCH  27  28
ATOM     28  N   UNL     1      22.365  26.155  29.732  1.00  0.00    -0.092 NA
ATOM     29  N   UNL     1      21.253  26.624  29.906  1.00  0.00     0.001 N 
ATOM     30  N   UNL     1      20.120  27.038  30.153  1.00  0.00    -0.003 NA
ENDBRANCH  27  28
ENDBRANCH  26  27
ENDBRANCH  25  26
ENDBRANCH  19  25
BRANCH  20  31
ATOM     31  O   UNL     1      24.528  23.913  23.502  1.00  0.00    -0.387 OA
ATOM     32  H   UNL     1      24.313  23.628  24.423  1.00  0.00     0.211 HD
ENDBRANCH  20  31
BRANCH  21  33
ATOM     33  O   UNL     1      24.700  27.221  24.817  1.00  0.00    -0.385 OA
ATOM     34  H   UNL     1      24.015  27.498  24.166  1.00  0.00     0.211 HD
ENDBRANCH  21  33
ENDBRANCH  15  16
ENDBRANCH  10  15
BRANCH  12  35
ATOM     35  O   UNL     1      24.683  27.655  20.141  1.00  0.00    -0.385 OA
ATOM     36  H   UNL     1      24.506  27.590  19.147  1.00  0.00     0.211 HD
ENDBRANCH  12  35
BRANCH  13  37
ATOM     37  O   UNL     1      21.760  25.716  20.031  1.00  0.00    -0.387 OA
ATOM     38  H   UNL     1      21.455  25.685  20.993  1.00  0.00     0.211 HD
ENDBRANCH  13  37
BRANCH  14  39
ATOM     39  O   UNL     1      20.483  27.690  18.768  1.00  0.00    -0.387 OA
ATOM     40  H   UNL     1      19.649  28.072  19.108  1.00  0.00     0.211 HD
ENDBRANCH  14  39
ENDBRANCH   8   9
ENDBRANCH   7   8
ENDBRANCH   1   7
BRANCH   1  41
ATOM     41  C   UNL     1      17.171  30.954  20.902  1.00  0.00     0.364 C 
ATOM     42  O   UNL     1      17.044  30.698  22.120  1.00  0.00    -0.246 OA
BRANCH  41  43
ATOM     43  O   UNL     1      16.468  32.046  20.359  1.00  0.00    -0.477 OA
ATOM     44  H   UNL     1      16.937  32.952  20.313  1.00  0.00     0.296 HD
ENDBRANCH  41  43
ENDBRANCH   1  41
BRANCH   3  45
ATOM     45  O   UNL     1      16.320  26.949  19.289  1.00  0.00    -0.391 OA
ATOM     46  H   UNL     1      16.807  26.723  18.433  1.00  0.00     0.211 HD
ENDBRANCH   3  45
BRANCH   5  47
ATOM     47  C   UNL     1      18.465  29.068  16.910  1.00  0.00     0.176 C 
BRANCH  47  48
ATOM     48  O   UNL     1      18.304  27.704  17.101  1.00  0.00    -0.388 OA
ATOM     49  H   UNL     1      18.327  27.300  16.194  1.00  0.00     0.211 HD
ENDBRANCH  47  48
BRANCH  47  50
ATOM     50  C   UNL     1      18.825  29.416  15.545  1.00  0.00     0.165 C 
BRANCH  50  51
ATOM     51  O   UNL     1      17.871  29.108  14.551  1.00  0.00    -0.388 OA
ATOM     52  H   UNL     1      17.284  28.370  14.862  1.00  0.00     0.211 HD
ENDBRANCH  50  51
BRANCH  50  53
ATOM     53  C   UNL     1      20.165  29.101  14.978  1.00  0.00     0.154 C 
BRANCH  53  54
ATOM     54  N   UNL     1      21.079  28.485  15.904  1.00  0.00    -0.319 N 
ATOM     55  C   UNL     1      22.218  27.761  15.445  1.00  0.00     0.407 C 
ATOM     56  H   UNL     1      20.915  28.560  16.934  1.00  0.00     0.167 HD
ATOM     57  O   UNL     1      22.428  27.680  14.210  1.00  0.00    -0.225 OA
BRANCH  55  58
ATOM     58  O   UNL     1      23.062  27.162  16.355  1.00  0.00    -0.443 OA
BRANCH  58  59
ATOM     59  C   UNL     1      23.742  25.978  16.114  1.00  0.00     0.294 C 
BRANCH  59  60
ATOM     60  C   UNL     1      24.828  25.773  17.074  1.00  0.00     0.121 A 
ATOM     61  C   UNL     1      25.114  24.580  17.764  1.00  0.00     0.144 A 
ATOM     62  N   UNL     1      25.746  26.631  17.495  1.00  0.00    -0.131 NA
ATOM     63  N   UNL     1      26.172  24.793  18.545  1.00  0.00    -0.220 N 
ATOM     64  N   UNL     1      26.540  26.044  18.368  1.00  0.00    -0.062 NA
BRANCH  63  65
ATOM     65  C   UNL     1      26.750  23.794  19.406  1.00  0.00     0.066 A 
ATOM     66  C   UNL     1      27.374  22.694  18.862  1.00  0.00     0.029 A 
ATOM     67  C   UNL     1      26.716  23.905  20.781  1.00  0.00     0.029 A 
ATOM     68  C   UNL     1      27.952  21.727  19.689  1.00  0.00     0.005 A 
ATOM     69  C   UNL     1      27.294  22.937  21.610  1.00  0.00     0.005 A 
ATOM     70  C   UNL     1      27.917  21.840  21.061  1.00  0.00    -0.051 A 
ATOM     71  C   UNL     1      28.547  20.809  21.947  1.00  0.00     0.044 C 
ENDBRANCH  63  65
ENDBRANCH  59  60
ENDBRANCH  58  59
ENDBRANCH  55  58
ENDBRANCH  53  54
ENDBRANCH  50  53
ENDBRANCH  47  50
ENDBRANCH   5  47
BRANCH   4  72
ATOM     72  N   UNL     1      15.025  29.728  17.948  1.00  0.00    -0.348 N 
ATOM     73  C   UNL     1      14.402  29.979  16.687  1.00  0.00     0.217 C 
ATOM     74  H   UNL     1      14.507  30.075  18.779  1.00  0.00     0.163 HD
ATOM     75  C   UNL     1      13.092  30.694  16.590  1.00  0.00     0.114 C 
ATOM     76  O   UNL     1      15.030  29.557  15.684  1.00  0.00    -0.275 OA
ENDBRANCH   4  72
TORSDOF 30
