REMARK VINA RESULT:    -5.519      2.254      5.523
REMARK INTER + INTRA:         -20.337
REMARK INTER:                 -13.241
REMARK INTRA:                  -7.096
REMARK UNBOUND:                -6.268
REMARK SMILES CC(=O)N[C@@H]1[C@@H](O)C[C@](OC[C@H]2O[C@@H](O[C@H]3[C@H](O)[C@@H](O)[C@H](OCCN=[N+]=[N-])O[C@@H]3CO)[C@H](O)[C@@H](O)[C@H]2O)(C(=O)O)O[C@H]1C(O)[C@H](O)CNC(=O)OCc1cn(C(C)(C)CO)nn1
REMARK SMILES IDX 9 1 8 2 6 3 5 4 42 5 41 6 10 7 11 8 12 9 14 10 13 11 32 12
REMARK SMILES IDX 34 13 36 14 15 15 16 16 29 17 28 18 21 19 17 20 19 21 30 22
REMARK SMILES IDX 31 23 22 25 23 26 24 27 25 28 26 29 27 30 18 31 20 33 33 35
REMARK SMILES IDX 35 37 37 39 38 41 39 42 40 43 7 45 43 47 44 48 45 50 46 51
REMARK SMILES IDX 47 53 48 54 49 55 50 57 51 58 52 59 53 60 54 61 62 62 55 63
REMARK SMILES IDX 61 64 56 65 57 66 58 67 59 68 60 69 4 71 2 72 1 74 3 75
REMARK H PARENT 31 24 18 32 20 34 33 36 35 38 37 40 40 44 7 46 44 49 46 52
REMARK H PARENT 48 56 60 70 4 73
REMARK Flexibility Score: inf
ROOT
ATOM      1  C   UNL     1      16.590  31.389  22.398  1.00  0.00     0.272 C 
ATOM      2  C   UNL     1      15.666  31.415  23.587  1.00  0.00     0.113 C 
ATOM      3  C   UNL     1      15.122  30.019  23.776  1.00  0.00     0.145 C 
ATOM      4  C   UNL     1      14.151  29.802  22.593  1.00  0.00     0.142 C 
ATOM      5  C   UNL     1      14.929  30.086  21.343  1.00  0.00     0.178 C 
ATOM      6  O   UNL     1      16.281  30.240  21.576  1.00  0.00    -0.332 OA
ENDROOT
BRANCH   1   7
ATOM      7  O   UNL     1      17.893  31.177  22.711  1.00  0.00    -0.338 OA
BRANCH   7   8
ATOM      8  C   UNL     1      18.904  31.432  21.898  1.00  0.00     0.199 C 
BRANCH   8   9
ATOM      9  C   UNL     1      19.910  30.453  21.449  1.00  0.00     0.179 C 
ATOM     10  C   UNL     1      21.134  28.672  22.254  1.00  0.00     0.282 C 
ATOM     11  O   UNL     1      20.009  29.429  22.451  1.00  0.00    -0.341 OA
ATOM     12  C   UNL     1      21.726  28.703  20.891  1.00  0.00     0.202 C 
ATOM     13  C   UNL     1      20.715  28.887  19.780  1.00  0.00     0.179 C 
ATOM     14  C   UNL     1      19.505  29.644  20.222  1.00  0.00     0.177 C 
BRANCH  10  15
ATOM     15  O   UNL     1      20.862  27.381  22.716  1.00  0.00    -0.341 OA
BRANCH  15  16
ATOM     16  C   UNL     1      21.961  26.554  22.737  1.00  0.00     0.184 C 
ATOM     17  C   UNL     1      21.615  25.088  22.873  1.00  0.00     0.178 C 
ATOM     18  O   UNL     1      22.382  24.425  23.807  1.00  0.00    -0.341 OA
ATOM     19  C   UNL     1      22.280  24.874  25.096  1.00  0.00     0.281 C 
ATOM     20  C   UNL     1      22.769  26.962  23.982  1.00  0.00     0.180 C 
ATOM     21  C   UNL     1      21.994  26.358  25.139  1.00  0.00     0.202 C 
BRANCH  17  22
ATOM     22  C   UNL     1      21.935  24.459  21.523  1.00  0.00     0.191 C 
BRANCH  22  23
ATOM     23  O   UNL     1      21.571  25.337  20.501  1.00  0.00    -0.394 OA
ATOM     24  H   UNL     1      21.553  24.924  19.617  1.00  0.00     0.210 HD
ENDBRANCH  22  23
ENDBRANCH  17  22
BRANCH  19  25
ATOM     25  O   UNL     1      23.454  24.541  25.749  1.00  0.00    -0.350 OA
BRANCH  25  26
ATOM     26  C   UNL     1      23.584  25.020  27.014  1.00  0.00     0.169 C 
BRANCH  26  27
ATOM     27  C   UNL     1      22.638  24.384  28.021  1.00  0.00     0.119 C 
BRANCH  27  28
ATOM     28  N   UNL     1      22.201  25.350  29.010  1.00  0.00    -0.092 NA
ATOM     29  N   UNL     1      23.048  25.764  29.814  1.00  0.00     0.001 N 
ATOM     30  N   UNL     1      23.864  26.500  30.412  1.00  0.00    -0.003 NA
ENDBRANCH  27  28
ENDBRANCH  26  27
ENDBRANCH  25  26
ENDBRANCH  19  25
BRANCH  20  31
ATOM     31  O   UNL     1      24.022  26.362  23.819  1.00  0.00    -0.387 OA
ATOM     32  H   UNL     1      24.685  27.082  23.994  1.00  0.00     0.211 HD
ENDBRANCH  20  31
BRANCH  21  33
ATOM     33  O   UNL     1      20.628  26.522  24.849  1.00  0.00    -0.385 OA
ATOM     34  H   UNL     1      20.074  26.208  25.624  1.00  0.00     0.211 HD
ENDBRANCH  21  33
ENDBRANCH  15  16
ENDBRANCH  10  15
BRANCH  12  35
ATOM     35  O   UNL     1      22.802  29.580  20.747  1.00  0.00    -0.385 OA
ATOM     36  H   UNL     1      23.162  29.439  19.848  1.00  0.00     0.211 HD
ENDBRANCH  12  35
BRANCH  13  37
ATOM     37  O   UNL     1      20.360  27.650  19.214  1.00  0.00    -0.387 OA
ATOM     38  H   UNL     1      19.465  27.701  18.785  1.00  0.00     0.211 HD
ENDBRANCH  13  37
BRANCH  14  39
ATOM     39  O   UNL     1      18.568  28.684  20.666  1.00  0.00    -0.387 OA
ATOM     40  H   UNL     1      18.952  27.785  20.592  1.00  0.00     0.211 HD
ENDBRANCH  14  39
ENDBRANCH   8   9
ENDBRANCH   7   8
ENDBRANCH   1   7
BRANCH   1  41
ATOM     41  C   UNL     1      16.366  32.504  21.480  1.00  0.00     0.364 C 
ATOM     42  O   UNL     1      16.024  33.625  21.866  1.00  0.00    -0.246 OA
BRANCH  41  43
ATOM     43  O   UNL     1      16.525  32.375  20.088  1.00  0.00    -0.477 OA
ATOM     44  H   UNL     1      15.799  31.875  19.588  1.00  0.00     0.296 HD
ENDBRANCH  41  43
ENDBRANCH   1  41
BRANCH   3  45
ATOM     45  O   UNL     1      16.170  29.126  23.540  1.00  0.00    -0.391 OA
ATOM     46  H   UNL     1      16.382  28.604  24.340  1.00  0.00     0.211 HD
ENDBRANCH   3  45
BRANCH   5  47
ATOM     47  C   UNL     1      14.847  28.801  20.499  1.00  0.00     0.176 C 
BRANCH  47  48
ATOM     48  O   UNL     1      15.958  27.987  20.829  1.00  0.00    -0.388 OA
ATOM     49  H   UNL     1      15.735  27.041  20.812  1.00  0.00     0.211 HD
ENDBRANCH  47  48
BRANCH  47  50
ATOM     50  C   UNL     1      15.026  29.085  19.017  1.00  0.00     0.165 C 
BRANCH  50  51
ATOM     51  O   UNL     1      16.183  29.730  18.727  1.00  0.00    -0.388 OA
ATOM     52  H   UNL     1      16.098  30.591  18.255  1.00  0.00     0.211 HD
ENDBRANCH  50  51
BRANCH  50  53
ATOM     53  C   UNL     1      13.828  29.849  18.489  1.00  0.00     0.154 C 
BRANCH  53  54
ATOM     54  N   UNL     1      14.109  30.882  17.561  1.00  0.00    -0.319 N 
ATOM     55  C   UNL     1      13.908  30.785  16.181  1.00  0.00     0.407 C 
ATOM     56  H   UNL     1      14.506  31.817  17.922  1.00  0.00     0.167 HD
ATOM     57  O   UNL     1      13.446  29.763  15.646  1.00  0.00    -0.225 OA
BRANCH  55  58
ATOM     58  O   UNL     1      14.225  31.857  15.313  1.00  0.00    -0.443 OA
BRANCH  58  59
ATOM     59  C   UNL     1      15.234  32.787  15.636  1.00  0.00     0.294 C 
BRANCH  59  60
ATOM     60  C   UNL     1      16.483  32.162  16.118  1.00  0.00     0.120 A 
ATOM     61  C   UNL     1      17.329  31.329  15.416  1.00  0.00     0.139 A 
ATOM     62  N   UNL     1      17.035  32.291  17.334  1.00  0.00    -0.132 NA
ATOM     63  N   UNL     1      18.365  30.974  16.216  1.00  0.00    -0.244 N 
ATOM     64  N   UNL     1      18.161  31.573  17.377  1.00  0.00    -0.066 NA
BRANCH  63  65
ATOM     65  C   UNL     1      19.459  30.114  15.841  1.00  0.00     0.082 C 
ATOM     66  C   UNL     1      19.143  28.698  16.221  1.00  0.00     0.039 C 
ATOM     67  C   UNL     1      20.727  30.510  16.611  1.00  0.00     0.039 C 
BRANCH  65  68
ATOM     68  C   UNL     1      19.800  30.169  14.380  1.00  0.00     0.186 C 
BRANCH  68  69
ATOM     69  O   UNL     1      19.384  29.063  13.675  1.00  0.00    -0.394 OA
ATOM     70  H   UNL     1      19.281  28.251  14.196  1.00  0.00     0.210 HD
ENDBRANCH  68  69
ENDBRANCH  65  68
ENDBRANCH  63  65
ENDBRANCH  59  60
ENDBRANCH  58  59
ENDBRANCH  55  58
ENDBRANCH  53  54
ENDBRANCH  50  53
ENDBRANCH  47  50
ENDBRANCH   5  47
BRANCH   4  71
ATOM     71  N   UNL     1      13.044  30.670  22.842  1.00  0.00    -0.348 N 
ATOM     72  C   UNL     1      11.844  30.328  23.508  1.00  0.00     0.217 C 
ATOM     73  H   UNL     1      13.084  31.679  22.507  1.00  0.00     0.163 HD
ATOM     74  C   UNL     1      10.743  31.306  23.717  1.00  0.00     0.114 C 
ATOM     75  O   UNL     1      11.696  29.172  23.936  1.00  0.00    -0.275 OA
ENDBRANCH   4  71
TORSDOF 32
