REMARK VINA RESULT:    -6.349      5.501     12.307
REMARK INTER + INTRA:         -23.166
REMARK INTER:                 -15.176
REMARK INTRA:                  -7.990
REMARK UNBOUND:                -6.425
REMARK SMILES CC(=O)N[C@@H]1[C@@H](O)C[C@](OC[C@H]2O[C@@H](O[C@H]3[C@H](O)[C@@H](O)[C@H](OCCN=[N+]=[N-])O[C@@H]3CO)[C@H](O)[C@@H](O)[C@H]2O)(C(=O)O)O[C@H]1C(O)[C@H](O)CNC(=O)OCc1cn(-c2ccc(S(=O)(=O)Nc3nccs3)cc2)nn1
REMARK SMILES IDX 43 1 42 2 9 3 8 4 41 5 6 6 5 7 10 8 11 9 12 10 14 11 13 12
REMARK SMILES IDX 32 13 34 14 36 15 15 16 16 17 29 18 28 19 21 20 17 21 19 22
REMARK SMILES IDX 30 23 31 24 22 26 23 27 24 28 25 29 26 30 27 31 18 32 20 34
REMARK SMILES IDX 33 36 35 38 37 40 38 42 39 43 40 44 7 46 4 48 2 49 1 51 3 52
REMARK SMILES IDX 44 53 45 55 46 56 47 58 48 59 49 60 50 62 51 63 52 64 53 65
REMARK SMILES IDX 54 66 72 67 55 68 71 69 56 70 57 71 70 72 58 73 69 74 59 75
REMARK SMILES IDX 60 76 61 77 62 78 63 79 64 81 65 82 68 83 66 84 67 85
REMARK H PARENT 31 25 18 33 20 35 33 37 35 39 37 41 40 45 7 47 4 50 44 54
REMARK H PARENT 46 57 48 61 63 80
REMARK Flexibility Score: inf
ROOT
ATOM      1  C   UNL     1      23.312  28.069  19.604  1.00  0.00     0.176 C 
ENDROOT
BRANCH   1   2
ATOM      2  C   UNL     1      24.015  27.355  20.709  1.00  0.00     0.178 C 
ATOM      3  C   UNL     1      23.402  25.726  22.269  1.00  0.00     0.272 C 
ATOM      4  C   UNL     1      24.902  25.935  22.571  1.00  0.00     0.113 C 
ATOM      5  O   UNL     1      22.959  26.687  21.403  1.00  0.00    -0.332 OA
ATOM      6  C   UNL     1      25.259  27.352  22.813  1.00  0.00     0.145 C 
ATOM      7  C   UNL     1      24.612  28.257  21.762  1.00  0.00     0.142 C 
BRANCH   3   8
ATOM      8  O   UNL     1      22.673  25.817  23.429  1.00  0.00    -0.338 OA
BRANCH   8   9
ATOM      9  C   UNL     1      21.442  26.408  23.298  1.00  0.00     0.199 C 
BRANCH   9  10
ATOM     10  C   UNL     1      21.076  27.293  24.466  1.00  0.00     0.179 C 
ATOM     11  C   UNL     1      21.465  27.910  26.576  1.00  0.00     0.282 C 
ATOM     12  O   UNL     1      22.081  27.363  25.425  1.00  0.00    -0.341 OA
ATOM     13  C   UNL     1      21.383  29.399  26.343  1.00  0.00     0.202 C 
ATOM     14  C   UNL     1      21.606  29.707  24.859  1.00  0.00     0.179 C 
ATOM     15  C   UNL     1      20.826  28.722  24.010  1.00  0.00     0.177 C 
BRANCH  11  16
ATOM     16  O   UNL     1      22.142  27.636  27.716  1.00  0.00    -0.341 OA
BRANCH  16  17
ATOM     17  C   UNL     1      23.251  26.822  27.579  1.00  0.00     0.184 C 
ATOM     18  C   UNL     1      23.254  25.541  28.311  1.00  0.00     0.178 C 
ATOM     19  O   UNL     1      24.607  25.204  28.593  1.00  0.00    -0.341 OA
ATOM     20  C   UNL     1      25.098  25.977  29.654  1.00  0.00     0.281 C 
ATOM     21  C   UNL     1      24.533  27.597  27.851  1.00  0.00     0.180 C 
ATOM     22  C   UNL     1      24.991  27.449  29.303  1.00  0.00     0.202 C 
BRANCH  18  23
ATOM     23  C   UNL     1      22.765  24.339  27.503  1.00  0.00     0.191 C 
BRANCH  23  24
ATOM     24  O   UNL     1      22.480  24.612  26.200  1.00  0.00    -0.394 OA
ATOM     25  H   UNL     1      22.955  23.984  25.609  1.00  0.00     0.210 HD
ENDBRANCH  23  24
ENDBRANCH  18  23
BRANCH  20  26
ATOM     26  O   UNL     1      26.411  25.621  29.866  1.00  0.00    -0.350 OA
BRANCH  26  27
ATOM     27  C   UNL     1      26.781  25.472  31.177  1.00  0.00     0.169 C 
BRANCH  27  28
ATOM     28  C   UNL     1      28.035  26.229  31.544  1.00  0.00     0.119 C 
BRANCH  28  29
ATOM     29  N   UNL     1      29.144  25.325  31.380  1.00  0.00    -0.092 NA
ATOM     30  N   UNL     1      29.822  25.380  30.357  1.00  0.00     0.001 N 
ATOM     31  N   UNL     1      30.282  25.079  29.253  1.00  0.00    -0.003 NA
ENDBRANCH  28  29
ENDBRANCH  27  28
ENDBRANCH  26  27
ENDBRANCH  20  26
BRANCH  21  32
ATOM     32  O   UNL     1      25.577  27.127  27.056  1.00  0.00    -0.387 OA
ATOM     33  H   UNL     1      25.617  26.143  27.060  1.00  0.00     0.211 HD
ENDBRANCH  21  32
BRANCH  22  34
ATOM     34  O   UNL     1      24.169  28.158  30.169  1.00  0.00    -0.385 OA
ATOM     35  H   UNL     1      24.468  29.094  30.147  1.00  0.00     0.211 HD
ENDBRANCH  22  34
ENDBRANCH  16  17
ENDBRANCH  11  16
BRANCH  13  36
ATOM     36  O   UNL     1      20.082  29.905  26.591  1.00  0.00    -0.385 OA
ATOM     37  H   UNL     1      19.461  29.202  26.831  1.00  0.00     0.211 HD
ENDBRANCH  13  36
BRANCH  14  38
ATOM     38  O   UNL     1      22.961  29.722  24.561  1.00  0.00    -0.387 OA
ATOM     39  H   UNL     1      23.515  29.942  25.354  1.00  0.00     0.211 HD
ENDBRANCH  14  38
BRANCH  15  40
ATOM     40  O   UNL     1      21.198  28.912  22.689  1.00  0.00    -0.387 OA
ATOM     41  H   UNL     1      21.637  29.758  22.507  1.00  0.00     0.211 HD
ENDBRANCH  15  40
ENDBRANCH   9  10
ENDBRANCH   8   9
ENDBRANCH   3   8
BRANCH   3  42
ATOM     42  C   UNL     1      23.310  24.391  21.676  1.00  0.00     0.364 C 
ATOM     43  O   UNL     1      24.166  23.481  21.923  1.00  0.00    -0.246 OA
BRANCH  42  44
ATOM     44  O   UNL     1      22.294  24.022  20.811  1.00  0.00    -0.477 OA
ATOM     45  H   UNL     1      22.225  24.470  19.888  1.00  0.00     0.296 HD
ENDBRANCH  42  44
ENDBRANCH   3  42
BRANCH   6  46
ATOM     46  O   UNL     1      24.946  27.787  24.101  1.00  0.00    -0.391 OA
ATOM     47  H   UNL     1      25.757  28.150  24.531  1.00  0.00     0.211 HD
ENDBRANCH   6  46
BRANCH   7  48
ATOM     48  N   UNL     1      25.548  29.220  21.302  1.00  0.00    -0.348 N 
ATOM     49  C   UNL     1      25.636  30.492  21.936  1.00  0.00     0.217 C 
ATOM     50  H   UNL     1      26.188  29.034  20.507  1.00  0.00     0.163 HD
ATOM     51  C   UNL     1      26.578  31.544  21.522  1.00  0.00     0.114 C 
ATOM     52  O   UNL     1      24.859  30.747  22.919  1.00  0.00    -0.275 OA
ENDBRANCH   7  48
ENDBRANCH   1   2
BRANCH   1  53
ATOM     53  O   UNL     1      22.660  29.215  20.157  1.00  0.00    -0.388 OA
ATOM     54  H   UNL     1      22.851  29.295  21.110  1.00  0.00     0.211 HD
ENDBRANCH   1  53
BRANCH   1  55
ATOM     55  C   UNL     1      22.304  27.276  18.821  1.00  0.00     0.165 C 
BRANCH  55  56
ATOM     56  O   UNL     1      22.926  25.989  18.677  1.00  0.00    -0.388 OA
ATOM     57  H   UNL     1      23.150  25.642  19.578  1.00  0.00     0.211 HD
ENDBRANCH  55  56
BRANCH  55  58
ATOM     58  C   UNL     1      22.198  27.765  17.382  1.00  0.00     0.154 C 
BRANCH  58  59
ATOM     59  N   UNL     1      20.851  28.239  17.199  1.00  0.00    -0.319 N 
ATOM     60  C   UNL     1      20.448  29.576  17.455  1.00  0.00     0.407 C 
ATOM     61  H   UNL     1      20.082  27.576  16.852  1.00  0.00     0.167 HD
ATOM     62  O   UNL     1      21.265  30.421  17.838  1.00  0.00    -0.225 OA
BRANCH  60  63
ATOM     63  O   UNL     1      19.128  29.978  17.286  1.00  0.00    -0.443 OA
BRANCH  63  64
ATOM     64  C   UNL     1      18.051  29.152  16.943  1.00  0.00     0.294 C 
BRANCH  64  65
ATOM     65  C   UNL     1      17.272  28.634  18.081  1.00  0.00     0.121 A 
ATOM     66  C   UNL     1      16.529  29.395  18.988  1.00  0.00     0.144 A 
ATOM     67  N   UNL     1      17.101  27.376  18.484  1.00  0.00    -0.131 NA
ATOM     68  N   UNL     1      15.938  28.580  19.900  1.00  0.00    -0.220 N 
ATOM     69  N   UNL     1      16.306  27.357  19.566  1.00  0.00    -0.062 NA
BRANCH  68  70
ATOM     70  C   UNL     1      15.094  29.019  20.979  1.00  0.00     0.066 A 
ATOM     71  C   UNL     1      13.735  29.088  20.864  1.00  0.00     0.030 A 
ATOM     72  C   UNL     1      15.695  29.394  22.167  1.00  0.00     0.030 A 
ATOM     73  C   UNL     1      12.963  29.532  21.936  1.00  0.00     0.024 A 
ATOM     74  C   UNL     1      14.977  29.838  23.251  1.00  0.00     0.024 A 
ATOM     75  C   UNL     1      13.597  29.896  23.100  1.00  0.00     0.088 A 
BRANCH  75  76
ATOM     76  S   UNL     1      12.658  30.463  24.459  1.00  0.00     0.263 S 
ATOM     77  O   UNL     1      11.496  29.508  24.644  1.00  0.00    -0.201 OA
ATOM     78  O   UNL     1      12.087  31.798  24.068  1.00  0.00    -0.201 OA
BRANCH  76  79
ATOM     79  N   UNL     1      13.639  30.566  25.846  1.00  0.00    -0.255 N 
ATOM     80  H   UNL     1      14.060  29.695  26.215  1.00  0.00     0.182 HD
BRANCH  79  81
ATOM     81  C   UNL     1      13.856  31.793  26.450  1.00  0.00     0.196 A 
ATOM     82  N   UNL     1      13.374  32.524  27.379  1.00  0.00    -0.228 NA
ATOM     83  S   UNL     1      15.233  32.903  25.885  1.00  0.00    -0.105 S 
ATOM     84  C   UNL     1      13.801  33.679  27.733  1.00  0.00     0.125 A 
ATOM     85  C   UNL     1      14.875  34.229  27.087  1.00  0.00     0.089 A 
ENDBRANCH  79  81
ENDBRANCH  76  79
ENDBRANCH  75  76
ENDBRANCH  68  70
ENDBRANCH  64  65
ENDBRANCH  63  64
ENDBRANCH  60  63
ENDBRANCH  58  59
ENDBRANCH  55  58
ENDBRANCH   1  55
TORSDOF 33
