REMARK VINA RESULT:    -5.529     14.822     20.378
REMARK INTER + INTRA:         -21.562
REMARK INTER:                 -12.929
REMARK INTRA:                  -8.633
REMARK UNBOUND:                -7.468
REMARK SMILES CC(=O)N[C@@H]1[C@@H](O)C[C@](OC[C@H]2O[C@@H](O[C@H]3[C@H](O)[C@@H](O)[C@H](OCCN=[N+]=[N-])O[C@@H]3CO)[C@H](O)[C@@H](O)[C@H]2O)(C(=O)O)O[C@H]1C(O)[C@H](O)CNC(=O)OCc1cn(CC(=O)O)nn1
REMARK SMILES IDX 9 1 8 2 6 3 5 4 42 5 41 6 10 7 11 8 12 9 14 10 13 11 32 12
REMARK SMILES IDX 34 13 36 14 15 15 16 16 29 17 28 18 21 19 17 20 19 21 30 22
REMARK SMILES IDX 31 23 22 25 23 26 24 27 25 28 26 29 27 30 18 31 20 33 33 35
REMARK SMILES IDX 35 37 37 39 38 41 39 42 40 43 7 45 43 47 44 48 45 50 46 51
REMARK SMILES IDX 47 53 48 54 49 55 50 57 51 58 52 59 53 60 54 61 61 62 55 63
REMARK SMILES IDX 60 64 56 65 57 66 58 67 59 68 4 70 2 71 1 73 3 74
REMARK H PARENT 31 24 18 32 20 34 33 36 35 38 37 40 40 44 7 46 44 49 46 52
REMARK H PARENT 48 56 59 69 4 72
REMARK Flexibility Score: inf
ROOT
ATOM      1  C   UNL     1      22.174  28.652  21.147  1.00  0.00     0.272 C 
ATOM      2  C   UNL     1      23.162  29.140  20.127  1.00  0.00     0.113 C 
ATOM      3  C   UNL     1      23.465  30.579  20.133  1.00  0.00     0.145 C 
ATOM      4  C   UNL     1      22.476  31.470  20.876  1.00  0.00     0.142 C 
ATOM      5  C   UNL     1      21.182  30.718  20.918  1.00  0.00     0.178 C 
ATOM      6  O   UNL     1      21.481  29.633  21.785  1.00  0.00    -0.332 OA
ENDROOT
BRANCH   1   7
ATOM      7  O   UNL     1      22.791  27.836  22.120  1.00  0.00    -0.338 OA
BRANCH   7   8
ATOM      8  C   UNL     1      23.733  26.981  21.636  1.00  0.00     0.199 C 
BRANCH   8   9
ATOM      9  C   UNL     1      23.882  25.788  22.594  1.00  0.00     0.179 C 
ATOM     10  C   UNL     1      22.355  24.743  23.973  1.00  0.00     0.282 C 
ATOM     11  O   UNL     1      23.124  25.925  23.729  1.00  0.00    -0.341 OA
ATOM     12  C   UNL     1      21.395  24.683  22.842  1.00  0.00     0.202 C 
ATOM     13  C   UNL     1      22.198  24.177  21.632  1.00  0.00     0.179 C 
ATOM     14  C   UNL     1      23.654  24.491  21.843  1.00  0.00     0.177 C 
BRANCH  10  15
ATOM     15  O   UNL     1      21.845  24.837  25.233  1.00  0.00    -0.341 OA
BRANCH  15  16
ATOM     16  C   UNL     1      22.228  25.992  25.915  1.00  0.00     0.184 C 
ATOM     17  C   UNL     1      22.766  25.592  27.257  1.00  0.00     0.178 C 
ATOM     18  O   UNL     1      22.555  26.570  28.190  1.00  0.00    -0.341 OA
ATOM     19  C   UNL     1      22.666  27.870  27.766  1.00  0.00     0.281 C 
ATOM     20  C   UNL     1      21.050  26.918  26.131  1.00  0.00     0.180 C 
ATOM     21  C   UNL     1      21.616  28.212  26.722  1.00  0.00     0.202 C 
BRANCH  17  22
ATOM     22  C   UNL     1      24.253  25.316  27.137  1.00  0.00     0.191 C 
BRANCH  22  23
ATOM     23  O   UNL     1      24.749  25.297  28.443  1.00  0.00    -0.394 OA
ATOM     24  H   UNL     1      24.033  25.100  29.087  1.00  0.00     0.210 HD
ENDBRANCH  22  23
ENDBRANCH  17  22
BRANCH  19  25
ATOM     25  O   UNL     1      23.938  28.144  27.343  1.00  0.00    -0.350 OA
BRANCH  25  26
ATOM     26  C   UNL     1      24.054  29.279  26.582  1.00  0.00     0.169 C 
BRANCH  26  27
ATOM     27  C   UNL     1      24.522  29.046  25.170  1.00  0.00     0.119 C 
BRANCH  27  28
ATOM     28  N   UNL     1      24.062  30.113  24.278  1.00  0.00    -0.092 NA
ATOM     29  N   UNL     1      23.119  30.805  24.712  1.00  0.00     0.001 N 
ATOM     30  N   UNL     1      22.031  31.409  24.656  1.00  0.00    -0.003 NA
ENDBRANCH  27  28
ENDBRANCH  26  27
ENDBRANCH  25  26
ENDBRANCH  19  25
BRANCH  20  31
ATOM     31  O   UNL     1      20.396  27.256  24.972  1.00  0.00    -0.387 OA
ATOM     32  H   UNL     1      19.904  26.538  24.542  1.00  0.00     0.211 HD
ENDBRANCH  20  31
BRANCH  21  33
ATOM     33  O   UNL     1      20.620  28.976  27.300  1.00  0.00    -0.385 OA
ATOM     34  H   UNL     1      19.719  28.707  26.983  1.00  0.00     0.211 HD
ENDBRANCH  21  33
ENDBRANCH  15  16
ENDBRANCH  10  15
BRANCH  12  35
ATOM     35  O   UNL     1      20.241  23.981  23.036  1.00  0.00    -0.385 OA
ATOM     36  H   UNL     1      19.908  23.629  22.195  1.00  0.00     0.211 HD
ENDBRANCH  12  35
BRANCH  13  37
ATOM     37  O   UNL     1      21.704  24.838  20.517  1.00  0.00    -0.387 OA
ATOM     38  H   UNL     1      21.784  25.829  20.589  1.00  0.00     0.211 HD
ENDBRANCH  13  37
BRANCH  14  39
ATOM     39  O   UNL     1      24.214  24.629  20.574  1.00  0.00    -0.387 OA
ATOM     40  H   UNL     1      24.059  25.523  20.187  1.00  0.00     0.211 HD
ENDBRANCH  14  39
ENDBRANCH   8   9
ENDBRANCH   7   8
ENDBRANCH   1   7
BRANCH   1  41
ATOM     41  C   UNL     1      21.209  27.762  20.462  1.00  0.00     0.364 C 
ATOM     42  O   UNL     1      20.220  27.290  21.054  1.00  0.00    -0.246 OA
BRANCH  41  43
ATOM     43  O   UNL     1      21.359  27.413  19.130  1.00  0.00    -0.477 OA
ATOM     44  H   UNL     1      20.771  26.707  18.670  1.00  0.00     0.296 HD
ENDBRANCH  41  43
ENDBRANCH   1  41
BRANCH   3  45
ATOM     45  O   UNL     1      24.789  30.889  20.464  1.00  0.00    -0.391 OA
ATOM     46  H   UNL     1      25.170  31.609  19.934  1.00  0.00     0.211 HD
ENDBRANCH   3  45
BRANCH   5  47
ATOM     47  C   UNL     1      19.987  31.435  21.444  1.00  0.00     0.176 C 
BRANCH  47  48
ATOM     48  O   UNL     1      20.511  32.297  22.464  1.00  0.00    -0.388 OA
ATOM     49  H   UNL     1      19.965  32.190  23.295  1.00  0.00     0.211 HD
ENDBRANCH  47  48
BRANCH  47  50
ATOM     50  C   UNL     1      18.954  30.536  22.088  1.00  0.00     0.165 C 
BRANCH  50  51
ATOM     51  O   UNL     1      18.413  29.680  21.093  1.00  0.00    -0.388 OA
ATOM     52  H   UNL     1      17.473  29.937  20.974  1.00  0.00     0.211 HD
ENDBRANCH  50  51
BRANCH  50  53
ATOM     53  C   UNL     1      17.855  31.275  22.746  1.00  0.00     0.154 C 
BRANCH  53  54
ATOM     54  N   UNL     1      16.597  31.108  22.078  1.00  0.00    -0.319 N 
ATOM     55  C   UNL     1      15.589  30.163  22.374  1.00  0.00     0.407 C 
ATOM     56  H   UNL     1      16.332  31.752  21.248  1.00  0.00     0.167 HD
ATOM     57  O   UNL     1      15.720  29.341  23.284  1.00  0.00    -0.225 OA
BRANCH  55  58
ATOM     58  O   UNL     1      14.391  30.104  21.653  1.00  0.00    -0.443 OA
BRANCH  58  59
ATOM     59  C   UNL     1      14.070  28.972  20.863  1.00  0.00     0.294 C 
BRANCH  59  60
ATOM     60  C   UNL     1      15.224  28.599  19.987  1.00  0.00     0.120 A 
ATOM     61  C   UNL     1      15.528  29.137  18.745  1.00  0.00     0.139 A 
ATOM     62  N   UNL     1      16.176  27.684  20.225  1.00  0.00    -0.132 NA
ATOM     63  N   UNL     1      16.640  28.533  18.288  1.00  0.00    -0.241 N 
ATOM     64  N   UNL     1      17.015  27.654  19.204  1.00  0.00    -0.066 NA
BRANCH  63  65
ATOM     65  C   UNL     1      17.336  28.777  17.021  1.00  0.00     0.268 C 
BRANCH  65  66
ATOM     66  C   UNL     1      18.786  28.723  17.279  1.00  0.00     0.325 C 
ATOM     67  O   UNL     1      19.507  27.941  16.643  1.00  0.00    -0.250 OA
BRANCH  66  68
ATOM     68  O   UNL     1      19.341  29.549  18.235  1.00  0.00    -0.480 OA
ATOM     69  H   UNL     1      20.238  29.387  18.644  1.00  0.00     0.296 HD
ENDBRANCH  66  68
ENDBRANCH  65  66
ENDBRANCH  63  65
ENDBRANCH  59  60
ENDBRANCH  58  59
ENDBRANCH  55  58
ENDBRANCH  53  54
ENDBRANCH  50  53
ENDBRANCH  47  50
ENDBRANCH   5  47
BRANCH   4  70
ATOM     70  N   UNL     1      22.462  32.787  20.340  1.00  0.00    -0.348 N 
ATOM     71  C   UNL     1      22.847  33.937  21.112  1.00  0.00     0.217 C 
ATOM     72  H   UNL     1      22.184  32.962  19.354  1.00  0.00     0.163 HD
ATOM     73  C   UNL     1      22.803  35.272  20.471  1.00  0.00     0.114 C 
ATOM     74  O   UNL     1      23.214  33.821  22.304  1.00  0.00    -0.275 OA
ENDBRANCH   4  70
TORSDOF 32
