REMARK VINA RESULT:    -6.598      3.953      6.783
REMARK INTER + INTRA:         -23.031
REMARK INTER:                 -17.151
REMARK INTRA:                  -5.880
REMARK UNBOUND:                -5.634
REMARK SMILES CC(=O)N[C@@H]1[C@@H](O)C[C@](OC[C@H]2O[C@@H](O[C@H]3[C@H](O)[C@@H](O)[C@H](OCCN=[N+]=[N-])O[C@@H]3CO)[C@H](O)[C@@H](O)[C@H]2O)(C(=O)O)O[C@H]1C(O)[C@H](O)CNC(=O)OCc1cn(Cc2ccccc2OC(C)=O)nn1
REMARK SMILES IDX 43 1 42 2 9 3 8 4 41 5 6 6 5 7 10 8 11 9 12 10 14 11 13 12
REMARK SMILES IDX 32 13 34 14 36 15 15 16 16 17 29 18 28 19 21 20 17 21 19 22
REMARK SMILES IDX 30 23 31 24 22 26 23 27 24 28 25 29 26 30 27 31 18 32 20 34
REMARK SMILES IDX 33 36 35 38 37 40 38 42 39 43 40 44 7 46 4 48 2 49 1 51 3 52
REMARK SMILES IDX 44 53 45 55 46 56 47 58 48 59 49 60 50 62 51 63 52 64 53 65
REMARK SMILES IDX 54 66 68 67 55 68 67 69 56 70 57 71 62 72 58 73 61 74 59 75
REMARK SMILES IDX 60 76 63 77 64 78 66 79 65 80
REMARK H PARENT 31 25 18 33 20 35 33 37 35 39 37 41 40 45 7 47 4 50 44 54
REMARK H PARENT 46 57 48 61
REMARK Flexibility Score: inf
ROOT
ATOM      1  C   UNL     1      16.231  30.312  23.097  1.00  0.00     0.176 C 
ENDROOT
BRANCH   1   2
ATOM      2  C   UNL     1      15.616  29.586  21.911  1.00  0.00     0.178 C 
ATOM      3  C   UNL     1      15.903  29.301  19.614  1.00  0.00     0.272 C 
ATOM      4  C   UNL     1      14.477  28.797  19.804  1.00  0.00     0.113 C 
ATOM      5  O   UNL     1      16.284  30.004  20.782  1.00  0.00    -0.332 OA
ATOM      6  C   UNL     1      13.709  29.934  20.457  1.00  0.00     0.145 C 
ATOM      7  C   UNL     1      14.151  30.025  21.867  1.00  0.00     0.142 C 
BRANCH   3   8
ATOM      8  O   UNL     1      16.030  30.189  18.588  1.00  0.00    -0.338 OA
BRANCH   8   9
ATOM      9  C   UNL     1      17.245  30.342  18.000  1.00  0.00     0.199 C 
BRANCH   9  10
ATOM     10  C   UNL     1      17.144  29.787  16.569  1.00  0.00     0.179 C 
ATOM     11  C   UNL     1      16.244  30.273  14.510  1.00  0.00     0.282 C 
ATOM     12  O   UNL     1      16.483  30.777  15.834  1.00  0.00    -0.341 OA
ATOM     13  C   UNL     1      17.572  30.310  13.840  1.00  0.00     0.202 C 
ATOM     14  C   UNL     1      18.442  29.261  14.555  1.00  0.00     0.179 C 
ATOM     15  C   UNL     1      18.506  29.502  16.025  1.00  0.00     0.177 C 
BRANCH  11  16
ATOM     16  O   UNL     1      15.255  31.090  14.019  1.00  0.00    -0.341 OA
BRANCH  16  17
ATOM     17  C   UNL     1      14.029  30.406  13.924  1.00  0.00     0.184 C 
ATOM     18  C   UNL     1      13.802  29.417  15.006  1.00  0.00     0.178 C 
ATOM     19  O   UNL     1      13.324  28.190  14.534  1.00  0.00    -0.341 OA
ATOM     20  C   UNL     1      12.283  28.298  13.622  1.00  0.00     0.281 C 
ATOM     21  C   UNL     1      14.130  29.529  12.620  1.00  0.00     0.180 C 
ATOM     22  C   UNL     1      12.726  29.053  12.369  1.00  0.00     0.202 C 
BRANCH  18  23
ATOM     23  C   UNL     1      13.028  29.900  16.192  1.00  0.00     0.191 C 
BRANCH  23  24
ATOM     24  O   UNL     1      13.751  30.892  16.837  1.00  0.00    -0.394 OA
ATOM     25  H   UNL     1      13.445  30.992  17.762  1.00  0.00     0.210 HD
ENDBRANCH  23  24
ENDBRANCH  18  23
BRANCH  20  26
ATOM     26  O   UNL     1      11.228  28.956  14.147  1.00  0.00    -0.350 OA
BRANCH  26  27
ATOM     27  C   UNL     1      10.457  29.762  13.393  1.00  0.00     0.169 C 
BRANCH  27  28
ATOM     28  C   UNL     1       8.979  29.656  13.510  1.00  0.00     0.119 C 
BRANCH  28  29
ATOM     29  N   UNL     1       8.427  28.916  12.427  1.00  0.00    -0.092 NA
ATOM     30  N   UNL     1       9.044  28.066  11.825  1.00  0.00     0.001 N 
ATOM     31  N   UNL     1       9.667  27.060  11.472  1.00  0.00    -0.003 NA
ENDBRANCH  28  29
ENDBRANCH  27  28
ENDBRANCH  26  27
ENDBRANCH  20  26
BRANCH  21  32
ATOM     32  O   UNL     1      14.660  30.284  11.603  1.00  0.00    -0.387 OA
ATOM     33  H   UNL     1      15.610  30.543  11.826  1.00  0.00     0.211 HD
ENDBRANCH  21  32
BRANCH  22  34
ATOM     34  O   UNL     1      12.617  28.304  11.219  1.00  0.00    -0.385 OA
ATOM     35  H   UNL     1      13.446  28.464  10.684  1.00  0.00     0.211 HD
ENDBRANCH  22  34
ENDBRANCH  16  17
ENDBRANCH  11  16
BRANCH  13  36
ATOM     36  O   UNL     1      17.541  29.903  12.516  1.00  0.00    -0.385 OA
ATOM     37  H   UNL     1      17.400  28.942  12.388  1.00  0.00     0.211 HD
ENDBRANCH  13  36
BRANCH  14  38
ATOM     38  O   UNL     1      19.709  29.215  13.969  1.00  0.00    -0.387 OA
ATOM     39  H   UNL     1      19.564  28.951  13.015  1.00  0.00     0.211 HD
ENDBRANCH  14  38
BRANCH  15  40
ATOM     40  O   UNL     1      19.409  30.537  16.258  1.00  0.00    -0.387 OA
ATOM     41  H   UNL     1      18.989  31.356  16.581  1.00  0.00     0.211 HD
ENDBRANCH  15  40
ENDBRANCH   9  10
ENDBRANCH   8   9
ENDBRANCH   3   8
BRANCH   3  42
ATOM     42  C   UNL     1      16.747  28.093  19.491  1.00  0.00     0.364 C 
ATOM     43  O   UNL     1      16.387  27.095  18.871  1.00  0.00    -0.246 OA
BRANCH  42  44
ATOM     44  O   UNL     1      18.003  28.091  20.104  1.00  0.00    -0.477 OA
ATOM     45  H   UNL     1      18.870  28.000  19.554  1.00  0.00     0.296 HD
ENDBRANCH  42  44
ENDBRANCH   3  42
BRANCH   6  46
ATOM     46  O   UNL     1      14.117  31.096  19.795  1.00  0.00    -0.391 OA
ATOM     47  H   UNL     1      13.378  31.586  19.364  1.00  0.00     0.211 HD
ENDBRANCH   6  46
BRANCH   7  48
ATOM     48  N   UNL     1      13.400  29.345  22.838  1.00  0.00    -0.348 N 
ATOM     49  C   UNL     1      12.214  29.856  23.435  1.00  0.00     0.217 C 
ATOM     50  H   UNL     1      13.742  28.389  23.144  1.00  0.00     0.163 HD
ATOM     51  C   UNL     1      11.453  29.112  24.452  1.00  0.00     0.114 C 
ATOM     52  O   UNL     1      11.839  30.973  23.057  1.00  0.00    -0.275 OA
ENDBRANCH   7  48
ENDBRANCH   1   2
BRANCH   1  53
ATOM     53  O   UNL     1      16.007  29.517  24.206  1.00  0.00    -0.388 OA
ATOM     54  H   UNL     1      15.774  30.007  25.022  1.00  0.00     0.211 HD
ENDBRANCH   1  53
BRANCH   1  55
ATOM     55  C   UNL     1      17.650  30.719  22.884  1.00  0.00     0.165 C 
BRANCH  55  56
ATOM     56  O   UNL     1      18.354  29.593  22.446  1.00  0.00    -0.388 OA
ATOM     57  H   UNL     1      17.770  28.842  22.263  1.00  0.00     0.211 HD
ENDBRANCH  55  56
BRANCH  55  58
ATOM     58  C   UNL     1      18.288  31.310  24.118  1.00  0.00     0.154 C 
BRANCH  58  59
ATOM     59  N   UNL     1      19.578  30.788  24.428  1.00  0.00    -0.319 N 
ATOM     60  C   UNL     1      20.759  31.087  23.701  1.00  0.00     0.407 C 
ATOM     61  H   UNL     1      19.684  30.134  25.251  1.00  0.00     0.167 HD
ATOM     62  O   UNL     1      20.660  31.860  22.716  1.00  0.00    -0.225 OA
BRANCH  60  63
ATOM     63  O   UNL     1      21.997  30.578  24.012  1.00  0.00    -0.443 OA
BRANCH  63  64
ATOM     64  C   UNL     1      22.224  29.752  25.154  1.00  0.00     0.294 C 
BRANCH  64  65
ATOM     65  C   UNL     1      21.540  28.457  25.027  1.00  0.00     0.120 A 
ATOM     66  C   UNL     1      22.034  27.395  24.307  1.00  0.00     0.138 A 
ATOM     67  N   UNL     1      20.376  28.042  25.540  1.00  0.00    -0.132 NA
ATOM     68  N   UNL     1      21.177  26.377  24.397  1.00  0.00    -0.248 N 
ATOM     69  N   UNL     1      20.162  26.812  25.167  1.00  0.00    -0.067 NA
BRANCH  68  70
ATOM     70  C   UNL     1      21.234  25.050  23.814  1.00  0.00     0.185 C 
BRANCH  70  71
ATOM     71  C   UNL     1      22.581  24.721  23.337  1.00  0.00     0.016 A 
ATOM     72  C   UNL     1      22.872  24.608  22.021  1.00  0.00     0.135 A 
ATOM     73  C   UNL     1      23.569  24.543  24.310  1.00  0.00     0.009 A 
ATOM     74  C   UNL     1      24.182  24.307  21.644  1.00  0.00     0.047 A 
ATOM     75  C   UNL     1      24.852  24.247  23.927  1.00  0.00     0.001 A 
ATOM     76  C   UNL     1      25.169  24.128  22.594  1.00  0.00     0.004 A 
BRANCH  72  77
ATOM     77  O   UNL     1      21.932  24.773  21.025  1.00  0.00    -0.426 OA
BRANCH  77  78
ATOM     78  C   UNL     1      22.064  25.879  20.179  1.00  0.00     0.308 C 
ATOM     79  O   UNL     1      22.489  25.698  19.016  1.00  0.00    -0.252 OA
ATOM     80  C   UNL     1      21.705  27.215  20.661  1.00  0.00     0.139 C 
ENDBRANCH  77  78
ENDBRANCH  72  77
ENDBRANCH  70  71
ENDBRANCH  68  70
ENDBRANCH  64  65
ENDBRANCH  63  64
ENDBRANCH  60  63
ENDBRANCH  58  59
ENDBRANCH  55  58
ENDBRANCH   1  55
TORSDOF 33
