REMARK VINA RESULT:    -5.625      2.089      7.338
REMARK INTER + INTRA:         -20.444
REMARK INTER:                 -13.394
REMARK INTRA:                  -7.050
REMARK UNBOUND:                -6.597
REMARK SMILES CC(=O)N[C@@H]1[C@@H](O)C[C@](OC[C@H]2O[C@@H](O[C@H]3[C@H](O)[C@@H](O)[C@H](OCCN=[N+]=[N-])O[C@@H]3CO)[C@H](O)[C@@H](O)[C@H]2O)(C(=O)O)O[C@H]1C(O)[C@H](O)CNC(=O)OCc1cn(-c2ccccc2)nn1
REMARK SMILES IDX 9 1 8 2 6 3 5 4 42 5 41 6 10 7 11 8 12 9 14 10 13 11 32 12
REMARK SMILES IDX 34 13 36 14 15 15 16 16 29 17 28 18 21 19 17 20 19 21 30 22
REMARK SMILES IDX 31 23 22 25 23 26 24 27 25 28 26 29 27 30 18 31 20 33 33 35
REMARK SMILES IDX 35 37 37 39 38 41 39 42 40 43 7 45 43 47 44 48 45 50 46 51
REMARK SMILES IDX 47 53 48 54 49 55 50 57 51 58 52 59 53 60 54 61 63 62 55 63
REMARK SMILES IDX 62 64 56 65 57 66 61 67 58 68 60 69 59 70 4 71 2 72 1 74
REMARK SMILES IDX 3 75
REMARK H PARENT 31 24 18 32 20 34 33 36 35 38 37 40 40 44 7 46 44 49 46 52
REMARK H PARENT 48 56 4 73
REMARK Flexibility Score: inf
ROOT
ATOM      1  C   UNL     1      15.046  31.342  24.078  1.00  0.00     0.272 C 
ATOM      2  C   UNL     1      13.843  31.803  24.813  1.00  0.00     0.113 C 
ATOM      3  C   UNL     1      13.971  31.816  26.291  1.00  0.00     0.145 C 
ATOM      4  C   UNL     1      15.333  32.343  26.703  1.00  0.00     0.142 C 
ATOM      5  C   UNL     1      16.349  31.436  26.046  1.00  0.00     0.178 C 
ATOM      6  O   UNL     1      16.276  31.710  24.705  1.00  0.00    -0.332 OA
ENDROOT
BRANCH   1   7
ATOM      7  O   UNL     1      15.205  31.865  22.828  1.00  0.00    -0.338 OA
BRANCH   7   8
ATOM      8  C   UNL     1      14.221  32.086  21.976  1.00  0.00     0.199 C 
BRANCH   8   9
ATOM      9  C   UNL     1      14.294  31.740  20.540  1.00  0.00     0.179 C 
ATOM     10  C   UNL     1      15.914  31.405  18.894  1.00  0.00     0.282 C 
ATOM     11  O   UNL     1      15.673  31.909  20.190  1.00  0.00    -0.341 OA
ATOM     12  C   UNL     1      14.682  31.009  18.149  1.00  0.00     0.202 C 
ATOM     13  C   UNL     1      13.900  29.956  18.902  1.00  0.00     0.179 C 
ATOM     14  C   UNL     1      14.023  30.240  20.371  1.00  0.00     0.177 C 
BRANCH  10  15
ATOM     15  O   UNL     1      16.723  30.335  19.013  1.00  0.00    -0.341 OA
BRANCH  15  16
ATOM     16  C   UNL     1      17.894  30.241  18.357  1.00  0.00     0.184 C 
ATOM     17  C   UNL     1      18.204  28.880  17.779  1.00  0.00     0.178 C 
ATOM     18  O   UNL     1      19.607  28.830  17.662  1.00  0.00    -0.341 OA
ATOM     19  C   UNL     1      20.068  28.463  18.945  1.00  0.00     0.281 C 
ATOM     20  C   UNL     1      19.089  30.683  19.202  1.00  0.00     0.180 C 
ATOM     21  C   UNL     1      19.649  29.501  19.966  1.00  0.00     0.202 C 
BRANCH  17  22
ATOM     22  C   UNL     1      17.643  28.704  16.384  1.00  0.00     0.191 C 
BRANCH  22  23
ATOM     23  O   UNL     1      16.254  28.588  16.480  1.00  0.00    -0.394 OA
ATOM     24  H   UNL     1      15.987  28.025  17.272  1.00  0.00     0.210 HD
ENDBRANCH  22  23
ENDBRANCH  17  22
BRANCH  19  25
ATOM     25  O   UNL     1      21.421  28.325  18.988  1.00  0.00    -0.350 OA
BRANCH  25  26
ATOM     26  C   UNL     1      22.075  28.781  20.100  1.00  0.00     0.169 C 
BRANCH  26  27
ATOM     27  C   UNL     1      22.585  27.720  21.022  1.00  0.00     0.119 C 
BRANCH  27  28
ATOM     28  N   UNL     1      22.614  28.153  22.370  1.00  0.00    -0.092 NA
ATOM     29  N   UNL     1      21.574  28.310  23.036  1.00  0.00     0.001 N 
ATOM     30  N   UNL     1      20.469  28.726  23.421  1.00  0.00    -0.003 NA
ENDBRANCH  27  28
ENDBRANCH  26  27
ENDBRANCH  25  26
ENDBRANCH  19  25
BRANCH  20  31
ATOM     31  O   UNL     1      20.127  31.207  18.444  1.00  0.00    -0.387 OA
ATOM     32  H   UNL     1      20.718  30.497  18.094  1.00  0.00     0.211 HD
ENDBRANCH  20  31
BRANCH  21  33
ATOM     33  O   UNL     1      18.745  28.973  20.865  1.00  0.00    -0.385 OA
ATOM     34  H   UNL     1      18.201  28.242  20.494  1.00  0.00     0.211 HD
ENDBRANCH  21  33
ENDBRANCH  15  16
ENDBRANCH  10  15
BRANCH  12  35
ATOM     35  O   UNL     1      13.905  32.069  17.701  1.00  0.00    -0.385 OA
ATOM     36  H   UNL     1      14.001  32.805  18.359  1.00  0.00     0.211 HD
ENDBRANCH  12  35
BRANCH  13  37
ATOM     37  O   UNL     1      14.457  28.718  18.642  1.00  0.00    -0.387 OA
ATOM     38  H   UNL     1      14.348  28.411  17.707  1.00  0.00     0.211 HD
ENDBRANCH  13  37
BRANCH  14  39
ATOM     39  O   UNL     1      15.151  29.589  20.920  1.00  0.00    -0.387 OA
ATOM     40  H   UNL     1      15.375  29.947  21.804  1.00  0.00     0.211 HD
ENDBRANCH  14  39
ENDBRANCH   8   9
ENDBRANCH   7   8
ENDBRANCH   1   7
BRANCH   1  41
ATOM     41  C   UNL     1      15.120  29.864  24.111  1.00  0.00     0.364 C 
ATOM     42  O   UNL     1      16.167  29.258  23.887  1.00  0.00    -0.246 OA
BRANCH  41  43
ATOM     43  O   UNL     1      13.967  29.105  24.402  1.00  0.00    -0.477 OA
ATOM     44  H   UNL     1      13.127  29.601  24.693  1.00  0.00     0.296 HD
ENDBRANCH  41  43
ENDBRANCH   1  41
BRANCH   3  45
ATOM     45  O   UNL     1      12.941  32.574  26.843  1.00  0.00    -0.391 OA
ATOM     46  H   UNL     1      12.166  31.991  26.920  1.00  0.00     0.211 HD
ENDBRANCH   3  45
BRANCH   5  47
ATOM     47  C   UNL     1      17.766  31.791  26.483  1.00  0.00     0.176 C 
BRANCH  47  48
ATOM     48  O   UNL     1      18.069  31.032  27.581  1.00  0.00    -0.388 OA
ATOM     49  H   UNL     1      18.622  31.486  28.254  1.00  0.00     0.211 HD
ENDBRANCH  47  48
BRANCH  47  50
ATOM     50  C   UNL     1      18.798  31.720  25.436  1.00  0.00     0.165 C 
BRANCH  50  51
ATOM     51  O   UNL     1      18.807  30.364  24.980  1.00  0.00    -0.388 OA
ATOM     52  H   UNL     1      17.940  29.992  25.224  1.00  0.00     0.211 HD
ENDBRANCH  50  51
BRANCH  50  53
ATOM     53  C   UNL     1      20.213  31.906  26.008  1.00  0.00     0.154 C 
BRANCH  53  54
ATOM     54  N   UNL     1      20.933  30.659  26.082  1.00  0.00    -0.319 N 
ATOM     55  C   UNL     1      21.289  30.068  27.343  1.00  0.00     0.407 C 
ATOM     56  H   UNL     1      21.231  30.122  25.241  1.00  0.00     0.167 HD
ATOM     57  O   UNL     1      20.970  30.617  28.422  1.00  0.00    -0.225 OA
BRANCH  55  58
ATOM     58  O   UNL     1      21.990  28.877  27.397  1.00  0.00    -0.443 OA
BRANCH  58  59
ATOM     59  C   UNL     1      21.478  27.749  28.097  1.00  0.00     0.294 C 
BRANCH  59  60
ATOM     60  C   UNL     1      21.904  26.558  27.304  1.00  0.00     0.121 A 
ATOM     61  C   UNL     1      21.940  26.539  25.917  1.00  0.00     0.144 A 
ATOM     62  N   UNL     1      22.313  25.347  27.691  1.00  0.00    -0.131 NA
ATOM     63  N   UNL     1      22.369  25.318  25.503  1.00  0.00    -0.220 N 
ATOM     64  N   UNL     1      22.584  24.626  26.599  1.00  0.00    -0.062 NA
BRANCH  63  65
ATOM     65  C   UNL     1      22.541  24.886  24.162  1.00  0.00     0.066 A 
ATOM     66  C   UNL     1      23.785  24.608  23.644  1.00  0.00     0.028 A 
ATOM     67  C   UNL     1      21.445  24.729  23.344  1.00  0.00     0.028 A 
ATOM     68  C   UNL     1      23.959  24.181  22.345  1.00  0.00     0.002 A 
ATOM     69  C   UNL     1      21.625  24.299  22.038  1.00  0.00     0.002 A 
ATOM     70  C   UNL     1      22.858  24.018  21.503  1.00  0.00     0.000 A 
ENDBRANCH  63  65
ENDBRANCH  59  60
ENDBRANCH  58  59
ENDBRANCH  55  58
ENDBRANCH  53  54
ENDBRANCH  50  53
ENDBRANCH  47  50
ENDBRANCH   5  47
BRANCH   4  71
ATOM     71  N   UNL     1      15.441  32.500  28.110  1.00  0.00    -0.348 N 
ATOM     72  C   UNL     1      15.770  33.775  28.640  1.00  0.00     0.217 C 
ATOM     73  H   UNL     1      15.275  31.720  28.772  1.00  0.00     0.163 HD
ATOM     74  C   UNL     1      15.890  33.969  30.117  1.00  0.00     0.114 C 
ATOM     75  O   UNL     1      15.972  34.787  27.903  1.00  0.00    -0.275 OA
ENDBRANCH   4  71
TORSDOF 30
