REMARK VINA RESULT:    -5.280     18.023     24.069
REMARK INTER + INTRA:         -20.161
REMARK INTER:                 -14.567
REMARK INTRA:                  -5.595
REMARK UNBOUND:                -6.855
REMARK SMILES CC(=O)N[C@@H]1[C@@H](O)C[C@](OC[C@H]2O[C@@H](O[C@H]3[C@H](O)[C@@H](O)[C@H](OCCN=[N+]=[N-])O[C@@H]3CO)[C@H](O)[C@@H](O)[C@H]2O)(C(=O)O)O[C@H]1C(O)[C@H](O)CNC(=O)OCc1cn(Cc2ccsc2)nn1
REMARK SMILES IDX 9 1 8 2 6 3 5 4 42 5 41 6 10 7 11 8 12 9 14 10 13 11 32 12
REMARK SMILES IDX 34 13 36 14 15 15 16 16 29 17 28 18 21 19 17 20 19 21 30 22
REMARK SMILES IDX 31 23 22 25 23 26 24 27 25 28 26 29 27 30 18 31 20 33 33 35
REMARK SMILES IDX 35 37 37 39 38 41 39 42 40 43 7 45 43 47 44 48 45 50 46 51
REMARK SMILES IDX 47 53 48 54 49 55 50 57 51 58 52 59 53 60 54 61 63 62 55 63
REMARK SMILES IDX 62 64 56 65 57 66 58 67 61 68 59 69 60 70 4 71 2 72 1 74
REMARK SMILES IDX 3 75
REMARK H PARENT 31 24 18 32 20 34 33 36 35 38 37 40 40 44 7 46 44 49 46 52
REMARK H PARENT 48 56 4 73
REMARK Flexibility Score: inf
ROOT
ATOM      1  C   UNL     1       1.710  24.628  28.700  1.00  0.00     0.272 C 
ATOM      2  C   UNL     1       2.570  23.816  27.780  1.00  0.00     0.113 C 
ATOM      3  C   UNL     1       3.381  24.617  26.798  1.00  0.00     0.145 C 
ATOM      4  C   UNL     1       4.003  25.818  27.398  1.00  0.00     0.142 C 
ATOM      5  C   UNL     1       3.256  26.393  28.585  1.00  0.00     0.178 C 
ATOM      6  O   UNL     1       2.639  25.503  29.390  1.00  0.00    -0.332 OA
ENDROOT
BRANCH   1   7
ATOM      7  O   UNL     1       1.267  23.855  29.715  1.00  0.00    -0.338 OA
BRANCH   7   8
ATOM      8  C   UNL     1       1.891  23.652  30.860  1.00  0.00     0.199 C 
BRANCH   8   9
ATOM      9  C   UNL     1       2.936  22.641  31.088  1.00  0.00     0.179 C 
ATOM     10  C   UNL     1       3.995  21.717  32.877  1.00  0.00     0.282 C 
ATOM     11  O   UNL     1       2.728  22.167  32.438  1.00  0.00    -0.341 OA
ATOM     12  C   UNL     1       4.653  20.802  31.904  1.00  0.00     0.202 C 
ATOM     13  C   UNL     1       3.846  20.390  30.726  1.00  0.00     0.179 C 
ATOM     14  C   UNL     1       2.781  21.356  30.292  1.00  0.00     0.177 C 
BRANCH  10  15
ATOM     15  O   UNL     1       3.836  21.174  34.127  1.00  0.00    -0.341 OA
BRANCH  15  16
ATOM     16  C   UNL     1       2.760  20.275  34.222  1.00  0.00     0.184 C 
ATOM     17  C   UNL     1       1.676  20.791  35.100  1.00  0.00     0.178 C 
ATOM     18  O   UNL     1       1.670  20.382  36.398  1.00  0.00    -0.341 OA
ATOM     19  C   UNL     1       2.764  19.583  36.773  1.00  0.00     0.281 C 
ATOM     20  C   UNL     1       3.219  18.880  34.507  1.00  0.00     0.180 C 
ATOM     21  C   UNL     1       2.715  18.383  35.869  1.00  0.00     0.202 C 
BRANCH  17  22
ATOM     22  C   UNL     1       0.291  20.554  34.518  1.00  0.00     0.191 C 
BRANCH  22  23
ATOM     23  O   UNL     1      -0.433  19.849  35.478  1.00  0.00    -0.394 OA
ATOM     24  H   UNL     1      -1.111  20.433  35.930  1.00  0.00     0.210 HD
ENDBRANCH  22  23
ENDBRANCH  17  22
BRANCH  19  25
ATOM     25  O   UNL     1       2.635  19.321  38.110  1.00  0.00    -0.350 OA
BRANCH  25  26
ATOM     26  C   UNL     1       3.600  19.916  38.900  1.00  0.00     0.169 C 
BRANCH  26  27
ATOM     27  C   UNL     1       4.109  19.093  40.036  1.00  0.00     0.119 C 
BRANCH  27  28
ATOM     28  N   UNL     1       5.407  18.547  39.742  1.00  0.00    -0.092 NA
ATOM     29  N   UNL     1       5.471  17.571  38.979  1.00  0.00     0.001 N 
ATOM     30  N   UNL     1       5.843  16.694  38.198  1.00  0.00    -0.003 NA
ENDBRANCH  27  28
ENDBRANCH  26  27
ENDBRANCH  25  26
ENDBRANCH  19  25
BRANCH  20  31
ATOM     31  O   UNL     1       2.930  17.970  33.513  1.00  0.00    -0.387 OA
ATOM     32  H   UNL     1       3.658  17.907  32.861  1.00  0.00     0.211 HD
ENDBRANCH  20  31
BRANCH  21  33
ATOM     33  O   UNL     1       3.447  17.327  36.348  1.00  0.00    -0.385 OA
ATOM     34  H   UNL     1       3.630  16.639  35.650  1.00  0.00     0.211 HD
ENDBRANCH  21  33
ENDBRANCH  15  16
ENDBRANCH  10  15
BRANCH  12  35
ATOM     35  O   UNL     1       5.930  21.289  31.517  1.00  0.00    -0.385 OA
ATOM     36  H   UNL     1       6.497  21.413  32.323  1.00  0.00     0.211 HD
ENDBRANCH  12  35
BRANCH  13  37
ATOM     37  O   UNL     1       3.197  19.175  31.025  1.00  0.00    -0.387 OA
ATOM     38  H   UNL     1       3.806  18.629  31.574  1.00  0.00     0.211 HD
ENDBRANCH  13  37
BRANCH  14  39
ATOM     39  O   UNL     1       1.499  20.868  30.645  1.00  0.00    -0.387 OA
ATOM     40  H   UNL     1       0.944  21.008  29.816  1.00  0.00     0.211 HD
ENDBRANCH  14  39
ENDBRANCH   8   9
ENDBRANCH   7   8
ENDBRANCH   1   7
BRANCH   1  41
ATOM     41  C   UNL     1       0.786  25.548  28.037  1.00  0.00     0.364 C 
ATOM     42  O   UNL     1       0.391  26.610  28.554  1.00  0.00    -0.246 OA
BRANCH  41  43
ATOM     43  O   UNL     1       0.271  25.291  26.752  1.00  0.00    -0.477 OA
ATOM     44  H   UNL     1      -0.157  26.027  26.207  1.00  0.00     0.296 HD
ENDBRANCH  41  43
ENDBRANCH   1  41
BRANCH   3  45
ATOM     45  O   UNL     1       4.424  23.735  26.403  1.00  0.00    -0.391 OA
ATOM     46  H   UNL     1       4.037  22.859  26.121  1.00  0.00     0.211 HD
ENDBRANCH   3  45
BRANCH   5  47
ATOM     47  C   UNL     1       4.291  27.105  29.492  1.00  0.00     0.176 C 
BRANCH  47  48
ATOM     48  O   UNL     1       5.432  26.311  29.582  1.00  0.00    -0.388 OA
ATOM     49  H   UNL     1       6.234  26.879  29.633  1.00  0.00     0.211 HD
ENDBRANCH  47  48
BRANCH  47  50
ATOM     50  C   UNL     1       3.698  27.227  30.850  1.00  0.00     0.165 C 
BRANCH  50  51
ATOM     51  O   UNL     1       2.467  27.874  30.753  1.00  0.00    -0.388 OA
ATOM     52  H   UNL     1       2.541  28.699  30.214  1.00  0.00     0.211 HD
ENDBRANCH  50  51
BRANCH  50  53
ATOM     53  C   UNL     1       4.542  27.990  31.838  1.00  0.00     0.154 C 
BRANCH  53  54
ATOM     54  N   UNL     1       5.166  27.152  32.817  1.00  0.00    -0.319 N 
ATOM     55  C   UNL     1       4.583  26.737  34.020  1.00  0.00     0.407 C 
ATOM     56  H   UNL     1       6.156  26.819  32.612  1.00  0.00     0.167 HD
ATOM     57  O   UNL     1       3.422  27.108  34.295  1.00  0.00    -0.225 OA
BRANCH  55  58
ATOM     58  O   UNL     1       5.299  25.928  34.877  1.00  0.00    -0.443 OA
BRANCH  58  59
ATOM     59  C   UNL     1       5.274  24.530  34.846  1.00  0.00     0.294 C 
BRANCH  59  60
ATOM     60  C   UNL     1       6.647  24.023  34.653  1.00  0.00     0.120 A 
ATOM     61  C   UNL     1       7.762  24.405  35.332  1.00  0.00     0.138 A 
ATOM     62  N   UNL     1       7.006  23.089  33.760  1.00  0.00    -0.132 NA
ATOM     63  N   UNL     1       8.787  23.691  34.836  1.00  0.00    -0.248 N 
ATOM     64  N   UNL     1       8.323  22.901  33.889  1.00  0.00    -0.067 NA
BRANCH  63  65
ATOM     65  C   UNL     1      10.155  23.786  35.278  1.00  0.00     0.182 C 
BRANCH  65  66
ATOM     66  C   UNL     1      10.676  25.189  34.945  1.00  0.00    -0.016 A 
ATOM     67  C   UNL     1      10.700  25.691  33.727  1.00  0.00     0.017 A 
ATOM     68  C   UNL     1      11.147  25.962  36.006  1.00  0.00     0.070 A 
ATOM     69  C   UNL     1      11.181  26.965  33.483  1.00  0.00     0.065 A 
ATOM     70  S   UNL     1      11.644  27.485  35.177  1.00  0.00    -0.152 S 
ENDBRANCH  65  66
ENDBRANCH  63  65
ENDBRANCH  59  60
ENDBRANCH  58  59
ENDBRANCH  55  58
ENDBRANCH  53  54
ENDBRANCH  50  53
ENDBRANCH  47  50
ENDBRANCH   5  47
BRANCH   4  71
ATOM     71  N   UNL     1       4.246  26.891  26.482  1.00  0.00    -0.348 N 
ATOM     72  C   UNL     1       5.551  27.348  26.162  1.00  0.00     0.217 C 
ATOM     73  H   UNL     1       3.445  27.372  26.017  1.00  0.00     0.163 HD
ATOM     74  C   UNL     1       5.816  28.467  25.206  1.00  0.00     0.114 C 
ATOM     75  O   UNL     1       6.498  26.742  26.743  1.00  0.00    -0.275 OA
ENDBRANCH   4  71
TORSDOF 31
