REMARK VINA RESULT:    -5.937      6.029     13.268
REMARK INTER + INTRA:         -24.054
REMARK INTER:                 -17.095
REMARK INTRA:                  -6.958
REMARK UNBOUND:                -7.877
REMARK SMILES CC(=O)N[C@@H]1[C@@H](O)C[C@](OC[C@H]2O[C@@H](O[C@H]3[C@H](O)[C@@H](O)[C@H](OCCN=[N+]=[N-])O[C@@H]3CO)[C@H](O)[C@@H](O)[C@H]2O)(C(=O)O)O[C@H]1C(O)[C@H](O)CNC(=O)OCc1cn(CC(O)CCc2ccccc2)nn1
REMARK SMILES IDX 43 1 42 2 9 3 8 4 41 5 6 6 5 7 10 8 11 9 12 10 14 11 13 12
REMARK SMILES IDX 32 13 34 14 36 15 15 16 16 17 29 18 28 19 21 20 17 21 19 22
REMARK SMILES IDX 30 23 31 24 22 26 23 27 24 28 25 29 26 30 27 31 18 32 20 34
REMARK SMILES IDX 33 36 35 38 37 40 38 42 39 43 40 44 7 46 4 48 2 49 1 51 3 52
REMARK SMILES IDX 44 53 45 55 46 56 47 58 48 59 49 60 50 62 51 63 52 64 53 65
REMARK SMILES IDX 54 66 68 67 55 68 67 69 56 70 57 71 58 72 59 74 60 75 61 76
REMARK SMILES IDX 62 77 66 78 63 79 65 80 64 81
REMARK H PARENT 31 25 18 33 20 35 33 37 35 39 37 41 40 45 7 47 4 50 44 54
REMARK H PARENT 46 57 48 61 58 73
REMARK Flexibility Score: inf
ROOT
ATOM      1  C   UNL     1      17.662  31.242  18.607  1.00  0.00     0.176 C 
ENDROOT
BRANCH   1   2
ATOM      2  C   UNL     1      16.323  30.585  18.992  1.00  0.00     0.178 C 
ATOM      3  C   UNL     1      15.798  29.507  21.039  1.00  0.00     0.272 C 
ATOM      4  C   UNL     1      16.412  28.278  20.456  1.00  0.00     0.113 C 
ATOM      5  O   UNL     1      16.205  30.599  20.321  1.00  0.00    -0.332 OA
ATOM      6  C   UNL     1      16.010  28.095  19.036  1.00  0.00     0.145 C 
ATOM      7  C   UNL     1      16.173  29.336  18.210  1.00  0.00     0.142 C 
BRANCH   3   8
ATOM      8  O   UNL     1      16.127  29.628  22.404  1.00  0.00    -0.338 OA
BRANCH   8   9
ATOM      9  C   UNL     1      16.777  30.749  22.776  1.00  0.00     0.199 C 
BRANCH   9  10
ATOM     10  C   UNL     1      18.031  30.417  23.619  1.00  0.00     0.179 C 
ATOM     11  C   UNL     1      20.038  29.359  23.648  1.00  0.00     0.282 C 
ATOM     12  O   UNL     1      18.833  29.518  23.013  1.00  0.00    -0.341 OA
ATOM     13  C   UNL     1      20.720  30.753  23.560  1.00  0.00     0.202 C 
ATOM     14  C   UNL     1      19.974  31.543  24.640  1.00  0.00     0.179 C 
ATOM     15  C   UNL     1      18.588  31.714  24.082  1.00  0.00     0.177 C 
BRANCH  11  16
ATOM     16  O   UNL     1      20.831  28.481  22.998  1.00  0.00    -0.341 OA
BRANCH  16  17
ATOM     17  C   UNL     1      21.772  27.766  23.701  1.00  0.00     0.184 C 
ATOM     18  C   UNL     1      22.848  27.187  22.844  1.00  0.00     0.178 C 
ATOM     19  O   UNL     1      23.039  25.843  22.904  1.00  0.00    -0.341 OA
ATOM     20  C   UNL     1      22.777  25.202  24.078  1.00  0.00     0.281 C 
ATOM     21  C   UNL     1      21.027  26.802  24.579  1.00  0.00     0.180 C 
ATOM     22  C   UNL     1      21.303  25.358  24.364  1.00  0.00     0.202 C 
BRANCH  18  23
ATOM     23  C   UNL     1      24.165  27.851  23.183  1.00  0.00     0.191 C 
BRANCH  23  24
ATOM     24  O   UNL     1      24.096  28.530  24.398  1.00  0.00    -0.394 OA
ATOM     25  H   UNL     1      25.030  28.846  24.587  1.00  0.00     0.210 HD
ENDBRANCH  23  24
ENDBRANCH  18  23
BRANCH  20  26
ATOM     26  O   UNL     1      23.573  25.608  25.136  1.00  0.00    -0.350 OA
BRANCH  26  27
ATOM     27  C   UNL     1      24.020  24.488  25.840  1.00  0.00     0.169 C 
BRANCH  27  28
ATOM     28  C   UNL     1      23.943  24.843  27.324  1.00  0.00     0.119 C 
BRANCH  28  29
ATOM     29  N   UNL     1      22.597  24.740  27.818  1.00  0.00    -0.092 NA
ATOM     30  N   UNL     1      22.231  25.488  28.748  1.00  0.00     0.001 N 
ATOM     31  N   UNL     1      21.969  26.020  29.843  1.00  0.00    -0.003 NA
ENDBRANCH  28  29
ENDBRANCH  27  28
ENDBRANCH  26  27
ENDBRANCH  20  26
BRANCH  21  32
ATOM     32  O   UNL     1      21.297  27.048  25.952  1.00  0.00    -0.387 OA
ATOM     33  H   UNL     1      22.221  26.807  26.194  1.00  0.00     0.211 HD
ENDBRANCH  21  32
BRANCH  22  34
ATOM     34  O   UNL     1      20.603  24.872  23.256  1.00  0.00    -0.385 OA
ATOM     35  H   UNL     1      21.065  24.128  22.819  1.00  0.00     0.211 HD
ENDBRANCH  22  34
ENDBRANCH  16  17
ENDBRANCH  11  16
BRANCH  13  36
ATOM     36  O   UNL     1      22.063  30.716  23.737  1.00  0.00    -0.385 OA
ATOM     37  H   UNL     1      22.630  30.867  22.963  1.00  0.00     0.211 HD
ENDBRANCH  13  36
BRANCH  14  38
ATOM     38  O   UNL     1      20.599  32.761  24.890  1.00  0.00    -0.387 OA
ATOM     39  H   UNL     1      19.936  33.440  25.150  1.00  0.00     0.211 HD
ENDBRANCH  14  38
BRANCH  15  40
ATOM     40  O   UNL     1      18.706  32.597  23.003  1.00  0.00    -0.387 OA
ATOM     41  H   UNL     1      19.070  33.466  23.290  1.00  0.00     0.211 HD
ENDBRANCH  15  40
ENDBRANCH   9  10
ENDBRANCH   8   9
ENDBRANCH   3   8
BRANCH   3  42
ATOM     42  C   UNL     1      14.323  29.348  21.057  1.00  0.00     0.364 C 
ATOM     43  O   UNL     1      13.603  30.300  20.643  1.00  0.00    -0.246 OA
BRANCH  42  44
ATOM     44  O   UNL     1      13.692  28.218  21.498  1.00  0.00    -0.477 OA
ATOM     45  H   UNL     1      14.032  27.744  22.322  1.00  0.00     0.296 HD
ENDBRANCH  42  44
ENDBRANCH   3  42
BRANCH   6  46
ATOM     46  O   UNL     1      16.816  27.032  18.544  1.00  0.00    -0.391 OA
ATOM     47  H   UNL     1      17.754  27.294  18.456  1.00  0.00     0.211 HD
ENDBRANCH   6  46
BRANCH   7  48
ATOM     48  N   UNL     1      15.187  29.454  17.166  1.00  0.00    -0.348 N 
ATOM     49  C   UNL     1      15.476  29.289  15.784  1.00  0.00     0.217 C 
ATOM     50  H   UNL     1      14.176  29.684  17.404  1.00  0.00     0.163 HD
ATOM     51  C   UNL     1      14.374  29.431  14.808  1.00  0.00     0.114 C 
ATOM     52  O   UNL     1      16.622  29.031  15.403  1.00  0.00    -0.275 OA
ENDBRANCH   7  48
ENDBRANCH   1   2
BRANCH   1  53
ATOM     53  O   UNL     1      18.069  30.791  17.367  1.00  0.00    -0.388 OA
ATOM     54  H   UNL     1      19.051  30.713  17.287  1.00  0.00     0.211 HD
ENDBRANCH   1  53
BRANCH   1  55
ATOM     55  C   UNL     1      18.689  31.245  19.675  1.00  0.00     0.165 C 
BRANCH  55  56
ATOM     56  O   UNL     1      18.727  32.469  20.294  1.00  0.00    -0.388 OA
ATOM     57  H   UNL     1      18.669  32.418  21.269  1.00  0.00     0.211 HD
ENDBRANCH  55  56
BRANCH  55  58
ATOM     58  C   UNL     1      20.014  30.913  19.027  1.00  0.00     0.154 C 
BRANCH  58  59
ATOM     59  N   UNL     1      20.606  29.678  19.378  1.00  0.00    -0.319 N 
ATOM     60  C   UNL     1      20.276  28.386  18.890  1.00  0.00     0.407 C 
ATOM     61  H   UNL     1      21.412  29.659  20.095  1.00  0.00     0.167 HD
ATOM     62  O   UNL     1      19.385  28.246  18.043  1.00  0.00    -0.225 OA
BRANCH  60  63
ATOM     63  O   UNL     1      20.939  27.259  19.348  1.00  0.00    -0.443 OA
BRANCH  63  64
ATOM     64  C   UNL     1      22.297  27.085  19.516  1.00  0.00     0.294 C 
BRANCH  64  65
ATOM     65  C   UNL     1      22.951  26.050  18.702  1.00  0.00     0.120 A 
ATOM     66  C   UNL     1      24.265  25.608  18.800  1.00  0.00     0.138 A 
ATOM     67  N   UNL     1      22.393  25.366  17.681  1.00  0.00    -0.132 NA
ATOM     68  N   UNL     1      24.430  24.696  17.846  1.00  0.00    -0.250 N 
ATOM     69  N   UNL     1      23.307  24.559  17.187  1.00  0.00    -0.067 NA
BRANCH  68  70
ATOM     70  C   UNL     1      25.720  23.995  17.607  1.00  0.00     0.177 C 
BRANCH  70  71
ATOM     71  C   UNL     1      26.633  24.414  18.709  1.00  0.00     0.136 C 
BRANCH  71  72
ATOM     72  O   UNL     1      27.739  25.133  18.223  1.00  0.00    -0.391 OA
ATOM     73  H   UNL     1      27.550  25.569  17.366  1.00  0.00     0.211 HD
ENDBRANCH  71  72
BRANCH  71  74
ATOM     74  C   UNL     1      27.068  23.332  19.615  1.00  0.00     0.038 C 
BRANCH  74  75
ATOM     75  C   UNL     1      28.066  22.341  19.227  1.00  0.00     0.038 C 
BRANCH  75  76
ATOM     76  C   UNL     1      28.253  21.143  20.017  1.00  0.00    -0.048 A 
ATOM     77  C   UNL     1      28.121  21.174  21.403  1.00  0.00     0.004 A 
ATOM     78  C   UNL     1      28.648  19.938  19.436  1.00  0.00     0.004 A 
ATOM     79  C   UNL     1      28.371  20.061  22.151  1.00  0.00     0.000 A 
ATOM     80  C   UNL     1      28.893  18.836  20.219  1.00  0.00     0.000 A 
ATOM     81  C   UNL     1      28.762  18.865  21.600  1.00  0.00     0.000 A 
ENDBRANCH  75  76
ENDBRANCH  74  75
ENDBRANCH  71  74
ENDBRANCH  70  71
ENDBRANCH  68  70
ENDBRANCH  64  65
ENDBRANCH  63  64
ENDBRANCH  60  63
ENDBRANCH  58  59
ENDBRANCH  55  58
ENDBRANCH   1  55
TORSDOF 35
