REMARK VINA RESULT:    -5.954     13.944     19.584
REMARK INTER + INTRA:         -20.868
REMARK INTER:                 -14.815
REMARK INTRA:                  -6.052
REMARK UNBOUND:                -5.863
REMARK SMILES CC(=O)N[C@@H]1[C@@H](O)C[C@](OC[C@H]2O[C@@H](O[C@H]3[C@H](O)[C@@H](O)[C@H](OCCN=[N+]=[N-])O[C@@H]3CO)[C@H](O)[C@@H](O)[C@H]2O)(C(=O)O)O[C@H]1C(O)[C@H](O)CNC(=O)OCc1cn(-c2ncccc2C#N)nn1
REMARK SMILES IDX 9 1 8 2 6 3 5 4 42 5 41 6 10 7 11 8 12 9 14 10 13 11 32 12
REMARK SMILES IDX 34 13 36 14 15 15 16 16 29 17 28 18 21 19 17 20 19 21 30 22
REMARK SMILES IDX 31 23 22 25 23 26 24 27 25 28 26 29 27 30 18 31 20 33 33 35
REMARK SMILES IDX 35 37 37 39 38 41 39 42 40 43 7 45 43 47 44 48 45 50 46 51
REMARK SMILES IDX 47 53 48 54 49 55 50 57 51 58 52 59 53 60 54 61 65 62 55 63
REMARK SMILES IDX 64 64 56 65 57 66 61 67 58 68 60 69 59 70 62 71 63 72 4 73
REMARK SMILES IDX 2 74 1 76 3 77
REMARK H PARENT 31 24 18 32 20 34 33 36 35 38 37 40 40 44 7 46 44 49 46 52
REMARK H PARENT 48 56 4 75
REMARK Flexibility Score: inf
ROOT
ATOM      1  C   UNL     1       3.628  26.346  25.860  1.00  0.00     0.272 C 
ATOM      2  C   UNL     1       5.032  25.912  25.871  1.00  0.00     0.113 C 
ATOM      3  C   UNL     1       5.997  27.024  26.004  1.00  0.00     0.145 C 
ATOM      4  C   UNL     1       5.528  28.233  26.745  1.00  0.00     0.142 C 
ATOM      5  C   UNL     1       4.156  28.152  27.352  1.00  0.00     0.178 C 
ATOM      6  O   UNL     1       3.311  27.355  26.740  1.00  0.00    -0.332 OA
ENDROOT
BRANCH   1   7
ATOM      7  O   UNL     1       2.630  25.469  25.999  1.00  0.00    -0.338 OA
BRANCH   7   8
ATOM      8  C   UNL     1       1.697  25.257  26.876  1.00  0.00     0.199 C 
BRANCH   8   9
ATOM      9  C   UNL     1       1.706  23.757  27.195  1.00  0.00     0.179 C 
ATOM     10  C   UNL     1       1.085  22.187  28.707  1.00  0.00     0.282 C 
ATOM     11  O   UNL     1       1.520  23.551  28.534  1.00  0.00    -0.341 OA
ATOM     12  C   UNL     1      -0.318  22.050  28.237  1.00  0.00     0.202 C 
ATOM     13  C   UNL     1      -0.474  22.593  26.813  1.00  0.00     0.179 C 
ATOM     14  C   UNL     1       0.872  22.927  26.292  1.00  0.00     0.177 C 
BRANCH  10  15
ATOM     15  O   UNL     1       1.244  21.798  29.991  1.00  0.00    -0.341 OA
BRANCH  15  16
ATOM     16  C   UNL     1       2.106  20.757  30.194  1.00  0.00     0.184 C 
ATOM     17  C   UNL     1       1.658  19.940  31.441  1.00  0.00     0.178 C 
ATOM     18  O   UNL     1       2.594  20.151  32.453  1.00  0.00    -0.341 OA
ATOM     19  C   UNL     1       2.762  21.523  32.692  1.00  0.00     0.281 C 
ATOM     20  C   UNL     1       3.544  21.159  30.401  1.00  0.00     0.180 C 
ATOM     21  C   UNL     1       3.644  22.089  31.615  1.00  0.00     0.202 C 
BRANCH  17  22
ATOM     22  C   UNL     1       1.547  18.501  31.052  1.00  0.00     0.191 C 
BRANCH  22  23
ATOM     23  O   UNL     1       2.749  17.803  31.270  1.00  0.00    -0.394 OA
ATOM     24  H   UNL     1       2.599  16.832  31.365  1.00  0.00     0.210 HD
ENDBRANCH  22  23
ENDBRANCH  17  22
BRANCH  19  25
ATOM     25  O   UNL     1       3.306  21.640  33.951  1.00  0.00    -0.350 OA
BRANCH  25  26
ATOM     26  C   UNL     1       2.358  22.102  34.882  1.00  0.00     0.169 C 
BRANCH  26  27
ATOM     27  C   UNL     1       2.811  21.792  36.294  1.00  0.00     0.119 C 
BRANCH  27  28
ATOM     28  N   UNL     1       2.326  20.437  36.592  1.00  0.00    -0.092 NA
ATOM     29  N   UNL     1       3.221  19.557  36.693  1.00  0.00     0.001 N 
ATOM     30  N   UNL     1       3.974  18.600  36.456  1.00  0.00    -0.003 NA
ENDBRANCH  27  28
ENDBRANCH  26  27
ENDBRANCH  25  26
ENDBRANCH  19  25
BRANCH  20  31
ATOM     31  O   UNL     1       4.385  20.084  30.570  1.00  0.00    -0.387 OA
ATOM     32  H   UNL     1       4.793  19.703  29.776  1.00  0.00     0.211 HD
ENDBRANCH  20  31
BRANCH  21  33
ATOM     33  O   UNL     1       3.270  23.379  31.251  1.00  0.00    -0.385 OA
ATOM     34  H   UNL     1       2.299  23.347  31.033  1.00  0.00     0.211 HD
ENDBRANCH  21  33
ENDBRANCH  15  16
ENDBRANCH  10  15
BRANCH  12  35
ATOM     35  O   UNL     1      -0.719  20.726  28.257  1.00  0.00    -0.385 OA
ATOM     36  H   UNL     1      -1.085  20.510  27.336  1.00  0.00     0.211 HD
ENDBRANCH  12  35
BRANCH  13  37
ATOM     37  O   UNL     1      -1.318  23.729  26.847  1.00  0.00    -0.387 OA
ATOM     38  H   UNL     1      -1.945  23.710  26.070  1.00  0.00     0.211 HD
ENDBRANCH  13  37
BRANCH  14  39
ATOM     39  O   UNL     1       0.855  23.489  25.011  1.00  0.00    -0.387 OA
ATOM     40  H   UNL     1       0.522  22.809  24.342  1.00  0.00     0.211 HD
ENDBRANCH  14  39
ENDBRANCH   8   9
ENDBRANCH   7   8
ENDBRANCH   1   7
BRANCH   1  41
ATOM     41  C   UNL     1       3.413  26.962  24.477  1.00  0.00     0.364 C 
ATOM     42  O   UNL     1       3.567  28.141  24.209  1.00  0.00    -0.246 OA
BRANCH  41  43
ATOM     43  O   UNL     1       3.005  26.124  23.420  1.00  0.00    -0.477 OA
ATOM     44  H   UNL     1       2.784  25.149  23.554  1.00  0.00     0.296 HD
ENDBRANCH  41  43
ENDBRANCH   1  41
BRANCH   3  45
ATOM     45  O   UNL     1       7.225  26.556  26.509  1.00  0.00    -0.391 OA
ATOM     46  H   UNL     1       7.809  26.453  25.689  1.00  0.00     0.211 HD
ENDBRANCH   3  45
BRANCH   5  47
ATOM     47  C   UNL     1       4.236  27.901  28.885  1.00  0.00     0.176 C 
BRANCH  47  48
ATOM     48  O   UNL     1       5.077  28.933  29.400  1.00  0.00    -0.388 OA
ATOM     49  H   UNL     1       5.882  28.559  29.796  1.00  0.00     0.211 HD
ENDBRANCH  47  48
BRANCH  47  50
ATOM     50  C   UNL     1       4.814  26.650  29.301  1.00  0.00     0.165 C 
BRANCH  50  51
ATOM     51  O   UNL     1       3.960  25.520  29.333  1.00  0.00    -0.388 OA
ATOM     52  H   UNL     1       3.003  25.841  29.319  1.00  0.00     0.211 HD
ENDBRANCH  50  51
BRANCH  50  53
ATOM     53  C   UNL     1       5.427  26.657  30.665  1.00  0.00     0.154 C 
BRANCH  53  54
ATOM     54  N   UNL     1       5.072  25.676  31.613  1.00  0.00    -0.319 N 
ATOM     55  C   UNL     1       4.990  25.764  33.002  1.00  0.00     0.407 C 
ATOM     56  H   UNL     1       4.827  24.686  31.222  1.00  0.00     0.167 HD
ATOM     57  O   UNL     1       5.251  26.869  33.536  1.00  0.00    -0.225 OA
BRANCH  55  58
ATOM     58  O   UNL     1       4.614  24.631  33.752  1.00  0.00    -0.443 OA
BRANCH  58  59
ATOM     59  C   UNL     1       5.306  24.347  34.931  1.00  0.00     0.294 C 
BRANCH  59  60
ATOM     60  C   UNL     1       6.687  23.971  34.697  1.00  0.00     0.121 A 
ATOM     61  C   UNL     1       7.770  24.526  35.267  1.00  0.00     0.146 A 
ATOM     62  N   UNL     1       7.150  23.009  33.787  1.00  0.00    -0.131 NA
ATOM     63  N   UNL     1       8.874  23.980  34.775  1.00  0.00    -0.201 N 
ATOM     64  N   UNL     1       8.439  23.104  33.920  1.00  0.00    -0.060 NA
BRANCH  63  65
ATOM     65  C   UNL     1      10.233  24.185  35.098  1.00  0.00     0.173 A 
ATOM     66  N   UNL     1      10.827  23.186  35.802  1.00  0.00    -0.236 NA
ATOM     67  C   UNL     1      10.885  25.399  34.844  1.00  0.00     0.097 A 
ATOM     68  C   UNL     1      12.165  23.418  36.297  1.00  0.00     0.113 A 
ATOM     69  C   UNL     1      12.156  25.550  35.354  1.00  0.00     0.025 A 
ATOM     70  C   UNL     1      12.734  24.572  36.048  1.00  0.00     0.022 A 
BRANCH  67  71
ATOM     71  C   UNL     1      10.367  26.448  34.025  1.00  0.00     0.103 C 
ATOM     72  N   UNL     1       9.912  27.325  33.328  1.00  0.00    -0.192 NA
ENDBRANCH  67  71
ENDBRANCH  63  65
ENDBRANCH  59  60
ENDBRANCH  58  59
ENDBRANCH  55  58
ENDBRANCH  53  54
ENDBRANCH  50  53
ENDBRANCH  47  50
ENDBRANCH   5  47
BRANCH   4  73
ATOM     73  N   UNL     1       5.798  29.357  25.876  1.00  0.00    -0.348 N 
ATOM     74  C   UNL     1       6.269  30.625  26.230  1.00  0.00     0.217 C 
ATOM     75  H   UNL     1       5.606  29.229  24.817  1.00  0.00     0.163 HD
ATOM     76  C   UNL     1       6.543  31.672  25.166  1.00  0.00     0.114 C 
ATOM     77  O   UNL     1       6.504  31.004  27.398  1.00  0.00    -0.275 OA
ENDBRANCH   4  73
TORSDOF 31
