REMARK VINA RESULT:    -6.283     22.859     26.348
REMARK INTER + INTRA:         -22.199
REMARK INTER:                 -15.259
REMARK INTRA:                  -6.940
REMARK UNBOUND:                -6.367
REMARK SMILES CC(=O)N[C@@H]1[C@@H](O)C[C@](OC[C@H]2O[C@@H](O[C@H]3[C@H](O)[C@@H](O)[C@H](OCCN=[N+]=[N-])O[C@@H]3CO)[C@H](O)[C@@H](O)[C@H]2O)(C(=O)O)O[C@H]1C(O)[C@H](O)CNC(=O)OCc1cn(-c2ncn3c2c(=O)n(C(C)C)c2ccccc23)nn1
REMARK SMILES IDX 9 1 8 2 6 3 5 4 42 5 41 6 10 7 11 8 12 9 14 10 13 11 32 12
REMARK SMILES IDX 34 13 36 14 15 15 16 16 29 17 28 18 21 19 17 20 19 21 30 22
REMARK SMILES IDX 31 23 22 25 23 26 24 27 25 28 26 29 27 30 18 31 20 33 33 35
REMARK SMILES IDX 35 37 37 39 38 41 39 42 40 43 7 45 43 47 44 48 45 50 46 51
REMARK SMILES IDX 47 53 48 54 49 55 50 57 51 58 52 59 53 60 54 61 74 62 55 63
REMARK SMILES IDX 73 64 56 65 57 66 60 67 58 68 59 69 61 70 72 71 63 72 62 73
REMARK SMILES IDX 71 74 67 75 70 76 68 77 69 78 64 79 65 80 66 81 4 82 2 83
REMARK SMILES IDX 1 85 3 86
REMARK H PARENT 31 24 18 32 20 34 33 36 35 38 37 40 40 44 7 46 44 49 46 52
REMARK H PARENT 48 56 4 84
REMARK Flexibility Score: inf
ROOT
ATOM      1  C   UNL     1       4.971  24.253  33.425  1.00  0.00     0.272 C 
ATOM      2  C   UNL     1       5.902  23.185  32.918  1.00  0.00     0.113 C 
ATOM      3  C   UNL     1       5.213  21.925  32.600  1.00  0.00     0.145 C 
ATOM      4  C   UNL     1       3.929  22.083  31.838  1.00  0.00     0.142 C 
ATOM      5  C   UNL     1       3.236  23.374  32.091  1.00  0.00     0.178 C 
ATOM      6  O   UNL     1       3.970  24.435  32.419  1.00  0.00    -0.332 OA
ENDROOT
BRANCH   1   7
ATOM      7  O   UNL     1       5.659  25.431  33.337  1.00  0.00    -0.338 OA
BRANCH   7   8
ATOM      8  C   UNL     1       5.688  26.399  34.208  1.00  0.00     0.199 C 
BRANCH   8   9
ATOM      9  C   UNL     1       6.888  26.901  34.934  1.00  0.00     0.179 C 
ATOM     10  C   UNL     1       9.081  26.196  35.278  1.00  0.00     0.282 C 
ATOM     11  O   UNL     1       7.883  25.901  34.682  1.00  0.00    -0.341 OA
ATOM     12  C   UNL     1       9.707  27.462  34.721  1.00  0.00     0.202 C 
ATOM     13  C   UNL     1       8.718  28.613  34.761  1.00  0.00     0.179 C 
ATOM     14  C   UNL     1       7.409  28.135  34.195  1.00  0.00     0.177 C 
BRANCH  10  15
ATOM     15  O   UNL     1       9.943  25.141  35.005  1.00  0.00    -0.341 OA
BRANCH  15  16
ATOM     16  C   UNL     1       9.817  24.144  35.937  1.00  0.00     0.184 C 
ATOM     17  C   UNL     1       9.561  24.717  37.283  1.00  0.00     0.178 C 
ATOM     18  O   UNL     1      10.649  24.831  38.112  1.00  0.00    -0.341 OA
ATOM     19  C   UNL     1      11.868  24.945  37.497  1.00  0.00     0.281 C 
ATOM     20  C   UNL     1      10.984  23.178  35.927  1.00  0.00     0.180 C 
ATOM     21  C   UNL     1      12.173  23.798  36.565  1.00  0.00     0.202 C 
BRANCH  17  22
ATOM     22  C   UNL     1       8.464  23.948  37.989  1.00  0.00     0.191 C 
BRANCH  22  23
ATOM     23  O   UNL     1       7.391  23.896  37.068  1.00  0.00    -0.394 OA
ATOM     24  H   UNL     1       7.404  24.754  36.585  1.00  0.00     0.210 HD
ENDBRANCH  22  23
ENDBRANCH  17  22
BRANCH  19  25
ATOM     25  O   UNL     1      12.847  24.885  38.505  1.00  0.00    -0.350 OA
BRANCH  25  26
ATOM     26  C   UNL     1      13.425  26.091  38.796  1.00  0.00     0.169 C 
BRANCH  26  27
ATOM     27  C   UNL     1      13.138  27.202  37.837  1.00  0.00     0.119 C 
BRANCH  27  28
ATOM     28  N   UNL     1      14.412  27.488  37.158  1.00  0.00    -0.092 NA
ATOM     29  N   UNL     1      14.896  26.773  36.307  1.00  0.00     0.001 N 
ATOM     30  N   UNL     1      15.599  25.994  35.656  1.00  0.00    -0.003 NA
ENDBRANCH  27  28
ENDBRANCH  26  27
ENDBRANCH  25  26
ENDBRANCH  19  25
BRANCH  20  31
ATOM     31  O   UNL     1      10.582  21.981  36.531  1.00  0.00    -0.387 OA
ATOM     32  H   UNL     1       9.604  22.104  36.716  1.00  0.00     0.211 HD
ENDBRANCH  20  31
BRANCH  21  33
ATOM     33  O   UNL     1      12.994  24.288  35.534  1.00  0.00    -0.385 OA
ATOM     34  H   UNL     1      13.280  25.223  35.707  1.00  0.00     0.211 HD
ENDBRANCH  21  33
ENDBRANCH  15  16
ENDBRANCH  10  15
BRANCH  12  35
ATOM     35  O   UNL     1      10.751  27.818  35.571  1.00  0.00    -0.385 OA
ATOM     36  H   UNL     1      10.711  28.768  35.836  1.00  0.00     0.211 HD
ENDBRANCH  12  35
BRANCH  13  37
ATOM     37  O   UNL     1       9.205  29.585  33.867  1.00  0.00    -0.387 OA
ATOM     38  H   UNL     1       8.470  29.898  33.270  1.00  0.00     0.211 HD
ENDBRANCH  13  37
BRANCH  14  39
ATOM     39  O   UNL     1       7.686  27.743  32.859  1.00  0.00    -0.387 OA
ATOM     40  H   UNL     1       7.868  28.537  32.303  1.00  0.00     0.211 HD
ENDBRANCH  14  39
ENDBRANCH   8   9
ENDBRANCH   7   8
ENDBRANCH   1   7
BRANCH   1  41
ATOM     41  C   UNL     1       4.281  23.927  34.666  1.00  0.00     0.364 C 
ATOM     42  O   UNL     1       3.091  24.150  34.887  1.00  0.00    -0.246 OA
BRANCH  41  43
ATOM     43  O   UNL     1       4.977  23.312  35.724  1.00  0.00    -0.477 OA
ATOM     44  H   UNL     1       5.013  22.301  35.775  1.00  0.00     0.296 HD
ENDBRANCH  41  43
ENDBRANCH   1  41
BRANCH   3  45
ATOM     45  O   UNL     1       6.117  21.150  31.827  1.00  0.00    -0.391 OA
ATOM     46  H   UNL     1       5.899  20.193  31.892  1.00  0.00     0.211 HD
ENDBRANCH   3  45
BRANCH   5  47
ATOM     47  C   UNL     1       2.296  23.753  30.960  1.00  0.00     0.176 C 
BRANCH  47  48
ATOM     48  O   UNL     1       3.025  24.082  29.839  1.00  0.00    -0.388 OA
ATOM     49  H   UNL     1       2.819  23.518  29.052  1.00  0.00     0.211 HD
ENDBRANCH  47  48
BRANCH  47  50
ATOM     50  C   UNL     1       1.325  24.829  31.296  1.00  0.00     0.165 C 
BRANCH  50  51
ATOM     51  O   UNL     1       1.184  25.134  32.623  1.00  0.00    -0.388 OA
ATOM     52  H   UNL     1       1.137  24.352  33.219  1.00  0.00     0.211 HD
ENDBRANCH  50  51
BRANCH  50  53
ATOM     53  C   UNL     1      -0.019  24.652  30.657  1.00  0.00     0.154 C 
BRANCH  53  54
ATOM     54  N   UNL     1       0.038  23.626  29.610  1.00  0.00    -0.319 N 
ATOM     55  C   UNL     1      -0.616  23.765  28.375  1.00  0.00     0.407 C 
ATOM     56  H   UNL     1       0.595  22.736  29.782  1.00  0.00     0.167 HD
ATOM     57  O   UNL     1      -1.301  24.787  28.114  1.00  0.00    -0.225 OA
BRANCH  55  58
ATOM     58  O   UNL     1      -0.484  22.732  27.436  1.00  0.00    -0.443 OA
BRANCH  58  59
ATOM     59  C   UNL     1       0.181  22.950  26.225  1.00  0.00     0.294 C 
BRANCH  59  60
ATOM     60  C   UNL     1       1.557  23.544  26.422  1.00  0.00     0.121 A 
ATOM     61  C   UNL     1       1.954  24.815  26.071  1.00  0.00     0.146 A 
ATOM     62  N   UNL     1       2.638  22.968  26.973  1.00  0.00    -0.131 NA
ATOM     63  N   UNL     1       3.265  24.989  26.412  1.00  0.00    -0.200 N 
ATOM     64  N   UNL     1       3.638  23.846  26.955  1.00  0.00    -0.060 NA
BRANCH  63  65
ATOM     65  C   UNL     1       4.026  26.179  26.209  1.00  0.00     0.186 A 
ATOM     66  N   UNL     1       4.723  26.464  25.096  1.00  0.00    -0.216 NA
ATOM     67  C   UNL     1       4.238  27.249  27.041  1.00  0.00     0.158 A 
ATOM     68  C   UNL     1       5.337  27.655  25.235  1.00  0.00     0.207 A 
ATOM     69  N   UNL     1       5.046  28.166  26.450  1.00  0.00    -0.291 N 
ATOM     70  C   UNL     1       3.766  27.482  28.308  1.00  0.00     0.279 A 
ATOM     71  C   UNL     1       5.397  29.302  27.078  1.00  0.00     0.071 A 
ATOM     72  N   UNL     1       4.103  28.620  28.966  1.00  0.00    -0.302 N 
ATOM     73  O   UNL     1       3.008  26.642  28.885  1.00  0.00    -0.267 OA
ATOM     74  C   UNL     1       6.216  30.225  26.485  1.00  0.00     0.029 A 
ATOM     75  C   UNL     1       4.910  29.512  28.349  1.00  0.00     0.068 A 
ATOM     76  C   UNL     1       6.588  31.408  27.143  1.00  0.00     0.002 A 
ATOM     77  C   UNL     1       5.278  30.678  28.992  1.00  0.00     0.028 A 
ATOM     78  C   UNL     1       6.108  31.630  28.413  1.00  0.00     0.002 A 
BRANCH  72  79
ATOM     79  C   UNL     1       3.592  28.873  30.314  1.00  0.00     0.085 C 
ATOM     80  C   UNL     1       4.655  28.885  31.363  1.00  0.00     0.031 C 
ATOM     81  C   UNL     1       2.656  30.054  30.358  1.00  0.00     0.031 C 
ENDBRANCH  72  79
ENDBRANCH  63  65
ENDBRANCH  59  60
ENDBRANCH  58  59
ENDBRANCH  55  58
ENDBRANCH  53  54
ENDBRANCH  50  53
ENDBRANCH  47  50
ENDBRANCH   5  47
BRANCH   4  82
ATOM     82  N   UNL     1       3.092  20.933  32.109  1.00  0.00    -0.348 N 
ATOM     83  C   UNL     1       2.975  19.831  31.232  1.00  0.00     0.217 C 
ATOM     84  H   UNL     1       2.535  20.895  32.997  1.00  0.00     0.163 HD
ATOM     85  C   UNL     1       2.108  18.652  31.523  1.00  0.00     0.114 C 
ATOM     86  O   UNL     1       3.641  19.863  30.155  1.00  0.00    -0.275 OA
ENDBRANCH   4  82
TORSDOF 31
