REMARK VINA RESULT:    -6.330      4.527      7.580
REMARK INTER + INTRA:         -21.149
REMARK INTER:                 -16.321
REMARK INTRA:                  -4.828
REMARK UNBOUND:                -4.828
REMARK SMILES CC(=O)N[C@@H]1[C@@H](O)C[C@](OC[C@H]2O[C@@H](O[C@H]3[C@H](O)[C@@H](O)[C@H](OCCN=[N+]=[N-])O[C@@H]3CO)[C@H](O)[C@@H](O)[C@H]2O)(C(=O)O)O[C@H]1C(O)[C@H](O)CNC(=O)OCc1cn(CCN2CCCC2)nn1
REMARK SMILES IDX 9 1 8 2 6 3 5 4 42 5 41 6 10 7 11 8 12 9 14 10 13 11 32 12
REMARK SMILES IDX 34 13 36 14 15 15 16 16 29 17 28 18 21 19 17 20 19 21 30 22
REMARK SMILES IDX 31 23 22 25 23 26 24 27 25 28 26 29 27 30 18 31 20 33 33 35
REMARK SMILES IDX 35 37 37 39 38 41 39 42 40 43 7 45 43 47 44 48 45 50 46 51
REMARK SMILES IDX 47 53 48 54 49 55 50 57 51 58 52 59 53 60 54 61 64 62 55 63
REMARK SMILES IDX 63 64 56 65 57 66 58 67 59 68 62 69 60 70 61 71 4 72 2 73
REMARK SMILES IDX 1 75 3 76
REMARK H PARENT 31 24 18 32 20 34 33 36 35 38 37 40 40 44 7 46 44 49 46 52
REMARK H PARENT 48 56 4 74
REMARK Flexibility Score: inf
ROOT
ATOM      1  C   UNL     1      19.548  28.929  20.427  1.00  0.00     0.272 C 
ATOM      2  C   UNL     1      20.258  30.212  20.725  1.00  0.00     0.113 C 
ATOM      3  C   UNL     1      19.478  31.036  21.759  1.00  0.00     0.145 C 
ATOM      4  C   UNL     1      18.142  31.413  21.059  1.00  0.00     0.142 C 
ATOM      5  C   UNL     1      17.526  30.141  20.605  1.00  0.00     0.178 C 
ATOM      6  O   UNL     1      18.278  29.034  21.008  1.00  0.00    -0.332 OA
ENDROOT
BRANCH   1   7
ATOM      7  O   UNL     1      20.113  27.849  21.109  1.00  0.00    -0.338 OA
BRANCH   7   8
ATOM      8  C   UNL     1      21.109  28.104  21.980  1.00  0.00     0.199 C 
BRANCH   8   9
ATOM      9  C   UNL     1      22.216  27.053  21.946  1.00  0.00     0.179 C 
ATOM     10  C   UNL     1      24.234  26.472  22.867  1.00  0.00     0.282 C 
ATOM     11  O   UNL     1      23.016  27.062  23.075  1.00  0.00    -0.341 OA
ATOM     12  C   UNL     1      24.093  25.265  22.004  1.00  0.00     0.202 C 
ATOM     13  C   UNL     1      22.694  24.700  22.167  1.00  0.00     0.179 C 
ATOM     14  C   UNL     1      21.643  25.676  21.677  1.00  0.00     0.177 C 
BRANCH  10  15
ATOM     15  O   UNL     1      25.004  26.303  23.979  1.00  0.00    -0.341 OA
BRANCH  15  16
ATOM     16  C   UNL     1      24.520  26.413  25.212  1.00  0.00     0.184 C 
ATOM     17  C   UNL     1      24.899  27.644  26.009  1.00  0.00     0.178 C 
ATOM     18  O   UNL     1      23.903  27.823  26.974  1.00  0.00    -0.341 OA
ATOM     19  C   UNL     1      24.172  26.849  27.979  1.00  0.00     0.281 C 
ATOM     20  C   UNL     1      24.785  25.244  26.144  1.00  0.00     0.180 C 
ATOM     21  C   UNL     1      23.894  25.501  27.344  1.00  0.00     0.202 C 
BRANCH  17  22
ATOM     22  C   UNL     1      25.090  28.877  25.192  1.00  0.00     0.191 C 
BRANCH  22  23
ATOM     23  O   UNL     1      23.848  29.265  24.700  1.00  0.00    -0.394 OA
ATOM     24  H   UNL     1      23.483  30.014  25.247  1.00  0.00     0.210 HD
ENDBRANCH  22  23
ENDBRANCH  17  22
BRANCH  19  25
ATOM     25  O   UNL     1      23.238  27.054  28.944  1.00  0.00    -0.350 OA
BRANCH  25  26
ATOM     26  C   UNL     1      21.974  26.605  28.773  1.00  0.00     0.169 C 
BRANCH  26  27
ATOM     27  C   UNL     1      20.853  27.518  29.125  1.00  0.00     0.119 C 
BRANCH  27  28
ATOM     28  N   UNL     1      21.048  28.892  28.728  1.00  0.00    -0.092 NA
ATOM     29  N   UNL     1      20.859  29.213  27.563  1.00  0.00     0.001 N 
ATOM     30  N   UNL     1      20.553  29.422  26.384  1.00  0.00    -0.003 NA
ENDBRANCH  27  28
ENDBRANCH  26  27
ENDBRANCH  25  26
ENDBRANCH  19  25
BRANCH  20  31
ATOM     31  O   UNL     1      24.360  24.046  25.589  1.00  0.00    -0.387 OA
ATOM     32  H   UNL     1      24.064  23.381  26.239  1.00  0.00     0.211 HD
ENDBRANCH  20  31
BRANCH  21  33
ATOM     33  O   UNL     1      23.897  24.470  28.253  1.00  0.00    -0.385 OA
ATOM     34  H   UNL     1      24.348  23.652  27.985  1.00  0.00     0.211 HD
ENDBRANCH  21  33
ENDBRANCH  15  16
ENDBRANCH  10  15
BRANCH  12  35
ATOM     35  O   UNL     1      24.264  25.533  20.641  1.00  0.00    -0.385 OA
ATOM     36  H   UNL     1      24.862  24.847  20.224  1.00  0.00     0.211 HD
ENDBRANCH  12  35
BRANCH  13  37
ATOM     37  O   UNL     1      22.432  24.467  23.520  1.00  0.00    -0.387 OA
ATOM     38  H   UNL     1      21.451  24.263  23.648  1.00  0.00     0.211 HD
ENDBRANCH  13  37
BRANCH  14  39
ATOM     39  O   UNL     1      20.496  25.436  22.431  1.00  0.00    -0.387 OA
ATOM     40  H   UNL     1      20.394  26.245  23.014  1.00  0.00     0.211 HD
ENDBRANCH  14  39
ENDBRANCH   8   9
ENDBRANCH   7   8
ENDBRANCH   1   7
BRANCH   1  41
ATOM     41  C   UNL     1      19.416  28.631  18.977  1.00  0.00     0.364 C 
ATOM     42  O   UNL     1      20.215  29.213  18.181  1.00  0.00    -0.246 OA
BRANCH  41  43
ATOM     43  O   UNL     1      18.505  27.781  18.408  1.00  0.00    -0.477 OA
ATOM     44  H   UNL     1      18.625  26.826  18.161  1.00  0.00     0.296 HD
ENDBRANCH  41  43
ENDBRANCH   1  41
BRANCH   3  45
ATOM     45  O   UNL     1      19.142  30.281  22.854  1.00  0.00    -0.391 OA
ATOM     46  H   UNL     1      19.724  30.454  23.643  1.00  0.00     0.211 HD
ENDBRANCH   3  45
BRANCH   5  47
ATOM     47  C   UNL     1      16.189  29.925  21.275  1.00  0.00     0.176 C 
BRANCH  47  48
ATOM     48  O   UNL     1      15.370  31.038  21.297  1.00  0.00    -0.388 OA
ATOM     49  H   UNL     1      14.676  31.069  20.602  1.00  0.00     0.211 HD
ENDBRANCH  47  48
BRANCH  47  50
ATOM     50  C   UNL     1      15.427  28.697  20.965  1.00  0.00     0.165 C 
BRANCH  50  51
ATOM     51  O   UNL     1      16.022  27.795  20.115  1.00  0.00    -0.388 OA
ATOM     52  H   UNL     1      16.588  28.179  19.408  1.00  0.00     0.211 HD
ENDBRANCH  50  51
BRANCH  50  53
ATOM     53  C   UNL     1      13.939  28.819  20.907  1.00  0.00     0.154 C 
BRANCH  53  54
ATOM     54  N   UNL     1      13.304  28.718  22.167  1.00  0.00    -0.319 N 
ATOM     55  C   UNL     1      12.585  29.812  22.764  1.00  0.00     0.407 C 
ATOM     56  H   UNL     1      13.338  27.821  22.709  1.00  0.00     0.167 HD
ATOM     57  O   UNL     1      12.467  30.925  22.219  1.00  0.00    -0.225 OA
BRANCH  55  58
ATOM     58  O   UNL     1      11.974  29.655  24.008  1.00  0.00    -0.443 OA
BRANCH  58  59
ATOM     59  C   UNL     1      10.602  30.023  24.184  1.00  0.00     0.294 C 
BRANCH  59  60
ATOM     60  C   UNL     1       9.789  28.852  24.567  1.00  0.00     0.120 A 
ATOM     61  C   UNL     1       8.442  28.647  24.654  1.00  0.00     0.138 A 
ATOM     62  N   UNL     1      10.338  27.657  24.933  1.00  0.00    -0.132 NA
ATOM     63  N   UNL     1       8.204  27.397  25.049  1.00  0.00    -0.251 N 
ATOM     64  N   UNL     1       9.403  26.802  25.217  1.00  0.00    -0.067 NA
BRANCH  63  65
ATOM     65  C   UNL     1       6.967  26.720  25.283  1.00  0.00     0.161 C 
BRANCH  65  66
ATOM     66  C   UNL     1       6.124  27.322  26.345  1.00  0.00     0.108 C 
BRANCH  66  67
ATOM     67  N   UNL     1       5.099  28.213  25.997  1.00  0.00    -0.301 NA
ATOM     68  C   UNL     1       5.210  29.588  26.282  1.00  0.00     0.084 C 
ATOM     69  C   UNL     1       4.485  28.001  24.722  1.00  0.00     0.084 C 
ATOM     70  C   UNL     1       4.830  30.356  25.024  1.00  0.00     0.017 C 
ATOM     71  C   UNL     1       4.144  29.343  24.154  1.00  0.00     0.017 C 
ENDBRANCH  66  67
ENDBRANCH  65  66
ENDBRANCH  63  65
ENDBRANCH  59  60
ENDBRANCH  58  59
ENDBRANCH  55  58
ENDBRANCH  53  54
ENDBRANCH  50  53
ENDBRANCH  47  50
ENDBRANCH   5  47
BRANCH   4  72
ATOM     72  N   UNL     1      18.499  32.334  19.995  1.00  0.00    -0.348 N 
ATOM     73  C   UNL     1      17.620  33.331  19.483  1.00  0.00     0.217 C 
ATOM     74  H   UNL     1      19.437  32.294  19.558  1.00  0.00     0.163 HD
ATOM     75  C   UNL     1      18.093  34.227  18.370  1.00  0.00     0.114 C 
ATOM     76  O   UNL     1      16.490  33.445  19.959  1.00  0.00    -0.275 OA
ENDBRANCH   4  72
TORSDOF 32
