REMARK VINA RESULT:    -5.361      7.063     11.294
REMARK INTER + INTRA:         -21.094
REMARK INTER:                 -15.162
REMARK INTRA:                  -5.932
REMARK UNBOUND:                -7.585
REMARK SMILES COc1ccc(-n2cc(COC(=O)NC[C@@H](O)C(O)[C@@H]3O[C@@](OC[C@H]4O[C@@H](O[C@H]5[C@H](O)[C@@H](O)[C@H](OCCN=[N+]=[N-])O[C@@H]5CO)[C@H](O)[C@@H](O)[C@H]4O)(C(=O)O)C[C@H](O)[C@H]3NC(C)=O)nn2)cc1
REMARK SMILES IDX 22 1 54 2 55 3 57 4 20 5 21 6 23 7 24 8 25 9 27 10 26 11
REMARK SMILES IDX 45 12 47 13 49 14 28 15 29 16 42 17 41 18 34 19 30 20 32 21
REMARK SMILES IDX 43 22 44 23 35 25 36 26 37 27 38 28 39 29 40 30 31 31 33 33
REMARK SMILES IDX 46 35 48 37 50 39 51 41 52 42 53 43 56 45 18 47 19 48 16 50
REMARK SMILES IDX 17 51 15 53 14 54 12 55 13 57 11 58 10 59 9 60 8 61 62 62
REMARK SMILES IDX 7 63 63 64 6 65 5 66 64 67 4 68 65 69 3 70 2 71 1 72 58 73
REMARK SMILES IDX 59 74 60 76 61 77
REMARK H PARENT 44 24 31 32 33 34 46 36 48 38 50 40 53 44 56 46 19 49 17 52
REMARK H PARENT 14 56 58 75
REMARK Flexibility Score: inf
ROOT
ATOM      1  C   UNL     1      29.231  21.928  20.463  1.00  0.00     0.272 C 
ATOM      2  C   UNL     1      28.500  20.648  20.631  1.00  0.00     0.113 C 
ATOM      3  C   UNL     1      28.331  19.806  19.428  1.00  0.00     0.145 C 
ATOM      4  C   UNL     1      28.461  20.714  18.189  1.00  0.00     0.142 C 
ATOM      5  C   UNL     1      27.836  22.018  18.538  1.00  0.00     0.178 C 
ATOM      6  O   UNL     1      28.715  22.681  19.393  1.00  0.00    -0.332 OA
ENDROOT
BRANCH   1   7
ATOM      7  O   UNL     1      30.520  22.056  20.478  1.00  0.00    -0.338 OA
BRANCH   7   8
ATOM      8  C   UNL     1      31.590  21.564  19.976  1.00  0.00     0.199 C 
BRANCH   8   9
ATOM      9  C   UNL     1      32.323  20.376  20.531  1.00  0.00     0.179 C 
ATOM     10  C   UNL     1      32.543  18.876  22.241  1.00  0.00     0.282 C 
ATOM     11  O   UNL     1      31.755  19.882  21.656  1.00  0.00    -0.341 OA
ATOM     12  C   UNL     1      32.781  17.699  21.351  1.00  0.00     0.202 C 
ATOM     13  C   UNL     1      32.558  17.929  19.903  1.00  0.00     0.179 C 
ATOM     14  C   UNL     1      32.606  19.339  19.472  1.00  0.00     0.177 C 
BRANCH  10  15
ATOM     15  O   UNL     1      31.878  18.455  23.388  1.00  0.00    -0.341 OA
BRANCH  15  16
ATOM     16  C   UNL     1      32.331  19.062  24.527  1.00  0.00     0.184 C 
ATOM     17  C   UNL     1      32.861  18.098  25.524  1.00  0.00     0.178 C 
ATOM     18  O   UNL     1      33.225  18.765  26.725  1.00  0.00    -0.341 OA
ATOM     19  C   UNL     1      31.996  19.152  27.320  1.00  0.00     0.281 C 
ATOM     20  C   UNL     1      31.160  19.845  25.146  1.00  0.00     0.180 C 
ATOM     21  C   UNL     1      31.566  20.369  26.498  1.00  0.00     0.202 C 
BRANCH  17  22
ATOM     22  C   UNL     1      34.057  17.345  25.003  1.00  0.00     0.191 C 
BRANCH  22  23
ATOM     23  O   UNL     1      33.622  16.211  24.339  1.00  0.00    -0.394 OA
ATOM     24  H   UNL     1      33.918  16.177  23.402  1.00  0.00     0.210 HD
ENDBRANCH  22  23
ENDBRANCH  17  22
BRANCH  19  25
ATOM     25  O   UNL     1      32.150  19.447  28.630  1.00  0.00    -0.350 OA
BRANCH  25  26
ATOM     26  C   UNL     1      32.156  18.451  29.555  1.00  0.00     0.169 C 
BRANCH  26  27
ATOM     27  C   UNL     1      33.266  18.442  30.551  1.00  0.00     0.119 C 
BRANCH  27  28
ATOM     28  N   UNL     1      34.088  17.269  30.561  1.00  0.00    -0.092 NA
ATOM     29  N   UNL     1      34.691  16.903  29.558  1.00  0.00     0.001 N 
ATOM     30  N   UNL     1      35.142  16.587  28.452  1.00  0.00    -0.003 NA
ENDBRANCH  27  28
ENDBRANCH  26  27
ENDBRANCH  25  26
ENDBRANCH  19  25
BRANCH  20  31
ATOM     31  O   UNL     1      30.798  20.860  24.280  1.00  0.00    -0.387 OA
ATOM     32  H   UNL     1      30.917  20.502  23.345  1.00  0.00     0.211 HD
ENDBRANCH  20  31
BRANCH  21  33
ATOM     33  O   UNL     1      30.492  20.952  27.132  1.00  0.00    -0.385 OA
ATOM     34  H   UNL     1      30.774  21.445  27.942  1.00  0.00     0.211 HD
ENDBRANCH  21  33
ENDBRANCH  15  16
ENDBRANCH  10  15
BRANCH  12  35
ATOM     35  O   UNL     1      34.091  17.208  21.485  1.00  0.00    -0.385 OA
ATOM     36  H   UNL     1      34.148  16.261  21.228  1.00  0.00     0.211 HD
ENDBRANCH  12  35
BRANCH  13  37
ATOM     37  O   UNL     1      31.407  17.253  19.479  1.00  0.00    -0.387 OA
ATOM     38  H   UNL     1      31.585  16.340  19.175  1.00  0.00     0.211 HD
ENDBRANCH  13  37
BRANCH  14  39
ATOM     39  O   UNL     1      31.776  19.498  18.359  1.00  0.00    -0.387 OA
ATOM     40  H   UNL     1      32.369  19.607  17.573  1.00  0.00     0.211 HD
ENDBRANCH  14  39
ENDBRANCH   8   9
ENDBRANCH   7   8
ENDBRANCH   1   7
BRANCH   1  41
ATOM     41  C   UNL     1      28.706  22.772  21.668  1.00  0.00     0.364 C 
ATOM     42  O   UNL     1      28.329  23.934  21.497  1.00  0.00    -0.246 OA
BRANCH  41  43
ATOM     43  O   UNL     1      28.694  22.144  22.888  1.00  0.00    -0.477 OA
ATOM     44  H   UNL     1      29.055  21.187  23.008  1.00  0.00     0.296 HD
ENDBRANCH  41  43
ENDBRANCH   1  41
BRANCH   3  45
ATOM     45  O   UNL     1      29.110  18.689  19.338  1.00  0.00    -0.391 OA
ATOM     46  H   UNL     1      29.849  18.728  18.690  1.00  0.00     0.211 HD
ENDBRANCH   3  45
BRANCH   5  47
ATOM     47  C   UNL     1      27.678  22.967  17.327  1.00  0.00     0.176 C 
BRANCH  47  48
ATOM     48  O   UNL     1      26.643  22.575  16.534  1.00  0.00    -0.388 OA
ATOM     49  H   UNL     1      26.963  21.915  15.875  1.00  0.00     0.211 HD
ENDBRANCH  47  48
BRANCH  47  50
ATOM     50  C   UNL     1      27.915  24.347  17.667  1.00  0.00     0.165 C 
BRANCH  50  51
ATOM     51  O   UNL     1      28.978  24.594  18.579  1.00  0.00    -0.388 OA
ATOM     52  H   UNL     1      29.745  24.102  18.224  1.00  0.00     0.211 HD
ENDBRANCH  50  51
BRANCH  50  53
ATOM     53  C   UNL     1      26.868  25.304  18.059  1.00  0.00     0.154 C 
BRANCH  53  54
ATOM     54  N   UNL     1      25.703  24.836  18.661  1.00  0.00    -0.319 N 
ATOM     55  C   UNL     1      24.468  24.603  18.038  1.00  0.00     0.407 C 
ATOM     56  H   UNL     1      25.734  24.627  19.718  1.00  0.00     0.167 HD
ATOM     57  O   UNL     1      24.299  24.783  16.821  1.00  0.00    -0.225 OA
BRANCH  55  58
ATOM     58  O   UNL     1      23.379  24.146  18.816  1.00  0.00    -0.443 OA
BRANCH  58  59
ATOM     59  C   UNL     1      22.816  25.052  19.731  1.00  0.00     0.294 C 
BRANCH  59  60
ATOM     60  C   UNL     1      23.322  24.768  21.094  1.00  0.00     0.121 A 
ATOM     61  C   UNL     1      22.885  25.238  22.318  1.00  0.00     0.144 A 
ATOM     62  N   UNL     1      24.348  23.935  21.360  1.00  0.00    -0.131 NA
ATOM     63  N   UNL     1      23.652  24.680  23.262  1.00  0.00    -0.220 N 
ATOM     64  N   UNL     1      24.539  23.889  22.651  1.00  0.00    -0.062 NA
BRANCH  63  65
ATOM     65  C   UNL     1      23.645  24.798  24.676  1.00  0.00     0.067 A 
ATOM     66  C   UNL     1      24.760  25.037  25.433  1.00  0.00     0.032 A 
ATOM     67  C   UNL     1      22.436  24.652  25.354  1.00  0.00     0.032 A 
ATOM     68  C   UNL     1      24.684  25.129  26.816  1.00  0.00     0.048 A 
ATOM     69  C   UNL     1      22.360  24.743  26.730  1.00  0.00     0.048 A 
ATOM     70  C   UNL     1      23.485  24.984  27.490  1.00  0.00     0.119 A 
BRANCH  70  71
ATOM     71  O   UNL     1      23.423  25.079  28.894  1.00  0.00    -0.497 OA
ATOM     72  C   UNL     1      22.336  25.837  29.445  1.00  0.00     0.278 C 
ENDBRANCH  70  71
ENDBRANCH  63  65
ENDBRANCH  59  60
ENDBRANCH  58  59
ENDBRANCH  55  58
ENDBRANCH  53  54
ENDBRANCH  50  53
ENDBRANCH  47  50
ENDBRANCH   5  47
BRANCH   4  73
ATOM     73  N   UNL     1      27.951  20.007  17.048  1.00  0.00    -0.348 N 
ATOM     74  C   UNL     1      28.818  19.520  16.036  1.00  0.00     0.217 C 
ATOM     75  H   UNL     1      26.936  19.821  16.977  1.00  0.00     0.163 HD
ATOM     76  C   UNL     1      28.264  18.792  14.864  1.00  0.00     0.114 C 
ATOM     77  O   UNL     1      30.067  19.676  16.076  1.00  0.00    -0.275 OA
ENDBRANCH   4  73
TORSDOF 31
