REMARK VINA RESULT:    -4.758     14.822     21.029
REMARK INTER + INTRA:         -20.329
REMARK INTER:                 -12.938
REMARK INTRA:                  -7.390
REMARK UNBOUND:                -8.339
REMARK SMILES CC(=O)N[C@@H]1[C@@H](O)C[C@](OC[C@H]2O[C@@H](O[C@H]3[C@H](O)[C@@H](O)[C@H](OCCN=[N+]=[N-])O[C@@H]3CO)[C@H](O)[C@@H](O)[C@H]2O)(C(=O)O)O[C@H]1C(O)[C@H](O)CNC(=O)OCc1cn(Cc2ccccc2)nn1
REMARK SMILES IDX 9 1 8 2 6 3 5 4 42 5 41 6 10 7 11 8 12 9 14 10 13 11 32 12
REMARK SMILES IDX 34 13 36 14 15 15 16 16 29 17 28 18 21 19 17 20 19 21 30 22
REMARK SMILES IDX 31 23 22 25 23 26 24 27 25 28 26 29 27 30 18 31 20 33 33 35
REMARK SMILES IDX 35 37 37 39 38 41 39 42 40 43 7 45 43 47 44 48 45 50 46 51
REMARK SMILES IDX 47 53 48 54 49 55 50 57 51 58 52 59 53 60 54 61 64 62 55 63
REMARK SMILES IDX 63 64 56 65 57 66 58 67 62 68 59 69 61 70 60 71 4 72 2 73
REMARK SMILES IDX 1 75 3 76
REMARK H PARENT 31 24 18 32 20 34 33 36 35 38 37 40 40 44 7 46 44 49 46 52
REMARK H PARENT 48 56 4 74
REMARK Flexibility Score: inf
ROOT
ATOM      1  C   UNL     1      30.354  21.087  39.712  1.00  0.00     0.272 C 
ATOM      2  C   UNL     1      30.698  21.099  41.156  1.00  0.00     0.113 C 
ATOM      3  C   UNL     1      30.166  22.331  41.781  1.00  0.00     0.145 C 
ATOM      4  C   UNL     1      29.521  23.311  40.788  1.00  0.00     0.142 C 
ATOM      5  C   UNL     1      30.314  23.420  39.556  1.00  0.00     0.178 C 
ATOM      6  O   UNL     1      30.943  22.231  39.144  1.00  0.00    -0.332 OA
ENDROOT
BRANCH   1   7
ATOM      7  O   UNL     1      29.011  21.005  39.406  1.00  0.00    -0.338 OA
BRANCH   7   8
ATOM      8  C   UNL     1      28.564  19.704  39.562  1.00  0.00     0.199 C 
BRANCH   8   9
ATOM      9  C   UNL     1      27.455  19.596  40.584  1.00  0.00     0.179 C 
ATOM     10  C   UNL     1      25.721  20.886  41.464  1.00  0.00     0.282 C 
ATOM     11  O   UNL     1      27.060  20.822  41.070  1.00  0.00    -0.341 OA
ATOM     12  C   UNL     1      25.254  19.653  42.143  1.00  0.00     0.202 C 
ATOM     13  C   UNL     1      25.333  18.481  41.216  1.00  0.00     0.179 C 
ATOM     14  C   UNL     1      26.304  18.760  40.093  1.00  0.00     0.177 C 
BRANCH  10  15
ATOM     15  O   UNL     1      24.899  21.204  40.395  1.00  0.00    -0.341 OA
BRANCH  15  16
ATOM     16  C   UNL     1      24.571  22.552  40.324  1.00  0.00     0.184 C 
ATOM     17  C   UNL     1      23.114  22.722  40.099  1.00  0.00     0.178 C 
ATOM     18  O   UNL     1      22.866  24.107  39.990  1.00  0.00    -0.341 OA
ATOM     19  C   UNL     1      23.280  24.450  38.686  1.00  0.00     0.281 C 
ATOM     20  C   UNL     1      25.306  23.067  39.075  1.00  0.00     0.180 C 
ATOM     21  C   UNL     1      24.799  24.393  38.613  1.00  0.00     0.202 C 
BRANCH  17  22
ATOM     22  C   UNL     1      22.279  22.151  41.241  1.00  0.00     0.191 C 
BRANCH  22  23
ATOM     23  O   UNL     1      22.149  20.766  40.993  1.00  0.00    -0.394 OA
ATOM     24  H   UNL     1      22.709  20.534  40.215  1.00  0.00     0.210 HD
ENDBRANCH  22  23
ENDBRANCH  17  22
BRANCH  19  25
ATOM     25  O   UNL     1      22.840  25.716  38.392  1.00  0.00    -0.350 OA
BRANCH  25  26
ATOM     26  C   UNL     1      22.113  25.702  37.218  1.00  0.00     0.169 C 
BRANCH  26  27
ATOM     27  C   UNL     1      22.303  26.902  36.341  1.00  0.00     0.119 C 
BRANCH  27  28
ATOM     28  N   UNL     1      23.660  26.795  35.783  1.00  0.00    -0.092 NA
ATOM     29  N   UNL     1      24.547  27.420  36.362  1.00  0.00     0.001 N 
ATOM     30  N   UNL     1      25.655  27.776  36.786  1.00  0.00    -0.003 NA
ENDBRANCH  27  28
ENDBRANCH  26  27
ENDBRANCH  25  26
ENDBRANCH  19  25
BRANCH  20  31
ATOM     31  O   UNL     1      26.645  23.219  39.491  1.00  0.00    -0.387 OA
ATOM     32  H   UNL     1      26.829  24.135  39.828  1.00  0.00     0.211 HD
ENDBRANCH  20  31
BRANCH  21  33
ATOM     33  O   UNL     1      25.160  24.587  37.281  1.00  0.00    -0.385 OA
ATOM     34  H   UNL     1      24.405  24.426  36.652  1.00  0.00     0.211 HD
ENDBRANCH  21  33
ENDBRANCH  15  16
ENDBRANCH  10  15
BRANCH  12  35
ATOM     35  O   UNL     1      25.942  19.411  43.345  1.00  0.00    -0.385 OA
ATOM     36  H   UNL     1      25.244  19.283  44.036  1.00  0.00     0.211 HD
ENDBRANCH  12  35
BRANCH  13  37
ATOM     37  O   UNL     1      24.065  18.222  40.710  1.00  0.00    -0.387 OA
ATOM     38  H   UNL     1      23.519  17.662  41.325  1.00  0.00     0.211 HD
ENDBRANCH  13  37
BRANCH  14  39
ATOM     39  O   UNL     1      25.713  19.200  38.940  1.00  0.00    -0.387 OA
ATOM     40  H   UNL     1      25.540  18.537  38.243  1.00  0.00     0.211 HD
ENDBRANCH  14  39
ENDBRANCH   8   9
ENDBRANCH   7   8
ENDBRANCH   1   7
BRANCH   1  41
ATOM     41  C   UNL     1      31.044  19.974  38.973  1.00  0.00     0.364 C 
ATOM     42  O   UNL     1      31.094  20.001  37.743  1.00  0.00    -0.246 OA
BRANCH  41  43
ATOM     43  O   UNL     1      31.615  18.935  39.674  1.00  0.00    -0.477 OA
ATOM     44  H   UNL     1      31.953  18.086  39.218  1.00  0.00     0.296 HD
ENDBRANCH  41  43
ENDBRANCH   1  41
BRANCH   3  45
ATOM     45  O   UNL     1      29.188  22.101  42.767  1.00  0.00    -0.391 OA
ATOM     46  H   UNL     1      28.679  22.893  42.995  1.00  0.00     0.211 HD
ENDBRANCH   3  45
BRANCH   5  47
ATOM     47  C   UNL     1      29.710  23.986  38.339  1.00  0.00     0.176 C 
BRANCH  47  48
ATOM     48  O   UNL     1      28.719  23.226  37.756  1.00  0.00    -0.388 OA
ATOM     49  H   UNL     1      27.855  23.680  37.646  1.00  0.00     0.211 HD
ENDBRANCH  47  48
BRANCH  47  50
ATOM     50  C   UNL     1      29.283  25.426  38.359  1.00  0.00     0.165 C 
BRANCH  50  51
ATOM     51  O   UNL     1      28.084  25.645  38.965  1.00  0.00    -0.388 OA
ATOM     52  H   UNL     1      28.114  26.267  39.718  1.00  0.00     0.211 HD
ENDBRANCH  50  51
BRANCH  50  53
ATOM     53  C   UNL     1      29.545  26.126  37.058  1.00  0.00     0.154 C 
BRANCH  53  54
ATOM     54  N   UNL     1      28.386  26.279  36.218  1.00  0.00    -0.319 N 
ATOM     55  C   UNL     1      27.967  25.336  35.224  1.00  0.00     0.407 C 
ATOM     56  H   UNL     1      27.748  27.129  36.286  1.00  0.00     0.167 HD
ATOM     57  O   UNL     1      28.638  24.295  35.043  1.00  0.00    -0.225 OA
BRANCH  55  58
ATOM     58  O   UNL     1      26.838  25.550  34.455  1.00  0.00    -0.443 OA
BRANCH  58  59
ATOM     59  C   UNL     1      26.819  26.615  33.535  1.00  0.00     0.294 C 
BRANCH  59  60
ATOM     60  C   UNL     1      26.967  26.128  32.147  1.00  0.00     0.120 A 
ATOM     61  C   UNL     1      26.474  26.808  31.024  1.00  0.00     0.138 A 
ATOM     62  N   UNL     1      27.552  25.031  31.655  1.00  0.00    -0.132 NA
ATOM     63  N   UNL     1      26.782  26.097  29.929  1.00  0.00    -0.248 N 
ATOM     64  N   UNL     1      27.426  25.037  30.320  1.00  0.00    -0.067 NA
BRANCH  63  65
ATOM     65  C   UNL     1      26.451  26.470  28.572  1.00  0.00     0.181 C 
BRANCH  65  66
ATOM     66  C   UNL     1      25.198  25.787  28.165  1.00  0.00    -0.026 A 
ATOM     67  C   UNL     1      24.133  25.632  29.035  1.00  0.00     0.005 A 
ATOM     68  C   UNL     1      25.098  25.294  26.873  1.00  0.00     0.005 A 
ATOM     69  C   UNL     1      22.985  24.987  28.608  1.00  0.00     0.000 A 
ATOM     70  C   UNL     1      23.946  24.652  26.459  1.00  0.00     0.000 A 
ATOM     71  C   UNL     1      22.897  24.502  27.327  1.00  0.00     0.000 A 
ENDBRANCH  65  66
ENDBRANCH  63  65
ENDBRANCH  59  60
ENDBRANCH  58  59
ENDBRANCH  55  58
ENDBRANCH  53  54
ENDBRANCH  50  53
ENDBRANCH  47  50
ENDBRANCH   5  47
BRANCH   4  72
ATOM     72  N   UNL     1      29.595  24.571  41.554  1.00  0.00    -0.348 N 
ATOM     73  C   UNL     1      28.460  25.212  42.099  1.00  0.00     0.217 C 
ATOM     74  H   UNL     1      30.526  25.017  41.703  1.00  0.00     0.163 HD
ATOM     75  C   UNL     1      28.565  26.490  42.866  1.00  0.00     0.114 C 
ATOM     76  O   UNL     1      27.334  24.683  41.929  1.00  0.00    -0.275 OA
ENDBRANCH   4  72
TORSDOF 31
