REMARK VINA RESULT:    -4.630     14.111     19.676
REMARK INTER + INTRA:         -23.626
REMARK INTER:                 -13.937
REMARK INTRA:                  -9.689
REMARK UNBOUND:               -11.418
REMARK SMILES CC(=O)N[C@@H]1[C@@H](O)C[C@](OC[C@H]2O[C@@H](O[C@H]3[C@H](O)[C@@H](O)[C@H](OCCN=[N+]=[N-])O[C@@H]3CO)[C@H](O)[C@@H](O)[C@H]2O)(C(=O)O)O[C@H]1C(O)[C@H](O)CNC(=O)OCc1cn(CC(=O)NCc2cccs2)nn1
REMARK SMILES IDX 43 1 42 2 9 3 8 4 41 5 6 6 5 7 10 8 11 9 12 10 14 11 13 12
REMARK SMILES IDX 32 13 34 14 36 15 15 16 16 17 29 18 28 19 21 20 17 21 19 22
REMARK SMILES IDX 30 23 31 24 22 26 23 27 24 28 25 29 26 30 27 31 18 32 20 34
REMARK SMILES IDX 33 36 35 38 37 40 38 42 39 43 40 44 7 46 4 48 2 49 1 51 3 52
REMARK SMILES IDX 44 53 45 55 46 56 47 58 48 59 49 60 50 62 51 63 52 64 53 65
REMARK SMILES IDX 54 66 67 67 55 68 66 69 56 70 57 71 58 72 59 73 60 75 61 76
REMARK SMILES IDX 62 77 65 78 63 79 64 80
REMARK H PARENT 31 25 18 33 20 35 33 37 35 39 37 41 40 45 7 47 4 50 44 54
REMARK H PARENT 46 57 48 61 59 74
REMARK Flexibility Score: inf
ROOT
ATOM      1  C   UNL     1      20.818  30.206  22.805  1.00  0.00     0.176 C 
ENDROOT
BRANCH   1   2
ATOM      2  C   UNL     1      19.704  30.024  21.807  1.00  0.00     0.178 C 
ATOM      3  C   UNL     1      20.306  28.763  19.898  1.00  0.00     0.272 C 
ATOM      4  C   UNL     1      20.830  30.074  19.289  1.00  0.00     0.113 C 
ATOM      5  O   UNL     1      19.896  28.849  21.168  1.00  0.00    -0.332 OA
ATOM      6  C   UNL     1      19.849  31.143  19.559  1.00  0.00     0.145 C 
ATOM      7  C   UNL     1      19.369  31.206  20.985  1.00  0.00     0.142 C 
BRANCH   3   8
ATOM      8  O   UNL     1      21.363  27.893  19.770  1.00  0.00    -0.338 OA
BRANCH   8   9
ATOM      9  C   UNL     1      22.362  27.874  20.655  1.00  0.00     0.199 C 
BRANCH   9  10
ATOM     10  C   UNL     1      22.742  26.583  21.322  1.00  0.00     0.179 C 
ATOM     11  C   UNL     1      23.985  25.964  23.149  1.00  0.00     0.282 C 
ATOM     12  O   UNL     1      23.140  26.953  22.630  1.00  0.00    -0.341 OA
ATOM     13  C   UNL     1      23.457  24.592  22.890  1.00  0.00     0.202 C 
ATOM     14  C   UNL     1      22.036  24.528  22.438  1.00  0.00     0.179 C 
ATOM     15  C   UNL     1      21.582  25.638  21.546  1.00  0.00     0.177 C 
BRANCH  11  16
ATOM     16  O   UNL     1      24.251  26.140  24.479  1.00  0.00    -0.341 OA
BRANCH  16  17
ATOM     17  C   UNL     1      23.560  27.208  25.047  1.00  0.00     0.184 C 
ATOM     18  C   UNL     1      24.418  28.201  25.698  1.00  0.00     0.178 C 
ATOM     19  O   UNL     1      24.384  28.303  27.063  1.00  0.00    -0.341 OA
ATOM     20  C   UNL     1      23.729  27.341  27.762  1.00  0.00     0.281 C 
ATOM     21  C   UNL     1      22.436  26.632  25.860  1.00  0.00     0.180 C 
ATOM     22  C   UNL     1      22.293  27.285  27.212  1.00  0.00     0.202 C 
BRANCH  18  23
ATOM     23  C   UNL     1      24.074  29.615  25.189  1.00  0.00     0.191 C 
BRANCH  23  24
ATOM     24  O   UNL     1      23.966  29.665  23.816  1.00  0.00    -0.394 OA
ATOM     25  H   UNL     1      24.506  28.920  23.438  1.00  0.00     0.210 HD
ENDBRANCH  23  24
ENDBRANCH  18  23
BRANCH  20  26
ATOM     26  O   UNL     1      23.569  27.783  29.086  1.00  0.00    -0.350 OA
BRANCH  26  27
ATOM     27  C   UNL     1      23.985  26.835  29.999  1.00  0.00     0.169 C 
BRANCH  27  28
ATOM     28  C   UNL     1      25.490  27.033  30.202  1.00  0.00     0.119 C 
BRANCH  28  29
ATOM     29  N   UNL     1      26.059  25.819  30.767  1.00  0.00    -0.092 NA
ATOM     30  N   UNL     1      27.163  25.432  30.387  1.00  0.00     0.001 N 
ATOM     31  N   UNL     1      28.348  25.102  30.193  1.00  0.00    -0.003 NA
ENDBRANCH  28  29
ENDBRANCH  27  28
ENDBRANCH  26  27
ENDBRANCH  20  26
BRANCH  21  32
ATOM     32  O   UNL     1      21.216  26.620  25.177  1.00  0.00    -0.387 OA
ATOM     33  H   UNL     1      21.029  27.516  24.761  1.00  0.00     0.211 HD
ENDBRANCH  21  32
BRANCH  22  34
ATOM     34  O   UNL     1      21.495  26.481  28.001  1.00  0.00    -0.385 OA
ATOM     35  H   UNL     1      20.614  26.907  28.159  1.00  0.00     0.211 HD
ENDBRANCH  22  34
ENDBRANCH  16  17
ENDBRANCH  11  16
BRANCH  13  36
ATOM     36  O   UNL     1      24.281  23.879  21.990  1.00  0.00    -0.385 OA
ATOM     37  H   UNL     1      23.786  23.414  21.296  1.00  0.00     0.211 HD
ENDBRANCH  13  36
BRANCH  14  38
ATOM     38  O   UNL     1      21.170  24.360  23.544  1.00  0.00    -0.387 OA
ATOM     39  H   UNL     1      21.402  23.528  24.024  1.00  0.00     0.211 HD
ENDBRANCH  14  38
BRANCH  15  40
ATOM     40  O   UNL     1      20.570  26.328  22.255  1.00  0.00    -0.387 OA
ATOM     41  H   UNL     1      20.933  26.854  23.003  1.00  0.00     0.211 HD
ENDBRANCH  15  40
ENDBRANCH   9  10
ENDBRANCH   8   9
ENDBRANCH   3   8
BRANCH   3  42
ATOM     42  C   UNL     1      19.168  28.376  19.008  1.00  0.00     0.364 C 
ATOM     43  O   UNL     1      19.267  28.174  17.776  1.00  0.00    -0.246 OA
BRANCH  42  44
ATOM     44  O   UNL     1      17.902  28.219  19.559  1.00  0.00    -0.477 OA
ATOM     45  H   UNL     1      17.084  28.562  19.071  1.00  0.00     0.296 HD
ENDBRANCH  42  44
ENDBRANCH   3  42
BRANCH   6  46
ATOM     46  O   UNL     1      20.397  32.393  19.151  1.00  0.00    -0.391 OA
ATOM     47  H   UNL     1      21.325  32.294  18.848  1.00  0.00     0.211 HD
ENDBRANCH   6  46
BRANCH   7  48
ATOM     48  N   UNL     1      17.955  31.521  21.039  1.00  0.00    -0.348 N 
ATOM     49  C   UNL     1      17.496  32.596  21.828  1.00  0.00     0.217 C 
ATOM     50  H   UNL     1      17.238  30.962  20.504  1.00  0.00     0.163 HD
ATOM     51  C   UNL     1      16.037  32.904  21.872  1.00  0.00     0.114 C 
ATOM     52  O   UNL     1      18.247  33.329  22.513  1.00  0.00    -0.275 OA
ENDBRANCH   7  48
ENDBRANCH   1   2
BRANCH   1  53
ATOM     53  O   UNL     1      21.492  31.390  22.731  1.00  0.00    -0.388 OA
ATOM     54  H   UNL     1      22.425  31.346  22.433  1.00  0.00     0.211 HD
ENDBRANCH   1  53
BRANCH   1  55
ATOM     55  C   UNL     1      20.481  29.796  24.222  1.00  0.00     0.165 C 
BRANCH  55  56
ATOM     56  O   UNL     1      19.613  28.749  24.294  1.00  0.00    -0.388 OA
ATOM     57  H   UNL     1      18.677  28.965  24.087  1.00  0.00     0.211 HD
ENDBRANCH  55  56
BRANCH  55  58
ATOM     58  C   UNL     1      19.966  30.993  25.003  1.00  0.00     0.154 C 
BRANCH  58  59
ATOM     59  N   UNL     1      18.567  31.230  24.805  1.00  0.00    -0.319 N 
ATOM     60  C   UNL     1      17.575  31.365  25.807  1.00  0.00     0.407 C 
ATOM     61  H   UNL     1      18.164  31.327  23.805  1.00  0.00     0.167 HD
ATOM     62  O   UNL     1      17.842  31.293  27.006  1.00  0.00    -0.225 OA
BRANCH  60  63
ATOM     63  O   UNL     1      16.224  31.588  25.474  1.00  0.00    -0.443 OA
BRANCH  63  64
ATOM     64  C   UNL     1      15.284  30.591  25.237  1.00  0.00     0.294 C 
BRANCH  64  65
ATOM     65  C   UNL     1      15.355  29.981  23.903  1.00  0.00     0.120 A 
ATOM     66  C   UNL     1      14.304  29.722  23.051  1.00  0.00     0.138 A 
ATOM     67  N   UNL     1      16.473  29.560  23.254  1.00  0.00    -0.132 NA
ATOM     68  N   UNL     1      14.789  29.165  21.933  1.00  0.00    -0.243 N 
ATOM     69  N   UNL     1      16.089  29.084  22.089  1.00  0.00    -0.067 NA
BRANCH  68  70
ATOM     70  C   UNL     1      14.111  28.714  20.738  1.00  0.00     0.245 C 
BRANCH  70  71
ATOM     71  C   UNL     1      14.358  29.692  19.663  1.00  0.00     0.242 C 
ATOM     72  O   UNL     1      13.517  30.573  19.410  1.00  0.00    -0.273 OA
ATOM     73  N   UNL     1      15.554  29.640  18.906  1.00  0.00    -0.350 N 
ATOM     74  H   UNL     1      16.295  28.906  19.089  1.00  0.00     0.163 HD
BRANCH  73  75
ATOM     75  C   UNL     1      15.833  30.572  17.857  1.00  0.00     0.162 C 
BRANCH  75  76
ATOM     76  C   UNL     1      15.561  29.936  16.560  1.00  0.00     0.024 A 
ATOM     77  C   UNL     1      16.319  29.132  15.773  1.00  0.00     0.017 A 
ATOM     78  S   UNL     1      14.055  30.082  15.664  1.00  0.00    -0.147 S 
ATOM     79  C   UNL     1      15.815  28.677  14.616  1.00  0.00     0.012 A 
ATOM     80  C   UNL     1      14.568  29.015  14.243  1.00  0.00     0.065 A 
ENDBRANCH  75  76
ENDBRANCH  73  75
ENDBRANCH  70  71
ENDBRANCH  68  70
ENDBRANCH  64  65
ENDBRANCH  63  64
ENDBRANCH  60  63
ENDBRANCH  58  59
ENDBRANCH  55  58
ENDBRANCH   1  55
TORSDOF 33
