REMARK VINA RESULT:    -5.704     13.476     20.016
REMARK INTER + INTRA:         -22.522
REMARK INTER:                 -17.477
REMARK INTRA:                  -5.044
REMARK UNBOUND:                -8.149
REMARK SMILES CC(=O)N[C@@H]1[C@@H](O)C[C@](OC[C@H]2O[C@@H](O[C@H]3[C@H](O)[C@@H](O)[C@H](OCCN=[N+]=[N-])O[C@@H]3CO)[C@H](O)[C@@H](O)[C@H]2O)(C(=O)O)O[C@H]1C(O)[C@H](O)CNC(=O)OCc1cn(Cc2ccc3c(c2)OCO3)nn1
REMARK SMILES IDX 9 1 8 2 6 3 5 4 42 5 41 6 10 7 11 8 12 9 14 10 13 11 32 12
REMARK SMILES IDX 34 13 36 14 15 15 16 16 29 17 28 18 21 19 17 20 19 21 30 22
REMARK SMILES IDX 31 23 22 25 23 26 24 27 25 28 26 29 27 30 18 31 20 33 33 35
REMARK SMILES IDX 35 37 37 39 38 41 39 42 40 43 7 45 43 47 44 48 45 50 46 51
REMARK SMILES IDX 47 53 48 54 49 55 50 57 51 58 52 59 53 60 54 61 67 62 55 63
REMARK SMILES IDX 66 64 56 65 57 66 58 67 62 68 59 69 61 70 60 71 63 72 65 73
REMARK SMILES IDX 64 74 4 75 2 76 1 78 3 79
REMARK H PARENT 31 24 18 32 20 34 33 36 35 38 37 40 40 44 7 46 44 49 46 52
REMARK H PARENT 48 56 4 77
REMARK Flexibility Score: inf
ROOT
ATOM      1  C   UNL     1       2.834  21.889  34.278  1.00  0.00     0.272 C 
ATOM      2  C   UNL     1       2.437  20.694  35.121  1.00  0.00     0.113 C 
ATOM      3  C   UNL     1       2.971  19.442  34.494  1.00  0.00     0.145 C 
ATOM      4  C   UNL     1       2.281  19.325  33.109  1.00  0.00     0.142 C 
ATOM      5  C   UNL     1       2.535  20.596  32.381  1.00  0.00     0.178 C 
ATOM      6  O   UNL     1       3.347  21.498  33.065  1.00  0.00    -0.332 OA
ENDROOT
BRANCH   1   7
ATOM      7  O   UNL     1       3.735  22.708  34.978  1.00  0.00    -0.338 OA
BRANCH   7   8
ATOM      8  C   UNL     1       3.807  24.005  34.597  1.00  0.00     0.199 C 
BRANCH   8   9
ATOM      9  C   UNL     1       5.288  24.396  34.472  1.00  0.00     0.179 C 
ATOM     10  C   UNL     1       7.367  24.001  35.372  1.00  0.00     0.282 C 
ATOM     11  O   UNL     1       5.987  23.881  35.530  1.00  0.00    -0.341 OA
ATOM     12  C   UNL     1       7.794  23.108  34.204  1.00  0.00     0.202 C 
ATOM     13  C   UNL     1       6.750  22.941  33.160  1.00  0.00     0.179 C 
ATOM     14  C   UNL     1       5.831  24.114  33.117  1.00  0.00     0.177 C 
BRANCH  10  15
ATOM     15  O   UNL     1       7.981  23.534  36.466  1.00  0.00    -0.341 OA
BRANCH  15  16
ATOM     16  C   UNL     1       9.214  23.981  36.834  1.00  0.00     0.184 C 
ATOM     17  C   UNL     1      10.220  22.892  37.084  1.00  0.00     0.178 C 
ATOM     18  O   UNL     1      10.622  22.820  38.376  1.00  0.00    -0.341 OA
ATOM     19  C   UNL     1      11.260  23.968  38.890  1.00  0.00     0.281 C 
ATOM     20  C   UNL     1       9.077  24.858  38.050  1.00  0.00     0.180 C 
ATOM     21  C   UNL     1      10.469  25.207  38.536  1.00  0.00     0.202 C 
BRANCH  17  22
ATOM     22  C   UNL     1      11.411  23.108  36.182  1.00  0.00     0.191 C 
BRANCH  22  23
ATOM     23  O   UNL     1      12.230  21.949  36.161  1.00  0.00    -0.394 OA
ATOM     24  H   UNL     1      11.704  21.121  36.067  1.00  0.00     0.210 HD
ENDBRANCH  22  23
ENDBRANCH  17  22
BRANCH  19  25
ATOM     25  O   UNL     1      12.572  24.009  38.543  1.00  0.00    -0.350 OA
BRANCH  25  26
ATOM     26  C   UNL     1      13.482  24.747  39.175  1.00  0.00     0.169 C 
BRANCH  26  27
ATOM     27  C   UNL     1      14.029  24.193  40.453  1.00  0.00     0.119 C 
BRANCH  27  28
ATOM     28  N   UNL     1      14.364  22.813  40.449  1.00  0.00    -0.092 NA
ATOM     29  N   UNL     1      14.801  22.202  41.420  1.00  0.00     0.001 N 
ATOM     30  N   UNL     1      15.585  21.862  42.324  1.00  0.00    -0.003 NA
ENDBRANCH  27  28
ENDBRANCH  26  27
ENDBRANCH  25  26
ENDBRANCH  19  25
BRANCH  20  31
ATOM     31  O   UNL     1       8.430  26.029  37.665  1.00  0.00    -0.387 OA
ATOM     32  H   UNL     1       9.025  26.615  37.128  1.00  0.00     0.211 HD
ENDBRANCH  20  31
BRANCH  21  33
ATOM     33  O   UNL     1      10.296  26.013  39.658  1.00  0.00    -0.385 OA
ATOM     34  H   UNL     1      11.176  26.344  39.981  1.00  0.00     0.211 HD
ENDBRANCH  21  33
ENDBRANCH  15  16
ENDBRANCH  10  15
BRANCH  12  35
ATOM     35  O   UNL     1       8.982  23.580  33.648  1.00  0.00    -0.385 OA
ATOM     36  H   UNL     1       9.750  23.146  34.054  1.00  0.00     0.211 HD
ENDBRANCH  12  35
BRANCH  13  37
ATOM     37  O   UNL     1       6.060  21.742  33.252  1.00  0.00    -0.387 OA
ATOM     38  H   UNL     1       6.450  21.101  32.604  1.00  0.00     0.211 HD
ENDBRANCH  13  37
BRANCH  14  39
ATOM     39  O   UNL     1       4.807  23.821  32.205  1.00  0.00    -0.387 OA
ATOM     40  H   UNL     1       5.135  23.140  31.586  1.00  0.00     0.211 HD
ENDBRANCH  14  39
ENDBRANCH   8   9
ENDBRANCH   7   8
ENDBRANCH   1   7
BRANCH   1  41
ATOM     41  C   UNL     1       1.651  22.742  34.063  1.00  0.00     0.364 C 
ATOM     42  O   UNL     1       0.688  22.775  34.839  1.00  0.00    -0.246 OA
BRANCH  41  43
ATOM     43  O   UNL     1       1.557  23.577  32.946  1.00  0.00    -0.477 OA
ATOM     44  H   UNL     1       1.810  24.577  33.023  1.00  0.00     0.296 HD
ENDBRANCH  41  43
ENDBRANCH   1  41
BRANCH   3  45
ATOM     45  O   UNL     1       4.311  19.405  34.242  1.00  0.00    -0.391 OA
ATOM     46  H   UNL     1       4.649  20.180  33.725  1.00  0.00     0.211 HD
ENDBRANCH   3  45
BRANCH   5  47
ATOM     47  C   UNL     1       3.338  20.319  31.087  1.00  0.00     0.176 C 
BRANCH  47  48
ATOM     48  O   UNL     1       3.223  19.031  30.660  1.00  0.00    -0.388 OA
ATOM     49  H   UNL     1       3.448  18.410  31.393  1.00  0.00     0.211 HD
ENDBRANCH  47  48
BRANCH  47  50
ATOM     50  C   UNL     1       3.206  21.326  30.030  1.00  0.00     0.165 C 
BRANCH  50  51
ATOM     51  O   UNL     1       3.098  22.651  30.474  1.00  0.00    -0.388 OA
ATOM     52  H   UNL     1       3.955  22.958  30.868  1.00  0.00     0.211 HD
ENDBRANCH  50  51
BRANCH  50  53
ATOM     53  C   UNL     1       2.118  21.105  29.014  1.00  0.00     0.154 C 
BRANCH  53  54
ATOM     54  N   UNL     1       1.926  22.377  28.297  1.00  0.00    -0.319 N 
ATOM     55  C   UNL     1       1.939  22.446  26.874  1.00  0.00     0.407 C 
ATOM     56  H   UNL     1       1.779  23.225  28.855  1.00  0.00     0.167 HD
ATOM     57  O   UNL     1       2.123  21.368  26.250  1.00  0.00    -0.225 OA
BRANCH  55  58
ATOM     58  O   UNL     1       1.764  23.617  26.178  1.00  0.00    -0.443 OA
BRANCH  58  59
ATOM     59  C   UNL     1       1.216  24.757  26.798  1.00  0.00     0.294 C 
BRANCH  59  60
ATOM     60  C   UNL     1       2.239  25.828  26.802  1.00  0.00     0.120 A 
ATOM     61  C   UNL     1       3.509  25.802  27.368  1.00  0.00     0.138 A 
ATOM     62  N   UNL     1       2.135  27.059  26.261  1.00  0.00    -0.132 NA
ATOM     63  N   UNL     1       4.110  26.987  27.151  1.00  0.00    -0.248 N 
ATOM     64  N   UNL     1       3.260  27.725  26.483  1.00  0.00    -0.067 NA
BRANCH  63  65
ATOM     65  C   UNL     1       5.430  27.345  27.577  1.00  0.00     0.181 C 
BRANCH  65  66
ATOM     66  C   UNL     1       6.201  28.126  26.581  1.00  0.00    -0.023 A 
ATOM     67  C   UNL     1       6.913  27.487  25.614  1.00  0.00     0.010 A 
ATOM     68  C   UNL     1       6.201  29.524  26.633  1.00  0.00     0.056 A 
ATOM     69  C   UNL     1       7.621  28.229  24.704  1.00  0.00     0.051 A 
ATOM     70  C   UNL     1       6.904  30.276  25.732  1.00  0.00     0.166 A 
ATOM     71  C   UNL     1       7.618  29.597  24.762  1.00  0.00     0.165 A 
ATOM     72  O   UNL     1       7.115  31.623  25.504  1.00  0.00    -0.454 OA
ATOM     73  O   UNL     1       8.266  30.528  23.940  1.00  0.00    -0.454 OA
ATOM     74  C   UNL     1       7.647  31.772  24.189  1.00  0.00     0.468 C 
ENDBRANCH  65  66
ENDBRANCH  63  65
ENDBRANCH  59  60
ENDBRANCH  58  59
ENDBRANCH  55  58
ENDBRANCH  53  54
ENDBRANCH  50  53
ENDBRANCH  47  50
ENDBRANCH   5  47
BRANCH   4  75
ATOM     75  N   UNL     1       0.908  19.043  33.418  1.00  0.00    -0.348 N 
ATOM     76  C   UNL     1       0.182  18.167  32.543  1.00  0.00     0.217 C 
ATOM     77  H   UNL     1       0.359  19.401  34.220  1.00  0.00     0.163 HD
ATOM     78  C   UNL     1      -1.258  17.858  32.842  1.00  0.00     0.114 C 
ATOM     79  O   UNL     1       0.743  17.665  31.541  1.00  0.00    -0.275 OA
ENDBRANCH   4  75
TORSDOF 31
