REMARK VINA RESULT:    -6.445      4.974      8.327
REMARK INTER + INTRA:         -21.959
REMARK INTER:                 -16.808
REMARK INTRA:                  -5.152
REMARK UNBOUND:                -5.152
REMARK SMILES CC(=O)N[C@@H]1[C@@H](O)C[C@](OC[C@H]2O[C@@H](O[C@H]3[C@H](O)[C@@H](O)[C@H](OCCN=[N+]=[N-])O[C@@H]3CO)[C@H](O)[C@@H](O)[C@H]2O)(C(=O)O)O[C@H]1C(O)[C@H](O)CNC(=O)OCc1cn(CC(O)c2ccccc2)nn1
REMARK SMILES IDX 9 1 8 2 6 3 5 4 42 5 41 6 10 7 11 8 12 9 14 10 13 11 32 12
REMARK SMILES IDX 34 13 36 14 15 15 16 16 29 17 28 18 21 19 17 20 19 21 30 22
REMARK SMILES IDX 31 23 22 25 23 26 24 27 25 28 26 29 27 30 18 31 20 33 33 35
REMARK SMILES IDX 35 37 37 39 38 41 39 42 40 43 7 45 43 47 44 48 45 50 46 51
REMARK SMILES IDX 47 53 48 54 49 55 50 57 51 58 52 59 53 60 54 61 66 62 55 63
REMARK SMILES IDX 65 64 56 65 57 66 58 67 59 69 60 70 64 71 61 72 63 73 62 74
REMARK SMILES IDX 4 75 2 76 1 78 3 79
REMARK H PARENT 31 24 18 32 20 34 33 36 35 38 37 40 40 44 7 46 44 49 46 52
REMARK H PARENT 48 56 58 68 4 77
REMARK Flexibility Score: inf
ROOT
ATOM      1  C   UNL     1      25.650  25.012  19.207  1.00  0.00     0.272 C 
ATOM      2  C   UNL     1      25.783  26.481  19.356  1.00  0.00     0.113 C 
ATOM      3  C   UNL     1      24.560  27.295  19.123  1.00  0.00     0.145 C 
ATOM      4  C   UNL     1      23.533  26.452  18.436  1.00  0.00     0.142 C 
ATOM      5  C   UNL     1      24.257  25.584  17.422  1.00  0.00     0.178 C 
ATOM      6  O   UNL     1      25.128  24.683  17.951  1.00  0.00    -0.332 OA
ENDROOT
BRANCH   1   7
ATOM      7  O   UNL     1      24.902  24.346  20.131  1.00  0.00    -0.338 OA
BRANCH   7   8
ATOM      8  C   UNL     1      24.739  24.913  21.357  1.00  0.00     0.199 C 
BRANCH   8   9
ATOM      9  C   UNL     1      23.742  24.143  22.192  1.00  0.00     0.179 C 
ATOM     10  C   UNL     1      22.524  24.453  24.118  1.00  0.00     0.282 C 
ATOM     11  O   UNL     1      23.731  24.607  23.492  1.00  0.00    -0.341 OA
ATOM     12  C   UNL     1      21.386  25.246  23.513  1.00  0.00     0.202 C 
ATOM     13  C   UNL     1      21.611  25.316  22.018  1.00  0.00     0.179 C 
ATOM     14  C   UNL     1      22.365  24.062  21.623  1.00  0.00     0.177 C 
BRANCH  10  15
ATOM     15  O   UNL     1      22.574  24.845  25.452  1.00  0.00    -0.341 OA
BRANCH  15  16
ATOM     16  C   UNL     1      22.519  26.193  25.674  1.00  0.00     0.184 C 
ATOM     17  C   UNL     1      23.947  26.714  25.563  1.00  0.00     0.178 C 
ATOM     18  O   UNL     1      24.513  26.890  26.808  1.00  0.00    -0.341 OA
ATOM     19  C   UNL     1      24.317  25.705  27.541  1.00  0.00     0.281 C 
ATOM     20  C   UNL     1      21.966  26.385  27.081  1.00  0.00     0.180 C 
ATOM     21  C   UNL     1      22.904  25.776  28.110  1.00  0.00     0.202 C 
BRANCH  17  22
ATOM     22  C   UNL     1      23.994  27.987  24.735  1.00  0.00     0.191 C 
BRANCH  22  23
ATOM     23  O   UNL     1      24.183  27.707  23.385  1.00  0.00    -0.394 OA
ATOM     24  H   UNL     1      24.455  28.513  22.872  1.00  0.00     0.210 HD
ENDBRANCH  22  23
ENDBRANCH  17  22
BRANCH  19  25
ATOM     25  O   UNL     1      25.285  25.675  28.514  1.00  0.00    -0.350 OA
BRANCH  25  26
ATOM     26  C   UNL     1      25.024  26.428  29.634  1.00  0.00     0.169 C 
BRANCH  26  27
ATOM     27  C   UNL     1      25.409  25.768  30.928  1.00  0.00     0.119 C 
BRANCH  27  28
ATOM     28  N   UNL     1      26.816  25.356  30.877  1.00  0.00    -0.092 NA
ATOM     29  N   UNL     1      27.372  25.277  31.985  1.00  0.00     0.001 N 
ATOM     30  N   UNL     1      28.072  24.977  32.951  1.00  0.00    -0.003 NA
ENDBRANCH  27  28
ENDBRANCH  26  27
ENDBRANCH  25  26
ENDBRANCH  19  25
BRANCH  20  31
ATOM     31  O   UNL     1      21.773  27.735  27.341  1.00  0.00    -0.387 OA
ATOM     32  H   UNL     1      20.798  27.948  27.298  1.00  0.00     0.211 HD
ENDBRANCH  20  31
BRANCH  21  33
ATOM     33  O   UNL     1      22.442  24.545  28.537  1.00  0.00    -0.385 OA
ATOM     34  H   UNL     1      22.312  24.594  29.516  1.00  0.00     0.211 HD
ENDBRANCH  21  33
ENDBRANCH  15  16
ENDBRANCH  10  15
BRANCH  12  35
ATOM     35  O   UNL     1      20.188  24.569  23.766  1.00  0.00    -0.385 OA
ATOM     36  H   UNL     1      19.473  25.258  23.841  1.00  0.00     0.211 HD
ENDBRANCH  12  35
BRANCH  13  37
ATOM     37  O   UNL     1      22.380  26.455  21.794  1.00  0.00    -0.387 OA
ATOM     38  H   UNL     1      23.133  26.554  22.403  1.00  0.00     0.211 HD
ENDBRANCH  13  37
BRANCH  14  39
ATOM     39  O   UNL     1      22.327  23.785  20.277  1.00  0.00    -0.387 OA
ATOM     40  H   UNL     1      22.080  22.848  20.067  1.00  0.00     0.211 HD
ENDBRANCH  14  39
ENDBRANCH   8   9
ENDBRANCH   7   8
ENDBRANCH   1   7
BRANCH   1  41
ATOM     41  C   UNL     1      27.073  24.479  19.155  1.00  0.00     0.364 C 
ATOM     42  O   UNL     1      27.990  25.219  18.842  1.00  0.00    -0.246 OA
BRANCH  41  43
ATOM     43  O   UNL     1      27.232  23.143  19.478  1.00  0.00    -0.477 OA
ATOM     44  H   UNL     1      26.455  22.542  19.301  1.00  0.00     0.296 HD
ENDBRANCH  41  43
ENDBRANCH   1  41
BRANCH   3  45
ATOM     45  O   UNL     1      24.096  27.892  20.296  1.00  0.00    -0.391 OA
ATOM     46  H   UNL     1      24.797  27.719  20.985  1.00  0.00     0.211 HD
ENDBRANCH   3  45
BRANCH   5  47
ATOM     47  C   UNL     1      23.184  24.990  16.545  1.00  0.00     0.176 C 
BRANCH  47  48
ATOM     48  O   UNL     1      22.316  24.238  17.351  1.00  0.00    -0.388 OA
ATOM     49  H   UNL     1      22.221  24.740  18.208  1.00  0.00     0.211 HD
ENDBRANCH  47  48
BRANCH  47  50
ATOM     50  C   UNL     1      23.745  24.190  15.417  1.00  0.00     0.165 C 
BRANCH  50  51
ATOM     51  O   UNL     1      25.081  24.412  15.219  1.00  0.00    -0.388 OA
ATOM     52  H   UNL     1      25.487  25.059  15.816  1.00  0.00     0.211 HD
ENDBRANCH  50  51
BRANCH  50  53
ATOM     53  C   UNL     1      22.895  24.177  14.173  1.00  0.00     0.154 C 
BRANCH  53  54
ATOM     54  N   UNL     1      22.195  22.954  13.911  1.00  0.00    -0.319 N 
ATOM     55  C   UNL     1      21.828  22.491  12.613  1.00  0.00     0.407 C 
ATOM     56  H   UNL     1      21.923  22.323  14.731  1.00  0.00     0.167 HD
ATOM     57  O   UNL     1      22.118  23.148  11.599  1.00  0.00    -0.225 OA
BRANCH  55  58
ATOM     58  O   UNL     1      21.145  21.306  12.445  1.00  0.00    -0.443 OA
BRANCH  58  59
ATOM     59  C   UNL     1      19.725  21.231  12.322  1.00  0.00     0.294 C 
BRANCH  59  60
ATOM     60  C   UNL     1      19.365  20.105  11.402  1.00  0.00     0.120 A 
ATOM     61  C   UNL     1      19.744  19.875  10.105  1.00  0.00     0.138 A 
ATOM     62  N   UNL     1      18.566  19.075  11.757  1.00  0.00    -0.132 NA
ATOM     63  N   UNL     1      19.173  18.706   9.686  1.00  0.00    -0.249 N 
ATOM     64  N   UNL     1      18.484  18.281  10.719  1.00  0.00    -0.067 NA
BRANCH  63  65
ATOM     65  C   UNL     1      19.331  18.107   8.370  1.00  0.00     0.182 C 
BRANCH  65  66
ATOM     66  C   UNL     1      20.681  17.419   8.272  1.00  0.00     0.166 C 
BRANCH  66  67
ATOM     67  O   UNL     1      20.808  16.705   9.487  1.00  0.00    -0.386 OA
ATOM     68  H   UNL     1      20.605  15.741   9.333  1.00  0.00     0.211 HD
ENDBRANCH  66  67
BRANCH  66  69
ATOM     69  C   UNL     1      20.811  16.507   7.132  1.00  0.00    -0.018 A 
ATOM     70  C   UNL     1      20.911  15.156   7.267  1.00  0.00     0.006 A 
ATOM     71  C   UNL     1      20.843  17.118   5.871  1.00  0.00     0.006 A 
ATOM     72  C   UNL     1      21.047  14.387   6.123  1.00  0.00     0.000 A 
ATOM     73  C   UNL     1      20.979  16.336   4.756  1.00  0.00     0.000 A 
ATOM     74  C   UNL     1      21.082  14.965   4.876  1.00  0.00     0.000 A 
ENDBRANCH  66  69
ENDBRANCH  65  66
ENDBRANCH  63  65
ENDBRANCH  59  60
ENDBRANCH  58  59
ENDBRANCH  55  58
ENDBRANCH  53  54
ENDBRANCH  50  53
ENDBRANCH  47  50
ENDBRANCH   5  47
BRANCH   4  75
ATOM     75  N   UNL     1      22.637  27.299  17.633  1.00  0.00    -0.348 N 
ATOM     76  C   UNL     1      21.392  27.766  18.124  1.00  0.00     0.217 C 
ATOM     77  H   UNL     1      22.906  27.576  16.665  1.00  0.00     0.163 HD
ATOM     78  C   UNL     1      20.461  28.622  17.344  1.00  0.00     0.114 C 
ATOM     79  O   UNL     1      21.059  27.435  19.296  1.00  0.00    -0.275 OA
ENDBRANCH   4  75
TORSDOF 33
