REMARK VINA RESULT:    -4.683      0.000      0.000
REMARK INTER + INTRA:         -23.767
REMARK INTER:                 -15.880
REMARK INTRA:                  -7.887
REMARK UNBOUND:               -11.418
REMARK SMILES CC(=O)N[C@@H]1[C@@H](O)C[C@](OC[C@H]2O[C@@H](O[C@H]3[C@H](O)[C@@H](O)[C@H](OCCN=[N+]=[N-])O[C@@H]3CO)[C@H](O)[C@@H](O)[C@H]2O)(C(=O)O)O[C@H]1C(O)[C@H](O)CNC(=O)OCc1cn(CC(=O)NCc2cccs2)nn1
REMARK SMILES IDX 43 1 42 2 9 3 8 4 41 5 6 6 5 7 10 8 11 9 12 10 14 11 13 12
REMARK SMILES IDX 32 13 34 14 36 15 15 16 16 17 29 18 28 19 21 20 17 21 19 22
REMARK SMILES IDX 30 23 31 24 22 26 23 27 24 28 25 29 26 30 27 31 18 32 20 34
REMARK SMILES IDX 33 36 35 38 37 40 38 42 39 43 40 44 7 46 4 48 2 49 1 51 3 52
REMARK SMILES IDX 44 53 45 55 46 56 47 58 48 59 49 60 50 62 51 63 52 64 53 65
REMARK SMILES IDX 54 66 67 67 55 68 66 69 56 70 57 71 58 72 59 73 60 75 61 76
REMARK SMILES IDX 62 77 65 78 63 79 64 80
REMARK H PARENT 31 25 18 33 20 35 33 37 35 39 37 41 40 45 7 47 4 50 44 54
REMARK H PARENT 46 57 48 61 59 74
REMARK Flexibility Score: inf
ROOT
ATOM      1  C   UNL     1       3.373  24.993  32.104  1.00  0.00     0.176 C 
ENDROOT
BRANCH   1   2
ATOM      2  C   UNL     1       4.022  23.634  32.074  1.00  0.00     0.178 C 
ATOM      3  C   UNL     1       2.578  21.880  31.418  1.00  0.00     0.272 C 
ATOM      4  C   UNL     1       2.136  21.794  32.888  1.00  0.00     0.113 C 
ATOM      5  O   UNL     1       3.405  22.889  31.130  1.00  0.00    -0.332 OA
ATOM      6  C   UNL     1       3.333  21.885  33.745  1.00  0.00     0.145 C 
ATOM      7  C   UNL     1       4.275  23.005  33.388  1.00  0.00     0.142 C 
BRANCH   3   8
ATOM      8  O   UNL     1       1.396  21.986  30.723  1.00  0.00    -0.338 OA
BRANCH   8   9
ATOM      9  C   UNL     1       1.133  23.042  29.951  1.00  0.00     0.199 C 
BRANCH   9  10
ATOM     10  C   UNL     1       0.906  22.852  28.479  1.00  0.00     0.179 C 
ATOM     11  C   UNL     1       0.836  24.202  26.624  1.00  0.00     0.282 C 
ATOM     12  O   UNL     1       1.438  24.019  27.877  1.00  0.00    -0.341 OA
ATOM     13  C   UNL     1       0.768  22.928  25.851  1.00  0.00     0.202 C 
ATOM     14  C   UNL     1       1.602  21.810  26.382  1.00  0.00     0.179 C 
ATOM     15  C   UNL     1       1.713  21.726  27.870  1.00  0.00     0.177 C 
BRANCH  11  16
ATOM     16  O   UNL     1       1.436  25.186  25.889  1.00  0.00    -0.341 OA
BRANCH  16  17
ATOM     17  C   UNL     1       2.455  25.847  26.571  1.00  0.00     0.184 C 
ATOM     18  C   UNL     1       2.381  27.308  26.492  1.00  0.00     0.178 C 
ATOM     19  O   UNL     1       3.329  27.974  25.763  1.00  0.00    -0.341 OA
ATOM     20  C   UNL     1       4.157  27.247  24.970  1.00  0.00     0.281 C 
ATOM     21  C   UNL     1       3.751  25.202  26.173  1.00  0.00     0.180 C 
ATOM     22  C   UNL     1       4.839  26.203  25.872  1.00  0.00     0.202 C 
BRANCH  18  23
ATOM     23  C   UNL     1       2.471  27.920  27.905  1.00  0.00     0.191 C 
BRANCH  23  24
ATOM     24  O   UNL     1       1.497  27.433  28.750  1.00  0.00    -0.394 OA
ATOM     25  H   UNL     1       0.639  27.884  28.521  1.00  0.00     0.210 HD
ENDBRANCH  23  24
ENDBRANCH  18  23
BRANCH  20  26
ATOM     26  O   UNL     1       5.212  28.073  24.550  1.00  0.00    -0.350 OA
BRANCH  26  27
ATOM     27  C   UNL     1       5.933  28.571  25.616  1.00  0.00     0.169 C 
BRANCH  27  28
ATOM     28  C   UNL     1       7.262  29.090  25.061  1.00  0.00     0.119 C 
BRANCH  28  29
ATOM     29  N   UNL     1       8.058  27.963  24.597  1.00  0.00    -0.092 NA
ATOM     30  N   UNL     1       8.592  27.219  25.418  1.00  0.00     0.001 N 
ATOM     31  N   UNL     1       8.986  26.323  26.188  1.00  0.00    -0.003 NA
ENDBRANCH  28  29
ENDBRANCH  27  28
ENDBRANCH  26  27
ENDBRANCH  20  26
BRANCH  21  32
ATOM     32  O   UNL     1       4.191  24.244  27.091  1.00  0.00    -0.387 OA
ATOM     33  H   UNL     1       5.146  23.984  26.909  1.00  0.00     0.211 HD
ENDBRANCH  21  32
BRANCH  22  34
ATOM     34  O   UNL     1       5.851  25.554  25.194  1.00  0.00    -0.385 OA
ATOM     35  H   UNL     1       5.498  25.093  24.391  1.00  0.00     0.211 HD
ENDBRANCH  22  34
ENDBRANCH  16  17
ENDBRANCH  11  16
BRANCH  13  36
ATOM     36  O   UNL     1      -0.567  22.493  25.681  1.00  0.00    -0.385 OA
ATOM     37  H   UNL     1      -1.044  22.969  24.984  1.00  0.00     0.211 HD
ENDBRANCH  13  36
BRANCH  14  38
ATOM     38  O   UNL     1       2.875  21.803  25.763  1.00  0.00    -0.387 OA
ATOM     39  H   UNL     1       3.268  22.709  25.804  1.00  0.00     0.211 HD
ENDBRANCH  14  38
BRANCH  15  40
ATOM     40  O   UNL     1       3.079  21.933  28.179  1.00  0.00    -0.387 OA
ATOM     41  H   UNL     1       3.574  21.087  28.261  1.00  0.00     0.211 HD
ENDBRANCH  15  40
ENDBRANCH   9  10
ENDBRANCH   8   9
ENDBRANCH   3   8
BRANCH   3  42
ATOM     42  C   UNL     1       3.248  20.567  31.161  1.00  0.00     0.364 C 
ATOM     43  O   UNL     1       2.773  19.453  31.480  1.00  0.00    -0.246 OA
BRANCH  42  44
ATOM     44  O   UNL     1       4.482  20.552  30.523  1.00  0.00    -0.477 OA
ATOM     45  H   UNL     1       4.790  19.729  30.020  1.00  0.00     0.296 HD
ENDBRANCH  42  44
ENDBRANCH   3  42
BRANCH   6  46
ATOM     46  O   UNL     1       2.927  21.977  35.108  1.00  0.00    -0.391 OA
ATOM     47  H   UNL     1       2.739  21.090  35.484  1.00  0.00     0.211 HD
ENDBRANCH   6  46
BRANCH   7  48
ATOM     48  N   UNL     1       5.654  22.584  33.533  1.00  0.00    -0.348 N 
ATOM     49  C   UNL     1       6.657  23.529  33.836  1.00  0.00     0.217 C 
ATOM     50  H   UNL     1       5.947  21.578  33.413  1.00  0.00     0.163 HD
ATOM     51  C   UNL     1       8.072  23.077  33.980  1.00  0.00     0.114 C 
ATOM     52  O   UNL     1       6.438  24.753  33.996  1.00  0.00    -0.275 OA
ENDBRANCH   7  48
ENDBRANCH   1   2
BRANCH   1  53
ATOM     53  O   UNL     1       3.448  25.659  33.293  1.00  0.00    -0.388 OA
ATOM     54  H   UNL     1       3.773  25.147  34.063  1.00  0.00     0.211 HD
ENDBRANCH   1  53
BRANCH   1  55
ATOM     55  C   UNL     1       3.666  25.869  30.905  1.00  0.00     0.165 C 
BRANCH  55  56
ATOM     56  O   UNL     1       3.280  25.318  29.721  1.00  0.00    -0.388 OA
ATOM     57  H   UNL     1       2.315  25.342  29.542  1.00  0.00     0.211 HD
ENDBRANCH  55  56
BRANCH  55  58
ATOM     58  C   UNL     1       5.137  26.248  30.884  1.00  0.00     0.154 C 
BRANCH  58  59
ATOM     59  N   UNL     1       5.522  27.062  31.998  1.00  0.00    -0.319 N 
ATOM     60  C   UNL     1       5.726  28.463  32.000  1.00  0.00     0.407 C 
ATOM     61  H   UNL     1       5.689  26.616  32.970  1.00  0.00     0.167 HD
ATOM     62  O   UNL     1       5.575  29.148  30.988  1.00  0.00    -0.225 OA
BRANCH  60  63
ATOM     63  O   UNL     1       6.116  29.145  33.170  1.00  0.00    -0.443 OA
BRANCH  63  64
ATOM     64  C   UNL     1       6.619  28.541  34.316  1.00  0.00     0.294 C 
BRANCH  64  65
ATOM     65  C   UNL     1       8.081  28.596  34.452  1.00  0.00     0.120 A 
ATOM     66  C   UNL     1       9.016  28.380  33.463  1.00  0.00     0.138 A 
ATOM     67  N   UNL     1       8.789  28.875  35.579  1.00  0.00    -0.132 NA
ATOM     68  N   UNL     1      10.238  28.527  33.992  1.00  0.00    -0.243 N 
ATOM     69  N   UNL     1      10.064  28.824  35.258  1.00  0.00    -0.067 NA
BRANCH  68  70
ATOM     70  C   UNL     1      11.545  28.413  33.384  1.00  0.00     0.245 C 
BRANCH  70  71
ATOM     71  C   UNL     1      12.334  27.433  34.152  1.00  0.00     0.242 C 
ATOM     72  O   UNL     1      13.550  27.616  34.343  1.00  0.00    -0.273 OA
ATOM     73  N   UNL     1      11.718  26.274  34.683  1.00  0.00    -0.350 N 
ATOM     74  H   UNL     1      10.687  26.080  34.543  1.00  0.00     0.163 HD
BRANCH  73  75
ATOM     75  C   UNL     1      12.447  25.300  35.436  1.00  0.00     0.162 C 
BRANCH  75  76
ATOM     76  C   UNL     1      11.501  24.382  36.085  1.00  0.00     0.024 A 
ATOM     77  C   UNL     1      11.458  23.027  36.146  1.00  0.00     0.017 A 
ATOM     78  S   UNL     1      10.095  24.877  37.017  1.00  0.00    -0.147 S 
ATOM     79  C   UNL     1      10.467  22.429  36.824  1.00  0.00     0.012 A 
ATOM     80  C   UNL     1       9.526  23.169  37.438  1.00  0.00     0.065 A 
ENDBRANCH  75  76
ENDBRANCH  73  75
ENDBRANCH  70  71
ENDBRANCH  68  70
ENDBRANCH  64  65
ENDBRANCH  63  64
ENDBRANCH  60  63
ENDBRANCH  58  59
ENDBRANCH  55  58
ENDBRANCH   1  55
TORSDOF 33
