REMARK VINA RESULT:    -5.900     14.200     19.091
REMARK INTER + INTRA:         -25.384
REMARK INTER:                 -19.049
REMARK INTRA:                  -6.335
REMARK UNBOUND:                -8.963
REMARK SMILES CC(=O)N[C@@H]1[C@@H](O)C[C@](OC[C@H]2O[C@@H](O[C@H]3[C@H](O)[C@@H](O)[C@H](OCCN=[N+]=[N-])O[C@@H]3CO)[C@H](O)[C@@H](O)[C@H]2O)(C(=O)O)O[C@H]1C(O)[C@H](O)CNC(=O)OCc1cn(C[C@@H](C(=O)O)C(c2ccccc2)c2ccccc2)nn1
REMARK SMILES IDX 43 1 42 2 9 3 8 4 41 5 6 6 5 7 10 8 11 9 12 10 14 11 13 12
REMARK SMILES IDX 32 13 34 14 36 15 15 16 16 17 29 18 28 19 21 20 17 21 19 22
REMARK SMILES IDX 30 23 31 24 22 26 23 27 24 28 25 29 26 30 27 31 18 32 20 34
REMARK SMILES IDX 33 36 35 38 37 40 38 42 39 43 40 44 7 46 4 48 2 49 1 51 3 52
REMARK SMILES IDX 44 53 45 55 46 56 47 58 48 59 49 60 50 62 51 63 52 64 53 65
REMARK SMILES IDX 54 66 75 67 55 68 74 69 56 70 57 71 58 72 59 73 60 74 61 76
REMARK SMILES IDX 62 77 63 78 67 79 64 80 66 81 65 82 68 83 69 84 73 85 70 86
REMARK SMILES IDX 72 87 71 88
REMARK H PARENT 31 25 18 33 20 35 33 37 35 39 37 41 40 45 7 47 4 50 44 54
REMARK H PARENT 46 57 48 61 60 75
REMARK Flexibility Score: inf
ROOT
ATOM      1  C   UNL     1       3.837  20.854  31.245  1.00  0.00     0.176 C 
ENDROOT
BRANCH   1   2
ATOM      2  C   UNL     1       3.217  21.758  32.333  1.00  0.00     0.178 C 
ATOM      3  C   UNL     1       2.933  23.880  33.202  1.00  0.00     0.272 C 
ATOM      4  C   UNL     1       1.984  22.983  34.063  1.00  0.00     0.113 C 
ATOM      5  O   UNL     1       3.574  23.054  32.261  1.00  0.00    -0.332 OA
ATOM      6  C   UNL     1       2.709  21.840  34.685  1.00  0.00     0.145 C 
ATOM      7  C   UNL     1       3.479  21.077  33.656  1.00  0.00     0.142 C 
BRANCH   3   8
ATOM      8  O   UNL     1       3.692  24.545  34.008  1.00  0.00    -0.338 OA
BRANCH   8   9
ATOM      9  C   UNL     1       4.616  25.423  34.006  1.00  0.00     0.199 C 
BRANCH   9  10
ATOM     10  C   UNL     1       6.067  25.158  33.699  1.00  0.00     0.179 C 
ATOM     11  C   UNL     1       8.065  25.412  34.951  1.00  0.00     0.282 C 
ATOM     12  O   UNL     1       6.871  25.864  34.540  1.00  0.00    -0.341 OA
ATOM     13  C   UNL     1       8.625  24.166  34.383  1.00  0.00     0.202 C 
ATOM     14  C   UNL     1       7.689  23.374  33.517  1.00  0.00     0.179 C 
ATOM     15  C   UNL     1       6.308  23.664  34.010  1.00  0.00     0.177 C 
BRANCH  11  16
ATOM     16  O   UNL     1       7.906  25.177  36.349  1.00  0.00    -0.341 OA
BRANCH  16  17
ATOM     17  C   UNL     1       8.905  25.716  37.110  1.00  0.00     0.184 C 
ATOM     18  C   UNL     1      10.114  24.829  37.019  1.00  0.00     0.178 C 
ATOM     19  O   UNL     1      10.087  23.790  37.943  1.00  0.00    -0.341 OA
ATOM     20  C   UNL     1       8.791  23.410  38.319  1.00  0.00     0.281 C 
ATOM     21  C   UNL     1       8.524  25.822  38.580  1.00  0.00     0.180 C 
ATOM     22  C   UNL     1       8.097  24.467  39.107  1.00  0.00     0.202 C 
BRANCH  18  23
ATOM     23  C   UNL     1      11.425  25.554  37.136  1.00  0.00     0.191 C 
BRANCH  23  24
ATOM     24  O   UNL     1      11.712  26.338  36.037  1.00  0.00    -0.394 OA
ATOM     25  H   UNL     1      10.843  26.738  35.732  1.00  0.00     0.210 HD
ENDBRANCH  23  24
ENDBRANCH  18  23
BRANCH  20  26
ATOM     26  O   UNL     1       8.885  22.280  39.100  1.00  0.00    -0.350 OA
BRANCH  26  27
ATOM     27  C   UNL     1       9.822  22.285  40.085  1.00  0.00     0.169 C 
BRANCH  27  28
ATOM     28  C   UNL     1       9.761  21.115  41.012  1.00  0.00     0.119 C 
BRANCH  28  29
ATOM     29  N   UNL     1      11.128  20.942  41.543  1.00  0.00    -0.092 NA
ATOM     30  N   UNL     1      11.333  19.936  42.228  1.00  0.00     0.001 N 
ATOM     31  N   UNL     1      11.518  19.021  43.027  1.00  0.00    -0.003 NA
ENDBRANCH  28  29
ENDBRANCH  27  28
ENDBRANCH  26  27
ENDBRANCH  20  26
BRANCH  21  32
ATOM     32  O   UNL     1       9.671  26.199  39.273  1.00  0.00    -0.387 OA
ATOM     33  H   UNL     1       9.665  27.145  39.543  1.00  0.00     0.211 HD
ENDBRANCH  21  32
BRANCH  22  34
ATOM     34  O   UNL     1       6.723  24.314  38.975  1.00  0.00    -0.385 OA
ATOM     35  H   UNL     1       6.393  25.110  38.449  1.00  0.00     0.211 HD
ENDBRANCH  22  34
ENDBRANCH  16  17
ENDBRANCH  11  16
BRANCH  13  36
ATOM     36  O   UNL     1       9.745  24.461  33.569  1.00  0.00    -0.385 OA
ATOM     37  H   UNL     1       9.813  23.799  32.824  1.00  0.00     0.211 HD
ENDBRANCH  13  36
BRANCH  14  38
ATOM     38  O   UNL     1       7.977  22.027  33.614  1.00  0.00    -0.387 OA
ATOM     39  H   UNL     1       8.758  21.820  33.036  1.00  0.00     0.211 HD
ENDBRANCH  14  38
BRANCH  15  40
ATOM     40  O   UNL     1       6.260  23.431  35.378  1.00  0.00    -0.387 OA
ATOM     41  H   UNL     1       5.696  24.123  35.783  1.00  0.00     0.211 HD
ENDBRANCH  15  40
ENDBRANCH   9  10
ENDBRANCH   8   9
ENDBRANCH   3   8
BRANCH   3  42
ATOM     42  C   UNL     1       1.972  24.675  32.410  1.00  0.00     0.364 C 
ATOM     43  O   UNL     1       2.193  25.806  31.931  1.00  0.00    -0.246 OA
BRANCH  42  44
ATOM     44  O   UNL     1       0.689  24.146  32.153  1.00  0.00    -0.477 OA
ATOM     45  H   UNL     1      -0.009  24.282  32.852  1.00  0.00     0.296 HD
ENDBRANCH  42  44
ENDBRANCH   3  42
BRANCH   6  46
ATOM     46  O   UNL     1       3.541  22.246  35.739  1.00  0.00    -0.391 OA
ATOM     47  H   UNL     1       3.971  21.480  36.186  1.00  0.00     0.211 HD
ENDBRANCH   6  46
BRANCH   7  48
ATOM     48  N   UNL     1       2.963  19.729  33.575  1.00  0.00    -0.348 N 
ATOM     49  C   UNL     1       3.254  18.768  34.575  1.00  0.00     0.217 C 
ATOM     50  H   UNL     1       2.354  19.469  32.748  1.00  0.00     0.163 HD
ATOM     51  C   UNL     1       2.719  17.365  34.498  1.00  0.00     0.114 C 
ATOM     52  O   UNL     1       3.981  19.135  35.534  1.00  0.00    -0.275 OA
ENDBRANCH   7  48
ENDBRANCH   1   2
BRANCH   1  53
ATOM     53  O   UNL     1       5.186  21.062  31.145  1.00  0.00    -0.388 OA
ATOM     54  H   UNL     1       5.701  20.772  31.932  1.00  0.00     0.211 HD
ENDBRANCH   1  53
BRANCH   1  55
ATOM     55  C   UNL     1       3.182  21.084  29.940  1.00  0.00     0.165 C 
BRANCH  55  56
ATOM     56  O   UNL     1       3.184  22.438  29.544  1.00  0.00    -0.388 OA
ATOM     57  H   UNL     1       4.076  22.560  29.092  1.00  0.00     0.211 HD
ENDBRANCH  55  56
BRANCH  55  58
ATOM     58  C   UNL     1       1.855  20.494  29.642  1.00  0.00     0.154 C 
BRANCH  58  59
ATOM     59  N   UNL     1       1.424  20.527  28.294  1.00  0.00    -0.319 N 
ATOM     60  C   UNL     1       0.300  21.213  27.785  1.00  0.00     0.407 C 
ATOM     61  H   UNL     1       2.021  19.971  27.565  1.00  0.00     0.167 HD
ATOM     62  O   UNL     1      -0.486  21.852  28.505  1.00  0.00    -0.225 OA
BRANCH  60  63
ATOM     63  O   UNL     1       0.076  21.170  26.425  1.00  0.00    -0.443 OA
BRANCH  63  64
ATOM     64  C   UNL     1       0.448  22.201  25.580  1.00  0.00     0.294 C 
BRANCH  64  65
ATOM     65  C   UNL     1       1.451  23.122  26.135  1.00  0.00     0.120 A 
ATOM     66  C   UNL     1       1.351  24.466  26.403  1.00  0.00     0.138 A 
ATOM     67  N   UNL     1       2.739  22.799  26.471  1.00  0.00    -0.132 NA
ATOM     68  N   UNL     1       2.520  24.914  26.872  1.00  0.00    -0.251 N 
ATOM     69  N   UNL     1       3.343  23.882  26.903  1.00  0.00    -0.067 NA
BRANCH  68  70
ATOM     70  C   UNL     1       2.875  26.284  27.291  1.00  0.00     0.162 C 
BRANCH  70  71
ATOM     71  C   UNL     1       3.918  26.839  26.377  1.00  0.00     0.132 C 
BRANCH  71  72
ATOM     72  C   UNL     1       3.313  27.286  25.087  1.00  0.00     0.309 C 
ATOM     73  O   UNL     1       2.620  28.312  24.985  1.00  0.00    -0.252 OA
BRANCH  72  74
ATOM     74  O   UNL     1       3.524  26.536  23.943  1.00  0.00    -0.481 OA
ATOM     75  H   UNL     1       4.230  25.795  23.951  1.00  0.00     0.296 HD
ENDBRANCH  72  74
ENDBRANCH  71  72
BRANCH  71  76
ATOM     76  C   UNL     1       4.882  27.822  26.930  1.00  0.00     0.065 C 
BRANCH  76  77
ATOM     77  C   UNL     1       5.014  27.905  28.385  1.00  0.00    -0.040 A 
ATOM     78  C   UNL     1       5.093  26.746  29.172  1.00  0.00     0.004 A 
ATOM     79  C   UNL     1       5.063  29.108  29.093  1.00  0.00     0.004 A 
ATOM     80  C   UNL     1       5.210  26.774  30.525  1.00  0.00     0.000 A 
ATOM     81  C   UNL     1       5.182  29.126  30.462  1.00  0.00     0.000 A 
ATOM     82  C   UNL     1       5.256  27.958  31.194  1.00  0.00     0.000 A 
ENDBRANCH  76  77
BRANCH  76  83
ATOM     83  C   UNL     1       6.164  27.888  26.180  1.00  0.00    -0.040 A 
ATOM     84  C   UNL     1       6.511  29.112  25.649  1.00  0.00     0.004 A 
ATOM     85  C   UNL     1       6.986  26.805  26.020  1.00  0.00     0.004 A 
ATOM     86  C   UNL     1       7.677  29.269  24.955  1.00  0.00     0.000 A 
ATOM     87  C   UNL     1       8.171  26.979  25.311  1.00  0.00     0.000 A 
ATOM     88  C   UNL     1       8.523  28.199  24.778  1.00  0.00     0.000 A 
ENDBRANCH  76  83
ENDBRANCH  71  76
ENDBRANCH  70  71
ENDBRANCH  68  70
ENDBRANCH  64  65
ENDBRANCH  63  64
ENDBRANCH  60  63
ENDBRANCH  58  59
ENDBRANCH  55  58
ENDBRANCH   1  55
TORSDOF 36
