REMARK VINA RESULT:    -5.563      3.758      6.743
REMARK INTER + INTRA:         -22.785
REMARK INTER:                 -16.867
REMARK INTRA:                  -5.918
REMARK UNBOUND:                -7.304
REMARK SMILES CC(=O)N[C@@H]1[C@@H](O)C[C@](OC[C@H]2O[C@@H](O[C@H]3[C@H](O)[C@@H](O)[C@H](OCCN=[N+]=[N-])O[C@@H]3CO)[C@H](O)[C@@H](O)[C@H]2O)(C(=O)O)O[C@H]1C(O)[C@H](O)CNC(=O)OCc1cn(CCCCCC(=O)O)nn1
REMARK SMILES IDX 47 1 45 2 43 3 42 4 9 5 8 6 41 7 6 8 5 9 10 10 11 11 12 12
REMARK SMILES IDX 14 13 13 14 32 15 34 16 36 17 15 18 16 19 29 20 28 21 21 22
REMARK SMILES IDX 17 23 19 24 30 25 31 26 22 28 23 29 24 30 25 31 26 32 27 33
REMARK SMILES IDX 18 34 20 36 33 38 35 40 37 42 38 44 39 45 40 46 7 48 4 50
REMARK SMILES IDX 2 51 1 53 3 54 44 55 46 57 48 59 49 60 50 62 51 63 52 64
REMARK SMILES IDX 53 65 54 66 65 67 55 68 64 69 56 70 57 71 58 72 59 73 60 74
REMARK SMILES IDX 61 75 62 76 63 77
REMARK H PARENT 31 27 18 35 20 37 33 39 35 41 37 43 40 47 7 49 4 52 44 56
REMARK H PARENT 46 58 48 61 63 78
REMARK Flexibility Score: inf
ROOT
ATOM      1  C   UNL     1      13.270  31.350  19.855  1.00  0.00     0.154 C 
ENDROOT
BRANCH   1   2
ATOM      2  C   UNL     1      14.271  32.422  19.499  1.00  0.00     0.165 C 
BRANCH   2   3
ATOM      3  C   UNL     1      15.342  31.764  18.693  1.00  0.00     0.176 C 
BRANCH   3   4
ATOM      4  C   UNL     1      15.913  30.510  19.260  1.00  0.00     0.178 C 
ATOM      5  C   UNL     1      17.113  29.607  20.939  1.00  0.00     0.272 C 
ATOM      6  C   UNL     1      16.463  28.344  20.474  1.00  0.00     0.113 C 
ATOM      7  O   UNL     1      17.026  30.682  20.065  1.00  0.00    -0.332 OA
ATOM      8  C   UNL     1      16.291  28.153  19.016  1.00  0.00     0.145 C 
ATOM      9  C   UNL     1      16.317  29.473  18.235  1.00  0.00     0.142 C 
BRANCH   5  10
ATOM     10  O   UNL     1      18.418  29.409  21.384  1.00  0.00    -0.338 OA
BRANCH  10  11
ATOM     11  C   UNL     1      19.377  30.237  20.895  1.00  0.00     0.199 C 
BRANCH  11  12
ATOM     12  C   UNL     1      20.665  29.435  20.853  1.00  0.00     0.179 C 
ATOM     13  C   UNL     1      22.140  28.146  21.931  1.00  0.00     0.282 C 
ATOM     14  O   UNL     1      20.751  28.455  21.829  1.00  0.00    -0.341 OA
ATOM     15  C   UNL     1      22.873  28.183  20.667  1.00  0.00     0.202 C 
ATOM     16  C   UNL     1      22.068  28.111  19.400  1.00  0.00     0.179 C 
ATOM     17  C   UNL     1      20.683  28.685  19.533  1.00  0.00     0.177 C 
BRANCH  13  18
ATOM     18  O   UNL     1      22.310  27.047  22.770  1.00  0.00    -0.341 OA
BRANCH  18  19
ATOM     19  C   UNL     1      23.230  26.148  22.378  1.00  0.00     0.184 C 
ATOM     20  C   UNL     1      22.774  24.729  22.533  1.00  0.00     0.178 C 
ATOM     21  O   UNL     1      23.648  23.968  21.730  1.00  0.00    -0.341 OA
ATOM     22  C   UNL     1      24.895  23.942  22.255  1.00  0.00     0.281 C 
ATOM     23  C   UNL     1      24.478  26.203  23.324  1.00  0.00     0.180 C 
ATOM     24  C   UNL     1      25.076  24.823  23.433  1.00  0.00     0.202 C 
BRANCH  20  25
ATOM     25  C   UNL     1      21.379  24.475  22.024  1.00  0.00     0.191 C 
BRANCH  25  26
ATOM     26  O   UNL     1      20.441  24.757  22.994  1.00  0.00    -0.394 OA
ATOM     27  H   UNL     1      20.833  24.505  23.872  1.00  0.00     0.210 HD
ENDBRANCH  25  26
ENDBRANCH  20  25
BRANCH  22  28
ATOM     28  O   UNL     1      25.905  24.166  21.310  1.00  0.00    -0.350 OA
BRANCH  28  29
ATOM     29  C   UNL     1      27.157  23.882  21.792  1.00  0.00     0.169 C 
BRANCH  29  30
ATOM     30  C   UNL     1      27.405  22.382  21.720  1.00  0.00     0.119 C 
BRANCH  30  31
ATOM     31  N   UNL     1      28.828  22.090  21.758  1.00  0.00    -0.092 NA
ATOM     32  N   UNL     1      29.312  21.523  22.755  1.00  0.00     0.001 N 
ATOM     33  N   UNL     1      29.917  21.403  23.822  1.00  0.00    -0.003 NA
ENDBRANCH  30  31
ENDBRANCH  29  30
ENDBRANCH  28  29
ENDBRANCH  22  28
BRANCH  23  34
ATOM     34  O   UNL     1      25.435  27.031  22.739  1.00  0.00    -0.387 OA
ATOM     35  H   UNL     1      26.010  26.479  22.132  1.00  0.00     0.211 HD
ENDBRANCH  23  34
BRANCH  24  36
ATOM     36  O   UNL     1      24.795  24.205  24.658  1.00  0.00    -0.385 OA
ATOM     37  H   UNL     1      25.317  23.374  24.789  1.00  0.00     0.211 HD
ENDBRANCH  24  36
ENDBRANCH  18  19
ENDBRANCH  13  18
BRANCH  15  38
ATOM     38  O   UNL     1      23.651  29.371  20.543  1.00  0.00    -0.385 OA
ATOM     39  H   UNL     1      23.075  30.135  20.355  1.00  0.00     0.211 HD
ENDBRANCH  15  38
BRANCH  16  40
ATOM     40  O   UNL     1      21.919  26.794  18.930  1.00  0.00    -0.387 OA
ATOM     41  H   UNL     1      21.185  26.697  18.297  1.00  0.00     0.211 HD
ENDBRANCH  16  40
BRANCH  17  42
ATOM     42  O   UNL     1      19.755  27.623  19.680  1.00  0.00    -0.387 OA
ATOM     43  H   UNL     1      20.323  26.809  19.859  1.00  0.00     0.211 HD
ENDBRANCH  17  42
ENDBRANCH  11  12
ENDBRANCH  10  11
ENDBRANCH   5  10
BRANCH   5  44
ATOM     44  C   UNL     1      16.365  30.043  22.152  1.00  0.00     0.364 C 
ATOM     45  O   UNL     1      16.287  31.254  22.455  1.00  0.00    -0.246 OA
BRANCH  44  46
ATOM     46  O   UNL     1      15.751  29.114  22.955  1.00  0.00    -0.477 OA
ATOM     47  H   UNL     1      14.811  29.251  23.363  1.00  0.00     0.296 HD
ENDBRANCH  44  46
ENDBRANCH   5  44
BRANCH   8  48
ATOM     48  O   UNL     1      17.112  27.188  18.439  1.00  0.00    -0.391 OA
ATOM     49  H   UNL     1      17.782  26.924  19.109  1.00  0.00     0.211 HD
ENDBRANCH   8  48
BRANCH   9  50
ATOM     50  N   UNL     1      15.494  29.418  17.078  1.00  0.00    -0.348 N 
ATOM     51  C   UNL     1      16.061  29.061  15.831  1.00  0.00     0.217 C 
ATOM     52  H   UNL     1      14.489  29.630  17.128  1.00  0.00     0.163 HD
ATOM     53  C   UNL     1      15.222  28.991  14.606  1.00  0.00     0.114 C 
ATOM     54  O   UNL     1      17.290  28.787  15.702  1.00  0.00    -0.275 OA
ENDBRANCH   9  50
ENDBRANCH   3   4
BRANCH   3  55
ATOM     55  O   UNL     1      16.401  32.661  18.423  1.00  0.00    -0.388 OA
ATOM     56  H   UNL     1      17.100  32.205  17.903  1.00  0.00     0.211 HD
ENDBRANCH   3  55
ENDBRANCH   2   3
BRANCH   2  57
ATOM     57  O   UNL     1      14.789  32.936  20.682  1.00  0.00    -0.388 OA
ATOM     58  H   UNL     1      15.443  33.636  20.430  1.00  0.00     0.211 HD
ENDBRANCH   2  57
ENDBRANCH   1   2
BRANCH   1  59
ATOM     59  N   UNL     1      12.915  31.312  21.238  1.00  0.00    -0.319 N 
ATOM     60  C   UNL     1      12.919  30.045  21.904  1.00  0.00     0.407 C 
ATOM     61  H   UNL     1      12.656  32.153  21.777  1.00  0.00     0.167 HD
ATOM     62  O   UNL     1      13.229  28.998  21.282  1.00  0.00    -0.225 OA
BRANCH  60  63
ATOM     63  O   UNL     1      12.587  29.919  23.233  1.00  0.00    -0.443 OA
BRANCH  63  64
ATOM     64  C   UNL     1      12.697  30.927  24.175  1.00  0.00     0.294 C 
BRANCH  64  65
ATOM     65  C   UNL     1      11.484  31.702  24.464  1.00  0.00     0.120 A 
ATOM     66  C   UNL     1      10.203  31.434  24.055  1.00  0.00     0.138 A 
ATOM     67  N   UNL     1      11.436  32.844  25.187  1.00  0.00    -0.132 NA
ATOM     68  N   UNL     1       9.417  32.402  24.529  1.00  0.00    -0.252 N 
ATOM     69  N   UNL     1      10.189  33.230  25.203  1.00  0.00    -0.067 NA
BRANCH  68  70
ATOM     70  C   UNL     1       7.977  32.502  24.337  1.00  0.00     0.146 C 
BRANCH  70  71
ATOM     71  C   UNL     1       7.510  31.247  23.599  1.00  0.00     0.024 C 
BRANCH  71  72
ATOM     72  C   UNL     1       6.464  30.510  24.382  1.00  0.00     0.002 C 
BRANCH  72  73
ATOM     73  C   UNL     1       7.117  29.507  25.288  1.00  0.00     0.012 C 
BRANCH  73  74
ATOM     74  C   UNL     1       8.008  28.549  24.568  1.00  0.00     0.122 C 
BRANCH  74  75
ATOM     75  C   UNL     1       7.457  27.171  24.685  1.00  0.00     0.303 C 
ATOM     76  O   UNL     1       6.589  26.917  25.550  1.00  0.00    -0.252 OA
BRANCH  75  77
ATOM     77  O   UNL     1       7.889  26.151  23.844  1.00  0.00    -0.481 OA
ATOM     78  H   UNL     1       7.789  26.255  22.832  1.00  0.00     0.296 HD
ENDBRANCH  75  77
ENDBRANCH  74  75
ENDBRANCH  73  74
ENDBRANCH  72  73
ENDBRANCH  71  72
ENDBRANCH  70  71
ENDBRANCH  68  70
ENDBRANCH  64  65
ENDBRANCH  63  64
ENDBRANCH  60  63
ENDBRANCH   1  59
TORSDOF 36
