REMARK VINA RESULT:    -7.081      3.202      5.456
REMARK INTER + INTRA:         -22.968
REMARK INTER:                 -16.417
REMARK INTRA:                  -6.551
REMARK UNBOUND:                -5.539
REMARK SMILES CC(=O)N[C@@H]1[C@@H](O)C[C@](OC[C@H]2O[C@@H](O[C@H]3[C@H](O)[C@@H](O)[C@H](OCCN=[N+]=[N-])O[C@@H]3CO)[C@H](O)[C@@H](O)[C@H]2O)(C(=O)O)O[C@H]1C(O)[C@H](O)CNC(=O)OCc1cn(-c2c3ccccc3nc3ccccc23)nn1
REMARK SMILES IDX 9 1 8 2 6 3 5 4 42 5 41 6 10 7 11 8 12 9 14 10 13 11 32 12
REMARK SMILES IDX 34 13 36 14 15 15 16 16 29 17 28 18 21 19 17 20 19 21 30 22
REMARK SMILES IDX 31 23 22 25 23 26 24 27 25 28 26 29 27 30 18 31 20 33 33 35
REMARK SMILES IDX 35 37 37 39 38 41 39 42 40 43 7 45 43 47 44 48 45 50 46 51
REMARK SMILES IDX 47 53 48 54 49 55 50 57 51 58 52 59 53 60 54 61 71 62 55 63
REMARK SMILES IDX 70 64 56 65 57 66 69 67 58 68 62 69 64 70 68 71 59 72 61 73
REMARK SMILES IDX 63 74 65 75 67 76 60 77 66 78 4 79 2 80 1 82 3 83
REMARK H PARENT 31 24 18 32 20 34 33 36 35 38 37 40 40 44 7 46 44 49 46 52
REMARK H PARENT 48 56 4 81
REMARK Flexibility Score: inf
ROOT
ATOM      1  C   UNL     1       5.289  23.297  33.485  1.00  0.00     0.272 C 
ATOM      2  C   UNL     1       4.283  23.314  34.738  1.00  0.00     0.113 C 
ATOM      3  C   UNL     1       3.019  23.839  34.160  1.00  0.00     0.145 C 
ATOM      4  C   UNL     1       2.504  23.075  32.959  1.00  0.00     0.142 C 
ATOM      5  C   UNL     1       3.547  22.392  32.177  1.00  0.00     0.178 C 
ATOM      6  O   UNL     1       4.792  22.338  32.706  1.00  0.00    -0.332 OA
ENDROOT
BRANCH   1   7
ATOM      7  O   UNL     1       6.430  22.823  34.136  1.00  0.00    -0.338 OA
BRANCH   7   8
ATOM      8  C   UNL     1       7.626  23.133  33.586  1.00  0.00     0.199 C 
BRANCH   8   9
ATOM      9  C   UNL     1       8.694  23.508  34.540  1.00  0.00     0.179 C 
ATOM     10  C   UNL     1      10.468  24.959  34.984  1.00  0.00     0.282 C 
ATOM     11  O   UNL     1       9.477  24.529  34.075  1.00  0.00    -0.341 OA
ATOM     12  C   UNL     1      10.624  24.096  36.165  1.00  0.00     0.202 C 
ATOM     13  C   UNL     1       9.309  23.846  36.866  1.00  0.00     0.179 C 
ATOM     14  C   UNL     1       8.145  23.837  35.930  1.00  0.00     0.177 C 
BRANCH  10  15
ATOM     15  O   UNL     1      10.265  26.296  35.297  1.00  0.00    -0.341 OA
BRANCH  15  16
ATOM     16  C   UNL     1      10.274  27.128  34.153  1.00  0.00     0.184 C 
ATOM     17  C   UNL     1      11.322  28.158  34.290  1.00  0.00     0.178 C 
ATOM     18  O   UNL     1      11.117  29.292  33.461  1.00  0.00    -0.341 OA
ATOM     19  C   UNL     1       9.945  29.896  33.901  1.00  0.00     0.281 C 
ATOM     20  C   UNL     1       8.868  27.747  34.144  1.00  0.00     0.180 C 
ATOM     21  C   UNL     1       8.817  29.016  33.339  1.00  0.00     0.202 C 
BRANCH  17  22
ATOM     22  C   UNL     1      12.695  27.613  33.927  1.00  0.00     0.191 C 
BRANCH  22  23
ATOM     23  O   UNL     1      13.248  28.215  32.826  1.00  0.00    -0.394 OA
ATOM     24  H   UNL     1      14.172  28.501  33.046  1.00  0.00     0.210 HD
ENDBRANCH  22  23
ENDBRANCH  17  22
BRANCH  19  25
ATOM     25  O   UNL     1       9.916  31.175  33.407  1.00  0.00    -0.350 OA
BRANCH  25  26
ATOM     26  C   UNL     1      10.104  32.167  34.365  1.00  0.00     0.169 C 
BRANCH  26  27
ATOM     27  C   UNL     1      11.260  31.856  35.290  1.00  0.00     0.119 C 
BRANCH  27  28
ATOM     28  N   UNL     1      12.469  32.358  34.645  1.00  0.00    -0.092 NA
ATOM     29  N   UNL     1      13.404  31.594  34.381  1.00  0.00     0.001 N 
ATOM     30  N   UNL     1      14.338  30.868  34.035  1.00  0.00    -0.003 NA
ENDBRANCH  27  28
ENDBRANCH  26  27
ENDBRANCH  25  26
ENDBRANCH  19  25
BRANCH  20  31
ATOM     31  O   UNL     1       7.942  26.806  33.723  1.00  0.00    -0.387 OA
ATOM     32  H   UNL     1       7.040  27.186  33.579  1.00  0.00     0.211 HD
ENDBRANCH  20  31
BRANCH  21  33
ATOM     33  O   UNL     1       7.590  29.617  33.503  1.00  0.00    -0.385 OA
ATOM     34  H   UNL     1       7.656  30.208  34.313  1.00  0.00     0.211 HD
ENDBRANCH  21  33
ENDBRANCH  15  16
ENDBRANCH  10  15
BRANCH  12  35
ATOM     35  O   UNL     1      11.283  22.903  35.832  1.00  0.00    -0.385 OA
ATOM     36  H   UNL     1      11.575  22.509  36.708  1.00  0.00     0.211 HD
ENDBRANCH  12  35
BRANCH  13  37
ATOM     37  O   UNL     1       9.164  24.834  37.859  1.00  0.00    -0.387 OA
ATOM     38  H   UNL     1       9.631  24.457  38.672  1.00  0.00     0.211 HD
ENDBRANCH  13  37
BRANCH  14  39
ATOM     39  O   UNL     1       7.416  25.008  35.945  1.00  0.00    -0.387 OA
ATOM     40  H   UNL     1       7.871  25.757  35.483  1.00  0.00     0.211 HD
ENDBRANCH  14  39
ENDBRANCH   8   9
ENDBRANCH   7   8
ENDBRANCH   1   7
BRANCH   1  41
ATOM     41  C   UNL     1       5.356  24.671  33.114  1.00  0.00     0.364 C 
ATOM     42  O   UNL     1       5.412  25.586  33.997  1.00  0.00    -0.246 OA
BRANCH  41  43
ATOM     43  O   UNL     1       5.371  25.172  31.807  1.00  0.00    -0.477 OA
ATOM     44  H   UNL     1       5.197  26.159  31.663  1.00  0.00     0.296 HD
ENDBRANCH  41  43
ENDBRANCH   1  41
BRANCH   3  45
ATOM     45  O   UNL     1       2.060  23.812  35.201  1.00  0.00    -0.391 OA
ATOM     46  H   UNL     1       1.156  23.720  34.802  1.00  0.00     0.211 HD
ENDBRANCH   3  45
BRANCH   5  47
ATOM     47  C   UNL     1       3.174  20.910  31.895  1.00  0.00     0.176 C 
BRANCH  47  48
ATOM     48  O   UNL     1       1.915  20.639  32.344  1.00  0.00    -0.388 OA
ATOM     49  H   UNL     1       1.680  21.088  33.215  1.00  0.00     0.211 HD
ENDBRANCH  47  48
BRANCH  47  50
ATOM     50  C   UNL     1       3.588  20.440  30.576  1.00  0.00     0.165 C 
BRANCH  50  51
ATOM     51  O   UNL     1       4.959  20.436  30.305  1.00  0.00    -0.388 OA
ATOM     52  H   UNL     1       5.156  20.807  29.409  1.00  0.00     0.211 HD
ENDBRANCH  50  51
BRANCH  50  53
ATOM     53  C   UNL     1       2.748  20.759  29.401  1.00  0.00     0.154 C 
BRANCH  53  54
ATOM     54  N   UNL     1       2.836  22.029  28.783  1.00  0.00    -0.319 N 
ATOM     55  C   UNL     1       1.742  22.844  28.424  1.00  0.00     0.407 C 
ATOM     56  H   UNL     1       3.829  22.417  28.565  1.00  0.00     0.167 HD
ATOM     57  O   UNL     1       0.550  22.539  28.581  1.00  0.00    -0.225 OA
BRANCH  55  58
ATOM     58  O   UNL     1       1.953  24.109  27.841  1.00  0.00    -0.443 OA
BRANCH  58  59
ATOM     59  C   UNL     1       1.752  25.323  28.545  1.00  0.00     0.294 C 
BRANCH  59  60
ATOM     60  C   UNL     1       3.034  26.085  28.592  1.00  0.00     0.121 A 
ATOM     61  C   UNL     1       3.460  27.094  27.756  1.00  0.00     0.144 A 
ATOM     62  N   UNL     1       4.034  25.914  29.469  1.00  0.00    -0.131 NA
ATOM     63  N   UNL     1       4.690  27.517  28.127  1.00  0.00    -0.219 N 
ATOM     64  N   UNL     1       5.012  26.776  29.174  1.00  0.00    -0.062 NA
BRANCH  63  65
ATOM     65  C   UNL     1       5.468  28.552  27.497  1.00  0.00     0.085 A 
ATOM     66  C   UNL     1       6.248  28.257  26.390  1.00  0.00     0.027 A 
ATOM     67  C   UNL     1       5.473  29.847  27.961  1.00  0.00     0.027 A 
ATOM     68  C   UNL     1       6.284  26.978  25.877  1.00  0.00     0.012 A 
ATOM     69  C   UNL     1       7.022  29.221  25.748  1.00  0.00     0.073 A 
ATOM     70  C   UNL     1       6.251  30.770  27.298  1.00  0.00     0.073 A 
ATOM     71  C   UNL     1       4.728  30.207  29.045  1.00  0.00     0.012 A 
ATOM     72  C   UNL     1       7.058  26.685  24.775  1.00  0.00     0.001 A 
ATOM     73  C   UNL     1       7.794  28.923  24.647  1.00  0.00     0.029 A 
ATOM     74  N   UNL     1       7.005  30.472  26.225  1.00  0.00    -0.248 NA
ATOM     75  C   UNL     1       6.283  32.079  27.733  1.00  0.00     0.029 A 
ATOM     76  C   UNL     1       4.778  31.532  29.461  1.00  0.00     0.001 A 
ATOM     77  C   UNL     1       7.831  27.649  24.135  1.00  0.00     0.002 A 
ATOM     78  C   UNL     1       5.543  32.488  28.828  1.00  0.00     0.002 A 
ENDBRANCH  63  65
ENDBRANCH  59  60
ENDBRANCH  58  59
ENDBRANCH  55  58
ENDBRANCH  53  54
ENDBRANCH  50  53
ENDBRANCH  47  50
ENDBRANCH   5  47
BRANCH   4  79
ATOM     79  N   UNL     1       1.657  23.946  32.177  1.00  0.00    -0.348 N 
ATOM     80  C   UNL     1       0.266  23.723  31.946  1.00  0.00     0.217 C 
ATOM     81  H   UNL     1       2.045  24.806  31.725  1.00  0.00     0.163 HD
ATOM     82  C   UNL     1      -0.506  24.702  31.108  1.00  0.00     0.114 C 
ATOM     83  O   UNL     1      -0.252  22.717  32.454  1.00  0.00    -0.275 OA
ENDBRANCH   4  79
TORSDOF 30
