REMARK VINA RESULT:    -5.652      3.749     11.272
REMARK INTER + INTRA:         -22.175
REMARK INTER:                 -15.190
REMARK INTRA:                  -6.985
REMARK UNBOUND:                -7.602
REMARK SMILES CC(=O)N[C@@H]1[C@@H](O)C[C@](OC[C@H]2O[C@@H](O[C@H]3[C@H](O)[C@@H](O)[C@H](OCCN=[N+]=[N-])O[C@@H]3CO)[C@H](O)[C@@H](O)[C@H]2O)(C(=O)O)O[C@H]1C(O)[C@H](O)CNC(=O)OCc1cn(CC(=O)Nc2ncccn2)nn1
REMARK SMILES IDX 9 1 8 2 6 3 5 4 42 5 41 6 10 7 11 8 12 9 14 10 13 11 32 12
REMARK SMILES IDX 34 13 36 14 15 15 16 16 29 17 28 18 21 19 17 20 19 21 30 22
REMARK SMILES IDX 31 23 22 25 23 26 24 27 25 28 26 29 27 30 18 31 20 33 33 35
REMARK SMILES IDX 35 37 37 39 38 41 39 42 40 43 7 45 43 47 44 48 45 50 46 51
REMARK SMILES IDX 47 53 48 54 49 55 50 57 51 58 52 59 53 60 54 61 67 62 55 63
REMARK SMILES IDX 66 64 56 65 57 66 58 67 59 68 60 70 61 71 65 72 62 73 64 74
REMARK SMILES IDX 63 75 4 76 2 77 1 79 3 80
REMARK H PARENT 31 24 18 32 20 34 33 36 35 38 37 40 40 44 7 46 44 49 46 52
REMARK H PARENT 48 56 59 69 4 78
REMARK Flexibility Score: inf
ROOT
ATOM      1  C   UNL     1      17.467  31.002  23.352  1.00  0.00     0.272 C 
ATOM      2  C   UNL     1      16.771  30.969  24.702  1.00  0.00     0.113 C 
ATOM      3  C   UNL     1      15.327  31.230  24.557  1.00  0.00     0.145 C 
ATOM      4  C   UNL     1      14.633  30.480  23.430  1.00  0.00     0.142 C 
ATOM      5  C   UNL     1      15.520  30.140  22.319  1.00  0.00     0.178 C 
ATOM      6  O   UNL     1      16.819  29.871  22.727  1.00  0.00    -0.332 OA
ENDROOT
BRANCH   1   7
ATOM      7  O   UNL     1      18.737  30.652  23.514  1.00  0.00    -0.338 OA
BRANCH   7   8
ATOM      8  C   UNL     1      19.530  29.699  23.235  1.00  0.00     0.199 C 
BRANCH   8   9
ATOM      9  C   UNL     1      20.283  28.813  24.171  1.00  0.00     0.179 C 
ATOM     10  C   UNL     1      22.373  27.777  24.268  1.00  0.00     0.282 C 
ATOM     11  O   UNL     1      21.525  28.484  23.475  1.00  0.00    -0.341 OA
ATOM     12  C   UNL     1      23.099  28.752  25.252  1.00  0.00     0.202 C 
ATOM     13  C   UNL     1      22.193  29.967  25.224  1.00  0.00     0.179 C 
ATOM     14  C   UNL     1      20.773  29.397  25.443  1.00  0.00     0.177 C 
BRANCH  10  15
ATOM     15  O   UNL     1      23.369  27.186  23.479  1.00  0.00    -0.341 OA
BRANCH  15  16
ATOM     16  C   UNL     1      23.302  25.798  23.481  1.00  0.00     0.184 C 
ATOM     17  C   UNL     1      22.049  25.396  24.271  1.00  0.00     0.178 C 
ATOM     18  O   UNL     1      22.356  24.470  25.256  1.00  0.00    -0.341 OA
ATOM     19  C   UNL     1      23.227  25.016  26.211  1.00  0.00     0.281 C 
ATOM     20  C   UNL     1      24.537  25.222  24.064  1.00  0.00     0.180 C 
ATOM     21  C   UNL     1      24.577  25.095  25.557  1.00  0.00     0.202 C 
BRANCH  17  22
ATOM     22  C   UNL     1      21.048  24.736  23.338  1.00  0.00     0.191 C 
BRANCH  22  23
ATOM     23  O   UNL     1      21.680  24.238  22.198  1.00  0.00    -0.394 OA
ATOM     24  H   UNL     1      22.313  24.898  21.802  1.00  0.00     0.210 HD
ENDBRANCH  22  23
ENDBRANCH  17  22
BRANCH  19  25
ATOM     25  O   UNL     1      23.243  24.119  27.263  1.00  0.00    -0.350 OA
BRANCH  25  26
ATOM     26  C   UNL     1      22.602  24.577  28.394  1.00  0.00     0.169 C 
BRANCH  26  27
ATOM     27  C   UNL     1      23.366  25.644  29.149  1.00  0.00     0.119 C 
BRANCH  27  28
ATOM     28  N   UNL     1      22.634  26.899  29.196  1.00  0.00    -0.092 NA
ATOM     29  N   UNL     1      21.497  26.975  29.671  1.00  0.00     0.001 N 
ATOM     30  N   UNL     1      20.340  26.827  30.051  1.00  0.00    -0.003 NA
ENDBRANCH  27  28
ENDBRANCH  26  27
ENDBRANCH  25  26
ENDBRANCH  19  25
BRANCH  20  31
ATOM     31  O   UNL     1      24.703  23.900  23.567  1.00  0.00    -0.387 OA
ATOM     32  H   UNL     1      25.066  23.318  24.296  1.00  0.00     0.211 HD
ENDBRANCH  20  31
BRANCH  21  33
ATOM     33  O   UNL     1      25.284  26.174  26.078  1.00  0.00    -0.385 OA
ATOM     34  H   UNL     1      25.859  25.867  26.818  1.00  0.00     0.211 HD
ENDBRANCH  21  33
ENDBRANCH  15  16
ENDBRANCH  10  15
BRANCH  12  35
ATOM     35  O   UNL     1      22.981  28.219  26.541  1.00  0.00    -0.385 OA
ATOM     36  H   UNL     1      22.752  27.258  26.423  1.00  0.00     0.211 HD
ENDBRANCH  12  35
BRANCH  13  37
ATOM     37  O   UNL     1      22.301  30.711  24.080  1.00  0.00    -0.387 OA
ATOM     38  H   UNL     1      21.760  31.524  24.082  1.00  0.00     0.211 HD
ENDBRANCH  13  37
BRANCH  14  39
ATOM     39  O   UNL     1      20.048  30.326  26.101  1.00  0.00    -0.387 OA
ATOM     40  H   UNL     1      19.609  30.968  25.490  1.00  0.00     0.211 HD
ENDBRANCH  14  39
ENDBRANCH   8   9
ENDBRANCH   7   8
ENDBRANCH   1   7
BRANCH   1  41
ATOM     41  C   UNL     1      17.223  32.174  22.539  1.00  0.00     0.364 C 
ATOM     42  O   UNL     1      17.628  32.205  21.327  1.00  0.00    -0.246 OA
BRANCH  41  43
ATOM     43  O   UNL     1      16.578  33.315  22.954  1.00  0.00    -0.477 OA
ATOM     44  H   UNL     1      16.145  33.451  23.836  1.00  0.00     0.296 HD
ENDBRANCH  41  43
ENDBRANCH   1  41
BRANCH   3  45
ATOM     45  O   UNL     1      14.721  30.883  25.790  1.00  0.00    -0.391 OA
ATOM     46  H   UNL     1      13.735  31.070  25.727  1.00  0.00     0.211 HD
ENDBRANCH   3  45
BRANCH   5  47
ATOM     47  C   UNL     1      15.115  28.867  21.529  1.00  0.00     0.176 C 
BRANCH  47  48
ATOM     48  O   UNL     1      13.900  28.373  21.810  1.00  0.00    -0.388 OA
ATOM     49  H   UNL     1      13.281  28.995  22.285  1.00  0.00     0.211 HD
ENDBRANCH  47  48
BRANCH  47  50
ATOM     50  C   UNL     1      15.688  28.730  20.205  1.00  0.00     0.165 C 
BRANCH  50  51
ATOM     51  O   UNL     1      16.469  27.454  20.298  1.00  0.00    -0.388 OA
ATOM     52  H   UNL     1      16.206  27.008  21.118  1.00  0.00     0.211 HD
ENDBRANCH  50  51
BRANCH  50  53
ATOM     53  C   UNL     1      16.554  29.675  19.530  1.00  0.00     0.154 C 
BRANCH  53  54
ATOM     54  N   UNL     1      17.940  29.760  19.565  1.00  0.00    -0.319 N 
ATOM     55  C   UNL     1      18.995  28.985  19.043  1.00  0.00     0.407 C 
ATOM     56  H   UNL     1      18.305  30.645  20.142  1.00  0.00     0.167 HD
ATOM     57  O   UNL     1      18.772  27.953  18.383  1.00  0.00    -0.225 OA
BRANCH  55  58
ATOM     58  O   UNL     1      20.307  29.339  19.234  1.00  0.00    -0.443 OA
BRANCH  58  59
ATOM     59  C   UNL     1      21.237  28.823  20.075  1.00  0.00     0.294 C 
BRANCH  59  60
ATOM     60  C   UNL     1      21.775  27.508  19.659  1.00  0.00     0.120 A 
ATOM     61  C   UNL     1      22.529  27.245  18.507  1.00  0.00     0.138 A 
ATOM     62  N   UNL     1      21.622  26.279  20.225  1.00  0.00    -0.132 NA
ATOM     63  N   UNL     1      22.794  25.937  18.413  1.00  0.00    -0.243 N 
ATOM     64  N   UNL     1      22.228  25.388  19.473  1.00  0.00    -0.067 NA
BRANCH  63  65
ATOM     65  C   UNL     1      23.535  25.214  17.398  1.00  0.00     0.246 C 
BRANCH  65  66
ATOM     66  C   UNL     1      24.777  24.650  18.057  1.00  0.00     0.248 C 
ATOM     67  O   UNL     1      25.506  23.806  17.481  1.00  0.00    -0.272 OA
ATOM     68  N   UNL     1      25.142  25.074  19.358  1.00  0.00    -0.293 N 
ATOM     69  H   UNL     1      24.496  25.780  19.792  1.00  0.00     0.173 HD
BRANCH  68  70
ATOM     70  C   UNL     1      26.272  24.648  20.089  1.00  0.00     0.229 A 
ATOM     71  N   UNL     1      26.256  23.678  21.019  1.00  0.00    -0.221 NA
ATOM     72  N   UNL     1      27.448  25.260  19.846  1.00  0.00    -0.221 NA
ATOM     73  C   UNL     1      27.371  23.302  21.712  1.00  0.00     0.117 A 
ATOM     74  C   UNL     1      28.568  24.932  20.491  1.00  0.00     0.117 A 
ATOM     75  C   UNL     1      28.559  23.947  21.441  1.00  0.00     0.040 A 
ENDBRANCH  68  70
ENDBRANCH  65  66
ENDBRANCH  63  65
ENDBRANCH  59  60
ENDBRANCH  58  59
ENDBRANCH  55  58
ENDBRANCH  53  54
ENDBRANCH  50  53
ENDBRANCH  47  50
ENDBRANCH   5  47
BRANCH   4  76
ATOM     76  N   UNL     1      13.451  31.231  23.132  1.00  0.00    -0.348 N 
ATOM     77  C   UNL     1      12.133  30.681  23.357  1.00  0.00     0.217 C 
ATOM     78  H   UNL     1      13.492  32.209  22.739  1.00  0.00     0.163 HD
ATOM     79  C   UNL     1      10.956  31.513  23.033  1.00  0.00     0.114 C 
ATOM     80  O   UNL     1      12.007  29.526  23.814  1.00  0.00    -0.275 OA
ENDBRANCH   4  76
TORSDOF 32
