REMARK VINA RESULT:    -6.650     10.302     17.397
REMARK INTER + INTRA:         -21.907
REMARK INTER:                 -15.397
REMARK INTRA:                  -6.511
REMARK UNBOUND:                -5.539
REMARK SMILES CC(=O)N[C@@H]1[C@@H](O)C[C@](OC[C@H]2O[C@@H](O[C@H]3[C@H](O)[C@@H](O)[C@H](OCCN=[N+]=[N-])O[C@@H]3CO)[C@H](O)[C@@H](O)[C@H]2O)(C(=O)O)O[C@H]1C(O)[C@H](O)CNC(=O)OCc1cn(-c2c3ccccc3nc3ccccc23)nn1
REMARK SMILES IDX 9 1 8 2 6 3 5 4 42 5 41 6 10 7 11 8 12 9 14 10 13 11 32 12
REMARK SMILES IDX 34 13 36 14 15 15 16 16 29 17 28 18 21 19 17 20 19 21 30 22
REMARK SMILES IDX 31 23 22 25 23 26 24 27 25 28 26 29 27 30 18 31 20 33 33 35
REMARK SMILES IDX 35 37 37 39 38 41 39 42 40 43 7 45 43 47 44 48 45 50 46 51
REMARK SMILES IDX 47 53 48 54 49 55 50 57 51 58 52 59 53 60 54 61 71 62 55 63
REMARK SMILES IDX 70 64 56 65 57 66 69 67 58 68 62 69 64 70 68 71 59 72 61 73
REMARK SMILES IDX 63 74 65 75 67 76 60 77 66 78 4 79 2 80 1 82 3 83
REMARK H PARENT 31 24 18 32 20 34 33 36 35 38 37 40 40 44 7 46 44 49 46 52
REMARK H PARENT 48 56 4 81
REMARK Flexibility Score: inf
ROOT
ATOM      1  C   UNL     1      15.335  29.474  19.820  1.00  0.00     0.272 C 
ATOM      2  C   UNL     1      14.008  28.906  20.526  1.00  0.00     0.113 C 
ATOM      3  C   UNL     1      14.221  29.215  21.963  1.00  0.00     0.145 C 
ATOM      4  C   UNL     1      14.513  30.670  22.264  1.00  0.00     0.142 C 
ATOM      5  C   UNL     1      15.149  31.406  21.160  1.00  0.00     0.178 C 
ATOM      6  O   UNL     1      15.214  30.793  19.954  1.00  0.00    -0.332 OA
ENDROOT
BRANCH   1   7
ATOM      7  O   UNL     1      15.044  29.112  18.503  1.00  0.00    -0.338 OA
BRANCH   7   8
ATOM      8  C   UNL     1      16.023  29.290  17.586  1.00  0.00     0.199 C 
BRANCH   8   9
ATOM      9  C   UNL     1      15.569  29.612  16.215  1.00  0.00     0.179 C 
ATOM     10  C   UNL     1      13.731  29.962  14.819  1.00  0.00     0.282 C 
ATOM     11  O   UNL     1      14.206  29.597  16.098  1.00  0.00    -0.341 OA
ATOM     12  C   UNL     1      14.777  30.079  13.792  1.00  0.00     0.202 C 
ATOM     13  C   UNL     1      15.911  30.976  14.232  1.00  0.00     0.179 C 
ATOM     14  C   UNL     1      16.141  30.939  15.707  1.00  0.00     0.177 C 
BRANCH  10  15
ATOM     15  O   UNL     1      12.929  31.091  14.925  1.00  0.00    -0.341 OA
BRANCH  15  16
ATOM     16  C   UNL     1      11.842  30.903  15.810  1.00  0.00     0.184 C 
ATOM     17  C   UNL     1      10.570  31.093  15.087  1.00  0.00     0.178 C 
ATOM     18  O   UNL     1       9.472  31.390  15.936  1.00  0.00    -0.341 OA
ATOM     19  C   UNL     1       9.748  32.617  16.524  1.00  0.00     0.281 C 
ATOM     20  C   UNL     1      12.053  31.986  16.880  1.00  0.00     0.180 C 
ATOM     21  C   UNL     1      10.782  32.302  17.618  1.00  0.00     0.202 C 
BRANCH  17  22
ATOM     22  C   UNL     1      10.176  29.847  14.308  1.00  0.00     0.191 C 
BRANCH  22  23
ATOM     23  O   UNL     1      10.934  29.641  13.185  1.00  0.00    -0.394 OA
ATOM     24  H   UNL     1      10.469  30.042  12.404  1.00  0.00     0.210 HD
ENDBRANCH  22  23
ENDBRANCH  17  22
BRANCH  19  25
ATOM     25  O   UNL     1       8.576  33.118  17.032  1.00  0.00    -0.350 OA
BRANCH  25  26
ATOM     26  C   UNL     1       8.005  32.342  18.036  1.00  0.00     0.169 C 
BRANCH  26  27
ATOM     27  C   UNL     1       6.633  31.832  17.651  1.00  0.00     0.119 C 
BRANCH  27  28
ATOM     28  N   UNL     1       5.991  31.371  18.878  1.00  0.00    -0.092 NA
ATOM     29  N   UNL     1       5.459  30.256  18.929  1.00  0.00     0.001 N 
ATOM     30  N   UNL     1       4.974  29.130  19.056  1.00  0.00    -0.003 NA
ENDBRANCH  27  28
ENDBRANCH  26  27
ENDBRANCH  25  26
ENDBRANCH  19  25
BRANCH  20  31
ATOM     31  O   UNL     1      13.088  31.617  17.724  1.00  0.00    -0.387 OA
ATOM     32  H   UNL     1      12.860  30.850  18.306  1.00  0.00     0.211 HD
ENDBRANCH  20  31
BRANCH  21  33
ATOM     33  O   UNL     1      10.985  33.389  18.438  1.00  0.00    -0.385 OA
ATOM     34  H   UNL     1      10.326  33.315  19.193  1.00  0.00     0.211 HD
ENDBRANCH  21  33
ENDBRANCH  15  16
ENDBRANCH  10  15
BRANCH  12  35
ATOM     35  O   UNL     1      15.228  28.813  13.389  1.00  0.00    -0.385 OA
ATOM     36  H   UNL     1      14.964  28.733  12.424  1.00  0.00     0.211 HD
ENDBRANCH  12  35
BRANCH  13  37
ATOM     37  O   UNL     1      15.616  32.279  13.789  1.00  0.00    -0.387 OA
ATOM     38  H   UNL     1      14.868  32.164  13.119  1.00  0.00     0.211 HD
ENDBRANCH  13  37
BRANCH  14  39
ATOM     39  O   UNL     1      15.617  32.027  16.375  1.00  0.00    -0.387 OA
ATOM     40  H   UNL     1      14.672  31.902  16.644  1.00  0.00     0.211 HD
ENDBRANCH  14  39
ENDBRANCH   8   9
ENDBRANCH   7   8
ENDBRANCH   1   7
BRANCH   1  41
ATOM     41  C   UNL     1      16.369  28.702  20.424  1.00  0.00     0.364 C 
ATOM     42  O   UNL     1      16.318  27.430  20.429  1.00  0.00    -0.246 OA
BRANCH  41  43
ATOM     43  O   UNL     1      17.514  29.205  21.052  1.00  0.00    -0.477 OA
ATOM     44  H   UNL     1      17.779  28.828  21.953  1.00  0.00     0.296 HD
ENDBRANCH  41  43
ENDBRANCH   1  41
BRANCH   3  45
ATOM     45  O   UNL     1      13.048  28.804  22.641  1.00  0.00    -0.391 OA
ATOM     46  H   UNL     1      12.882  29.423  23.399  1.00  0.00     0.211 HD
ENDBRANCH   3  45
BRANCH   5  47
ATOM     47  C   UNL     1      14.426  32.752  20.879  1.00  0.00     0.176 C 
BRANCH  47  48
ATOM     48  O   UNL     1      14.801  33.255  19.667  1.00  0.00    -0.388 OA
ATOM     49  H   UNL     1      15.464  34.012  19.720  1.00  0.00     0.211 HD
ENDBRANCH  47  48
BRANCH  47  50
ATOM     50  C   UNL     1      13.016  32.752  21.256  1.00  0.00     0.165 C 
BRANCH  50  51
ATOM     51  O   UNL     1      12.179  31.858  20.584  1.00  0.00    -0.388 OA
ATOM     52  H   UNL     1      11.305  32.268  20.365  1.00  0.00     0.211 HD
ENDBRANCH  50  51
BRANCH  50  53
ATOM     53  C   UNL     1      12.364  34.034  21.605  1.00  0.00     0.154 C 
BRANCH  53  54
ATOM     54  N   UNL     1      10.958  34.168  21.517  1.00  0.00    -0.319 N 
ATOM     55  C   UNL     1      10.064  34.171  22.608  1.00  0.00     0.407 C 
ATOM     56  H   UNL     1      10.522  34.280  20.526  1.00  0.00     0.167 HD
ATOM     57  O   UNL     1      10.396  34.030  23.795  1.00  0.00    -0.225 OA
BRANCH  55  58
ATOM     58  O   UNL     1       8.682  34.345  22.401  1.00  0.00    -0.443 OA
BRANCH  58  59
ATOM     59  C   UNL     1       7.715  34.087  23.405  1.00  0.00     0.294 C 
BRANCH  59  60
ATOM     60  C   UNL     1       7.238  32.679  23.282  1.00  0.00     0.121 A 
ATOM     61  C   UNL     1       6.978  31.773  24.288  1.00  0.00     0.144 A 
ATOM     62  N   UNL     1       6.983  32.018  22.144  1.00  0.00    -0.131 NA
ATOM     63  N   UNL     1       6.574  30.595  23.760  1.00  0.00    -0.219 N 
ATOM     64  N   UNL     1       6.589  30.777  22.450  1.00  0.00    -0.062 NA
BRANCH  63  65
ATOM     65  C   UNL     1       6.215  29.406  24.488  1.00  0.00     0.085 A 
ATOM     66  C   UNL     1       7.194  28.497  24.857  1.00  0.00     0.027 A 
ATOM     67  C   UNL     1       4.914  29.127  24.835  1.00  0.00     0.027 A 
ATOM     68  C   UNL     1       8.516  28.720  24.539  1.00  0.00     0.012 A 
ATOM     69  C   UNL     1       6.897  27.330  25.558  1.00  0.00     0.073 A 
ATOM     70  C   UNL     1       4.662  27.963  25.528  1.00  0.00     0.073 A 
ATOM     71  C   UNL     1       3.900  29.978  24.505  1.00  0.00     0.012 A 
ATOM     72  C   UNL     1       9.490  27.818  24.908  1.00  0.00     0.001 A 
ATOM     73  C   UNL     1       7.873  26.430  25.924  1.00  0.00     0.029 A 
ATOM     74  N   UNL     1       5.620  27.088  25.881  1.00  0.00    -0.248 NA
ATOM     75  C   UNL     1       3.370  27.649  25.894  1.00  0.00     0.029 A 
ATOM     76  C   UNL     1       2.609  29.637  24.887  1.00  0.00     0.001 A 
ATOM     77  C   UNL     1       9.192  26.651  25.608  1.00  0.00     0.002 A 
ATOM     78  C   UNL     1       2.313  28.484  25.580  1.00  0.00     0.002 A 
ENDBRANCH  63  65
ENDBRANCH  59  60
ENDBRANCH  58  59
ENDBRANCH  55  58
ENDBRANCH  53  54
ENDBRANCH  50  53
ENDBRANCH  47  50
ENDBRANCH   5  47
BRANCH   4  79
ATOM     79  N   UNL     1      15.228  30.755  23.517  1.00  0.00    -0.348 N 
ATOM     80  C   UNL     1      14.610  30.965  24.786  1.00  0.00     0.217 C 
ATOM     81  H   UNL     1      16.271  30.668  23.546  1.00  0.00     0.163 HD
ATOM     82  C   UNL     1      15.465  31.041  26.018  1.00  0.00     0.114 C 
ATOM     83  O   UNL     1      13.374  31.077  24.817  1.00  0.00    -0.275 OA
ENDBRANCH   4  79
TORSDOF 30
