REMARK VINA RESULT:    -4.637      3.882      6.293
REMARK INTER + INTRA:         -23.886
REMARK INTER:                 -13.176
REMARK INTRA:                 -10.710
REMARK UNBOUND:               -10.710
REMARK SMILES CC(=O)N[C@@H]1[C@@H](O)C[C@](OC[C@H]2O[C@@H](O[C@H]3[C@H](O)[C@@H](O)[C@H](OCCN=[N+]=[N-])O[C@@H]3CO)[C@H](O)[C@@H](O)[C@H]2O)(C(=O)O)O[C@H]1C(O)[C@H](O)CNC(=O)OCc1cn(CC(=O)NCC(O)Cn2ccnc2[N+](=O)[O-])nn1
REMARK SMILES IDX 47 1 45 2 43 3 42 4 9 5 8 6 41 7 6 8 5 9 10 10 11 11 12 12
REMARK SMILES IDX 14 13 13 14 32 15 34 16 36 17 15 18 16 19 29 20 28 21 21 22
REMARK SMILES IDX 17 23 19 24 30 25 31 26 22 28 23 29 24 30 25 31 26 32 27 33
REMARK SMILES IDX 18 34 20 36 33 38 35 40 37 42 38 44 39 45 40 46 7 48 4 50
REMARK SMILES IDX 2 51 1 53 3 54 44 55 46 57 48 59 49 60 50 62 51 63 52 64
REMARK SMILES IDX 53 65 54 66 73 67 55 68 72 69 56 70 57 71 58 72 59 73 60 75
REMARK SMILES IDX 61 76 62 77 63 79 64 80 65 81 68 82 66 83 67 84 69 85 70 86
REMARK SMILES IDX 71 87
REMARK H PARENT 31 27 18 35 20 37 33 39 35 41 37 43 40 47 7 49 4 52 44 56
REMARK H PARENT 46 58 48 61 59 74 62 78
REMARK Flexibility Score: inf
ROOT
ATOM      1  C   UNL     1       5.306  23.836  39.570  1.00  0.00     0.154 C 
ENDROOT
BRANCH   1   2
ATOM      2  C   UNL     1       6.634  23.893  38.892  1.00  0.00     0.165 C 
BRANCH   2   3
ATOM      3  C   UNL     1       6.648  24.459  37.521  1.00  0.00     0.176 C 
BRANCH   3   4
ATOM      4  C   UNL     1       7.814  24.215  36.654  1.00  0.00     0.178 C 
ATOM      5  C   UNL     1      10.078  23.699  36.552  1.00  0.00     0.272 C 
ATOM      6  C   UNL     1       9.673  23.273  35.184  1.00  0.00     0.113 C 
ATOM      7  O   UNL     1       8.990  24.076  37.360  1.00  0.00    -0.332 OA
ATOM      8  C   UNL     1       8.800  24.240  34.457  1.00  0.00     0.145 C 
ATOM      9  C   UNL     1       8.021  25.106  35.488  1.00  0.00     0.142 C 
BRANCH   5  10
ATOM     10  O   UNL     1      11.017  24.684  36.640  1.00  0.00    -0.338 OA
BRANCH  10  11
ATOM     11  C   UNL     1      12.095  24.612  35.815  1.00  0.00     0.199 C 
BRANCH  11  12
ATOM     12  C   UNL     1      12.413  25.931  35.137  1.00  0.00     0.179 C 
ATOM     13  C   UNL     1      11.535  28.059  34.773  1.00  0.00     0.282 C 
ATOM     14  O   UNL     1      11.329  26.687  34.864  1.00  0.00    -0.341 OA
ATOM     15  C   UNL     1      12.875  28.385  34.160  1.00  0.00     0.202 C 
ATOM     16  C   UNL     1      14.008  27.759  34.939  1.00  0.00     0.179 C 
ATOM     17  C   UNL     1      13.470  26.700  35.882  1.00  0.00     0.177 C 
BRANCH  13  18
ATOM     18  O   UNL     1      11.397  28.722  35.939  1.00  0.00    -0.341 OA
BRANCH  18  19
ATOM     19  C   UNL     1      10.198  29.105  36.408  1.00  0.00     0.184 C 
ATOM     20  C   UNL     1      10.016  30.561  36.740  1.00  0.00     0.178 C 
ATOM     21  O   UNL     1       8.637  30.786  36.763  1.00  0.00    -0.341 OA
ATOM     22  C   UNL     1       8.046  30.168  37.860  1.00  0.00     0.281 C 
ATOM     23  C   UNL     1       9.813  28.378  37.706  1.00  0.00     0.180 C 
ATOM     24  C   UNL     1       8.356  28.704  37.942  1.00  0.00     0.202 C 
BRANCH  20  25
ATOM     25  C   UNL     1      10.583  31.412  35.642  1.00  0.00     0.191 C 
BRANCH  25  26
ATOM     26  O   UNL     1      11.978  31.511  35.730  1.00  0.00    -0.394 OA
ATOM     27  H   UNL     1      12.206  32.321  35.173  1.00  0.00     0.210 HD
ENDBRANCH  25  26
ENDBRANCH  20  25
BRANCH  22  28
ATOM     28  O   UNL     1       6.667  30.298  37.712  1.00  0.00    -0.350 OA
BRANCH  28  29
ATOM     29  C   UNL     1       6.250  29.876  36.448  1.00  0.00     0.169 C 
BRANCH  29  30
ATOM     30  C   UNL     1       4.929  29.135  36.665  1.00  0.00     0.119 C 
BRANCH  30  31
ATOM     31  N   UNL     1       4.472  29.310  38.033  1.00  0.00    -0.092 NA
ATOM     32  N   UNL     1       4.530  28.307  38.775  1.00  0.00     0.001 N 
ATOM     33  N   UNL     1       4.827  27.467  39.615  1.00  0.00    -0.003 NA
ENDBRANCH  30  31
ENDBRANCH  29  30
ENDBRANCH  28  29
ENDBRANCH  22  28
BRANCH  23  34
ATOM     34  O   UNL     1       9.899  26.998  37.555  1.00  0.00    -0.387 OA
ATOM     35  H   UNL     1       9.261  26.784  36.802  1.00  0.00     0.211 HD
ENDBRANCH  23  34
BRANCH  24  36
ATOM     36  O   UNL     1       7.890  28.234  39.170  1.00  0.00    -0.385 OA
ATOM     37  H   UNL     1       8.677  28.142  39.783  1.00  0.00     0.211 HD
ENDBRANCH  24  36
ENDBRANCH  18  19
ENDBRANCH  13  18
BRANCH  15  38
ATOM     38  O   UNL     1      12.924  28.027  32.806  1.00  0.00    -0.385 OA
ATOM     39  H   UNL     1      13.027  27.024  32.809  1.00  0.00     0.211 HD
ENDBRANCH  15  38
BRANCH  16  40
ATOM     40  O   UNL     1      14.666  28.708  35.716  1.00  0.00    -0.387 OA
ATOM     41  H   UNL     1      14.810  29.568  35.222  1.00  0.00     0.211 HD
ENDBRANCH  16  40
BRANCH  17  42
ATOM     42  O   UNL     1      13.066  27.187  37.102  1.00  0.00    -0.387 OA
ATOM     43  H   UNL     1      13.786  27.680  37.582  1.00  0.00     0.211 HD
ENDBRANCH  17  42
ENDBRANCH  11  12
ENDBRANCH  10  11
ENDBRANCH   5  10
BRANCH   5  44
ATOM     44  C   UNL     1      10.595  22.464  37.250  1.00  0.00     0.364 C 
ATOM     45  O   UNL     1      10.353  22.363  38.466  1.00  0.00    -0.246 OA
BRANCH  44  46
ATOM     46  O   UNL     1      11.303  21.474  36.610  1.00  0.00    -0.477 OA
ATOM     47  H   UNL     1      10.821  20.804  35.983  1.00  0.00     0.296 HD
ENDBRANCH  44  46
ENDBRANCH   5  44
BRANCH   8  48
ATOM     48  O   UNL     1       9.384  25.027  33.519  1.00  0.00    -0.391 OA
ATOM     49  H   UNL     1      10.156  24.664  33.062  1.00  0.00     0.211 HD
ENDBRANCH   8  48
BRANCH   9  50
ATOM     50  N   UNL     1       6.878  25.601  34.819  1.00  0.00    -0.348 N 
ATOM     51  C   UNL     1       6.877  26.909  34.213  1.00  0.00     0.217 C 
ATOM     52  H   UNL     1       6.017  25.046  34.731  1.00  0.00     0.163 HD
ATOM     53  C   UNL     1       5.683  27.451  33.511  1.00  0.00     0.114 C 
ATOM     54  O   UNL     1       7.920  27.591  34.293  1.00  0.00    -0.275 OA
ENDBRANCH   9  50
ENDBRANCH   3   4
BRANCH   3  55
ATOM     55  O   UNL     1       6.364  25.842  37.643  1.00  0.00    -0.388 OA
ATOM     56  H   UNL     1       5.821  26.095  36.878  1.00  0.00     0.211 HD
ENDBRANCH   3  55
ENDBRANCH   2   3
BRANCH   2  57
ATOM     57  O   UNL     1       7.407  22.779  39.114  1.00  0.00    -0.388 OA
ATOM     58  H   UNL     1       6.930  21.931  39.170  1.00  0.00     0.211 HD
ENDBRANCH   2  57
ENDBRANCH   1   2
BRANCH   1  59
ATOM     59  N   UNL     1       4.259  23.599  38.614  1.00  0.00    -0.319 N 
ATOM     60  C   UNL     1       3.787  22.306  38.275  1.00  0.00     0.407 C 
ATOM     61  H   UNL     1       3.793  24.414  38.116  1.00  0.00     0.167 HD
ATOM     62  O   UNL     1       4.289  21.309  38.833  1.00  0.00    -0.225 OA
BRANCH  60  63
ATOM     63  O   UNL     1       2.794  22.061  37.350  1.00  0.00    -0.443 OA
BRANCH  63  64
ATOM     64  C   UNL     1       2.157  20.814  37.256  1.00  0.00     0.294 C 
BRANCH  64  65
ATOM     65  C   UNL     1       2.596  19.933  36.176  1.00  0.00     0.120 A 
ATOM     66  C   UNL     1       1.895  18.932  35.554  1.00  0.00     0.138 A 
ATOM     67  N   UNL     1       3.803  19.929  35.587  1.00  0.00    -0.132 NA
ATOM     68  N   UNL     1       2.685  18.357  34.617  1.00  0.00    -0.243 N 
ATOM     69  N   UNL     1       3.828  18.967  34.650  1.00  0.00    -0.067 NA
BRANCH  68  70
ATOM     70  C   UNL     1       2.306  17.272  33.721  1.00  0.00     0.245 C 
BRANCH  70  71
ATOM     71  C   UNL     1       2.042  17.827  32.377  1.00  0.00     0.241 C 
ATOM     72  O   UNL     1       1.194  17.283  31.591  1.00  0.00    -0.273 OA
ATOM     73  N   UNL     1       2.702  18.988  31.876  1.00  0.00    -0.352 N 
ATOM     74  H   UNL     1       3.398  19.465  32.474  1.00  0.00     0.163 HD
BRANCH  73  75
ATOM     75  C   UNL     1       2.374  19.459  30.544  1.00  0.00     0.151 C 
BRANCH  75  76
ATOM     76  C   UNL     1       2.683  20.912  30.359  1.00  0.00     0.168 C 
BRANCH  76  77
ATOM     77  O   UNL     1       3.387  21.160  29.194  1.00  0.00    -0.388 OA
ATOM     78  H   UNL     1       2.802  21.684  28.598  1.00  0.00     0.211 HD
ENDBRANCH  76  77
BRANCH  76  79
ATOM     79  C   UNL     1       3.478  21.366  31.573  1.00  0.00     0.239 C 
BRANCH  79  80
ATOM     80  N   UNL     1       3.222  22.740  31.895  1.00  0.00    -0.227 N 
ATOM     81  C   UNL     1       2.156  23.455  31.445  1.00  0.00     0.204 A 
ATOM     82  C   UNL     1       3.938  23.604  32.655  1.00  0.00     0.434 A 
ATOM     83  C   UNL     1       2.233  24.737  31.931  1.00  0.00     0.245 A 
ATOM     84  N   UNL     1       3.333  24.809  32.671  1.00  0.00    -0.074 NA
BRANCH  82  85
ATOM     85  N   UNL     1       5.143  23.284  33.348  1.00  0.00    -0.047 N 
ATOM     86  O   UNL     1       6.242  23.172  32.804  1.00  0.00    -0.390 OA
ATOM     87  O   UNL     1       5.074  23.076  34.719  1.00  0.00    -0.390 OA
ENDBRANCH  82  85
ENDBRANCH  79  80
ENDBRANCH  76  79
ENDBRANCH  75  76
ENDBRANCH  73  75
ENDBRANCH  70  71
ENDBRANCH  68  70
ENDBRANCH  64  65
ENDBRANCH  63  64
ENDBRANCH  60  63
ENDBRANCH   1  59
TORSDOF 37
