REMARK VINA RESULT:    -5.650      3.082      5.407
REMARK INTER + INTRA:         -20.671
REMARK INTER:                 -14.870
REMARK INTRA:                  -5.801
REMARK UNBOUND:                -6.268
REMARK SMILES CC(=O)N[C@@H]1[C@@H](O)C[C@](OC[C@H]2O[C@@H](O[C@H]3[C@H](O)[C@@H](O)[C@H](OCCN=[N+]=[N-])O[C@@H]3CO)[C@H](O)[C@@H](O)[C@H]2O)(C(=O)O)O[C@H]1C(O)[C@H](O)CNC(=O)OCc1cn(C(C)(C)CO)nn1
REMARK SMILES IDX 9 1 8 2 6 3 5 4 42 5 41 6 10 7 11 8 12 9 14 10 13 11 32 12
REMARK SMILES IDX 34 13 36 14 15 15 16 16 29 17 28 18 21 19 17 20 19 21 30 22
REMARK SMILES IDX 31 23 22 25 23 26 24 27 25 28 26 29 27 30 18 31 20 33 33 35
REMARK SMILES IDX 35 37 37 39 38 41 39 42 40 43 7 45 43 47 44 48 45 50 46 51
REMARK SMILES IDX 47 53 48 54 49 55 50 57 51 58 52 59 53 60 54 61 62 62 55 63
REMARK SMILES IDX 61 64 56 65 57 66 58 67 59 68 60 69 4 71 2 72 1 74 3 75
REMARK H PARENT 31 24 18 32 20 34 33 36 35 38 37 40 40 44 7 46 44 49 46 52
REMARK H PARENT 48 56 60 70 4 73
REMARK Flexibility Score: inf
ROOT
ATOM      1  C   UNL     1      18.616  29.160  20.472  1.00  0.00     0.272 C 
ATOM      2  C   UNL     1      19.356  30.466  20.595  1.00  0.00     0.113 C 
ATOM      3  C   UNL     1      19.124  30.995  21.990  1.00  0.00     0.145 C 
ATOM      4  C   UNL     1      17.643  31.437  22.011  1.00  0.00     0.142 C 
ATOM      5  C   UNL     1      16.836  30.254  21.568  1.00  0.00     0.178 C 
ATOM      6  O   UNL     1      17.584  29.096  21.483  1.00  0.00    -0.332 OA
ENDROOT
BRANCH   1   7
ATOM      7  O   UNL     1      19.367  28.067  20.757  1.00  0.00    -0.338 OA
BRANCH   7   8
ATOM      8  C   UNL     1      20.662  27.968  20.512  1.00  0.00     0.199 C 
BRANCH   8   9
ATOM      9  C   UNL     1      21.663  27.375  21.416  1.00  0.00     0.179 C 
ATOM     10  C   UNL     1      22.310  27.439  23.629  1.00  0.00     0.282 C 
ATOM     11  O   UNL     1      21.275  27.679  22.765  1.00  0.00    -0.341 OA
ATOM     12  C   UNL     1      23.376  26.519  23.150  1.00  0.00     0.202 C 
ATOM     13  C   UNL     1      22.885  25.437  22.214  1.00  0.00     0.179 C 
ATOM     14  C   UNL     1      21.678  25.851  21.437  1.00  0.00     0.177 C 
BRANCH  10  15
ATOM     15  O   UNL     1      21.760  27.064  24.858  1.00  0.00    -0.341 OA
BRANCH  15  16
ATOM     16  C   UNL     1      22.696  26.797  25.829  1.00  0.00     0.184 C 
ATOM     17  C   UNL     1      22.200  25.861  26.909  1.00  0.00     0.178 C 
ATOM     18  O   UNL     1      22.503  26.284  28.186  1.00  0.00    -0.341 OA
ATOM     19  C   UNL     1      21.963  27.483  28.565  1.00  0.00     0.281 C 
ATOM     20  C   UNL     1      23.011  28.151  26.492  1.00  0.00     0.180 C 
ATOM     21  C   UNL     1      21.810  28.413  27.383  1.00  0.00     0.202 C 
BRANCH  17  22
ATOM     22  C   UNL     1      22.948  24.551  26.697  1.00  0.00     0.191 C 
BRANCH  22  23
ATOM     23  O   UNL     1      23.280  23.998  27.935  1.00  0.00    -0.394 OA
ATOM     24  H   UNL     1      24.130  24.318  28.291  1.00  0.00     0.210 HD
ENDBRANCH  22  23
ENDBRANCH  17  22
BRANCH  19  25
ATOM     25  O   UNL     1      22.774  28.012  29.554  1.00  0.00    -0.350 OA
BRANCH  25  26
ATOM     26  C   UNL     1      23.224  27.131  30.486  1.00  0.00     0.169 C 
BRANCH  26  27
ATOM     27  C   UNL     1      24.596  27.468  31.049  1.00  0.00     0.119 C 
BRANCH  27  28
ATOM     28  N   UNL     1      25.559  26.431  30.732  1.00  0.00    -0.092 NA
ATOM     29  N   UNL     1      25.551  25.980  29.578  1.00  0.00     0.001 N 
ATOM     30  N   UNL     1      25.870  25.726  28.396  1.00  0.00    -0.003 NA
ENDBRANCH  27  28
ENDBRANCH  26  27
ENDBRANCH  25  26
ENDBRANCH  19  25
BRANCH  20  31
ATOM     31  O   UNL     1      24.177  27.935  27.232  1.00  0.00    -0.387 OA
ATOM     32  H   UNL     1      24.914  27.919  26.566  1.00  0.00     0.211 HD
ENDBRANCH  20  31
BRANCH  21  33
ATOM     33  O   UNL     1      20.672  27.992  26.673  1.00  0.00    -0.385 OA
ATOM     34  H   UNL     1      20.641  26.990  26.639  1.00  0.00     0.211 HD
ENDBRANCH  21  33
ENDBRANCH  15  16
ENDBRANCH  10  15
BRANCH  12  35
ATOM     35  O   UNL     1      24.506  27.159  22.638  1.00  0.00    -0.385 OA
ATOM     36  H   UNL     1      24.589  26.878  21.705  1.00  0.00     0.211 HD
ENDBRANCH  12  35
BRANCH  13  37
ATOM     37  O   UNL     1      22.654  24.237  22.909  1.00  0.00    -0.387 OA
ATOM     38  H   UNL     1      22.441  24.417  23.863  1.00  0.00     0.211 HD
ENDBRANCH  13  37
BRANCH  14  39
ATOM     39  O   UNL     1      20.554  25.449  22.194  1.00  0.00    -0.387 OA
ATOM     40  H   UNL     1      20.058  24.755  21.710  1.00  0.00     0.211 HD
ENDBRANCH  14  39
ENDBRANCH   8   9
ENDBRANCH   7   8
ENDBRANCH   1   7
BRANCH   1  41
ATOM     41  C   UNL     1      17.851  29.055  19.230  1.00  0.00     0.364 C 
ATOM     42  O   UNL     1      17.189  28.055  18.941  1.00  0.00    -0.246 OA
BRANCH  41  43
ATOM     43  O   UNL     1      17.818  30.090  18.278  1.00  0.00    -0.477 OA
ATOM     44  H   UNL     1      17.108  30.803  18.399  1.00  0.00     0.296 HD
ENDBRANCH  41  43
ENDBRANCH   1  41
BRANCH   3  45
ATOM     45  O   UNL     1      19.179  29.907  22.864  1.00  0.00    -0.391 OA
ATOM     46  H   UNL     1      19.298  30.198  23.791  1.00  0.00     0.211 HD
ENDBRANCH   3  45
BRANCH   5  47
ATOM     47  C   UNL     1      15.851  29.967  22.717  1.00  0.00     0.176 C 
BRANCH  47  48
ATOM     48  O   UNL     1      16.551  29.275  23.735  1.00  0.00    -0.388 OA
ATOM     49  H   UNL     1      16.040  29.225  24.560  1.00  0.00     0.211 HD
ENDBRANCH  47  48
BRANCH  47  50
ATOM     50  C   UNL     1      14.759  28.997  22.296  1.00  0.00     0.165 C 
BRANCH  50  51
ATOM     51  O   UNL     1      14.951  28.471  21.061  1.00  0.00    -0.388 OA
ATOM     52  H   UNL     1      15.592  28.943  20.480  1.00  0.00     0.211 HD
ENDBRANCH  50  51
BRANCH  50  53
ATOM     53  C   UNL     1      13.404  29.669  22.399  1.00  0.00     0.154 C 
BRANCH  53  54
ATOM     54  N   UNL     1      13.302  30.723  23.339  1.00  0.00    -0.319 N 
ATOM     55  C   UNL     1      12.791  30.586  24.634  1.00  0.00     0.407 C 
ATOM     56  H   UNL     1      13.635  31.709  23.060  1.00  0.00     0.167 HD
ATOM     57  O   UNL     1      12.385  29.499  25.077  1.00  0.00    -0.225 OA
BRANCH  55  58
ATOM     58  O   UNL     1      12.709  31.691  25.515  1.00  0.00    -0.443 OA
BRANCH  58  59
ATOM     59  C   UNL     1      13.859  32.411  25.896  1.00  0.00     0.294 C 
BRANCH  59  60
ATOM     60  C   UNL     1      14.665  31.735  26.932  1.00  0.00     0.120 A 
ATOM     61  C   UNL     1      14.368  31.605  28.274  1.00  0.00     0.139 A 
ATOM     62  N   UNL     1      15.842  31.112  26.765  1.00  0.00    -0.132 NA
ATOM     63  N   UNL     1      15.363  30.914  28.882  1.00  0.00    -0.244 N 
ATOM     64  N   UNL     1      16.247  30.626  27.941  1.00  0.00    -0.066 NA
BRANCH  63  65
ATOM     65  C   UNL     1      15.414  30.573  30.281  1.00  0.00     0.082 C 
ATOM     66  C   UNL     1      15.721  31.798  31.091  1.00  0.00     0.039 C 
ATOM     67  C   UNL     1      16.552  29.574  30.539  1.00  0.00     0.039 C 
BRANCH  65  68
ATOM     68  C   UNL     1      14.153  29.943  30.799  1.00  0.00     0.186 C 
BRANCH  68  69
ATOM     69  O   UNL     1      14.374  28.859  31.617  1.00  0.00    -0.394 OA
ATOM     70  H   UNL     1      14.865  29.046  32.433  1.00  0.00     0.210 HD
ENDBRANCH  68  69
ENDBRANCH  65  68
ENDBRANCH  63  65
ENDBRANCH  59  60
ENDBRANCH  58  59
ENDBRANCH  55  58
ENDBRANCH  53  54
ENDBRANCH  50  53
ENDBRANCH  47  50
ENDBRANCH   5  47
BRANCH   4  71
ATOM     71  N   UNL     1      17.573  32.583  21.161  1.00  0.00    -0.348 N 
ATOM     72  C   UNL     1      16.518  33.524  21.109  1.00  0.00     0.217 C 
ATOM     73  H   UNL     1      18.369  32.783  20.485  1.00  0.00     0.163 HD
ATOM     74  C   UNL     1      16.536  34.690  20.184  1.00  0.00     0.114 C 
ATOM     75  O   UNL     1      15.538  33.381  21.857  1.00  0.00    -0.275 OA
ENDBRANCH   4  71
TORSDOF 32
