REMARK VINA RESULT:    -5.823      7.347     15.553
REMARK INTER + INTRA:         -24.940
REMARK INTER:                 -15.458
REMARK INTRA:                  -9.482
REMARK UNBOUND:                -9.245
REMARK SMILES CC(=O)N[C@@H]1[C@@H](O)C[C@](OC[C@H]2O[C@@H](O[C@H]3[C@H](O)[C@@H](O)[C@H](OCCN=[N+]=[N-])O[C@@H]3CO)[C@H](O)[C@@H](O)[C@H]2O)(C(=O)O)O[C@H]1C(O)[C@H](O)CNC(=O)OCc1cn([C@@H](C)C(=O)OCc2ccccc2)nn1
REMARK SMILES IDX 43 1 42 2 9 3 8 4 41 5 6 6 5 7 10 8 11 9 12 10 14 11 13 12
REMARK SMILES IDX 32 13 34 14 36 15 15 16 16 17 29 18 28 19 21 20 17 21 19 22
REMARK SMILES IDX 30 23 31 24 22 26 23 27 24 28 25 29 26 30 27 31 18 32 20 34
REMARK SMILES IDX 33 36 35 38 37 40 38 42 39 43 40 44 7 46 4 48 2 49 1 51 3 52
REMARK SMILES IDX 44 53 45 55 46 56 47 58 48 59 49 60 50 62 51 63 52 64 53 65
REMARK SMILES IDX 54 66 69 67 55 68 68 69 56 70 57 71 58 72 59 73 60 74 61 75
REMARK SMILES IDX 62 76 63 77 67 78 64 79 66 80 65 81
REMARK H PARENT 31 25 18 33 20 35 33 37 35 39 37 41 40 45 7 47 4 50 44 54
REMARK H PARENT 46 57 48 61
REMARK Flexibility Score: inf
ROOT
ATOM      1  C   UNL     1      17.538  29.511  20.943  1.00  0.00     0.176 C 
ENDROOT
BRANCH   1   2
ATOM      2  C   UNL     1      17.383  30.011  19.561  1.00  0.00     0.178 C 
ATOM      3  C   UNL     1      15.071  29.956  19.249  1.00  0.00     0.272 C 
ATOM      4  C   UNL     1      15.259  28.894  18.235  1.00  0.00     0.113 C 
ATOM      5  O   UNL     1      16.265  30.760  19.308  1.00  0.00    -0.332 OA
ATOM      6  C   UNL     1      16.473  28.027  18.478  1.00  0.00     0.145 C 
ATOM      7  C   UNL     1      17.672  28.923  18.560  1.00  0.00     0.142 C 
BRANCH   3   8
ATOM      8  O   UNL     1      14.786  29.674  20.494  1.00  0.00    -0.338 OA
BRANCH   8   9
ATOM      9  C   UNL     1      13.864  28.947  21.057  1.00  0.00     0.199 C 
BRANCH   9  10
ATOM     10  C   UNL     1      13.307  29.230  22.423  1.00  0.00     0.179 C 
ATOM     11  C   UNL     1      14.007  30.163  24.437  1.00  0.00     0.282 C 
ATOM     12  O   UNL     1      14.336  29.439  23.294  1.00  0.00    -0.341 OA
ATOM     13  C   UNL     1      12.555  30.113  24.752  1.00  0.00     0.202 C 
ATOM     14  C   UNL     1      11.741  30.741  23.655  1.00  0.00     0.179 C 
ATOM     15  C   UNL     1      12.384  30.465  22.343  1.00  0.00     0.177 C 
BRANCH  11  16
ATOM     16  O   UNL     1      14.573  31.401  24.305  1.00  0.00    -0.341 OA
BRANCH  16  17
ATOM     17  C   UNL     1      14.965  32.001  25.464  1.00  0.00     0.184 C 
ATOM     18  C   UNL     1      15.696  33.279  25.143  1.00  0.00     0.178 C 
ATOM     19  O   UNL     1      16.238  33.826  26.312  1.00  0.00    -0.341 OA
ATOM     20  C   UNL     1      17.464  33.138  26.495  1.00  0.00     0.281 C 
ATOM     21  C   UNL     1      15.915  31.142  26.283  1.00  0.00     0.180 C 
ATOM     22  C   UNL     1      17.303  31.655  26.375  1.00  0.00     0.202 C 
BRANCH  18  23
ATOM     23  C   UNL     1      14.885  34.284  24.381  1.00  0.00     0.191 C 
BRANCH  23  24
ATOM     24  O   UNL     1      13.543  34.006  24.656  1.00  0.00    -0.394 OA
ATOM     25  H   UNL     1      13.422  33.441  25.456  1.00  0.00     0.210 HD
ENDBRANCH  23  24
ENDBRANCH  18  23
BRANCH  20  26
ATOM     26  O   UNL     1      18.002  33.559  27.669  1.00  0.00    -0.350 OA
BRANCH  26  27
ATOM     27  C   UNL     1      19.346  33.709  27.764  1.00  0.00     0.169 C 
BRANCH  27  28
ATOM     28  C   UNL     1      20.150  32.543  28.214  1.00  0.00     0.119 C 
BRANCH  28  29
ATOM     29  N   UNL     1      20.859  31.816  27.224  1.00  0.00    -0.092 NA
ATOM     30  N   UNL     1      20.706  30.611  27.057  1.00  0.00     0.001 N 
ATOM     31  N   UNL     1      20.473  29.435  26.724  1.00  0.00    -0.003 NA
ENDBRANCH  28  29
ENDBRANCH  27  28
ENDBRANCH  26  27
ENDBRANCH  20  26
BRANCH  21  32
ATOM     32  O   UNL     1      15.425  30.932  27.575  1.00  0.00    -0.387 OA
ATOM     33  H   UNL     1      15.380  31.756  28.110  1.00  0.00     0.211 HD
ENDBRANCH  21  32
BRANCH  22  34
ATOM     34  O   UNL     1      18.071  31.105  25.344  1.00  0.00    -0.385 OA
ATOM     35  H   UNL     1      18.469  30.267  25.703  1.00  0.00     0.211 HD
ENDBRANCH  22  34
ENDBRANCH  16  17
ENDBRANCH  11  16
BRANCH  13  36
ATOM     36  O   UNL     1      12.190  28.758  24.938  1.00  0.00    -0.385 OA
ATOM     37  H   UNL     1      12.154  28.381  24.007  1.00  0.00     0.211 HD
ENDBRANCH  13  36
BRANCH  14  38
ATOM     38  O   UNL     1      11.589  32.085  23.928  1.00  0.00    -0.387 OA
ATOM     39  H   UNL     1      10.893  32.255  24.620  1.00  0.00     0.211 HD
ENDBRANCH  14  38
BRANCH  15  40
ATOM     40  O   UNL     1      13.055  31.567  21.832  1.00  0.00    -0.387 OA
ATOM     41  H   UNL     1      12.400  32.322  21.707  1.00  0.00     0.211 HD
ENDBRANCH  15  40
ENDBRANCH   9  10
ENDBRANCH   8   9
ENDBRANCH   3   8
BRANCH   3  42
ATOM     42  C   UNL     1      14.133  30.987  18.652  1.00  0.00     0.364 C 
ATOM     43  O   UNL     1      13.398  30.718  17.693  1.00  0.00    -0.246 OA
BRANCH  42  44
ATOM     44  O   UNL     1      14.073  32.279  19.172  1.00  0.00    -0.477 OA
ATOM     45  H   UNL     1      13.851  33.101  18.619  1.00  0.00     0.296 HD
ENDBRANCH  42  44
ENDBRANCH   3  42
BRANCH   6  46
ATOM     46  O   UNL     1      16.338  27.205  19.592  1.00  0.00    -0.391 OA
ATOM     47  H   UNL     1      17.133  26.623  19.613  1.00  0.00     0.211 HD
ENDBRANCH   6  46
BRANCH   7  48
ATOM     48  N   UNL     1      17.935  29.471  17.236  1.00  0.00    -0.348 N 
ATOM     49  C   UNL     1      18.997  28.905  16.464  1.00  0.00     0.217 C 
ATOM     50  H   UNL     1      17.396  30.255  16.817  1.00  0.00     0.163 HD
ATOM     51  C   UNL     1      19.267  29.468  15.107  1.00  0.00     0.114 C 
ATOM     52  O   UNL     1      19.682  27.953  16.927  1.00  0.00    -0.275 OA
ENDBRANCH   7  48
ENDBRANCH   1   2
BRANCH   1  53
ATOM     53  O   UNL     1      18.700  28.703  21.002  1.00  0.00    -0.388 OA
ATOM     54  H   UNL     1      19.229  28.798  20.163  1.00  0.00     0.211 HD
ENDBRANCH   1  53
BRANCH   1  55
ATOM     55  C   UNL     1      17.819  30.619  21.972  1.00  0.00     0.165 C 
BRANCH  55  56
ATOM     56  O   UNL     1      16.681  31.208  22.426  1.00  0.00    -0.388 OA
ATOM     57  H   UNL     1      15.916  31.010  21.836  1.00  0.00     0.211 HD
ENDBRANCH  55  56
BRANCH  55  58
ATOM     58  C   UNL     1      18.885  31.544  21.481  1.00  0.00     0.154 C 
BRANCH  58  59
ATOM     59  N   UNL     1      20.189  30.978  21.690  1.00  0.00    -0.319 N 
ATOM     60  C   UNL     1      20.973  31.103  22.860  1.00  0.00     0.407 C 
ATOM     61  H   UNL     1      20.652  30.399  20.919  1.00  0.00     0.167 HD
ATOM     62  O   UNL     1      20.577  31.757  23.828  1.00  0.00    -0.225 OA
BRANCH  60  63
ATOM     63  O   UNL     1      22.230  30.487  22.959  1.00  0.00    -0.443 OA
BRANCH  63  64
ATOM     64  C   UNL     1      22.405  29.244  23.592  1.00  0.00     0.294 C 
BRANCH  64  65
ATOM     65  C   UNL     1      21.988  28.191  22.638  1.00  0.00     0.120 A 
ATOM     66  C   UNL     1      22.719  27.631  21.615  1.00  0.00     0.139 A 
ATOM     67  N   UNL     1      20.787  27.601  22.615  1.00  0.00    -0.132 NA
ATOM     68  N   UNL     1      21.942  26.707  20.987  1.00  0.00    -0.238 N 
ATOM     69  N   UNL     1      20.780  26.709  21.613  1.00  0.00    -0.066 NA
BRANCH  68  70
ATOM     70  C   UNL     1      22.415  25.945  19.857  1.00  0.00     0.215 C 
ATOM     71  C   UNL     1      22.831  26.854  18.716  1.00  0.00     0.046 C 
BRANCH  70  72
ATOM     72  C   UNL     1      23.579  25.078  20.258  1.00  0.00     0.331 C 
ATOM     73  O   UNL     1      24.584  25.043  19.528  1.00  0.00    -0.250 OA
BRANCH  72  74
ATOM     74  O   UNL     1      23.551  24.328  21.411  1.00  0.00    -0.459 OA
BRANCH  74  75
ATOM     75  C   UNL     1      24.487  24.418  22.457  1.00  0.00     0.268 C 
BRANCH  75  76
ATOM     76  C   UNL     1      23.873  24.523  23.796  1.00  0.00    -0.011 A 
ATOM     77  C   UNL     1      24.615  24.520  24.948  1.00  0.00     0.007 A 
ATOM     78  C   UNL     1      22.509  24.626  23.919  1.00  0.00     0.007 A 
ATOM     79  C   UNL     1      24.046  24.615  26.198  1.00  0.00     0.000 A 
ATOM     80  C   UNL     1      21.896  24.724  25.147  1.00  0.00     0.000 A 
ATOM     81  C   UNL     1      22.682  24.717  26.293  1.00  0.00     0.000 A 
ENDBRANCH  75  76
ENDBRANCH  74  75
ENDBRANCH  72  74
ENDBRANCH  70  72
ENDBRANCH  68  70
ENDBRANCH  64  65
ENDBRANCH  63  64
ENDBRANCH  60  63
ENDBRANCH  58  59
ENDBRANCH  55  58
ENDBRANCH   1  55
TORSDOF 34
