REMARK VINA RESULT:    -5.906      0.000      0.000
REMARK INTER + INTRA:         -23.514
REMARK INTER:                 -16.638
REMARK INTRA:                  -6.876
REMARK UNBOUND:                -8.458
REMARK SMILES CC(=O)N[C@@H]1[C@@H](O)C[C@](OC[C@H]2O[C@@H](O[C@H]3[C@H](O)[C@@H](O)[C@H](OCCN=[N+]=[N-])O[C@@H]3CO)[C@H](O)[C@@H](O)[C@H]2O)(C(=O)O)O[C@H]1C(O)[C@H](O)CNC(=O)OCc1cn(-c2ccc(O)c([N+](=O)[O-])c2)nn1
REMARK SMILES IDX 9 1 8 2 6 3 5 4 42 5 41 6 10 7 11 8 12 9 14 10 13 11 32 12
REMARK SMILES IDX 34 13 36 14 15 15 16 16 29 17 28 18 21 19 17 20 19 21 30 22
REMARK SMILES IDX 31 23 22 25 23 26 24 27 25 28 26 29 27 30 18 31 20 33 33 35
REMARK SMILES IDX 35 37 37 39 38 41 39 42 40 43 7 45 43 47 44 48 45 50 46 51
REMARK SMILES IDX 47 53 48 54 49 55 50 57 51 58 52 59 53 60 54 61 67 62 55 63
REMARK SMILES IDX 66 64 56 65 57 66 65 67 58 68 61 69 59 70 62 71 63 72 64 73
REMARK SMILES IDX 60 74 4 76 2 77 1 79 3 80
REMARK H PARENT 31 24 18 32 20 34 33 36 35 38 37 40 40 44 7 46 44 49 46 52
REMARK H PARENT 48 56 60 75 4 78
REMARK Flexibility Score: inf
ROOT
ATOM      1  C   UNL     1      13.400  31.755  21.397  1.00  0.00     0.272 C 
ATOM      2  C   UNL     1      13.283  30.754  20.232  1.00  0.00     0.113 C 
ATOM      3  C   UNL     1      13.705  29.373  20.725  1.00  0.00     0.145 C 
ATOM      4  C   UNL     1      15.227  29.516  20.984  1.00  0.00     0.142 C 
ATOM      5  C   UNL     1      15.502  30.838  21.642  1.00  0.00     0.178 C 
ATOM      6  O   UNL     1      14.353  31.322  22.293  1.00  0.00    -0.332 OA
ENDROOT
BRANCH   1   7
ATOM      7  O   UNL     1      12.158  31.731  22.003  1.00  0.00    -0.338 OA
BRANCH   7   8
ATOM      8  C   UNL     1      11.917  32.677  22.953  1.00  0.00     0.199 C 
BRANCH   8   9
ATOM      9  C   UNL     1      11.224  31.928  24.117  1.00  0.00     0.179 C 
ATOM     10  C   UNL     1      10.085  29.984  24.376  1.00  0.00     0.282 C 
ATOM     11  O   UNL     1      10.384  31.041  23.515  1.00  0.00    -0.341 OA
ATOM     12  C   UNL     1      11.307  29.136  24.463  1.00  0.00     0.202 C 
ATOM     13  C   UNL     1      12.414  29.931  25.107  1.00  0.00     0.179 C 
ATOM     14  C   UNL     1      12.262  31.403  25.027  1.00  0.00     0.177 C 
BRANCH  10  15
ATOM     15  O   UNL     1       8.952  29.304  23.911  1.00  0.00    -0.341 OA
BRANCH  15  16
ATOM     16  C   UNL     1       7.909  29.544  24.784  1.00  0.00     0.184 C 
ATOM     17  C   UNL     1       7.164  28.338  25.242  1.00  0.00     0.178 C 
ATOM     18  O   UNL     1       6.373  28.722  26.318  1.00  0.00    -0.341 OA
ATOM     19  C   UNL     1       5.295  29.541  25.868  1.00  0.00     0.281 C 
ATOM     20  C   UNL     1       6.844  30.425  24.077  1.00  0.00     0.180 C 
ATOM     21  C   UNL     1       5.798  30.734  25.145  1.00  0.00     0.202 C 
BRANCH  17  22
ATOM     22  C   UNL     1       7.998  27.162  25.626  1.00  0.00     0.191 C 
BRANCH  22  23
ATOM     23  O   UNL     1       8.568  26.567  24.514  1.00  0.00    -0.394 OA
ATOM     24  H   UNL     1       7.941  25.837  24.209  1.00  0.00     0.210 HD
ENDBRANCH  22  23
ENDBRANCH  17  22
BRANCH  19  25
ATOM     25  O   UNL     1       4.665  29.915  27.049  1.00  0.00    -0.350 OA
BRANCH  25  26
ATOM     26  C   UNL     1       5.478  29.834  28.163  1.00  0.00     0.169 C 
BRANCH  26  27
ATOM     27  C   UNL     1       5.245  30.972  29.108  1.00  0.00     0.119 C 
BRANCH  27  28
ATOM     28  N   UNL     1       5.235  32.212  28.336  1.00  0.00    -0.092 NA
ATOM     29  N   UNL     1       6.320  32.782  28.083  1.00  0.00     0.001 N 
ATOM     30  N   UNL     1       7.256  33.226  27.394  1.00  0.00    -0.003 NA
ENDBRANCH  27  28
ENDBRANCH  26  27
ENDBRANCH  25  26
ENDBRANCH  19  25
BRANCH  20  31
ATOM     31  O   UNL     1       7.393  31.631  23.673  1.00  0.00    -0.387 OA
ATOM     32  H   UNL     1       6.946  31.995  22.860  1.00  0.00     0.211 HD
ENDBRANCH  20  31
BRANCH  21  33
ATOM     33  O   UNL     1       4.758  31.357  24.459  1.00  0.00    -0.385 OA
ATOM     34  H   UNL     1       4.737  32.318  24.628  1.00  0.00     0.211 HD
ENDBRANCH  21  33
ENDBRANCH  15  16
ENDBRANCH  10  15
BRANCH  12  35
ATOM     35  O   UNL     1      11.109  27.949  25.159  1.00  0.00    -0.385 OA
ATOM     36  H   UNL     1      10.134  27.771  25.296  1.00  0.00     0.211 HD
ENDBRANCH  12  35
BRANCH  13  37
ATOM     37  O   UNL     1      13.618  29.445  24.586  1.00  0.00    -0.387 OA
ATOM     38  H   UNL     1      13.453  29.235  23.628  1.00  0.00     0.211 HD
ENDBRANCH  13  37
BRANCH  14  39
ATOM     39  O   UNL     1      13.532  31.961  24.769  1.00  0.00    -0.387 OA
ATOM     40  H   UNL     1      13.645  32.221  23.830  1.00  0.00     0.211 HD
ENDBRANCH  14  39
ENDBRANCH   8   9
ENDBRANCH   7   8
ENDBRANCH   1   7
BRANCH   1  41
ATOM     41  C   UNL     1      13.626  33.057  20.779  1.00  0.00     0.364 C 
ATOM     42  O   UNL     1      13.126  33.459  19.695  1.00  0.00    -0.246 OA
BRANCH  41  43
ATOM     43  O   UNL     1      14.465  33.975  21.413  1.00  0.00    -0.477 OA
ATOM     44  H   UNL     1      15.249  34.416  20.945  1.00  0.00     0.296 HD
ENDBRANCH  41  43
ENDBRANCH   1  41
BRANCH   3  45
ATOM     45  O   UNL     1      13.052  29.026  21.878  1.00  0.00    -0.391 OA
ATOM     46  H   UNL     1      12.634  29.829  22.271  1.00  0.00     0.211 HD
ENDBRANCH   3  45
BRANCH   5  47
ATOM     47  C   UNL     1      16.548  30.655  22.715  1.00  0.00     0.176 C 
BRANCH  47  48
ATOM     48  O   UNL     1      17.182  29.442  22.497  1.00  0.00    -0.388 OA
ATOM     49  H   UNL     1      16.733  28.895  21.806  1.00  0.00     0.211 HD
ENDBRANCH  47  48
BRANCH  47  50
ATOM     50  C   UNL     1      17.584  31.750  22.763  1.00  0.00     0.165 C 
BRANCH  50  51
ATOM     51  O   UNL     1      16.827  32.952  22.755  1.00  0.00    -0.388 OA
ATOM     52  H   UNL     1      17.335  33.691  22.320  1.00  0.00     0.211 HD
ENDBRANCH  50  51
BRANCH  50  53
ATOM     53  C   UNL     1      18.422  31.783  21.517  1.00  0.00     0.154 C 
BRANCH  53  54
ATOM     54  N   UNL     1      19.696  31.160  21.756  1.00  0.00    -0.319 N 
ATOM     55  C   UNL     1      20.147  29.956  21.176  1.00  0.00     0.407 C 
ATOM     56  H   UNL     1      20.380  31.629  22.427  1.00  0.00     0.167 HD
ATOM     57  O   UNL     1      19.383  29.373  20.395  1.00  0.00    -0.225 OA
BRANCH  55  58
ATOM     58  O   UNL     1      21.375  29.384  21.414  1.00  0.00    -0.443 OA
BRANCH  58  59
ATOM     59  C   UNL     1      21.705  28.127  20.880  1.00  0.00     0.294 C 
BRANCH  59  60
ATOM     60  C   UNL     1      21.514  27.105  21.952  1.00  0.00     0.121 A 
ATOM     61  C   UNL     1      22.074  27.146  23.232  1.00  0.00     0.144 A 
ATOM     62  N   UNL     1      20.813  25.964  21.954  1.00  0.00    -0.131 NA
ATOM     63  N   UNL     1      21.691  26.067  23.904  1.00  0.00    -0.220 N 
ATOM     64  N   UNL     1      20.918  25.366  23.087  1.00  0.00    -0.062 NA
BRANCH  63  65
ATOM     65  C   UNL     1      22.050  25.720  25.253  1.00  0.00     0.073 A 
ATOM     66  C   UNL     1      22.760  24.590  25.521  1.00  0.00     0.033 A 
ATOM     67  C   UNL     1      21.697  26.510  26.313  1.00  0.00     0.118 A 
ATOM     68  C   UNL     1      23.128  24.218  26.793  1.00  0.00     0.056 A 
ATOM     69  C   UNL     1      22.060  26.154  27.628  1.00  0.00     0.312 A 
ATOM     70  C   UNL     1      22.775  25.019  27.902  1.00  0.00     0.194 A 
BRANCH  69  71
ATOM     71  N   UNL     1      21.661  27.024  28.657  1.00  0.00     0.066 N 
ATOM     72  O   UNL     1      21.183  26.498  29.711  1.00  0.00    -0.258 OA
ATOM     73  O   UNL     1      21.769  28.372  28.544  1.00  0.00    -0.258 OA
ENDBRANCH  69  71
BRANCH  70  74
ATOM     74  O   UNL     1      23.175  24.600  29.159  1.00  0.00    -0.502 OA
ATOM     75  H   UNL     1      23.821  23.892  29.308  1.00  0.00     0.293 HD
ENDBRANCH  70  74
ENDBRANCH  63  65
ENDBRANCH  59  60
ENDBRANCH  58  59
ENDBRANCH  55  58
ENDBRANCH  53  54
ENDBRANCH  50  53
ENDBRANCH  47  50
ENDBRANCH   5  47
BRANCH   4  76
ATOM     76  N   UNL     1      15.819  29.415  19.665  1.00  0.00    -0.348 N 
ATOM     77  C   UNL     1      16.442  28.203  19.219  1.00  0.00     0.217 C 
ATOM     78  H   UNL     1      15.808  30.217  19.009  1.00  0.00     0.163 HD
ATOM     79  C   UNL     1      17.041  28.123  17.867  1.00  0.00     0.114 C 
ATOM     80  O   UNL     1      16.464  27.211  20.008  1.00  0.00    -0.275 OA
ENDBRANCH   4  76
TORSDOF 32
