REMARK VINA RESULT:    -5.522      0.000      0.000
REMARK INTER + INTRA:         -22.984
REMARK INTER:                 -14.441
REMARK INTRA:                  -8.543
REMARK UNBOUND:                -9.390
REMARK SMILES CC(=O)N[C@@H]1[C@@H](O)C[C@](OC[C@H]2O[C@@H](O[C@H]3[C@H](O)[C@@H](O)[C@H](OCCN=[N+]=[N-])O[C@@H]3CO)[C@H](O)[C@@H](O)[C@H]2O)(C(=O)O)O[C@H]1C(O)[C@H](O)CNC(=O)OCc1cn(-c2ccncc2)nn1
REMARK SMILES IDX 9 1 8 2 6 3 5 4 42 5 41 6 10 7 11 8 12 9 14 10 13 11 32 12
REMARK SMILES IDX 34 13 36 14 15 15 16 16 29 17 28 18 21 19 17 20 19 21 30 22
REMARK SMILES IDX 31 23 22 25 23 26 24 27 25 28 26 29 27 30 18 31 20 33 33 35
REMARK SMILES IDX 35 37 37 39 38 41 39 42 40 43 7 45 43 47 44 48 45 50 46 51
REMARK SMILES IDX 47 53 48 54 49 55 50 57 51 58 52 59 53 60 54 61 63 62 55 63
REMARK SMILES IDX 62 64 56 65 57 66 61 67 58 68 60 69 59 70 4 71 2 72 1 74
REMARK SMILES IDX 3 75
REMARK H PARENT 31 24 18 32 20 34 33 36 35 38 37 40 40 44 7 46 44 49 46 52
REMARK H PARENT 48 56 4 73
REMARK Flexibility Score: inf
ROOT
ATOM      1  C   UNL     1      23.168  24.889  23.734  1.00  0.00     0.272 C 
ATOM      2  C   UNL     1      21.957  24.634  24.655  1.00  0.00     0.113 C 
ATOM      3  C   UNL     1      20.987  25.818  24.591  1.00  0.00     0.145 C 
ATOM      4  C   UNL     1      21.729  27.012  25.282  1.00  0.00     0.142 C 
ATOM      5  C   UNL     1      23.063  27.108  24.601  1.00  0.00     0.178 C 
ATOM      6  O   UNL     1      23.060  26.272  23.492  1.00  0.00    -0.332 OA
ENDROOT
BRANCH   1   7
ATOM      7  O   UNL     1      22.989  24.316  22.561  1.00  0.00    -0.338 OA
BRANCH   7   8
ATOM      8  C   UNL     1      22.183  24.200  21.601  1.00  0.00     0.199 C 
BRANCH   8   9
ATOM      9  C   UNL     1      22.582  24.528  20.194  1.00  0.00     0.179 C 
ATOM     10  C   UNL     1      22.575  26.445  18.835  1.00  0.00     0.282 C 
ATOM     11  O   UNL     1      22.285  25.923  20.074  1.00  0.00    -0.341 OA
ATOM     12  C   UNL     1      24.042  26.374  18.551  1.00  0.00     0.202 C 
ATOM     13  C   UNL     1      24.527  24.933  18.723  1.00  0.00     0.179 C 
ATOM     14  C   UNL     1      24.109  24.462  20.084  1.00  0.00     0.177 C 
BRANCH  10  15
ATOM     15  O   UNL     1      22.174  27.802  18.943  1.00  0.00    -0.341 OA
BRANCH  15  16
ATOM     16  C   UNL     1      20.831  27.971  18.930  1.00  0.00     0.184 C 
ATOM     17  C   UNL     1      20.314  28.685  17.747  1.00  0.00     0.178 C 
ATOM     18  O   UNL     1      18.904  28.710  17.768  1.00  0.00    -0.341 OA
ATOM     19  C   UNL     1      18.641  29.768  18.718  1.00  0.00     0.281 C 
ATOM     20  C   UNL     1      20.447  28.796  20.197  1.00  0.00     0.180 C 
ATOM     21  C   UNL     1      19.000  29.230  20.053  1.00  0.00     0.202 C 
BRANCH  17  22
ATOM     22  C   UNL     1      20.779  28.122  16.458  1.00  0.00     0.191 C 
BRANCH  22  23
ATOM     23  O   UNL     1      22.075  28.544  16.123  1.00  0.00    -0.394 OA
ATOM     24  H   UNL     1      22.611  28.508  16.970  1.00  0.00     0.210 HD
ENDBRANCH  22  23
ENDBRANCH  17  22
BRANCH  19  25
ATOM     25  O   UNL     1      17.299  30.005  18.608  1.00  0.00    -0.350 OA
BRANCH  25  26
ATOM     26  C   UNL     1      16.597  28.923  18.171  1.00  0.00     0.169 C 
BRANCH  26  27
ATOM     27  C   UNL     1      16.222  27.908  19.202  1.00  0.00     0.119 C 
BRANCH  27  28
ATOM     28  N   UNL     1      15.261  28.409  20.164  1.00  0.00    -0.092 NA
ATOM     29  N   UNL     1      15.561  28.976  21.205  1.00  0.00     0.001 N 
ATOM     30  N   UNL     1      15.957  29.287  22.333  1.00  0.00    -0.003 NA
ENDBRANCH  27  28
ENDBRANCH  26  27
ENDBRANCH  25  26
ENDBRANCH  19  25
BRANCH  20  31
ATOM     31  O   UNL     1      20.539  27.931  21.261  1.00  0.00    -0.387 OA
ATOM     32  H   UNL     1      19.734  28.004  21.866  1.00  0.00     0.211 HD
ENDBRANCH  20  31
BRANCH  21  33
ATOM     33  O   UNL     1      18.674  30.146  21.041  1.00  0.00    -0.385 OA
ATOM     34  H   UNL     1      18.574  29.665  21.904  1.00  0.00     0.211 HD
ENDBRANCH  21  33
ENDBRANCH  15  16
ENDBRANCH  10  15
BRANCH  12  35
ATOM     35  O   UNL     1      24.315  26.731  17.209  1.00  0.00    -0.385 OA
ATOM     36  H   UNL     1      25.013  27.426  17.260  1.00  0.00     0.211 HD
ENDBRANCH  12  35
BRANCH  13  37
ATOM     37  O   UNL     1      25.889  24.807  18.580  1.00  0.00    -0.387 OA
ATOM     38  H   UNL     1      26.358  25.648  18.880  1.00  0.00     0.211 HD
ENDBRANCH  13  37
BRANCH  14  39
ATOM     39  O   UNL     1      24.596  25.316  21.086  1.00  0.00    -0.387 OA
ATOM     40  H   UNL     1      23.943  26.068  21.226  1.00  0.00     0.211 HD
ENDBRANCH  14  39
ENDBRANCH   8   9
ENDBRANCH   7   8
ENDBRANCH   1   7
BRANCH   1  41
ATOM     41  C   UNL     1      24.422  24.542  24.411  1.00  0.00     0.364 C 
ATOM     42  O   UNL     1      24.451  24.185  25.634  1.00  0.00    -0.246 OA
BRANCH  41  43
ATOM     43  O   UNL     1      25.647  24.573  23.789  1.00  0.00    -0.477 OA
ATOM     44  H   UNL     1      26.086  25.367  23.374  1.00  0.00     0.296 HD
ENDBRANCH  41  43
ENDBRANCH   1  41
BRANCH   3  45
ATOM     45  O   UNL     1      20.777  26.173  23.287  1.00  0.00    -0.391 OA
ATOM     46  H   UNL     1      19.841  26.087  23.022  1.00  0.00     0.211 HD
ENDBRANCH   3  45
BRANCH   5  47
ATOM     47  C   UNL     1      23.328  28.481  23.969  1.00  0.00     0.176 C 
BRANCH  47  48
ATOM     48  O   UNL     1      21.972  28.846  23.557  1.00  0.00    -0.388 OA
ATOM     49  H   UNL     1      21.491  29.124  24.393  1.00  0.00     0.211 HD
ENDBRANCH  47  48
BRANCH  47  50
ATOM     50  C   UNL     1      24.163  28.518  22.764  1.00  0.00     0.165 C 
BRANCH  50  51
ATOM     51  O   UNL     1      23.616  28.097  21.576  1.00  0.00    -0.388 OA
ATOM     52  H   UNL     1      22.920  27.402  21.722  1.00  0.00     0.211 HD
ENDBRANCH  50  51
BRANCH  50  53
ATOM     53  C   UNL     1      25.608  28.272  22.964  1.00  0.00     0.154 C 
BRANCH  53  54
ATOM     54  N   UNL     1      26.216  27.321  22.071  1.00  0.00    -0.319 N 
ATOM     55  C   UNL     1      27.060  27.746  21.016  1.00  0.00     0.407 C 
ATOM     56  H   UNL     1      26.001  26.320  22.220  1.00  0.00     0.167 HD
ATOM     57  O   UNL     1      27.253  28.977  20.900  1.00  0.00    -0.225 OA
BRANCH  55  58
ATOM     58  O   UNL     1      27.667  26.903  20.129  1.00  0.00    -0.443 OA
BRANCH  58  59
ATOM     59  C   UNL     1      28.756  26.048  20.403  1.00  0.00     0.294 C 
BRANCH  59  60
ATOM     60  C   UNL     1      28.301  24.659  20.742  1.00  0.00     0.121 A 
ATOM     61  C   UNL     1      28.861  23.446  20.406  1.00  0.00     0.144 A 
ATOM     62  N   UNL     1      27.202  24.354  21.472  1.00  0.00    -0.131 NA
ATOM     63  N   UNL     1      28.108  22.461  20.927  1.00  0.00    -0.220 N 
ATOM     64  N   UNL     1      27.097  23.042  21.576  1.00  0.00    -0.062 NA
BRANCH  63  65
ATOM     65  C   UNL     1      28.366  21.070  20.792  1.00  0.00     0.069 A 
ATOM     66  C   UNL     1      28.593  20.437  19.589  1.00  0.00     0.048 A 
ATOM     67  C   UNL     1      28.395  20.305  21.937  1.00  0.00     0.048 A 
ATOM     68  C   UNL     1      28.846  19.078  19.505  1.00  0.00     0.113 A 
ATOM     69  C   UNL     1      28.649  18.947  21.844  1.00  0.00     0.113 A 
ATOM     70  N   UNL     1      28.866  18.367  20.657  1.00  0.00    -0.265 NA
ENDBRANCH  63  65
ENDBRANCH  59  60
ENDBRANCH  58  59
ENDBRANCH  55  58
ENDBRANCH  53  54
ENDBRANCH  50  53
ENDBRANCH  47  50
ENDBRANCH   5  47
BRANCH   4  71
ATOM     71  N   UNL     1      21.802  26.585  26.658  1.00  0.00    -0.348 N 
ATOM     72  C   UNL     1      21.289  27.309  27.756  1.00  0.00     0.217 C 
ATOM     73  H   UNL     1      22.264  25.682  26.874  1.00  0.00     0.163 HD
ATOM     74  C   UNL     1      21.423  26.771  29.118  1.00  0.00     0.114 C 
ATOM     75  O   UNL     1      20.720  28.403  27.573  1.00  0.00    -0.275 OA
ENDBRANCH   4  71
TORSDOF 30
