REMARK VINA RESULT:    -5.544      1.849      2.535
REMARK INTER + INTRA:         -21.008
REMARK INTER:                 -12.227
REMARK INTRA:                  -8.781
REMARK UNBOUND:                -6.390
REMARK SMILES CCOC(=O)Cn1cc(COC(=O)NC[C@@H](O)C(O)[C@@H]2O[C@@](OC[C@H]3O[C@@H](O[C@H]4[C@H](O)[C@@H](O)[C@H](OCCN=[N+]=[N-])O[C@@H]4CO)[C@H](O)[C@@H](O)[C@H]3O)(C(=O)O)C[C@H](O)[C@H]2NC(C)=O)nn1
REMARK SMILES IDX 18 1 20 2 22 3 54 4 21 5 55 6 57 7 23 8 24 9 25 10 27 11
REMARK SMILES IDX 26 12 45 13 47 14 49 15 28 16 29 17 42 18 41 19 34 20 30 21
REMARK SMILES IDX 32 22 43 23 44 24 35 26 36 27 37 28 38 29 39 30 40 31 31 32
REMARK SMILES IDX 33 34 46 36 48 38 50 40 51 42 52 43 53 44 56 46 58 48 59 49
REMARK SMILES IDX 60 51 61 52 19 53 16 55 17 56 15 58 14 59 12 60 13 62 11 63
REMARK SMILES IDX 10 64 9 65 8 66 62 67 7 68 63 69 6 70 4 71 5 72 3 73 2 74
REMARK SMILES IDX 1 75
REMARK H PARENT 44 25 31 33 33 35 46 37 48 39 50 41 53 45 56 47 58 50 19 54
REMARK H PARENT 17 57 14 61
REMARK Flexibility Score: inf
ROOT
ATOM      1  C   UNL     1      21.138  27.529  20.500  1.00  0.00     0.176 C 
ENDROOT
BRANCH   1   2
ATOM      2  C   UNL     1      21.201  26.491  21.586  1.00  0.00     0.178 C 
ATOM      3  C   UNL     1      21.949  26.192  23.782  1.00  0.00     0.272 C 
ATOM      4  C   UNL     1      21.706  24.758  23.456  1.00  0.00     0.113 C 
ATOM      5  O   UNL     1      21.380  27.056  22.821  1.00  0.00    -0.332 OA
ATOM      6  C   UNL     1      22.213  24.342  22.112  1.00  0.00     0.145 C 
ATOM      7  C   UNL     1      22.379  25.590  21.261  1.00  0.00     0.142 C 
BRANCH   3   8
ATOM      8  O   UNL     1      23.268  26.545  23.965  1.00  0.00    -0.338 OA
BRANCH   8   9
ATOM      9  C   UNL     1      24.087  25.674  24.598  1.00  0.00     0.199 C 
BRANCH   9  10
ATOM     10  C   UNL     1      24.858  26.444  25.688  1.00  0.00     0.179 C 
ATOM     11  C   UNL     1      24.728  28.280  27.100  1.00  0.00     0.282 C 
ATOM     12  O   UNL     1      24.270  27.635  25.972  1.00  0.00    -0.341 OA
ATOM     13  C   UNL     1      24.749  27.418  28.326  1.00  0.00     0.202 C 
ATOM     14  C   UNL     1      25.692  26.276  28.043  1.00  0.00     0.179 C 
ATOM     15  C   UNL     1      25.158  25.550  26.854  1.00  0.00     0.177 C 
BRANCH  11  16
ATOM     16  O   UNL     1      24.018  29.432  27.391  1.00  0.00    -0.341 OA
BRANCH  16  17
ATOM     17  C   UNL     1      23.033  29.760  26.495  1.00  0.00     0.184 C 
ATOM     18  C   UNL     1      23.314  31.037  25.733  1.00  0.00     0.178 C 
ATOM     19  O   UNL     1      22.456  32.059  26.113  1.00  0.00    -0.341 OA
ATOM     20  C   UNL     1      21.115  31.783  25.760  1.00  0.00     0.281 C 
ATOM     21  C   UNL     1      21.707  29.925  27.236  1.00  0.00     0.180 C 
ATOM     22  C   UNL     1      20.702  30.417  26.206  1.00  0.00     0.202 C 
BRANCH  18  23
ATOM     23  C   UNL     1      23.316  30.766  24.250  1.00  0.00     0.191 C 
BRANCH  23  24
ATOM     24  O   UNL     1      23.109  29.398  23.991  1.00  0.00    -0.394 OA
ATOM     25  H   UNL     1      23.882  28.864  24.261  1.00  0.00     0.210 HD
ENDBRANCH  23  24
ENDBRANCH  18  23
BRANCH  20  26
ATOM     26  O   UNL     1      20.916  31.985  24.419  1.00  0.00    -0.350 OA
BRANCH  26  27
ATOM     27  C   UNL     1      20.220  33.064  23.990  1.00  0.00     0.169 C 
BRANCH  27  28
ATOM     28  C   UNL     1      18.975  33.460  24.692  1.00  0.00     0.119 C 
BRANCH  28  29
ATOM     29  N   UNL     1      17.747  32.933  24.203  1.00  0.00    -0.092 NA
ATOM     30  N   UNL     1      17.514  31.707  24.225  1.00  0.00     0.001 N 
ATOM     31  N   UNL     1      17.407  30.504  24.521  1.00  0.00    -0.003 NA
ENDBRANCH  28  29
ENDBRANCH  27  28
ENDBRANCH  26  27
ENDBRANCH  20  26
BRANCH  21  32
ATOM     32  O   UNL     1      21.304  28.684  27.737  1.00  0.00    -0.387 OA
ATOM     33  H   UNL     1      20.325  28.770  27.959  1.00  0.00     0.211 HD
ENDBRANCH  21  32
BRANCH  22  34
ATOM     34  O   UNL     1      19.420  30.386  26.762  1.00  0.00    -0.385 OA
ATOM     35  H   UNL     1      19.121  31.262  27.110  1.00  0.00     0.211 HD
ENDBRANCH  22  34
ENDBRANCH  16  17
ENDBRANCH  11  16
BRANCH  13  36
ATOM     36  O   UNL     1      25.216  28.175  29.394  1.00  0.00    -0.385 OA
ATOM     37  H   UNL     1      24.880  29.083  29.441  1.00  0.00     0.211 HD
ENDBRANCH  13  36
BRANCH  14  38
ATOM     38  O   UNL     1      25.667  25.413  29.162  1.00  0.00    -0.387 OA
ATOM     39  H   UNL     1      25.388  24.504  28.887  1.00  0.00     0.211 HD
ENDBRANCH  14  38
BRANCH  15  40
ATOM     40  O   UNL     1      24.005  24.846  27.273  1.00  0.00    -0.387 OA
ATOM     41  H   UNL     1      23.308  25.099  26.607  1.00  0.00     0.211 HD
ENDBRANCH  15  40
ENDBRANCH   9  10
ENDBRANCH   8   9
ENDBRANCH   3   8
BRANCH   3  42
ATOM     42  C   UNL     1      21.189  26.502  25.017  1.00  0.00     0.364 C 
ATOM     43  O   UNL     1      20.090  27.095  24.932  1.00  0.00    -0.246 OA
BRANCH  42  44
ATOM     44  O   UNL     1      21.675  26.153  26.245  1.00  0.00    -0.477 OA
ATOM     45  H   UNL     1      22.613  25.782  26.374  1.00  0.00     0.296 HD
ENDBRANCH  42  44
ENDBRANCH   3  42
BRANCH   6  46
ATOM     46  O   UNL     1      23.350  23.570  22.131  1.00  0.00    -0.391 OA
ATOM     47  H   UNL     1      23.087  22.619  22.283  1.00  0.00     0.211 HD
ENDBRANCH   6  46
BRANCH   7  48
ATOM     48  N   UNL     1      22.409  25.248  19.846  1.00  0.00    -0.348 N 
ATOM     49  C   UNL     1      23.620  25.007  19.155  1.00  0.00     0.217 C 
ATOM     50  H   UNL     1      21.514  25.176  19.333  1.00  0.00     0.163 HD
ATOM     51  C   UNL     1      23.665  24.656  17.704  1.00  0.00     0.114 C 
ATOM     52  O   UNL     1      24.699  25.094  19.802  1.00  0.00    -0.275 OA
ENDBRANCH   7  48
ENDBRANCH   1   2
BRANCH   1  53
ATOM     53  O   UNL     1      19.854  28.016  20.364  1.00  0.00    -0.388 OA
ATOM     54  H   UNL     1      19.317  27.961  21.207  1.00  0.00     0.211 HD
ENDBRANCH   1  53
BRANCH   1  55
ATOM     55  C   UNL     1      22.081  28.696  20.737  1.00  0.00     0.165 C 
BRANCH  55  56
ATOM     56  O   UNL     1      21.451  29.797  21.267  1.00  0.00    -0.388 OA
ATOM     57  H   UNL     1      21.922  30.201  22.032  1.00  0.00     0.211 HD
ENDBRANCH  55  56
BRANCH  55  58
ATOM     58  C   UNL     1      22.766  29.018  19.452  1.00  0.00     0.154 C 
BRANCH  58  59
ATOM     59  N   UNL     1      22.075  29.940  18.622  1.00  0.00    -0.319 N 
ATOM     60  C   UNL     1      21.321  29.604  17.466  1.00  0.00     0.407 C 
ATOM     61  H   UNL     1      22.099  30.995  18.852  1.00  0.00     0.167 HD
ATOM     62  O   UNL     1      21.197  28.430  17.079  1.00  0.00    -0.225 OA
BRANCH  60  63
ATOM     63  O   UNL     1      20.690  30.629  16.739  1.00  0.00    -0.443 OA
BRANCH  63  64
ATOM     64  C   UNL     1      19.978  31.630  17.387  1.00  0.00     0.294 C 
BRANCH  64  65
ATOM     65  C   UNL     1      19.085  31.141  18.455  1.00  0.00     0.120 A 
ATOM     66  C   UNL     1      17.774  30.733  18.304  1.00  0.00     0.139 A 
ATOM     67  N   UNL     1      19.351  31.008  19.760  1.00  0.00    -0.132 NA
ATOM     68  N   UNL     1      17.278  30.365  19.510  1.00  0.00    -0.241 N 
ATOM     69  N   UNL     1      18.261  30.544  20.366  1.00  0.00    -0.066 NA
BRANCH  68  70
ATOM     70  C   UNL     1      15.921  29.885  19.737  1.00  0.00     0.268 C 
BRANCH  70  71
ATOM     71  C   UNL     1      16.011  28.734  20.706  1.00  0.00     0.327 C 
ATOM     72  O   UNL     1      16.337  27.587  20.344  1.00  0.00    -0.250 OA
BRANCH  71  73
ATOM     73  O   UNL     1      15.733  28.910  22.050  1.00  0.00    -0.465 OA
BRANCH  73  74
ATOM     74  C   UNL     1      14.542  29.440  22.555  1.00  0.00     0.229 C 
ATOM     75  C   UNL     1      13.326  29.009  21.771  1.00  0.00     0.049 C 
ENDBRANCH  73  74
ENDBRANCH  71  73
ENDBRANCH  70  71
ENDBRANCH  68  70
ENDBRANCH  64  65
ENDBRANCH  63  64
ENDBRANCH  60  63
ENDBRANCH  58  59
ENDBRANCH  55  58
ENDBRANCH   1  55
TORSDOF 33
