REMARK VINA RESULT:    -6.354      3.467      5.500
REMARK INTER + INTRA:         -23.027
REMARK INTER:                 -16.673
REMARK INTRA:                  -6.354
REMARK UNBOUND:                -7.387
REMARK SMILES CC(=O)N[C@@H]1[C@@H](O)C[C@](OC[C@H]2O[C@@H](O[C@H]3[C@H](O)[C@@H](O)[C@H](OCCN=[N+]=[N-])O[C@@H]3CO)[C@H](O)[C@@H](O)[C@H]2O)(C(=O)O)O[C@H]1C(O)[C@H](O)CNC(=O)OCc1cn(C23CC4CC(CC(C4)C2)C3)nn1
REMARK SMILES IDX 9 1 8 2 6 3 5 4 42 5 41 6 10 7 11 8 12 9 14 10 13 11 32 12
REMARK SMILES IDX 34 13 36 14 15 15 16 16 29 17 28 18 21 19 17 20 19 21 30 22
REMARK SMILES IDX 31 23 22 25 23 26 24 27 25 28 26 29 27 30 18 31 20 33 33 35
REMARK SMILES IDX 35 37 37 39 38 41 39 42 40 43 7 45 43 47 44 48 45 50 46 51
REMARK SMILES IDX 47 53 48 54 49 55 50 57 51 58 52 59 53 60 54 61 67 62 55 63
REMARK SMILES IDX 66 64 56 65 65 66 64 67 57 68 60 69 62 70 58 71 59 72 61 73
REMARK SMILES IDX 63 74 4 75 2 76 1 78 3 79
REMARK H PARENT 31 24 18 32 20 34 33 36 35 38 37 40 40 44 7 46 44 49 46 52
REMARK H PARENT 48 56 4 77
REMARK Flexibility Score: inf
ROOT
ATOM      1  C   UNL     1      23.037  24.793  22.614  1.00  0.00     0.272 C 
ATOM      2  C   UNL     1      24.191  23.855  22.522  1.00  0.00     0.113 C 
ATOM      3  C   UNL     1      25.485  24.562  22.871  1.00  0.00     0.145 C 
ATOM      4  C   UNL     1      25.789  25.454  21.659  1.00  0.00     0.142 C 
ATOM      5  C   UNL     1      24.495  26.136  21.331  1.00  0.00     0.178 C 
ATOM      6  O   UNL     1      23.545  26.110  22.321  1.00  0.00    -0.332 OA
ENDROOT
BRANCH   1   7
ATOM      7  O   UNL     1      22.445  24.933  23.792  1.00  0.00    -0.338 OA
BRANCH   7   8
ATOM      8  C   UNL     1      21.217  25.276  24.089  1.00  0.00     0.199 C 
BRANCH   8   9
ATOM      9  C   UNL     1      20.862  26.308  25.107  1.00  0.00     0.179 C 
ATOM     10  C   UNL     1      21.323  27.196  27.119  1.00  0.00     0.282 C 
ATOM     11  O   UNL     1      21.760  26.193  26.229  1.00  0.00    -0.341 OA
ATOM     12  C   UNL     1      22.072  28.429  26.732  1.00  0.00     0.202 C 
ATOM     13  C   UNL     1      22.189  28.435  25.220  1.00  0.00     0.179 C 
ATOM     14  C   UNL     1      21.026  27.726  24.569  1.00  0.00     0.177 C 
BRANCH  10  15
ATOM     15  O   UNL     1      21.498  26.801  28.440  1.00  0.00    -0.341 OA
BRANCH  15  16
ATOM     16  C   UNL     1      22.830  26.739  28.726  1.00  0.00     0.184 C 
ATOM     17  C   UNL     1      23.430  25.391  28.904  1.00  0.00     0.178 C 
ATOM     18  O   UNL     1      24.825  25.561  28.748  1.00  0.00    -0.341 OA
ATOM     19  C   UNL     1      25.373  26.245  29.858  1.00  0.00     0.281 C 
ATOM     20  C   UNL     1      23.182  27.505  30.005  1.00  0.00     0.180 C 
ATOM     21  C   UNL     1      24.666  27.531  30.122  1.00  0.00     0.202 C 
BRANCH  17  22
ATOM     22  C   UNL     1      22.914  24.307  28.035  1.00  0.00     0.191 C 
BRANCH  22  23
ATOM     23  O   UNL     1      23.778  24.200  26.933  1.00  0.00    -0.394 OA
ATOM     24  H   UNL     1      23.337  23.751  26.166  1.00  0.00     0.210 HD
ENDBRANCH  22  23
ENDBRANCH  17  22
BRANCH  19  25
ATOM     25  O   UNL     1      26.672  26.521  29.494  1.00  0.00    -0.350 OA
BRANCH  25  26
ATOM     26  C   UNL     1      27.589  25.564  29.727  1.00  0.00     0.169 C 
BRANCH  26  27
ATOM     27  C   UNL     1      28.457  25.861  30.908  1.00  0.00     0.119 C 
BRANCH  27  28
ATOM     28  N   UNL     1      27.970  25.146  32.093  1.00  0.00    -0.092 NA
ATOM     29  N   UNL     1      27.174  25.731  32.817  1.00  0.00     0.001 N 
ATOM     30  N   UNL     1      26.580  26.243  33.790  1.00  0.00    -0.003 NA
ENDBRANCH  27  28
ENDBRANCH  26  27
ENDBRANCH  25  26
ENDBRANCH  19  25
BRANCH  20  31
ATOM     31  O   UNL     1      22.713  28.818  29.955  1.00  0.00    -0.387 OA
ATOM     32  H   UNL     1      21.742  28.803  29.810  1.00  0.00     0.211 HD
ENDBRANCH  20  31
BRANCH  21  33
ATOM     33  O   UNL     1      24.966  27.958  31.414  1.00  0.00    -0.385 OA
ATOM     34  H   UNL     1      24.183  28.359  31.839  1.00  0.00     0.211 HD
ENDBRANCH  21  33
ENDBRANCH  15  16
ENDBRANCH  10  15
BRANCH  12  35
ATOM     35  O   UNL     1      21.565  29.609  27.215  1.00  0.00    -0.385 OA
ATOM     36  H   UNL     1      20.632  29.487  27.512  1.00  0.00     0.211 HD
ENDBRANCH  12  35
BRANCH  13  37
ATOM     37  O   UNL     1      23.405  27.930  24.776  1.00  0.00    -0.387 OA
ATOM     38  H   UNL     1      23.425  26.933  24.944  1.00  0.00     0.211 HD
ENDBRANCH  13  37
BRANCH  14  39
ATOM     39  O   UNL     1      21.291  27.632  23.210  1.00  0.00    -0.387 OA
ATOM     40  H   UNL     1      20.799  26.878  22.790  1.00  0.00     0.211 HD
ENDBRANCH  14  39
ENDBRANCH   8   9
ENDBRANCH   7   8
ENDBRANCH   1   7
BRANCH   1  41
ATOM     41  C   UNL     1      22.113  24.566  21.490  1.00  0.00     0.364 C 
ATOM     42  O   UNL     1      21.166  25.292  21.160  1.00  0.00    -0.246 OA
BRANCH  41  43
ATOM     43  O   UNL     1      22.364  23.383  20.735  1.00  0.00    -0.477 OA
ATOM     44  H   UNL     1      21.740  22.612  20.843  1.00  0.00     0.296 HD
ENDBRANCH  41  43
ENDBRANCH   1  41
BRANCH   3  45
ATOM     45  O   UNL     1      25.275  25.402  23.957  1.00  0.00    -0.391 OA
ATOM     46  H   UNL     1      25.763  26.244  23.774  1.00  0.00     0.211 HD
ENDBRANCH   3  45
BRANCH   5  47
ATOM     47  C   UNL     1      24.725  27.678  21.095  1.00  0.00     0.176 C 
BRANCH  47  48
ATOM     48  O   UNL     1      23.887  28.222  22.090  1.00  0.00    -0.388 OA
ATOM     49  H   UNL     1      23.083  28.537  21.607  1.00  0.00     0.211 HD
ENDBRANCH  47  48
BRANCH  47  50
ATOM     50  C   UNL     1      24.244  28.063  19.769  1.00  0.00     0.165 C 
BRANCH  50  51
ATOM     51  O   UNL     1      24.293  29.439  19.482  1.00  0.00    -0.388 OA
ATOM     52  H   UNL     1      24.876  29.892  20.162  1.00  0.00     0.211 HD
ENDBRANCH  50  51
BRANCH  50  53
ATOM     53  C   UNL     1      22.936  27.532  19.324  1.00  0.00     0.154 C 
BRANCH  53  54
ATOM     54  N   UNL     1      21.825  27.952  20.096  1.00  0.00    -0.319 N 
ATOM     55  C   UNL     1      20.487  28.074  19.694  1.00  0.00     0.407 C 
ATOM     56  H   UNL     1      22.055  28.213  21.136  1.00  0.00     0.167 HD
ATOM     57  O   UNL     1      20.142  27.820  18.529  1.00  0.00    -0.225 OA
BRANCH  55  58
ATOM     58  O   UNL     1      19.530  28.495  20.649  1.00  0.00    -0.443 OA
BRANCH  58  59
ATOM     59  C   UNL     1      18.648  29.526  20.283  1.00  0.00     0.294 C 
BRANCH  59  60
ATOM     60  C   UNL     1      17.298  29.221  20.783  1.00  0.00     0.120 A 
ATOM     61  C   UNL     1      16.552  30.030  21.600  1.00  0.00     0.138 A 
ATOM     62  N   UNL     1      16.549  28.128  20.547  1.00  0.00    -0.132 NA
ATOM     63  N   UNL     1      15.391  29.411  21.830  1.00  0.00    -0.246 N 
ATOM     64  N   UNL     1      15.418  28.264  21.181  1.00  0.00    -0.066 NA
BRANCH  63  65
ATOM     65  C   UNL     1      14.340  29.970  22.657  1.00  0.00     0.065 C 
ATOM     66  C   UNL     1      13.026  29.418  22.202  1.00  0.00     0.034 C 
ATOM     67  C   UNL     1      14.628  29.696  24.119  1.00  0.00     0.034 C 
ATOM     68  C   UNL     1      14.303  31.478  22.486  1.00  0.00     0.034 C 
ATOM     69  C   UNL     1      11.904  29.947  23.059  1.00  0.00    -0.008 C 
ATOM     70  C   UNL     1      13.471  30.172  24.947  1.00  0.00    -0.008 C 
ATOM     71  C   UNL     1      13.198  32.008  23.369  1.00  0.00    -0.008 C 
ATOM     72  C   UNL     1      11.869  31.451  22.941  1.00  0.00     0.007 C 
ATOM     73  C   UNL     1      12.189  29.549  24.489  1.00  0.00     0.007 C 
ATOM     74  C   UNL     1      13.405  31.687  24.823  1.00  0.00     0.007 C 
ENDBRANCH  63  65
ENDBRANCH  59  60
ENDBRANCH  58  59
ENDBRANCH  55  58
ENDBRANCH  53  54
ENDBRANCH  50  53
ENDBRANCH  47  50
ENDBRANCH   5  47
BRANCH   4  75
ATOM     75  N   UNL     1      26.194  24.581  20.552  1.00  0.00    -0.348 N 
ATOM     76  C   UNL     1      27.551  24.195  20.375  1.00  0.00     0.217 C 
ATOM     77  H   UNL     1      25.477  24.231  19.868  1.00  0.00     0.163 HD
ATOM     78  C   UNL     1      27.947  23.303  19.226  1.00  0.00     0.114 C 
ATOM     79  O   UNL     1      28.397  24.615  21.193  1.00  0.00    -0.275 OA
ENDBRANCH   4  75
TORSDOF 30
