REMARK VINA RESULT:    -5.922      9.593     14.745
REMARK INTER + INTRA:         -20.541
REMARK INTER:                 -13.771
REMARK INTRA:                  -6.770
REMARK UNBOUND:                -5.964
REMARK SMILES CC(=O)N[C@@H]1[C@@H](O)C[C@](OC[C@H]2O[C@@H](O[C@H]3[C@H](O)[C@@H](O)[C@H](OCCN=[N+]=[N-])O[C@@H]3CO)[C@H](O)[C@@H](O)[C@H]2O)(C(=O)O)O[C@H]1C(O)[C@H](O)CNC(=O)OCc1cn(C2CCN(C)CC2)nn1
REMARK SMILES IDX 9 1 8 2 6 3 5 4 42 5 41 6 10 7 11 8 12 9 14 10 13 11 32 12
REMARK SMILES IDX 34 13 36 14 15 15 16 16 29 17 28 18 21 19 17 20 19 21 30 22
REMARK SMILES IDX 31 23 22 25 23 26 24 27 25 28 26 29 27 30 18 31 20 33 33 35
REMARK SMILES IDX 35 37 37 39 38 41 39 42 40 43 7 45 43 47 44 48 45 50 46 51
REMARK SMILES IDX 47 53 48 54 49 55 50 57 51 58 52 59 53 60 54 61 64 62 55 63
REMARK SMILES IDX 63 64 56 65 57 66 62 67 58 68 61 69 59 70 60 71 4 72 2 73
REMARK SMILES IDX 1 75 3 76
REMARK H PARENT 31 24 18 32 20 34 33 36 35 38 37 40 40 44 7 46 44 49 46 52
REMARK H PARENT 48 56 4 74
REMARK Flexibility Score: inf
ROOT
ATOM      1  C   UNL     1      14.242  30.035  20.231  1.00  0.00     0.272 C 
ATOM      2  C   UNL     1      12.938  30.789  20.421  1.00  0.00     0.113 C 
ATOM      3  C   UNL     1      12.739  31.431  21.730  1.00  0.00     0.145 C 
ATOM      4  C   UNL     1      13.979  32.063  22.324  1.00  0.00     0.142 C 
ATOM      5  C   UNL     1      15.240  31.518  21.774  1.00  0.00     0.178 C 
ATOM      6  O   UNL     1      15.276  30.968  20.566  1.00  0.00    -0.332 OA
ENDROOT
BRANCH   1   7
ATOM      7  O   UNL     1      14.437  29.853  18.915  1.00  0.00    -0.338 OA
BRANCH   7   8
ATOM      8  C   UNL     1      13.694  30.027  17.876  1.00  0.00     0.199 C 
BRANCH   8   9
ATOM      9  C   UNL     1      14.088  30.842  16.683  1.00  0.00     0.179 C 
ATOM     10  C   UNL     1      15.626  29.553  15.388  1.00  0.00     0.282 C 
ATOM     11  O   UNL     1      15.361  30.464  16.354  1.00  0.00    -0.341 OA
ATOM     12  C   UNL     1      14.442  28.953  14.766  1.00  0.00     0.202 C 
ATOM     13  C   UNL     1      13.565  30.134  14.314  1.00  0.00     0.179 C 
ATOM     14  C   UNL     1      13.106  30.799  15.561  1.00  0.00     0.177 C 
BRANCH  10  15
ATOM     15  O   UNL     1      16.563  28.706  15.965  1.00  0.00    -0.341 OA
BRANCH  15  16
ATOM     16  C   UNL     1      17.222  29.146  17.038  1.00  0.00     0.184 C 
ATOM     17  C   UNL     1      18.645  29.449  16.718  1.00  0.00     0.178 C 
ATOM     18  O   UNL     1      19.159  30.281  17.719  1.00  0.00    -0.341 OA
ATOM     19  C   UNL     1      19.244  29.588  18.904  1.00  0.00     0.281 C 
ATOM     20  C   UNL     1      17.314  28.120  18.179  1.00  0.00     0.180 C 
ATOM     21  C   UNL     1      17.982  28.881  19.320  1.00  0.00     0.202 C 
BRANCH  17  22
ATOM     22  C   UNL     1      18.891  29.984  15.350  1.00  0.00     0.191 C 
BRANCH  22  23
ATOM     23  O   UNL     1      19.131  28.921  14.489  1.00  0.00    -0.394 OA
ATOM     24  H   UNL     1      19.358  28.090  14.979  1.00  0.00     0.210 HD
ENDBRANCH  22  23
ENDBRANCH  17  22
BRANCH  19  25
ATOM     25  O   UNL     1      19.497  30.540  19.902  1.00  0.00    -0.350 OA
BRANCH  25  26
ATOM     26  C   UNL     1      20.700  30.378  20.539  1.00  0.00     0.169 C 
BRANCH  26  27
ATOM     27  C   UNL     1      20.571  29.888  21.967  1.00  0.00     0.119 C 
BRANCH  27  28
ATOM     28  N   UNL     1      20.907  28.480  22.066  1.00  0.00    -0.092 NA
ATOM     29  N   UNL     1      21.286  27.849  21.082  1.00  0.00     0.001 N 
ATOM     30  N   UNL     1      21.223  27.028  20.164  1.00  0.00    -0.003 NA
ENDBRANCH  27  28
ENDBRANCH  26  27
ENDBRANCH  25  26
ENDBRANCH  19  25
BRANCH  20  31
ATOM     31  O   UNL     1      16.090  27.715  18.640  1.00  0.00    -0.387 OA
ATOM     32  H   UNL     1      16.216  26.997  19.298  1.00  0.00     0.211 HD
ENDBRANCH  20  31
BRANCH  21  33
ATOM     33  O   UNL     1      18.238  28.016  20.354  1.00  0.00    -0.385 OA
ATOM     34  H   UNL     1      17.846  28.300  21.196  1.00  0.00     0.211 HD
ENDBRANCH  21  33
ENDBRANCH  15  16
ENDBRANCH  10  15
BRANCH  12  35
ATOM     35  O   UNL     1      14.682  28.264  13.579  1.00  0.00    -0.385 OA
ATOM     36  H   UNL     1      14.107  28.617  12.855  1.00  0.00     0.211 HD
ENDBRANCH  12  35
BRANCH  13  37
ATOM     37  O   UNL     1      12.530  29.742  13.502  1.00  0.00    -0.387 OA
ATOM     38  H   UNL     1      11.980  29.092  14.008  1.00  0.00     0.211 HD
ENDBRANCH  13  37
BRANCH  14  39
ATOM     39  O   UNL     1      11.949  30.160  15.999  1.00  0.00    -0.387 OA
ATOM     40  H   UNL     1      11.214  30.196  15.345  1.00  0.00     0.211 HD
ENDBRANCH  14  39
ENDBRANCH   8   9
ENDBRANCH   7   8
ENDBRANCH   1   7
BRANCH   1  41
ATOM     41  C   UNL     1      14.294  28.930  21.176  1.00  0.00     0.364 C 
ATOM     42  O   UNL     1      15.455  28.387  21.379  1.00  0.00    -0.246 OA
BRANCH  41  43
ATOM     43  O   UNL     1      13.306  28.335  21.914  1.00  0.00    -0.477 OA
ATOM     44  H   UNL     1      12.311  28.395  21.698  1.00  0.00     0.296 HD
ENDBRANCH  41  43
ENDBRANCH   1  41
BRANCH   3  45
ATOM     45  O   UNL     1      11.739  32.440  21.597  1.00  0.00    -0.391 OA
ATOM     46  H   UNL     1      11.779  32.857  20.712  1.00  0.00     0.211 HD
ENDBRANCH   3  45
BRANCH   5  47
ATOM     47  C   UNL     1      16.366  32.588  21.817  1.00  0.00     0.176 C 
BRANCH  47  48
ATOM     48  O   UNL     1      16.570  33.084  20.536  1.00  0.00    -0.388 OA
ATOM     49  H   UNL     1      17.494  33.369  20.377  1.00  0.00     0.211 HD
ENDBRANCH  47  48
BRANCH  47  50
ATOM     50  C   UNL     1      17.588  32.031  22.389  1.00  0.00     0.165 C 
BRANCH  50  51
ATOM     51  O   UNL     1      17.456  30.592  22.286  1.00  0.00    -0.388 OA
ATOM     52  H   UNL     1      16.822  30.381  21.559  1.00  0.00     0.211 HD
ENDBRANCH  50  51
BRANCH  50  53
ATOM     53  C   UNL     1      17.980  32.328  23.772  1.00  0.00     0.154 C 
BRANCH  53  54
ATOM     54  N   UNL     1      18.315  31.338  24.707  1.00  0.00    -0.319 N 
ATOM     55  C   UNL     1      19.504  31.243  25.470  1.00  0.00     0.407 C 
ATOM     56  H   UNL     1      17.594  30.554  24.870  1.00  0.00     0.167 HD
ATOM     57  O   UNL     1      20.396  32.111  25.397  1.00  0.00    -0.225 OA
BRANCH  55  58
ATOM     58  O   UNL     1      19.664  30.131  26.328  1.00  0.00    -0.443 OA
BRANCH  58  59
ATOM     59  C   UNL     1      20.963  29.716  26.663  1.00  0.00     0.294 C 
BRANCH  59  60
ATOM     60  C   UNL     1      21.267  28.466  25.925  1.00  0.00     0.120 A 
ATOM     61  C   UNL     1      22.539  28.060  25.485  1.00  0.00     0.138 A 
ATOM     62  N   UNL     1      20.460  27.472  25.527  1.00  0.00    -0.132 NA
ATOM     63  N   UNL     1      22.445  26.874  24.860  1.00  0.00    -0.249 N 
ATOM     64  N   UNL     1      21.181  26.543  24.900  1.00  0.00    -0.067 NA
BRANCH  63  65
ATOM     65  C   UNL     1      23.531  26.127  24.270  1.00  0.00     0.111 C 
ATOM     66  C   UNL     1      23.004  24.768  23.904  1.00  0.00     0.043 C 
ATOM     67  C   UNL     1      24.080  26.794  23.039  1.00  0.00     0.043 C 
ATOM     68  C   UNL     1      22.766  24.710  22.413  1.00  0.00     0.086 C 
ATOM     69  C   UNL     1      24.855  25.857  22.153  1.00  0.00     0.086 C 
ATOM     70  N   UNL     1      24.073  24.705  21.757  1.00  0.00    -0.306 NA
ATOM     71  C   UNL     1      24.766  23.496  22.168  1.00  0.00     0.105 C 
ENDBRANCH  63  65
ENDBRANCH  59  60
ENDBRANCH  58  59
ENDBRANCH  55  58
ENDBRANCH  53  54
ENDBRANCH  50  53
ENDBRANCH  47  50
ENDBRANCH   5  47
BRANCH   4  72
ATOM     72  N   UNL     1      13.965  32.008  23.773  1.00  0.00    -0.348 N 
ATOM     73  C   UNL     1      13.447  33.104  24.501  1.00  0.00     0.217 C 
ATOM     74  H   UNL     1      14.327  31.180  24.305  1.00  0.00     0.163 HD
ATOM     75  C   UNL     1      13.412  33.099  25.999  1.00  0.00     0.114 C 
ATOM     76  O   UNL     1      12.998  34.121  23.882  1.00  0.00    -0.275 OA
ENDBRANCH   4  72
TORSDOF 30
