REMARK VINA RESULT:    -5.168      6.228     11.130
REMARK INTER + INTRA:         -19.879
REMARK INTER:                 -12.393
REMARK INTRA:                  -7.485
REMARK UNBOUND:                -6.855
REMARK SMILES CC(=O)N[C@@H]1[C@@H](O)C[C@](OC[C@H]2O[C@@H](O[C@H]3[C@H](O)[C@@H](O)[C@H](OCCN=[N+]=[N-])O[C@@H]3CO)[C@H](O)[C@@H](O)[C@H]2O)(C(=O)O)O[C@H]1C(O)[C@H](O)CNC(=O)OCc1cn(Cc2ccsc2)nn1
REMARK SMILES IDX 9 1 8 2 6 3 5 4 42 5 41 6 10 7 11 8 12 9 14 10 13 11 32 12
REMARK SMILES IDX 34 13 36 14 15 15 16 16 29 17 28 18 21 19 17 20 19 21 30 22
REMARK SMILES IDX 31 23 22 25 23 26 24 27 25 28 26 29 27 30 18 31 20 33 33 35
REMARK SMILES IDX 35 37 37 39 38 41 39 42 40 43 7 45 43 47 44 48 45 50 46 51
REMARK SMILES IDX 47 53 48 54 49 55 50 57 51 58 52 59 53 60 54 61 63 62 55 63
REMARK SMILES IDX 62 64 56 65 57 66 58 67 61 68 59 69 60 70 4 71 2 72 1 74
REMARK SMILES IDX 3 75
REMARK H PARENT 31 24 18 32 20 34 33 36 35 38 37 40 40 44 7 46 44 49 46 52
REMARK H PARENT 48 56 4 73
REMARK Flexibility Score: inf
ROOT
ATOM      1  C   UNL     1      12.884  32.206  15.157  1.00  0.00     0.272 C 
ATOM      2  C   UNL     1      11.635  31.395  15.333  1.00  0.00     0.113 C 
ATOM      3  C   UNL     1      11.320  30.462  14.195  1.00  0.00     0.145 C 
ATOM      4  C   UNL     1      12.508  29.745  13.682  1.00  0.00     0.142 C 
ATOM      5  C   UNL     1      13.821  30.480  13.867  1.00  0.00     0.178 C 
ATOM      6  O   UNL     1      13.936  31.221  14.988  1.00  0.00    -0.332 OA
ENDROOT
BRANCH   1   7
ATOM      7  O   UNL     1      13.232  32.771  16.332  1.00  0.00    -0.338 OA
BRANCH   7   8
ATOM      8  C   UNL     1      13.979  32.213  17.267  1.00  0.00     0.199 C 
BRANCH   8   9
ATOM      9  C   UNL     1      15.237  32.768  17.792  1.00  0.00     0.179 C 
ATOM     10  C   UNL     1      17.138  31.966  18.750  1.00  0.00     0.282 C 
ATOM     11  O   UNL     1      16.191  31.684  17.738  1.00  0.00    -0.341 OA
ATOM     12  C   UNL     1      17.655  33.362  18.685  1.00  0.00     0.202 C 
ATOM     13  C   UNL     1      17.229  34.176  17.517  1.00  0.00     0.179 C 
ATOM     14  C   UNL     1      15.909  33.803  16.905  1.00  0.00     0.177 C 
BRANCH  10  15
ATOM     15  O   UNL     1      18.119  31.009  18.684  1.00  0.00    -0.341 OA
BRANCH  15  16
ATOM     16  C   UNL     1      19.200  31.245  19.550  1.00  0.00     0.184 C 
ATOM     17  C   UNL     1      20.432  30.536  19.111  1.00  0.00     0.178 C 
ATOM     18  O   UNL     1      20.699  29.329  19.680  1.00  0.00    -0.341 OA
ATOM     19  C   UNL     1      19.709  28.854  20.558  1.00  0.00     0.281 C 
ATOM     20  C   UNL     1      18.819  31.060  20.985  1.00  0.00     0.180 C 
ATOM     21  C   UNL     1      19.588  29.900  21.632  1.00  0.00     0.202 C 
BRANCH  17  22
ATOM     22  C   UNL     1      21.676  31.403  19.223  1.00  0.00     0.191 C 
BRANCH  22  23
ATOM     23  O   UNL     1      21.926  31.913  17.950  1.00  0.00    -0.394 OA
ATOM     24  H   UNL     1      22.058  32.906  17.970  1.00  0.00     0.210 HD
ENDBRANCH  22  23
ENDBRANCH  17  22
BRANCH  19  25
ATOM     25  O   UNL     1      20.102  27.614  20.983  1.00  0.00    -0.350 OA
BRANCH  25  26
ATOM     26  C   UNL     1      21.437  27.532  21.329  1.00  0.00     0.169 C 
BRANCH  26  27
ATOM     27  C   UNL     1      21.855  26.269  22.008  1.00  0.00     0.119 C 
BRANCH  27  28
ATOM     28  N   UNL     1      21.048  26.011  23.170  1.00  0.00    -0.092 NA
ATOM     29  N   UNL     1      20.901  26.926  23.995  1.00  0.00     0.001 N 
ATOM     30  N   UNL     1      20.505  27.653  24.906  1.00  0.00    -0.003 NA
ENDBRANCH  27  28
ENDBRANCH  26  27
ENDBRANCH  25  26
ENDBRANCH  19  25
BRANCH  20  31
ATOM     31  O   UNL     1      18.915  32.202  21.751  1.00  0.00    -0.387 OA
ATOM     32  H   UNL     1      19.243  32.960  21.225  1.00  0.00     0.211 HD
ENDBRANCH  20  31
BRANCH  21  33
ATOM     33  O   UNL     1      18.975  29.430  22.765  1.00  0.00    -0.385 OA
ATOM     34  H   UNL     1      19.594  28.912  23.349  1.00  0.00     0.211 HD
ENDBRANCH  21  33
ENDBRANCH  15  16
ENDBRANCH  10  15
BRANCH  12  35
ATOM     35  O   UNL     1      17.440  34.051  19.907  1.00  0.00    -0.385 OA
ATOM     36  H   UNL     1      16.533  33.841  20.253  1.00  0.00     0.211 HD
ENDBRANCH  12  35
BRANCH  13  37
ATOM     37  O   UNL     1      18.198  34.051  16.501  1.00  0.00    -0.387 OA
ATOM     38  H   UNL     1      17.753  33.710  15.692  1.00  0.00     0.211 HD
ENDBRANCH  13  37
BRANCH  14  39
ATOM     39  O   UNL     1      16.107  33.141  15.668  1.00  0.00    -0.387 OA
ATOM     40  H   UNL     1      17.108  33.115  15.559  1.00  0.00     0.211 HD
ENDBRANCH  14  39
ENDBRANCH   8   9
ENDBRANCH   7   8
ENDBRANCH   1   7
BRANCH   1  41
ATOM     41  C   UNL     1      12.942  32.998  13.929  1.00  0.00     0.364 C 
ATOM     42  O   UNL     1      13.994  33.501  13.490  1.00  0.00    -0.246 OA
BRANCH  41  43
ATOM     43  O   UNL     1      11.799  33.252  13.149  1.00  0.00    -0.477 OA
ATOM     44  H   UNL     1      10.919  32.798  13.353  1.00  0.00     0.296 HD
ENDBRANCH  41  43
ENDBRANCH   1  41
BRANCH   3  45
ATOM     45  O   UNL     1      10.441  29.501  14.765  1.00  0.00    -0.391 OA
ATOM     46  H   UNL     1       9.979  28.993  14.040  1.00  0.00     0.211 HD
ENDBRANCH   3  45
BRANCH   5  47
ATOM     47  C   UNL     1      14.944  29.418  13.971  1.00  0.00     0.176 C 
BRANCH  47  48
ATOM     48  O   UNL     1      14.400  28.235  14.468  1.00  0.00    -0.388 OA
ATOM     49  H   UNL     1      14.812  28.013  15.333  1.00  0.00     0.211 HD
ENDBRANCH  47  48
BRANCH  47  50
ATOM     50  C   UNL     1      15.952  29.914  14.944  1.00  0.00     0.165 C 
BRANCH  50  51
ATOM     51  O   UNL     1      16.922  30.646  14.260  1.00  0.00    -0.388 OA
ATOM     52  H   UNL     1      17.181  31.453  14.767  1.00  0.00     0.211 HD
ENDBRANCH  50  51
BRANCH  50  53
ATOM     53  C   UNL     1      16.657  28.836  15.724  1.00  0.00     0.154 C 
BRANCH  53  54
ATOM     54  N   UNL     1      16.198  28.722  17.076  1.00  0.00    -0.319 N 
ATOM     55  C   UNL     1      16.897  28.107  18.122  1.00  0.00     0.407 C 
ATOM     56  H   UNL     1      15.245  29.140  17.303  1.00  0.00     0.167 HD
ATOM     57  O   UNL     1      18.018  27.606  17.893  1.00  0.00    -0.225 OA
BRANCH  55  58
ATOM     58  O   UNL     1      16.337  28.067  19.381  1.00  0.00    -0.443 OA
BRANCH  58  59
ATOM     59  C   UNL     1      15.132  28.686  19.727  1.00  0.00     0.294 C 
BRANCH  59  60
ATOM     60  C   UNL     1      15.133  28.980  21.174  1.00  0.00     0.120 A 
ATOM     61  C   UNL     1      14.048  29.186  21.967  1.00  0.00     0.138 A 
ATOM     62  N   UNL     1      16.230  29.088  21.938  1.00  0.00    -0.132 NA
ATOM     63  N   UNL     1      14.507  29.417  23.209  1.00  0.00    -0.248 N 
ATOM     64  N   UNL     1      15.823  29.356  23.182  1.00  0.00    -0.067 NA
BRANCH  63  65
ATOM     65  C   UNL     1      13.685  29.683  24.361  1.00  0.00     0.182 C 
BRANCH  65  66
ATOM     66  C   UNL     1      14.060  31.063  24.917  1.00  0.00    -0.016 A 
ATOM     67  C   UNL     1      13.787  32.198  24.306  1.00  0.00     0.017 A 
ATOM     68  C   UNL     1      14.728  31.096  26.139  1.00  0.00     0.070 A 
ATOM     69  C   UNL     1      14.148  33.415  24.852  1.00  0.00     0.065 A 
ATOM     70  S   UNL     1      14.964  32.865  26.398  1.00  0.00    -0.152 S 
ENDBRANCH  65  66
ENDBRANCH  63  65
ENDBRANCH  59  60
ENDBRANCH  58  59
ENDBRANCH  55  58
ENDBRANCH  53  54
ENDBRANCH  50  53
ENDBRANCH  47  50
ENDBRANCH   5  47
BRANCH   4  71
ATOM     71  N   UNL     1      12.426  29.351  12.308  1.00  0.00    -0.348 N 
ATOM     72  C   UNL     1      11.877  28.108  11.896  1.00  0.00     0.217 C 
ATOM     73  H   UNL     1      12.777  29.988  11.560  1.00  0.00     0.163 HD
ATOM     74  C   UNL     1      11.785  27.687  10.464  1.00  0.00     0.114 C 
ATOM     75  O   UNL     1      11.461  27.361  12.829  1.00  0.00    -0.275 OA
ENDBRANCH   4  71
TORSDOF 31
