REMARK VINA RESULT:    -6.388      4.705     10.601
REMARK INTER + INTRA:         -22.502
REMARK INTER:                 -17.710
REMARK INTRA:                  -4.791
REMARK UNBOUND:                -6.778
REMARK SMILES CC(=O)N[C@@H]1[C@@H](O)C[C@](OC[C@H]2O[C@@H](O[C@H]3[C@H](O)[C@@H](O)[C@H](OCCN=[N+]=[N-])O[C@@H]3CO)[C@H](O)[C@@H](O)[C@H]2O)(C(=O)O)O[C@H]1C(O)[C@H](O)CNC(=O)OCc1cn(-c2ccc3c(c2)OCO3)nn1
REMARK SMILES IDX 9 1 8 2 6 3 5 4 42 5 41 6 10 7 11 8 12 9 14 10 13 11 32 12
REMARK SMILES IDX 34 13 36 14 15 15 16 16 29 17 28 18 21 19 17 20 19 21 30 22
REMARK SMILES IDX 31 23 22 25 23 26 24 27 25 28 26 29 27 30 18 31 20 33 33 35
REMARK SMILES IDX 35 37 37 39 38 41 39 42 40 43 7 45 43 47 44 48 45 50 46 51
REMARK SMILES IDX 47 53 48 54 49 55 50 57 51 58 52 59 53 60 54 61 66 62 55 63
REMARK SMILES IDX 65 64 56 65 57 66 61 67 58 68 60 69 59 70 62 71 64 72 63 73
REMARK SMILES IDX 4 74 2 75 1 77 3 78
REMARK H PARENT 31 24 18 32 20 34 33 36 35 38 37 40 40 44 7 46 44 49 46 52
REMARK H PARENT 48 56 4 76
REMARK Flexibility Score: inf
ROOT
ATOM      1  C   UNL     1      24.424  25.130  20.060  1.00  0.00     0.272 C 
ATOM      2  C   UNL     1      24.576  24.146  21.186  1.00  0.00     0.113 C 
ATOM      3  C   UNL     1      23.232  23.847  21.875  1.00  0.00     0.145 C 
ATOM      4  C   UNL     1      22.846  25.138  22.566  1.00  0.00     0.142 C 
ATOM      5  C   UNL     1      22.887  26.204  21.491  1.00  0.00     0.178 C 
ATOM      6  O   UNL     1      23.160  25.760  20.242  1.00  0.00    -0.332 OA
ENDROOT
BRANCH   1   7
ATOM      7  O   UNL     1      24.369  24.584  18.856  1.00  0.00    -0.338 OA
BRANCH   7   8
ATOM      8  C   UNL     1      23.629  24.786  17.809  1.00  0.00     0.199 C 
BRANCH   8   9
ATOM      9  C   UNL     1      24.215  24.962  16.433  1.00  0.00     0.179 C 
ATOM     10  C   UNL     1      25.063  23.635  14.718  1.00  0.00     0.282 C 
ATOM     11  O   UNL     1      24.781  23.773  16.051  1.00  0.00    -0.341 OA
ATOM     12  C   UNL     1      24.954  24.901  13.935  1.00  0.00     0.202 C 
ATOM     13  C   UNL     1      23.591  25.551  14.100  1.00  0.00     0.179 C 
ATOM     14  C   UNL     1      23.049  25.310  15.472  1.00  0.00     0.177 C 
BRANCH  10  15
ATOM     15  O   UNL     1      24.103  22.750  14.186  1.00  0.00    -0.341 OA
BRANCH  15  16
ATOM     16  C   UNL     1      24.400  21.431  14.415  1.00  0.00     0.184 C 
ATOM     17  C   UNL     1      25.418  20.963  13.408  1.00  0.00     0.178 C 
ATOM     18  O   UNL     1      24.873  20.531  12.223  1.00  0.00    -0.341 OA
ATOM     19  C   UNL     1      23.663  21.158  11.919  1.00  0.00     0.281 C 
ATOM     20  C   UNL     1      23.105  20.658  14.320  1.00  0.00     0.180 C 
ATOM     21  C   UNL     1      22.582  20.797  12.907  1.00  0.00     0.202 C 
BRANCH  17  22
ATOM     22  C   UNL     1      26.265  19.824  13.960  1.00  0.00     0.191 C 
BRANCH  22  23
ATOM     23  O   UNL     1      25.721  18.588  13.635  1.00  0.00    -0.394 OA
ATOM     24  H   UNL     1      26.193  18.155  12.858  1.00  0.00     0.210 HD
ENDBRANCH  22  23
ENDBRANCH  17  22
BRANCH  19  25
ATOM     25  O   UNL     1      23.288  20.668  10.676  1.00  0.00    -0.350 OA
BRANCH  25  26
ATOM     26  C   UNL     1      24.024  19.520  10.405  1.00  0.00     0.169 C 
BRANCH  26  27
ATOM     27  C   UNL     1      23.125  18.396   9.902  1.00  0.00     0.119 C 
BRANCH  27  28
ATOM     28  N   UNL     1      22.683  17.651  11.090  1.00  0.00    -0.092 NA
ATOM     29  N   UNL     1      23.510  16.930  11.689  1.00  0.00     0.001 N 
ATOM     30  N   UNL     1      24.457  16.240  12.105  1.00  0.00    -0.003 NA
ENDBRANCH  27  28
ENDBRANCH  26  27
ENDBRANCH  25  26
ENDBRANCH  19  25
BRANCH  20  31
ATOM     31  O   UNL     1      23.223  19.341  14.714  1.00  0.00    -0.387 OA
ATOM     32  H   UNL     1      22.924  19.172  15.656  1.00  0.00     0.211 HD
ENDBRANCH  20  31
BRANCH  21  33
ATOM     33  O   UNL     1      21.649  21.836  12.906  1.00  0.00    -0.385 OA
ATOM     34  H   UNL     1      21.337  22.075  13.816  1.00  0.00     0.211 HD
ENDBRANCH  21  33
ENDBRANCH  15  16
ENDBRANCH  10  15
BRANCH  12  35
ATOM     35  O   UNL     1      25.934  25.846  14.228  1.00  0.00    -0.385 OA
ATOM     36  H   UNL     1      26.228  26.264  13.359  1.00  0.00     0.211 HD
ENDBRANCH  12  35
BRANCH  13  37
ATOM     37  O   UNL     1      22.740  25.015  13.130  1.00  0.00    -0.387 OA
ATOM     38  H   UNL     1      22.553  24.066  13.250  1.00  0.00     0.211 HD
ENDBRANCH  13  37
BRANCH  14  39
ATOM     39  O   UNL     1      22.156  24.244  15.414  1.00  0.00    -0.387 OA
ATOM     40  H   UNL     1      21.225  24.510  15.346  1.00  0.00     0.211 HD
ENDBRANCH  14  39
ENDBRANCH   8   9
ENDBRANCH   7   8
ENDBRANCH   1   7
BRANCH   1  41
ATOM     41  C   UNL     1      25.433  26.233  20.174  1.00  0.00     0.364 C 
ATOM     42  O   UNL     1      26.106  26.258  21.264  1.00  0.00    -0.246 OA
BRANCH  41  43
ATOM     43  O   UNL     1      25.687  27.190  19.245  1.00  0.00    -0.477 OA
ATOM     44  H   UNL     1      26.465  27.828  19.288  1.00  0.00     0.296 HD
ENDBRANCH  41  43
ENDBRANCH   1  41
BRANCH   3  45
ATOM     45  O   UNL     1      22.343  23.544  20.835  1.00  0.00    -0.391 OA
ATOM     46  H   UNL     1      22.722  22.851  20.251  1.00  0.00     0.211 HD
ENDBRANCH   3  45
BRANCH   5  47
ATOM     47  C   UNL     1      21.443  26.744  21.426  1.00  0.00     0.176 C 
BRANCH  47  48
ATOM     48  O   UNL     1      20.524  25.876  21.942  1.00  0.00    -0.388 OA
ATOM     49  H   UNL     1      19.627  25.935  21.529  1.00  0.00     0.211 HD
ENDBRANCH  47  48
BRANCH  47  50
ATOM     50  C   UNL     1      21.332  28.094  22.123  1.00  0.00     0.165 C 
BRANCH  50  51
ATOM     51  O   UNL     1      20.783  28.007  23.358  1.00  0.00    -0.388 OA
ATOM     52  H   UNL     1      20.542  27.113  23.678  1.00  0.00     0.211 HD
ENDBRANCH  50  51
BRANCH  50  53
ATOM     53  C   UNL     1      20.532  28.970  21.211  1.00  0.00     0.154 C 
BRANCH  53  54
ATOM     54  N   UNL     1      19.841  28.227  20.203  1.00  0.00    -0.319 N 
ATOM     55  C   UNL     1      19.514  28.696  18.905  1.00  0.00     0.407 C 
ATOM     56  H   UNL     1      19.517  27.214  20.391  1.00  0.00     0.167 HD
ATOM     57  O   UNL     1      19.839  29.843  18.537  1.00  0.00    -0.225 OA
BRANCH  55  58
ATOM     58  O   UNL     1      18.819  27.894  17.995  1.00  0.00    -0.443 OA
BRANCH  58  59
ATOM     59  C   UNL     1      17.502  28.143  17.588  1.00  0.00     0.294 C 
BRANCH  59  60
ATOM     60  C   UNL     1      16.642  28.278  18.812  1.00  0.00     0.121 A 
ATOM     61  C   UNL     1      15.638  29.230  19.001  1.00  0.00     0.144 A 
ATOM     62  N   UNL     1      16.649  27.542  19.930  1.00  0.00    -0.131 NA
ATOM     63  N   UNL     1      15.082  29.034  20.217  1.00  0.00    -0.220 N 
ATOM     64  N   UNL     1      15.727  28.002  20.738  1.00  0.00    -0.062 NA
BRANCH  63  65
ATOM     65  C   UNL     1      14.035  29.753  20.821  1.00  0.00     0.070 A 
ATOM     66  C   UNL     1      13.594  30.928  20.279  1.00  0.00     0.032 A 
ATOM     67  C   UNL     1      13.436  29.281  21.963  1.00  0.00     0.079 A 
ATOM     68  C   UNL     1      12.547  31.631  20.891  1.00  0.00     0.053 A 
ATOM     69  C   UNL     1      12.406  29.959  22.578  1.00  0.00     0.167 A 
ATOM     70  C   UNL     1      11.966  31.138  22.033  1.00  0.00     0.165 A 
ATOM     71  O   UNL     1      11.672  29.678  23.709  1.00  0.00    -0.454 OA
ATOM     72  O   UNL     1      10.933  31.617  22.829  1.00  0.00    -0.454 OA
ATOM     73  C   UNL     1      10.946  30.875  24.017  1.00  0.00     0.468 C 
ENDBRANCH  63  65
ENDBRANCH  59  60
ENDBRANCH  58  59
ENDBRANCH  55  58
ENDBRANCH  53  54
ENDBRANCH  50  53
ENDBRANCH  47  50
ENDBRANCH   5  47
BRANCH   4  74
ATOM     74  N   UNL     1      23.734  25.373  23.663  1.00  0.00    -0.348 N 
ATOM     75  C   UNL     1      23.369  25.031  25.017  1.00  0.00     0.217 C 
ATOM     76  H   UNL     1      24.682  25.797  23.583  1.00  0.00     0.163 HD
ATOM     77  C   UNL     1      24.300  25.280  26.150  1.00  0.00     0.114 C 
ATOM     78  O   UNL     1      22.263  24.524  25.233  1.00  0.00    -0.275 OA
ENDBRANCH   4  74
TORSDOF 30
