REMARK VINA RESULT:    -6.248      1.914      2.570
REMARK INTER + INTRA:         -23.670
REMARK INTER:                 -16.733
REMARK INTRA:                  -6.938
REMARK UNBOUND:                -6.283
REMARK SMILES CC(=O)N[C@@H]1[C@@H](O)C[C@](OC[C@H]2O[C@@H](O[C@H]3[C@H](O)[C@@H](O)[C@H](OCCN=[N+]=[N-])O[C@@H]3CO)[C@H](O)[C@@H](O)[C@H]2O)(C(=O)O)O[C@H]1C(O)[C@H](O)CNC(=O)OCc1cn(C[C@H](CC(=O)O)CC(C)C)nn1
REMARK SMILES IDX 43 1 42 2 9 3 8 4 41 5 6 6 5 7 10 8 11 9 12 10 14 11 13 12
REMARK SMILES IDX 32 13 34 14 36 15 15 16 16 17 29 18 28 19 21 20 17 21 19 22
REMARK SMILES IDX 30 23 31 24 22 26 23 27 24 28 25 29 26 30 27 31 18 32 20 34
REMARK SMILES IDX 33 36 35 38 37 40 38 42 39 43 40 44 7 46 4 48 2 49 1 51 3 52
REMARK SMILES IDX 44 53 45 55 46 56 47 58 48 59 49 60 50 62 51 63 52 64 53 65
REMARK SMILES IDX 54 66 67 67 55 68 66 69 56 70 57 71 58 72 59 73 60 74 61 75
REMARK SMILES IDX 62 77 63 78 64 79 65 80
REMARK H PARENT 31 25 18 33 20 35 33 37 35 39 37 41 40 45 7 47 4 50 44 54
REMARK H PARENT 46 57 48 61 61 76
REMARK Flexibility Score: inf
ROOT
ATOM      1  C   UNL     1       3.144  20.218  31.625  1.00  0.00     0.176 C 
ENDROOT
BRANCH   1   2
ATOM      2  C   UNL     1       1.972  19.491  32.221  1.00  0.00     0.178 C 
ATOM      3  C   UNL     1       0.797  20.470  34.084  1.00  0.00     0.272 C 
ATOM      4  C   UNL     1       1.543  19.608  35.037  1.00  0.00     0.113 C 
ATOM      5  O   UNL     1       1.222  20.441  32.838  1.00  0.00    -0.332 OA
ATOM      6  C   UNL     1       2.702  18.857  34.519  1.00  0.00     0.145 C 
ATOM      7  C   UNL     1       2.503  18.392  33.074  1.00  0.00     0.142 C 
BRANCH   3   8
ATOM      8  O   UNL     1       0.830  21.815  34.544  1.00  0.00    -0.338 OA
BRANCH   8   9
ATOM      9  C   UNL     1       0.026  22.672  33.860  1.00  0.00     0.199 C 
BRANCH   9  10
ATOM     10  C   UNL     1       0.810  23.946  33.477  1.00  0.00     0.179 C 
ATOM     11  C   UNL     1       2.903  24.928  33.683  1.00  0.00     0.282 C 
ATOM     12  O   UNL     1       2.168  23.753  33.637  1.00  0.00    -0.341 OA
ATOM     13  C   UNL     1       2.214  25.913  32.726  1.00  0.00     0.202 C 
ATOM     14  C   UNL     1       1.641  25.171  31.537  1.00  0.00     0.179 C 
ATOM     15  C   UNL     1       0.573  24.233  31.987  1.00  0.00     0.177 C 
BRANCH  11  16
ATOM     16  O   UNL     1       4.138  24.697  33.127  1.00  0.00    -0.341 OA
BRANCH  16  17
ATOM     17  C   UNL     1       5.082  24.136  33.945  1.00  0.00     0.184 C 
ATOM     18  C   UNL     1       5.797  25.108  34.836  1.00  0.00     0.178 C 
ATOM     19  O   UNL     1       7.133  25.246  34.599  1.00  0.00    -0.341 OA
ATOM     20  C   UNL     1       7.869  24.077  34.644  1.00  0.00     0.281 C 
ATOM     21  C   UNL     1       6.119  23.484  33.054  1.00  0.00     0.180 C 
ATOM     22  C   UNL     1       7.224  22.922  33.960  1.00  0.00     0.202 C 
BRANCH  18  23
ATOM     23  C   UNL     1       5.480  24.739  36.273  1.00  0.00     0.191 C 
BRANCH  23  24
ATOM     24  O   UNL     1       4.987  23.440  36.366  1.00  0.00    -0.394 OA
ATOM     25  H   UNL     1       4.933  23.123  37.309  1.00  0.00     0.210 HD
ENDBRANCH  23  24
ENDBRANCH  18  23
BRANCH  20  26
ATOM     26  O   UNL     1       8.212  23.845  35.967  1.00  0.00    -0.350 OA
BRANCH  26  27
ATOM     27  C   UNL     1       9.420  24.417  36.327  1.00  0.00     0.169 C 
BRANCH  27  28
ATOM     28  C   UNL     1      10.516  23.476  35.846  1.00  0.00     0.119 C 
BRANCH  28  29
ATOM     29  N   UNL     1      11.044  22.837  37.042  1.00  0.00    -0.092 NA
ATOM     30  N   UNL     1      10.272  22.298  37.800  1.00  0.00     0.001 N 
ATOM     31  N   UNL     1       9.716  21.820  38.798  1.00  0.00    -0.003 NA
ENDBRANCH  28  29
ENDBRANCH  27  28
ENDBRANCH  26  27
ENDBRANCH  20  26
BRANCH  21  32
ATOM     32  O   UNL     1       5.536  22.494  32.285  1.00  0.00    -0.387 OA
ATOM     33  H   UNL     1       6.288  21.929  31.921  1.00  0.00     0.211 HD
ENDBRANCH  21  32
BRANCH  22  34
ATOM     34  O   UNL     1       8.100  22.250  33.082  1.00  0.00    -0.385 OA
ATOM     35  H   UNL     1       9.007  22.364  33.435  1.00  0.00     0.211 HD
ENDBRANCH  22  34
ENDBRANCH  16  17
ENDBRANCH  11  16
BRANCH  13  36
ATOM     36  O   UNL     1       1.314  26.733  33.361  1.00  0.00    -0.385 OA
ATOM     37  H   UNL     1       0.728  27.234  32.768  1.00  0.00     0.211 HD
ENDBRANCH  13  36
BRANCH  14  38
ATOM     38  O   UNL     1       2.713  24.422  31.009  1.00  0.00    -0.387 OA
ATOM     39  H   UNL     1       2.489  23.486  30.896  1.00  0.00     0.211 HD
ENDBRANCH  14  38
BRANCH  15  40
ATOM     40  O   UNL     1       0.721  23.039  31.250  1.00  0.00    -0.387 OA
ATOM     41  H   UNL     1      -0.046  22.457  31.371  1.00  0.00     0.211 HD
ENDBRANCH  15  40
ENDBRANCH   9  10
ENDBRANCH   8   9
ENDBRANCH   3   8
BRANCH   3  42
ATOM     42  C   UNL     1      -0.683  20.142  34.161  1.00  0.00     0.364 C 
ATOM     43  O   UNL     1      -1.321  19.884  33.133  1.00  0.00    -0.246 OA
BRANCH  42  44
ATOM     44  O   UNL     1      -1.327  20.129  35.364  1.00  0.00    -0.477 OA
ATOM     45  H   UNL     1      -1.010  19.579  36.161  1.00  0.00     0.296 HD
ENDBRANCH  42  44
ENDBRANCH   3  42
BRANCH   6  46
ATOM     46  O   UNL     1       3.939  19.453  34.641  1.00  0.00    -0.391 OA
ATOM     47  H   UNL     1       4.016  19.761  35.578  1.00  0.00     0.211 HD
ENDBRANCH   6  46
BRANCH   7  48
ATOM     48  N   UNL     1       1.691  17.208  33.162  1.00  0.00    -0.348 N 
ATOM     49  C   UNL     1       1.957  16.131  32.236  1.00  0.00     0.217 C 
ATOM     50  H   UNL     1       0.911  17.047  33.836  1.00  0.00     0.163 HD
ATOM     51  C   UNL     1       1.110  14.891  32.334  1.00  0.00     0.114 C 
ATOM     52  O   UNL     1       2.859  16.200  31.366  1.00  0.00    -0.275 OA
ENDBRANCH   7  48
ENDBRANCH   1   2
BRANCH   1  53
ATOM     53  O   UNL     1       2.933  21.619  31.792  1.00  0.00    -0.388 OA
ATOM     54  H   UNL     1       2.706  22.019  30.913  1.00  0.00     0.211 HD
ENDBRANCH   1  53
BRANCH   1  55
ATOM     55  C   UNL     1       3.361  20.070  30.136  1.00  0.00     0.165 C 
BRANCH  55  56
ATOM     56  O   UNL     1       4.671  20.702  29.989  1.00  0.00    -0.388 OA
ATOM     57  H   UNL     1       4.454  21.660  30.231  1.00  0.00     0.211 HD
ENDBRANCH  55  56
BRANCH  55  58
ATOM     58  C   UNL     1       2.482  20.962  29.329  1.00  0.00     0.154 C 
BRANCH  58  59
ATOM     59  N   UNL     1       3.087  22.215  29.047  1.00  0.00    -0.319 N 
ATOM     60  C   UNL     1       2.268  23.176  28.344  1.00  0.00     0.407 C 
ATOM     61  H   UNL     1       4.046  22.534  29.274  1.00  0.00     0.167 HD
ATOM     62  O   UNL     1       1.084  22.871  28.024  1.00  0.00    -0.225 OA
BRANCH  60  63
ATOM     63  O   UNL     1       2.708  24.430  27.986  1.00  0.00    -0.443 OA
BRANCH  63  64
ATOM     64  C   UNL     1       3.550  24.727  26.891  1.00  0.00     0.294 C 
BRANCH  64  65
ATOM     65  C   UNL     1       4.308  25.998  27.066  1.00  0.00     0.120 A 
ATOM     66  C   UNL     1       4.979  26.736  26.118  1.00  0.00     0.138 A 
ATOM     67  N   UNL     1       4.452  26.641  28.228  1.00  0.00    -0.132 NA
ATOM     68  N   UNL     1       5.525  27.828  26.736  1.00  0.00    -0.252 N 
ATOM     69  N   UNL     1       5.178  27.720  27.997  1.00  0.00    -0.067 NA
BRANCH  68  70
ATOM     70  C   UNL     1       6.318  28.842  26.145  1.00  0.00     0.150 C 
BRANCH  70  71
ATOM     71  C   UNL     1       6.927  28.506  24.850  1.00  0.00     0.022 C 
BRANCH  71  72
ATOM     72  C   UNL     1       8.319  27.993  24.866  1.00  0.00     0.128 C 
BRANCH  72  73
ATOM     73  C   UNL     1       8.505  26.575  25.196  1.00  0.00     0.303 C 
ATOM     74  O   UNL     1       8.186  25.698  24.350  1.00  0.00    -0.252 OA
BRANCH  73  75
ATOM     75  O   UNL     1       9.022  26.128  26.405  1.00  0.00    -0.481 OA
ATOM     76  H   UNL     1       9.542  26.756  27.000  1.00  0.00     0.296 HD
ENDBRANCH  73  75
ENDBRANCH  72  73
ENDBRANCH  71  72
BRANCH  71  77
ATOM     77  C   UNL     1       6.684  29.511  23.760  1.00  0.00     0.009 C 
BRANCH  77  78
ATOM     78  C   UNL     1       5.496  29.390  22.918  1.00  0.00    -0.017 C 
ATOM     79  C   UNL     1       4.479  30.474  22.944  1.00  0.00     0.007 C 
ATOM     80  C   UNL     1       5.785  29.053  21.467  1.00  0.00     0.007 C 
ENDBRANCH  77  78
ENDBRANCH  71  77
ENDBRANCH  70  71
ENDBRANCH  68  70
ENDBRANCH  64  65
ENDBRANCH  63  64
ENDBRANCH  60  63
ENDBRANCH  58  59
ENDBRANCH  55  58
ENDBRANCH   1  55
TORSDOF 36
