REMARK VINA RESULT:    -6.849      0.000      0.000
REMARK INTER + INTRA:         -23.122
REMARK INTER:                 -14.698
REMARK INTRA:                  -8.423
REMARK UNBOUND:                -5.863
REMARK SMILES CC(=O)N[C@@H]1[C@@H](O)C[C@](OC[C@H]2O[C@@H](O[C@H]3[C@H](O)[C@@H](O)[C@H](OCCN=[N+]=[N-])O[C@@H]3CO)[C@H](O)[C@@H](O)[C@H]2O)(C(=O)O)O[C@H]1C(O)[C@H](O)CNC(=O)OCc1cn(-c2ncccc2C#N)nn1
REMARK SMILES IDX 9 1 8 2 6 3 5 4 42 5 41 6 10 7 11 8 12 9 14 10 13 11 32 12
REMARK SMILES IDX 34 13 36 14 15 15 16 16 29 17 28 18 21 19 17 20 19 21 30 22
REMARK SMILES IDX 31 23 22 25 23 26 24 27 25 28 26 29 27 30 18 31 20 33 33 35
REMARK SMILES IDX 35 37 37 39 38 41 39 42 40 43 7 45 43 47 44 48 45 50 46 51
REMARK SMILES IDX 47 53 48 54 49 55 50 57 51 58 52 59 53 60 54 61 65 62 55 63
REMARK SMILES IDX 64 64 56 65 57 66 61 67 58 68 60 69 59 70 62 71 63 72 4 73
REMARK SMILES IDX 2 74 1 76 3 77
REMARK H PARENT 31 24 18 32 20 34 33 36 35 38 37 40 40 44 7 46 44 49 46 52
REMARK H PARENT 48 56 4 75
REMARK Flexibility Score: inf
ROOT
ATOM      1  C   UNL     1      22.772  25.826  24.349  1.00  0.00     0.272 C 
ATOM      2  C   UNL     1      22.482  24.689  25.234  1.00  0.00     0.113 C 
ATOM      3  C   UNL     1      23.082  24.815  26.579  1.00  0.00     0.145 C 
ATOM      4  C   UNL     1      23.280  26.201  27.098  1.00  0.00     0.142 C 
ATOM      5  C   UNL     1      22.765  27.316  26.233  1.00  0.00     0.178 C 
ATOM      6  O   UNL     1      22.734  27.066  24.944  1.00  0.00    -0.332 OA
ENDROOT
BRANCH   1   7
ATOM      7  O   UNL     1      22.109  25.997  23.201  1.00  0.00    -0.338 OA
BRANCH   7   8
ATOM      8  C   UNL     1      22.051  25.377  22.063  1.00  0.00     0.199 C 
BRANCH   8   9
ATOM      9  C   UNL     1      21.634  26.406  21.006  1.00  0.00     0.179 C 
ATOM     10  C   UNL     1      20.268  28.163  20.577  1.00  0.00     0.282 C 
ATOM     11  O   UNL     1      20.402  26.922  21.300  1.00  0.00    -0.341 OA
ATOM     12  C   UNL     1      21.127  29.199  21.206  1.00  0.00     0.202 C 
ATOM     13  C   UNL     1      22.568  28.700  21.354  1.00  0.00     0.179 C 
ATOM     14  C   UNL     1      22.683  27.397  20.659  1.00  0.00     0.177 C 
BRANCH  10  15
ATOM     15  O   UNL     1      18.970  28.534  20.509  1.00  0.00    -0.341 OA
BRANCH  15  16
ATOM     16  C   UNL     1      18.431  28.583  19.254  1.00  0.00     0.184 C 
ATOM     17  C   UNL     1      18.396  30.058  18.755  1.00  0.00     0.178 C 
ATOM     18  O   UNL     1      17.063  30.465  18.712  1.00  0.00    -0.341 OA
ATOM     19  C   UNL     1      16.443  30.261  19.954  1.00  0.00     0.281 C 
ATOM     20  C   UNL     1      17.035  28.027  19.144  1.00  0.00     0.180 C 
ATOM     21  C   UNL     1      16.102  28.802  20.081  1.00  0.00     0.202 C 
BRANCH  17  22
ATOM     22  C   UNL     1      19.061  30.124  17.418  1.00  0.00     0.191 C 
BRANCH  22  23
ATOM     23  O   UNL     1      18.135  30.017  16.364  1.00  0.00    -0.394 OA
ATOM     24  H   UNL     1      17.384  29.418  16.592  1.00  0.00     0.210 HD
ENDBRANCH  22  23
ENDBRANCH  17  22
BRANCH  19  25
ATOM     25  O   UNL     1      15.336  31.077  19.981  1.00  0.00    -0.350 OA
BRANCH  25  26
ATOM     26  C   UNL     1      14.201  30.424  19.466  1.00  0.00     0.169 C 
BRANCH  26  27
ATOM     27  C   UNL     1      13.570  31.252  18.366  1.00  0.00     0.119 C 
BRANCH  27  28
ATOM     28  N   UNL     1      13.329  30.331  17.247  1.00  0.00    -0.092 NA
ATOM     29  N   UNL     1      14.354  29.990  16.601  1.00  0.00     0.001 N 
ATOM     30  N   UNL     1      15.224  29.897  15.722  1.00  0.00    -0.003 NA
ENDBRANCH  27  28
ENDBRANCH  26  27
ENDBRANCH  25  26
ENDBRANCH  19  25
BRANCH  20  31
ATOM     31  O   UNL     1      16.539  28.065  17.862  1.00  0.00    -0.387 OA
ATOM     32  H   UNL     1      17.095  28.468  17.176  1.00  0.00     0.211 HD
ENDBRANCH  20  31
BRANCH  21  33
ATOM     33  O   UNL     1      16.252  28.338  21.383  1.00  0.00    -0.385 OA
ATOM     34  H   UNL     1      17.042  28.807  21.768  1.00  0.00     0.211 HD
ENDBRANCH  21  33
ENDBRANCH  15  16
ENDBRANCH  10  15
BRANCH  12  35
ATOM     35  O   UNL     1      21.131  30.361  20.455  1.00  0.00    -0.385 OA
ATOM     36  H   UNL     1      21.850  30.259  19.748  1.00  0.00     0.211 HD
ENDBRANCH  12  35
BRANCH  13  37
ATOM     37  O   UNL     1      22.874  28.587  22.731  1.00  0.00    -0.387 OA
ATOM     38  H   UNL     1      22.091  28.875  23.279  1.00  0.00     0.211 HD
ENDBRANCH  13  37
BRANCH  14  39
ATOM     39  O   UNL     1      23.947  26.810  20.772  1.00  0.00    -0.387 OA
ATOM     40  H   UNL     1      23.856  25.804  20.815  1.00  0.00     0.211 HD
ENDBRANCH  14  39
ENDBRANCH   8   9
ENDBRANCH   7   8
ENDBRANCH   1   7
BRANCH   1  41
ATOM     41  C   UNL     1      24.231  25.645  23.932  1.00  0.00     0.364 C 
ATOM     42  O   UNL     1      24.970  26.547  23.579  1.00  0.00    -0.246 OA
BRANCH  41  43
ATOM     43  O   UNL     1      24.784  24.349  23.950  1.00  0.00    -0.477 OA
ATOM     44  H   UNL     1      25.242  23.943  23.149  1.00  0.00     0.296 HD
ENDBRANCH  41  43
ENDBRANCH   1  41
BRANCH   3  45
ATOM     45  O   UNL     1      22.391  24.013  27.507  1.00  0.00    -0.391 OA
ATOM     46  H   UNL     1      21.708  23.516  26.948  1.00  0.00     0.211 HD
ENDBRANCH   3  45
BRANCH   5  47
ATOM     47  C   UNL     1      21.421  27.875  26.782  1.00  0.00     0.176 C 
BRANCH  47  48
ATOM     48  O   UNL     1      20.461  27.650  25.751  1.00  0.00    -0.388 OA
ATOM     49  H   UNL     1      20.512  26.736  25.423  1.00  0.00     0.211 HD
ENDBRANCH  47  48
BRANCH  47  50
ATOM     50  C   UNL     1      21.387  29.284  27.080  1.00  0.00     0.165 C 
BRANCH  50  51
ATOM     51  O   UNL     1      20.113  29.872  27.280  1.00  0.00    -0.388 OA
ATOM     52  H   UNL     1      19.666  29.983  26.383  1.00  0.00     0.211 HD
ENDBRANCH  50  51
BRANCH  50  53
ATOM     53  C   UNL     1      22.015  30.165  26.049  1.00  0.00     0.154 C 
BRANCH  53  54
ATOM     54  N   UNL     1      21.359  30.414  24.826  1.00  0.00    -0.319 N 
ATOM     55  C   UNL     1      20.939  31.620  24.267  1.00  0.00     0.407 C 
ATOM     56  H   UNL     1      21.130  29.543  24.209  1.00  0.00     0.167 HD
ATOM     57  O   UNL     1      21.166  32.675  24.908  1.00  0.00    -0.225 OA
BRANCH  55  58
ATOM     58  O   UNL     1      20.289  31.620  23.016  1.00  0.00    -0.443 OA
BRANCH  58  59
ATOM     59  C   UNL     1      19.007  32.166  22.925  1.00  0.00     0.294 C 
BRANCH  59  60
ATOM     60  C   UNL     1      17.965  31.217  23.269  1.00  0.00     0.121 A 
ATOM     61  C   UNL     1      16.653  31.483  23.384  1.00  0.00     0.146 A 
ATOM     62  N   UNL     1      18.143  29.868  23.609  1.00  0.00    -0.131 NA
ATOM     63  N   UNL     1      16.001  30.395  23.773  1.00  0.00    -0.201 N 
ATOM     64  N   UNL     1      16.930  29.493  23.883  1.00  0.00    -0.060 NA
BRANCH  63  65
ATOM     65  C   UNL     1      14.623  30.162  23.971  1.00  0.00     0.173 A 
ATOM     66  N   UNL     1      13.950  29.670  22.899  1.00  0.00    -0.236 NA
ATOM     67  C   UNL     1      13.962  30.553  25.143  1.00  0.00     0.097 A 
ATOM     68  C   UNL     1      12.512  29.568  22.999  1.00  0.00     0.113 A 
ATOM     69  C   UNL     1      12.589  30.434  25.162  1.00  0.00     0.025 A 
ATOM     70  C   UNL     1      11.931  29.957  24.108  1.00  0.00     0.022 A 
BRANCH  67  71
ATOM     71  C   UNL     1      14.609  30.977  26.343  1.00  0.00     0.103 C 
ATOM     72  N   UNL     1      15.168  31.351  27.349  1.00  0.00    -0.192 NA
ENDBRANCH  67  71
ENDBRANCH  63  65
ENDBRANCH  59  60
ENDBRANCH  58  59
ENDBRANCH  55  58
ENDBRANCH  53  54
ENDBRANCH  50  53
ENDBRANCH  47  50
ENDBRANCH   5  47
BRANCH   4  73
ATOM     73  N   UNL     1      24.664  26.274  27.510  1.00  0.00    -0.348 N 
ATOM     74  C   UNL     1      25.211  25.945  28.754  1.00  0.00     0.217 C 
ATOM     75  H   UNL     1      25.383  26.640  26.787  1.00  0.00     0.163 HD
ATOM     76  C   UNL     1      26.707  26.040  28.990  1.00  0.00     0.114 C 
ATOM     77  O   UNL     1      24.557  25.556  29.746  1.00  0.00    -0.275 OA
ENDBRANCH   4  73
TORSDOF 31
