REMARK VINA RESULT:    -4.844      5.697     13.692
REMARK INTER + INTRA:         -21.053
REMARK INTER:                 -14.852
REMARK INTRA:                  -6.201
REMARK UNBOUND:                -8.562
REMARK SMILES CC(=O)N[C@@H]1[C@@H](O)C[C@](OC[C@H]2O[C@@H](O[C@H]3[C@H](O)[C@@H](O)[C@H](OCCN=[N+]=[N-])O[C@@H]3CO)[C@H](O)[C@@H](O)[C@H]2O)(C(=O)O)O[C@H]1C(O)[C@H](O)CNC(=O)OCc1cn(Cc2ccc(C#N)cc2)nn1
REMARK SMILES IDX 9 1 8 2 6 3 5 4 42 5 41 6 10 7 11 8 12 9 14 10 13 11 32 12
REMARK SMILES IDX 34 13 36 14 15 15 16 16 29 17 28 18 21 19 17 20 19 21 30 22
REMARK SMILES IDX 31 23 22 25 23 26 24 27 25 28 26 29 27 30 18 31 20 33 33 35
REMARK SMILES IDX 35 37 37 39 38 41 39 42 40 43 7 45 43 47 44 48 45 50 46 51
REMARK SMILES IDX 47 53 48 54 49 55 50 57 51 58 52 59 53 60 54 61 66 62 55 63
REMARK SMILES IDX 65 64 56 65 57 66 58 67 64 68 59 69 63 70 60 71 61 72 62 73
REMARK SMILES IDX 4 74 2 75 1 77 3 78
REMARK H PARENT 31 24 18 32 20 34 33 36 35 38 37 40 40 44 7 46 44 49 46 52
REMARK H PARENT 48 56 4 76
REMARK Flexibility Score: inf
ROOT
ATOM      1  C   UNL     1      16.886  29.752  21.408  1.00  0.00     0.272 C 
ATOM      2  C   UNL     1      15.824  28.753  21.113  1.00  0.00     0.113 C 
ATOM      3  C   UNL     1      15.690  28.370  19.682  1.00  0.00     0.145 C 
ATOM      4  C   UNL     1      16.102  29.581  18.830  1.00  0.00     0.142 C 
ATOM      5  C   UNL     1      15.819  30.794  19.664  1.00  0.00     0.178 C 
ATOM      6  O   UNL     1      16.763  30.922  20.643  1.00  0.00    -0.332 OA
ENDROOT
BRANCH   1   7
ATOM      7  O   UNL     1      18.184  29.290  21.362  1.00  0.00    -0.338 OA
BRANCH   7   8
ATOM      8  C   UNL     1      19.139  30.249  21.390  1.00  0.00     0.199 C 
BRANCH   8   9
ATOM      9  C   UNL     1      20.445  29.786  20.722  1.00  0.00     0.179 C 
ATOM     10  C   UNL     1      21.567  27.830  20.231  1.00  0.00     0.282 C 
ATOM     11  O   UNL     1      20.529  28.413  20.957  1.00  0.00    -0.341 OA
ATOM     12  C   UNL     1      21.396  27.958  18.753  1.00  0.00     0.202 C 
ATOM     13  C   UNL     1      20.151  28.763  18.461  1.00  0.00     0.179 C 
ATOM     14  C   UNL     1      20.302  30.057  19.247  1.00  0.00     0.177 C 
BRANCH  10  15
ATOM     15  O   UNL     1      21.571  26.475  20.552  1.00  0.00    -0.341 OA
BRANCH  15  16
ATOM     16  C   UNL     1      22.717  26.075  21.237  1.00  0.00     0.184 C 
ATOM     17  C   UNL     1      22.505  24.723  21.819  1.00  0.00     0.178 C 
ATOM     18  O   UNL     1      22.119  24.678  23.128  1.00  0.00    -0.341 OA
ATOM     19  C   UNL     1      21.762  25.870  23.705  1.00  0.00     0.281 C 
ATOM     20  C   UNL     1      23.213  27.114  22.189  1.00  0.00     0.180 C 
ATOM     21  C   UNL     1      22.940  26.816  23.639  1.00  0.00     0.202 C 
BRANCH  17  22
ATOM     22  C   UNL     1      23.738  23.863  21.552  1.00  0.00     0.191 C 
BRANCH  22  23
ATOM     23  O   UNL     1      24.550  24.557  20.655  1.00  0.00    -0.394 OA
ATOM     24  H   UNL     1      25.488  24.196  20.664  1.00  0.00     0.210 HD
ENDBRANCH  22  23
ENDBRANCH  17  22
BRANCH  19  25
ATOM     25  O   UNL     1      21.515  25.591  25.065  1.00  0.00    -0.350 OA
BRANCH  25  26
ATOM     26  C   UNL     1      22.384  24.616  25.533  1.00  0.00     0.169 C 
BRANCH  26  27
ATOM     27  C   UNL     1      22.674  24.814  27.008  1.00  0.00     0.119 C 
BRANCH  27  28
ATOM     28  N   UNL     1      22.220  26.105  27.488  1.00  0.00    -0.092 NA
ATOM     29  N   UNL     1      21.815  26.226  28.633  1.00  0.00     0.001 N 
ATOM     30  N   UNL     1      21.776  26.631  29.805  1.00  0.00    -0.003 NA
ENDBRANCH  27  28
ENDBRANCH  26  27
ENDBRANCH  25  26
ENDBRANCH  19  25
BRANCH  20  31
ATOM     31  O   UNL     1      24.561  27.436  21.992  1.00  0.00    -0.387 OA
ATOM     32  H   UNL     1      25.008  26.723  21.449  1.00  0.00     0.211 HD
ENDBRANCH  20  31
BRANCH  21  33
ATOM     33  O   UNL     1      22.686  27.978  24.371  1.00  0.00    -0.385 OA
ATOM     34  H   UNL     1      21.737  27.930  24.660  1.00  0.00     0.211 HD
ENDBRANCH  21  33
ENDBRANCH  15  16
ENDBRANCH  10  15
BRANCH  12  35
ATOM     35  O   UNL     1      22.457  28.542  18.098  1.00  0.00    -0.385 OA
ATOM     36  H   UNL     1      23.261  27.955  18.172  1.00  0.00     0.211 HD
ENDBRANCH  12  35
BRANCH  13  37
ATOM     37  O   UNL     1      19.052  28.023  18.865  1.00  0.00    -0.387 OA
ATOM     38  H   UNL     1      19.175  27.524  19.701  1.00  0.00     0.211 HD
ENDBRANCH  13  37
BRANCH  14  39
ATOM     39  O   UNL     1      19.333  30.987  18.959  1.00  0.00    -0.387 OA
ATOM     40  H   UNL     1      18.832  30.713  18.162  1.00  0.00     0.211 HD
ENDBRANCH  14  39
ENDBRANCH   8   9
ENDBRANCH   7   8
ENDBRANCH   1   7
BRANCH   1  41
ATOM     41  C   UNL     1      16.629  30.239  22.806  1.00  0.00     0.364 C 
ATOM     42  O   UNL     1      16.561  31.450  23.039  1.00  0.00    -0.246 OA
BRANCH  41  43
ATOM     43  O   UNL     1      16.470  29.311  23.808  1.00  0.00    -0.477 OA
ATOM     44  H   UNL     1      15.819  28.537  23.765  1.00  0.00     0.296 HD
ENDBRANCH  41  43
ENDBRANCH   1  41
BRANCH   3  45
ATOM     45  O   UNL     1      16.309  27.214  19.298  1.00  0.00    -0.391 OA
ATOM     46  H   UNL     1      15.710  26.444  19.378  1.00  0.00     0.211 HD
ENDBRANCH   3  45
BRANCH   5  47
ATOM     47  C   UNL     1      15.695  32.078  18.835  1.00  0.00     0.176 C 
BRANCH  47  48
ATOM     48  O   UNL     1      16.737  31.988  17.883  1.00  0.00    -0.388 OA
ATOM     49  H   UNL     1      16.324  31.884  16.989  1.00  0.00     0.211 HD
ENDBRANCH  47  48
BRANCH  47  50
ATOM     50  C   UNL     1      14.412  32.157  18.135  1.00  0.00     0.165 C 
BRANCH  50  51
ATOM     51  O   UNL     1      14.573  32.710  16.828  1.00  0.00    -0.388 OA
ATOM     52  H   UNL     1      13.713  33.215  16.679  1.00  0.00     0.211 HD
ENDBRANCH  50  51
BRANCH  50  53
ATOM     53  C   UNL     1      13.296  32.842  18.820  1.00  0.00     0.154 C 
BRANCH  53  54
ATOM     54  N   UNL     1      13.032  32.679  20.182  1.00  0.00    -0.319 N 
ATOM     55  C   UNL     1      11.809  32.697  20.878  1.00  0.00     0.407 C 
ATOM     56  H   UNL     1      13.884  32.511  20.823  1.00  0.00     0.167 HD
ATOM     57  O   UNL     1      10.711  32.851  20.325  1.00  0.00    -0.225 OA
BRANCH  55  58
ATOM     58  O   UNL     1      11.770  32.535  22.272  1.00  0.00    -0.443 OA
BRANCH  58  59
ATOM     59  C   UNL     1      11.600  31.242  22.830  1.00  0.00     0.294 C 
BRANCH  59  60
ATOM     60  C   UNL     1      12.672  31.037  23.867  1.00  0.00     0.120 A 
ATOM     61  C   UNL     1      13.265  32.059  24.579  1.00  0.00     0.138 A 
ATOM     62  N   UNL     1      13.252  29.897  24.287  1.00  0.00    -0.132 NA
ATOM     63  N   UNL     1      14.188  31.507  25.410  1.00  0.00    -0.248 N 
ATOM     64  N   UNL     1      14.138  30.233  25.197  1.00  0.00    -0.067 NA
BRANCH  63  65
ATOM     65  C   UNL     1      15.016  32.308  26.297  1.00  0.00     0.181 C 
BRANCH  65  66
ATOM     66  C   UNL     1      14.873  31.655  27.649  1.00  0.00    -0.026 A 
ATOM     67  C   UNL     1      15.961  31.003  28.174  1.00  0.00     0.007 A 
ATOM     68  C   UNL     1      13.656  31.723  28.331  1.00  0.00     0.007 A 
ATOM     69  C   UNL     1      15.922  30.375  29.398  1.00  0.00     0.020 A 
ATOM     70  C   UNL     1      13.618  31.098  29.552  1.00  0.00     0.020 A 
ATOM     71  C   UNL     1      14.695  30.453  30.067  1.00  0.00     0.052 A 
BRANCH  71  72
ATOM     72  C   UNL     1      14.621  29.779  31.357  1.00  0.00     0.099 C 
ATOM     73  N   UNL     1      14.561  29.259  32.397  1.00  0.00    -0.192 NA
ENDBRANCH  71  72
ENDBRANCH  65  66
ENDBRANCH  63  65
ENDBRANCH  59  60
ENDBRANCH  58  59
ENDBRANCH  55  58
ENDBRANCH  53  54
ENDBRANCH  50  53
ENDBRANCH  47  50
ENDBRANCH   5  47
BRANCH   4  74
ATOM     74  N   UNL     1      15.420  29.548  17.560  1.00  0.00    -0.348 N 
ATOM     75  C   UNL     1      16.114  29.047  16.428  1.00  0.00     0.217 C 
ATOM     76  H   UNL     1      14.447  29.871  17.442  1.00  0.00     0.163 HD
ATOM     77  C   UNL     1      15.482  28.981  15.098  1.00  0.00     0.114 C 
ATOM     78  O   UNL     1      17.318  28.634  16.527  1.00  0.00    -0.275 OA
ENDBRANCH   4  74
TORSDOF 32
