REMARK VINA RESULT:    -5.521     15.051     18.707
REMARK INTER + INTRA:         -21.541
REMARK INTER:                 -14.548
REMARK INTRA:                  -6.994
REMARK UNBOUND:                -7.468
REMARK SMILES CC(=O)N[C@@H]1[C@@H](O)C[C@](OC[C@H]2O[C@@H](O[C@H]3[C@H](O)[C@@H](O)[C@H](OCCN=[N+]=[N-])O[C@@H]3CO)[C@H](O)[C@@H](O)[C@H]2O)(C(=O)O)O[C@H]1C(O)[C@H](O)CNC(=O)OCc1cn(CC(=O)O)nn1
REMARK SMILES IDX 9 1 8 2 6 3 5 4 42 5 41 6 10 7 11 8 12 9 14 10 13 11 32 12
REMARK SMILES IDX 34 13 36 14 15 15 16 16 29 17 28 18 21 19 17 20 19 21 30 22
REMARK SMILES IDX 31 23 22 25 23 26 24 27 25 28 26 29 27 30 18 31 20 33 33 35
REMARK SMILES IDX 35 37 37 39 38 41 39 42 40 43 7 45 43 47 44 48 45 50 46 51
REMARK SMILES IDX 47 53 48 54 49 55 50 57 51 58 52 59 53 60 54 61 61 62 55 63
REMARK SMILES IDX 60 64 56 65 57 66 58 67 59 68 4 70 2 71 1 73 3 74
REMARK H PARENT 31 24 18 32 20 34 33 36 35 38 37 40 40 44 7 46 44 49 46 52
REMARK H PARENT 48 56 59 69 4 72
REMARK Flexibility Score: inf
ROOT
ATOM      1  C   UNL     1      20.885  28.625  24.156  1.00  0.00     0.272 C 
ATOM      2  C   UNL     1      21.895  29.645  23.713  1.00  0.00     0.113 C 
ATOM      3  C   UNL     1      22.296  29.608  22.298  1.00  0.00     0.145 C 
ATOM      4  C   UNL     1      21.969  28.326  21.541  1.00  0.00     0.142 C 
ATOM      5  C   UNL     1      21.837  27.250  22.573  1.00  0.00     0.178 C 
ATOM      6  O   UNL     1      20.654  27.626  23.263  1.00  0.00    -0.332 OA
ENDROOT
BRANCH   1   7
ATOM      7  O   UNL     1      19.650  29.226  24.484  1.00  0.00    -0.338 OA
BRANCH   7   8
ATOM      8  C   UNL     1      19.613  30.578  24.333  1.00  0.00     0.199 C 
BRANCH   8   9
ATOM      9  C   UNL     1      18.647  30.939  23.193  1.00  0.00     0.179 C 
ATOM     10  C   UNL     1      16.715  29.917  22.454  1.00  0.00     0.282 C 
ATOM     11  O   UNL     1      18.140  29.833  22.560  1.00  0.00    -0.341 OA
ATOM     12  C   UNL     1      16.231  29.846  23.855  1.00  0.00     0.202 C 
ATOM     13  C   UNL     1      16.488  31.236  24.461  1.00  0.00     0.179 C 
ATOM     14  C   UNL     1      17.596  31.909  23.696  1.00  0.00     0.177 C 
BRANCH  10  15
ATOM     15  O   UNL     1      16.309  28.941  21.593  1.00  0.00    -0.341 OA
BRANCH  15  16
ATOM     16  C   UNL     1      16.596  29.210  20.255  1.00  0.00     0.184 C 
ATOM     17  C   UNL     1      15.327  29.084  19.466  1.00  0.00     0.178 C 
ATOM     18  O   UNL     1      15.577  28.688  18.180  1.00  0.00    -0.341 OA
ATOM     19  C   UNL     1      16.709  29.183  17.584  1.00  0.00     0.281 C 
ATOM     20  C   UNL     1      17.602  28.225  19.699  1.00  0.00     0.180 C 
ATOM     21  C   UNL     1      17.968  28.719  18.297  1.00  0.00     0.202 C 
BRANCH  17  22
ATOM     22  C   UNL     1      14.610  30.422  19.454  1.00  0.00     0.191 C 
BRANCH  22  23
ATOM     23  O   UNL     1      13.683  30.354  18.411  1.00  0.00    -0.394 OA
ATOM     24  H   UNL     1      13.054  31.108  18.451  1.00  0.00     0.210 HD
ENDBRANCH  22  23
ENDBRANCH  17  22
BRANCH  19  25
ATOM     25  O   UNL     1      16.646  30.544  17.460  1.00  0.00    -0.350 OA
BRANCH  25  26
ATOM     26  C   UNL     1      16.690  31.001  16.167  1.00  0.00     0.169 C 
BRANCH  26  27
ATOM     27  C   UNL     1      17.863  31.892  15.854  1.00  0.00     0.119 C 
BRANCH  27  28
ATOM     28  N   UNL     1      19.121  31.143  15.900  1.00  0.00    -0.092 NA
ATOM     29  N   UNL     1      19.197  30.174  15.118  1.00  0.00     0.001 N 
ATOM     30  N   UNL     1      19.464  29.006  14.777  1.00  0.00    -0.003 NA
ENDBRANCH  27  28
ENDBRANCH  26  27
ENDBRANCH  25  26
ENDBRANCH  19  25
BRANCH  20  31
ATOM     31  O   UNL     1      18.767  28.161  20.423  1.00  0.00    -0.387 OA
ATOM     32  H   UNL     1      18.993  28.958  20.929  1.00  0.00     0.211 HD
ENDBRANCH  20  31
BRANCH  21  33
ATOM     33  O   UNL     1      18.578  27.723  17.559  1.00  0.00    -0.385 OA
ATOM     34  H   UNL     1      17.983  26.939  17.436  1.00  0.00     0.211 HD
ENDBRANCH  21  33
ENDBRANCH  15  16
ENDBRANCH  10  15
BRANCH  12  35
ATOM     35  O   UNL     1      14.952  29.415  24.056  1.00  0.00    -0.385 OA
ATOM     36  H   UNL     1      14.340  29.864  23.451  1.00  0.00     0.211 HD
ENDBRANCH  12  35
BRANCH  13  37
ATOM     37  O   UNL     1      16.850  31.037  25.785  1.00  0.00    -0.387 OA
ATOM     38  H   UNL     1      16.877  31.885  26.309  1.00  0.00     0.211 HD
ENDBRANCH  13  37
BRANCH  14  39
ATOM     39  O   UNL     1      18.214  32.784  24.588  1.00  0.00    -0.387 OA
ATOM     40  H   UNL     1      18.896  33.347  24.152  1.00  0.00     0.211 HD
ENDBRANCH  14  39
ENDBRANCH   8   9
ENDBRANCH   7   8
ENDBRANCH   1   7
BRANCH   1  41
ATOM     41  C   UNL     1      21.364  28.025  25.422  1.00  0.00     0.364 C 
ATOM     42  O   UNL     1      22.459  28.343  25.924  1.00  0.00    -0.246 OA
BRANCH  41  43
ATOM     43  O   UNL     1      20.617  27.083  26.110  1.00  0.00    -0.477 OA
ATOM     44  H   UNL     1      19.590  27.105  26.147  1.00  0.00     0.296 HD
ENDBRANCH  41  43
ENDBRANCH   1  41
BRANCH   3  45
ATOM     45  O   UNL     1      21.938  30.746  21.567  1.00  0.00    -0.391 OA
ATOM     46  H   UNL     1      21.201  31.247  21.954  1.00  0.00     0.211 HD
ENDBRANCH   3  45
BRANCH   5  47
ATOM     47  C   UNL     1      21.683  25.849  22.090  1.00  0.00     0.176 C 
BRANCH  47  48
ATOM     48  O   UNL     1      20.421  25.845  21.408  1.00  0.00    -0.388 OA
ATOM     49  H   UNL     1      19.697  26.064  22.061  1.00  0.00     0.211 HD
ENDBRANCH  47  48
BRANCH  47  50
ATOM     50  C   UNL     1      21.615  24.813  23.190  1.00  0.00     0.165 C 
BRANCH  50  51
ATOM     51  O   UNL     1      20.415  25.006  23.923  1.00  0.00    -0.388 OA
ATOM     52  H   UNL     1      20.564  24.638  24.821  1.00  0.00     0.211 HD
ENDBRANCH  50  51
BRANCH  50  53
ATOM     53  C   UNL     1      22.766  24.859  24.118  1.00  0.00     0.154 C 
BRANCH  53  54
ATOM     54  N   UNL     1      22.378  24.702  25.490  1.00  0.00    -0.319 N 
ATOM     55  C   UNL     1      23.224  24.469  26.597  1.00  0.00     0.407 C 
ATOM     56  H   UNL     1      21.333  24.762  25.770  1.00  0.00     0.167 HD
ATOM     57  O   UNL     1      24.446  24.363  26.467  1.00  0.00    -0.225 OA
BRANCH  55  58
ATOM     58  O   UNL     1      22.727  24.343  27.899  1.00  0.00    -0.443 OA
BRANCH  58  59
ATOM     59  C   UNL     1      22.647  25.465  28.761  1.00  0.00     0.294 C 
BRANCH  59  60
ATOM     60  C   UNL     1      23.888  25.581  29.589  1.00  0.00     0.120 A 
ATOM     61  C   UNL     1      24.999  26.365  29.310  1.00  0.00     0.139 A 
ATOM     62  N   UNL     1      24.168  24.961  30.744  1.00  0.00    -0.132 NA
ATOM     63  N   UNL     1      25.894  26.189  30.298  1.00  0.00    -0.241 N 
ATOM     64  N   UNL     1      25.368  25.330  31.157  1.00  0.00    -0.066 NA
BRANCH  63  65
ATOM     65  C   UNL     1      27.215  26.812  30.433  1.00  0.00     0.268 C 
BRANCH  65  66
ATOM     66  C   UNL     1      28.149  26.098  29.545  1.00  0.00     0.325 C 
ATOM     67  O   UNL     1      28.573  24.975  29.856  1.00  0.00    -0.250 OA
BRANCH  66  68
ATOM     68  O   UNL     1      28.555  26.685  28.364  1.00  0.00    -0.480 OA
ATOM     69  H   UNL     1      28.727  27.664  28.271  1.00  0.00     0.296 HD
ENDBRANCH  66  68
ENDBRANCH  65  66
ENDBRANCH  63  65
ENDBRANCH  59  60
ENDBRANCH  58  59
ENDBRANCH  55  58
ENDBRANCH  53  54
ENDBRANCH  50  53
ENDBRANCH  47  50
ENDBRANCH   5  47
BRANCH   4  70
ATOM     70  N   UNL     1      22.879  28.111  20.470  1.00  0.00    -0.348 N 
ATOM     71  C   UNL     1      22.451  27.663  19.172  1.00  0.00     0.217 C 
ATOM     72  H   UNL     1      23.897  28.289  20.586  1.00  0.00     0.163 HD
ATOM     73  C   UNL     1      23.470  27.467  18.115  1.00  0.00     0.114 C 
ATOM     74  O   UNL     1      21.242  27.441  18.933  1.00  0.00    -0.275 OA
ENDBRANCH   4  70
TORSDOF 32
