REMARK VINA RESULT:    -5.907      4.567     11.257
REMARK INTER + INTRA:         -23.971
REMARK INTER:                 -16.563
REMARK INTRA:                  -7.407
REMARK UNBOUND:                -7.877
REMARK SMILES CC(=O)N[C@@H]1[C@@H](O)C[C@](OC[C@H]2O[C@@H](O[C@H]3[C@H](O)[C@@H](O)[C@H](OCCN=[N+]=[N-])O[C@@H]3CO)[C@H](O)[C@@H](O)[C@H]2O)(C(=O)O)O[C@H]1C(O)[C@H](O)CNC(=O)OCc1cn(CC(O)CCc2ccccc2)nn1
REMARK SMILES IDX 43 1 42 2 9 3 8 4 41 5 6 6 5 7 10 8 11 9 12 10 14 11 13 12
REMARK SMILES IDX 32 13 34 14 36 15 15 16 16 17 29 18 28 19 21 20 17 21 19 22
REMARK SMILES IDX 30 23 31 24 22 26 23 27 24 28 25 29 26 30 27 31 18 32 20 34
REMARK SMILES IDX 33 36 35 38 37 40 38 42 39 43 40 44 7 46 4 48 2 49 1 51 3 52
REMARK SMILES IDX 44 53 45 55 46 56 47 58 48 59 49 60 50 62 51 63 52 64 53 65
REMARK SMILES IDX 54 66 68 67 55 68 67 69 56 70 57 71 58 72 59 74 60 75 61 76
REMARK SMILES IDX 62 77 66 78 63 79 65 80 64 81
REMARK H PARENT 31 25 18 33 20 35 33 37 35 39 37 41 40 45 7 47 4 50 44 54
REMARK H PARENT 46 57 48 61 58 73
REMARK Flexibility Score: inf
ROOT
ATOM      1  C   UNL     1      22.452  18.628  12.660  1.00  0.00     0.176 C 
ENDROOT
BRANCH   1   2
ATOM      2  C   UNL     1      22.120  19.771  11.682  1.00  0.00     0.178 C 
ATOM      3  C   UNL     1      21.689  22.038  12.230  1.00  0.00     0.272 C 
ATOM      4  C   UNL     1      20.275  21.625  12.473  1.00  0.00     0.113 C 
ATOM      5  O   UNL     1      22.489  20.927  12.234  1.00  0.00    -0.332 OA
ATOM      6  C   UNL     1      19.798  20.687  11.423  1.00  0.00     0.145 C 
ATOM      7  C   UNL     1      20.749  19.558  11.162  1.00  0.00     0.142 C 
BRANCH   3   8
ATOM      8  O   UNL     1      22.103  22.984  13.188  1.00  0.00    -0.338 OA
BRANCH   8   9
ATOM      9  C   UNL     1      22.947  22.550  14.146  1.00  0.00     0.199 C 
BRANCH   9  10
ATOM     10  C   UNL     1      23.685  23.730  14.821  1.00  0.00     0.179 C 
ATOM     11  C   UNL     1      25.111  24.344  16.476  1.00  0.00     0.282 C 
ATOM     12  O   UNL     1      24.294  23.367  15.968  1.00  0.00    -0.341 OA
ATOM     13  C   UNL     1      26.205  24.549  15.391  1.00  0.00     0.202 C 
ATOM     14  C   UNL     1      25.459  25.375  14.337  1.00  0.00     0.179 C 
ATOM     15  C   UNL     1      24.461  24.412  13.754  1.00  0.00     0.177 C 
BRANCH  11  16
ATOM     16  O   UNL     1      25.732  23.936  17.603  1.00  0.00    -0.341 OA
BRANCH  16  17
ATOM     17  C   UNL     1      25.192  24.252  18.828  1.00  0.00     0.184 C 
ATOM     18  C   UNL     1      24.079  25.244  18.756  1.00  0.00     0.178 C 
ATOM     19  O   UNL     1      24.209  26.382  19.486  1.00  0.00    -0.341 OA
ATOM     20  C   UNL     1      24.908  26.328  20.654  1.00  0.00     0.281 C 
ATOM     21  C   UNL     1      26.336  24.598  19.737  1.00  0.00     0.180 C 
ATOM     22  C   UNL     1      26.334  25.965  20.316  1.00  0.00     0.202 C 
BRANCH  18  23
ATOM     23  C   UNL     1      22.789  24.575  19.178  1.00  0.00     0.191 C 
BRANCH  23  24
ATOM     24  O   UNL     1      22.284  23.758  18.169  1.00  0.00    -0.394 OA
ATOM     25  H   UNL     1      21.663  23.113  18.625  1.00  0.00     0.210 HD
ENDBRANCH  23  24
ENDBRANCH  18  23
BRANCH  20  26
ATOM     26  O   UNL     1      24.356  25.489  21.608  1.00  0.00    -0.350 OA
BRANCH  26  27
ATOM     27  C   UNL     1      23.765  26.254  22.616  1.00  0.00     0.169 C 
BRANCH  27  28
ATOM     28  C   UNL     1      22.254  26.130  22.433  1.00  0.00     0.119 C 
BRANCH  28  29
ATOM     29  N   UNL     1      21.748  24.938  23.057  1.00  0.00    -0.092 NA
ATOM     30  N   UNL     1      21.915  24.775  24.283  1.00  0.00     0.001 N 
ATOM     31  N   UNL     1      22.332  24.491  25.422  1.00  0.00    -0.003 NA
ENDBRANCH  28  29
ENDBRANCH  27  28
ENDBRANCH  26  27
ENDBRANCH  20  26
BRANCH  21  32
ATOM     32  O   UNL     1      26.396  23.708  20.844  1.00  0.00    -0.387 OA
ATOM     33  H   UNL     1      25.742  22.977  20.764  1.00  0.00     0.211 HD
ENDBRANCH  21  32
BRANCH  22  34
ATOM     34  O   UNL     1      26.801  26.903  19.390  1.00  0.00    -0.385 OA
ATOM     35  H   UNL     1      27.603  26.597  18.921  1.00  0.00     0.211 HD
ENDBRANCH  22  34
ENDBRANCH  16  17
ENDBRANCH  11  16
BRANCH  13  36
ATOM     36  O   UNL     1      27.330  25.143  15.857  1.00  0.00    -0.385 OA
ATOM     37  H   UNL     1      28.013  25.397  15.215  1.00  0.00     0.211 HD
ENDBRANCH  13  36
BRANCH  14  38
ATOM     38  O   UNL     1      26.338  25.873  13.379  1.00  0.00    -0.387 OA
ATOM     39  H   UNL     1      26.030  25.636  12.475  1.00  0.00     0.211 HD
ENDBRANCH  14  38
BRANCH  15  40
ATOM     40  O   UNL     1      25.200  23.475  13.025  1.00  0.00    -0.387 OA
ATOM     41  H   UNL     1      25.988  23.167  13.531  1.00  0.00     0.211 HD
ENDBRANCH  15  40
ENDBRANCH   9  10
ENDBRANCH   8   9
ENDBRANCH   3   8
BRANCH   3  42
ATOM     42  C   UNL     1      21.758  22.792  10.954  1.00  0.00     0.364 C 
ATOM     43  O   UNL     1      21.441  24.016  10.952  1.00  0.00    -0.246 OA
BRANCH  42  44
ATOM     44  O   UNL     1      22.151  22.236   9.769  1.00  0.00    -0.477 OA
ATOM     45  H   UNL     1      22.929  21.593   9.751  1.00  0.00     0.296 HD
ENDBRANCH  42  44
ENDBRANCH   3  42
BRANCH   6  46
ATOM     46  O   UNL     1      18.538  20.211  11.878  1.00  0.00    -0.391 OA
ATOM     47  H   UNL     1      17.936  20.000  11.136  1.00  0.00     0.211 HD
ENDBRANCH   6  46
BRANCH   7  48
ATOM     48  N   UNL     1      20.742  19.117   9.790  1.00  0.00    -0.348 N 
ATOM     49  C   UNL     1      19.717  18.311   9.224  1.00  0.00     0.217 C 
ATOM     50  H   UNL     1      21.536  19.385   9.135  1.00  0.00     0.163 HD
ATOM     51  C   UNL     1      19.822  17.928   7.800  1.00  0.00     0.114 C 
ATOM     52  O   UNL     1      18.757  17.937   9.906  1.00  0.00    -0.275 OA
ENDBRANCH   7  48
ENDBRANCH   1   2
BRANCH   1  53
ATOM     53  O   UNL     1      21.595  18.668  13.742  1.00  0.00    -0.388 OA
ATOM     54  H   UNL     1      22.024  19.013  14.562  1.00  0.00     0.211 HD
ENDBRANCH   1  53
BRANCH   1  55
ATOM     55  C   UNL     1      23.893  18.466  12.969  1.00  0.00     0.165 C 
BRANCH  55  56
ATOM     56  O   UNL     1      24.295  19.421  13.868  1.00  0.00    -0.388 OA
ATOM     57  H   UNL     1      23.621  20.110  14.037  1.00  0.00     0.211 HD
ENDBRANCH  55  56
BRANCH  55  58
ATOM     58  C   UNL     1      24.649  18.584  11.665  1.00  0.00     0.154 C 
BRANCH  58  59
ATOM     59  N   UNL     1      25.577  19.645  11.557  1.00  0.00    -0.319 N 
ATOM     60  C   UNL     1      26.987  19.554  11.411  1.00  0.00     0.407 C 
ATOM     61  H   UNL     1      25.225  20.664  11.580  1.00  0.00     0.167 HD
ATOM     62  O   UNL     1      27.540  18.450  11.347  1.00  0.00    -0.225 OA
BRANCH  60  63
ATOM     63  O   UNL     1      27.772  20.695  11.338  1.00  0.00    -0.443 OA
BRANCH  63  64
ATOM     64  C   UNL     1      28.427  21.339  12.367  1.00  0.00     0.294 C 
BRANCH  64  65
ATOM     65  C   UNL     1      27.944  21.093  13.734  1.00  0.00     0.120 A 
ATOM     66  C   UNL     1      28.694  20.678  14.829  1.00  0.00     0.138 A 
ATOM     67  N   UNL     1      26.668  21.193  14.160  1.00  0.00    -0.132 NA
ATOM     68  N   UNL     1      27.843  20.549  15.843  1.00  0.00    -0.250 N 
ATOM     69  N   UNL     1      26.639  20.860  15.433  1.00  0.00    -0.067 NA
BRANCH  68  70
ATOM     70  C   UNL     1      28.258  20.098  17.197  1.00  0.00     0.177 C 
BRANCH  70  71
ATOM     71  C   UNL     1      27.933  21.217  18.128  1.00  0.00     0.136 C 
BRANCH  71  72
ATOM     72  O   UNL     1      28.064  22.469  17.503  1.00  0.00    -0.391 OA
ATOM     73  H   UNL     1      28.597  23.095  18.037  1.00  0.00     0.211 HD
ENDBRANCH  71  72
BRANCH  71  74
ATOM     74  C   UNL     1      28.654  21.197  19.417  1.00  0.00     0.038 C 
BRANCH  74  75
ATOM     75  C   UNL     1      28.445  20.152  20.413  1.00  0.00     0.038 C 
BRANCH  75  76
ATOM     76  C   UNL     1      29.231  20.133  21.628  1.00  0.00    -0.048 A 
ATOM     77  C   UNL     1      29.229  21.219  22.498  1.00  0.00     0.004 A 
ATOM     78  C   UNL     1      30.078  19.067  21.935  1.00  0.00     0.004 A 
ATOM     79  C   UNL     1      30.028  21.229  23.604  1.00  0.00     0.000 A 
ATOM     80  C   UNL     1      30.870  19.108  23.056  1.00  0.00     0.000 A 
ATOM     81  C   UNL     1      30.869  20.192  23.924  1.00  0.00     0.000 A 
ENDBRANCH  75  76
ENDBRANCH  74  75
ENDBRANCH  71  74
ENDBRANCH  70  71
ENDBRANCH  68  70
ENDBRANCH  64  65
ENDBRANCH  63  64
ENDBRANCH  60  63
ENDBRANCH  58  59
ENDBRANCH  55  58
ENDBRANCH   1  55
TORSDOF 35
