REMARK VINA RESULT:    -5.597      2.904      7.773
REMARK INTER + INTRA:         -20.535
REMARK INTER:                 -15.461
REMARK INTRA:                  -5.074
REMARK UNBOUND:                -6.268
REMARK SMILES CC(=O)N[C@@H]1[C@@H](O)C[C@](OC[C@H]2O[C@@H](O[C@H]3[C@H](O)[C@@H](O)[C@H](OCCN=[N+]=[N-])O[C@@H]3CO)[C@H](O)[C@@H](O)[C@H]2O)(C(=O)O)O[C@H]1C(O)[C@H](O)CNC(=O)OCc1cn(C(C)(C)CO)nn1
REMARK SMILES IDX 9 1 8 2 6 3 5 4 42 5 41 6 10 7 11 8 12 9 14 10 13 11 32 12
REMARK SMILES IDX 34 13 36 14 15 15 16 16 29 17 28 18 21 19 17 20 19 21 30 22
REMARK SMILES IDX 31 23 22 25 23 26 24 27 25 28 26 29 27 30 18 31 20 33 33 35
REMARK SMILES IDX 35 37 37 39 38 41 39 42 40 43 7 45 43 47 44 48 45 50 46 51
REMARK SMILES IDX 47 53 48 54 49 55 50 57 51 58 52 59 53 60 54 61 62 62 55 63
REMARK SMILES IDX 61 64 56 65 57 66 58 67 59 68 60 69 4 71 2 72 1 74 3 75
REMARK H PARENT 31 24 18 32 20 34 33 36 35 38 37 40 40 44 7 46 44 49 46 52
REMARK H PARENT 48 56 60 70 4 73
REMARK Flexibility Score: inf
ROOT
ATOM      1  C   UNL     1      19.702  28.697  19.101  1.00  0.00     0.272 C 
ATOM      2  C   UNL     1      20.228  29.957  19.733  1.00  0.00     0.113 C 
ATOM      3  C   UNL     1      19.597  30.085  21.098  1.00  0.00     0.145 C 
ATOM      4  C   UNL     1      18.115  30.433  20.825  1.00  0.00     0.142 C 
ATOM      5  C   UNL     1      17.589  29.371  19.907  1.00  0.00     0.178 C 
ATOM      6  O   UNL     1      18.465  28.316  19.748  1.00  0.00    -0.332 OA
ENDROOT
BRANCH   1   7
ATOM      7  O   UNL     1      20.481  27.605  19.304  1.00  0.00    -0.338 OA
BRANCH   7   8
ATOM      8  C   UNL     1      21.803  27.625  19.316  1.00  0.00     0.199 C 
BRANCH   8   9
ATOM      9  C   UNL     1      22.658  27.102  20.395  1.00  0.00     0.179 C 
ATOM     10  C   UNL     1      22.923  27.262  22.681  1.00  0.00     0.282 C 
ATOM     11  O   UNL     1      22.039  27.431  21.648  1.00  0.00    -0.341 OA
ATOM     12  C   UNL     1      24.086  26.372  22.421  1.00  0.00     0.202 C 
ATOM     13  C   UNL     1      23.799  25.243  21.457  1.00  0.00     0.179 C 
ATOM     14  C   UNL     1      22.724  25.582  20.475  1.00  0.00     0.177 C 
BRANCH  10  15
ATOM     15  O   UNL     1      22.188  26.902  23.814  1.00  0.00    -0.341 OA
BRANCH  15  16
ATOM     16  C   UNL     1      22.952  26.748  24.947  1.00  0.00     0.184 C 
ATOM     17  C   UNL     1      22.596  25.520  25.756  1.00  0.00     0.178 C 
ATOM     18  O   UNL     1      22.486  25.764  27.109  1.00  0.00    -0.341 OA
ATOM     19  C   UNL     1      21.515  26.654  27.481  1.00  0.00     0.281 C 
ATOM     20  C   UNL     1      22.662  27.983  25.821  1.00  0.00     0.180 C 
ATOM     21  C   UNL     1      21.294  27.701  26.414  1.00  0.00     0.202 C 
BRANCH  17  22
ATOM     22  C   UNL     1      23.764  24.557  25.582  1.00  0.00     0.191 C 
BRANCH  22  23
ATOM     23  O   UNL     1      24.096  23.999  26.818  1.00  0.00    -0.394 OA
ATOM     24  H   UNL     1      23.622  23.170  27.015  1.00  0.00     0.210 HD
ENDBRANCH  22  23
ENDBRANCH  17  22
BRANCH  19  25
ATOM     25  O   UNL     1      21.895  27.203  28.693  1.00  0.00    -0.350 OA
BRANCH  25  26
ATOM     26  C   UNL     1      22.138  26.317  29.695  1.00  0.00     0.169 C 
BRANCH  26  27
ATOM     27  C   UNL     1      23.346  26.664  30.553  1.00  0.00     0.119 C 
BRANCH  27  28
ATOM     28  N   UNL     1      24.387  27.287  29.759  1.00  0.00    -0.092 NA
ATOM     29  N   UNL     1      25.180  26.538  29.171  1.00  0.00     0.001 N 
ATOM     30  N   UNL     1      25.781  25.908  28.274  1.00  0.00    -0.003 NA
ENDBRANCH  27  28
ENDBRANCH  26  27
ENDBRANCH  25  26
ENDBRANCH  19  25
BRANCH  20  31
ATOM     31  O   UNL     1      23.666  27.988  26.793  1.00  0.00    -0.387 OA
ATOM     32  H   UNL     1      24.421  28.496  26.392  1.00  0.00     0.211 HD
ENDBRANCH  20  31
BRANCH  21  33
ATOM     33  O   UNL     1      20.522  27.103  25.404  1.00  0.00    -0.385 OA
ATOM     34  H   UNL     1      20.021  26.317  25.776  1.00  0.00     0.211 HD
ENDBRANCH  21  33
ENDBRANCH  15  16
ENDBRANCH  10  15
BRANCH  12  35
ATOM     35  O   UNL     1      25.262  27.043  22.080  1.00  0.00    -0.385 OA
ATOM     36  H   UNL     1      25.261  27.134  21.106  1.00  0.00     0.211 HD
ENDBRANCH  12  35
BRANCH  13  37
ATOM     37  O   UNL     1      23.497  24.056  22.148  1.00  0.00    -0.387 OA
ATOM     38  H   UNL     1      22.565  24.076  22.495  1.00  0.00     0.211 HD
ENDBRANCH  13  37
BRANCH  14  39
ATOM     39  O   UNL     1      21.504  25.157  21.049  1.00  0.00    -0.387 OA
ATOM     40  H   UNL     1      21.574  24.218  21.320  1.00  0.00     0.211 HD
ENDBRANCH  14  39
ENDBRANCH   8   9
ENDBRANCH   7   8
ENDBRANCH   1   7
BRANCH   1  41
ATOM     41  C   UNL     1      19.286  28.888  17.712  1.00  0.00     0.364 C 
ATOM     42  O   UNL     1      18.819  27.974  17.027  1.00  0.00    -0.246 OA
BRANCH  41  43
ATOM     43  O   UNL     1      19.394  30.129  17.059  1.00  0.00    -0.477 OA
ATOM     44  H   UNL     1      18.566  30.472  16.587  1.00  0.00     0.296 HD
ENDBRANCH  41  43
ENDBRANCH   1  41
BRANCH   3  45
ATOM     45  O   UNL     1      19.561  28.808  21.663  1.00  0.00    -0.391 OA
ATOM     46  H   UNL     1      18.782  28.696  22.245  1.00  0.00     0.211 HD
ENDBRANCH   3  45
BRANCH   5  47
ATOM     47  C   UNL     1      16.390  28.742  20.640  1.00  0.00     0.176 C 
BRANCH  47  48
ATOM     48  O   UNL     1      16.375  27.356  20.350  1.00  0.00    -0.388 OA
ATOM     49  H   UNL     1      15.945  26.840  21.053  1.00  0.00     0.211 HD
ENDBRANCH  47  48
BRANCH  47  50
ATOM     50  C   UNL     1      15.065  29.246  20.094  1.00  0.00     0.165 C 
BRANCH  50  51
ATOM     51  O   UNL     1      14.009  28.467  20.435  1.00  0.00    -0.388 OA
ATOM     52  H   UNL     1      13.473  28.106  19.690  1.00  0.00     0.211 HD
ENDBRANCH  50  51
BRANCH  50  53
ATOM     53  C   UNL     1      15.156  29.414  18.590  1.00  0.00     0.154 C 
BRANCH  53  54
ATOM     54  N   UNL     1      13.924  29.441  17.891  1.00  0.00    -0.319 N 
ATOM     55  C   UNL     1      13.680  30.198  16.741  1.00  0.00     0.407 C 
ATOM     56  H   UNL     1      13.103  28.843  18.253  1.00  0.00     0.167 HD
ATOM     57  O   UNL     1      14.549  30.917  16.222  1.00  0.00    -0.225 OA
BRANCH  55  58
ATOM     58  O   UNL     1      12.417  30.183  16.103  1.00  0.00    -0.443 OA
BRANCH  58  59
ATOM     59  C   UNL     1      12.263  30.619  14.772  1.00  0.00     0.294 C 
BRANCH  59  60
ATOM     60  C   UNL     1      11.856  29.546  13.841  1.00  0.00     0.120 A 
ATOM     61  C   UNL     1      11.169  29.684  12.652  1.00  0.00     0.139 A 
ATOM     62  N   UNL     1      12.082  28.230  13.974  1.00  0.00    -0.132 NA
ATOM     63  N   UNL     1      10.996  28.458  12.097  1.00  0.00    -0.244 N 
ATOM     64  N   UNL     1      11.560  27.593  12.922  1.00  0.00    -0.066 NA
BRANCH  63  65
ATOM     65  C   UNL     1      10.326  28.189  10.850  1.00  0.00     0.082 C 
ATOM     66  C   UNL     1       9.557  29.402  10.416  1.00  0.00     0.039 C 
ATOM     67  C   UNL     1       9.305  27.057  11.035  1.00  0.00     0.039 C 
BRANCH  65  68
ATOM     68  C   UNL     1      11.250  27.768   9.744  1.00  0.00     0.186 C 
BRANCH  68  69
ATOM     69  O   UNL     1      12.441  27.244  10.189  1.00  0.00    -0.394 OA
ATOM     70  H   UNL     1      13.213  27.823  10.094  1.00  0.00     0.210 HD
ENDBRANCH  68  69
ENDBRANCH  65  68
ENDBRANCH  63  65
ENDBRANCH  59  60
ENDBRANCH  58  59
ENDBRANCH  55  58
ENDBRANCH  53  54
ENDBRANCH  50  53
ENDBRANCH  47  50
ENDBRANCH   5  47
BRANCH   4  71
ATOM     71  N   UNL     1      18.125  31.758  20.293  1.00  0.00    -0.348 N 
ATOM     72  C   UNL     1      17.941  32.956  21.024  1.00  0.00     0.217 C 
ATOM     73  H   UNL     1      18.279  31.904  19.251  1.00  0.00     0.163 HD
ATOM     74  C   UNL     1      17.966  34.295  20.378  1.00  0.00     0.114 C 
ATOM     75  O   UNL     1      17.751  32.896  22.250  1.00  0.00    -0.275 OA
ENDBRANCH   4  71
TORSDOF 32
