REMARK VINA RESULT:    -5.942     13.742     17.297
REMARK INTER + INTRA:         -21.106
REMARK INTER:                 -16.168
REMARK INTRA:                  -4.939
REMARK UNBOUND:                -5.091
REMARK SMILES C=CCCCCn1cc(COC(=O)NC[C@@H](O)C(O)[C@@H]2O[C@@](OC[C@H]3O[C@@H](O[C@H]4[C@H](O)[C@@H](O)[C@H](OCCN=[N+]=[N-])O[C@@H]4CO)[C@H](O)[C@@H](O)[C@H]3O)(C(=O)O)C[C@H](O)[C@H]2NC(C)=O)nn1
REMARK SMILES IDX 18 1 20 2 22 3 54 4 21 5 55 6 57 7 23 8 24 9 25 10 27 11
REMARK SMILES IDX 26 12 45 13 47 14 49 15 28 16 29 17 42 18 41 19 34 20 30 21
REMARK SMILES IDX 32 22 43 23 44 24 35 26 36 27 37 28 38 29 39 30 40 31 31 32
REMARK SMILES IDX 33 34 46 36 48 38 50 40 51 42 52 43 53 44 56 46 58 48 59 49
REMARK SMILES IDX 60 51 61 52 19 53 16 55 17 56 15 58 14 59 12 60 13 62 11 63
REMARK SMILES IDX 10 64 9 65 8 66 62 67 7 68 63 69 6 70 5 71 4 72 3 73 2 74
REMARK SMILES IDX 1 75
REMARK H PARENT 44 25 31 33 33 35 46 37 48 39 50 41 53 45 56 47 58 50 19 54
REMARK H PARENT 17 57 14 61
REMARK Flexibility Score: inf
ROOT
ATOM      1  C   UNL     1       8.584  23.433  34.681  1.00  0.00     0.176 C 
ENDROOT
BRANCH   1   2
ATOM      2  C   UNL     1       7.276  24.217  34.818  1.00  0.00     0.178 C 
ATOM      3  C   UNL     1       5.001  23.908  34.955  1.00  0.00     0.272 C 
ATOM      4  C   UNL     1       4.775  25.091  34.109  1.00  0.00     0.113 C 
ATOM      5  O   UNL     1       6.274  23.353  34.549  1.00  0.00    -0.332 OA
ATOM      6  C   UNL     1       5.824  26.115  34.148  1.00  0.00     0.145 C 
ATOM      7  C   UNL     1       7.237  25.580  34.317  1.00  0.00     0.142 C 
BRANCH   3   8
ATOM      8  O   UNL     1       4.181  22.831  34.650  1.00  0.00    -0.338 OA
BRANCH   8   9
ATOM      9  C   UNL     1       2.991  22.959  34.098  1.00  0.00     0.199 C 
BRANCH   9  10
ATOM     10  C   UNL     1       2.669  22.362  32.782  1.00  0.00     0.179 C 
ATOM     11  C   UNL     1       2.349  23.011  30.554  1.00  0.00     0.282 C 
ATOM     12  O   UNL     1       2.256  23.364  31.872  1.00  0.00    -0.341 OA
ATOM     13  C   UNL     1       2.467  21.557  30.316  1.00  0.00     0.202 C 
ATOM     14  C   UNL     1       3.564  20.880  31.092  1.00  0.00     0.179 C 
ATOM     15  C   UNL     1       3.960  21.775  32.225  1.00  0.00     0.177 C 
BRANCH  11  16
ATOM     16  O   UNL     1       3.262  23.841  29.961  1.00  0.00    -0.341 OA
BRANCH  16  17
ATOM     17  C   UNL     1       2.775  24.832  29.161  1.00  0.00     0.184 C 
ATOM     18  C   UNL     1       3.558  24.850  27.869  1.00  0.00     0.178 C 
ATOM     19  O   UNL     1       3.792  26.167  27.440  1.00  0.00    -0.341 OA
ATOM     20  C   UNL     1       4.822  26.675  28.226  1.00  0.00     0.281 C 
ATOM     21  C   UNL     1       2.995  26.224  29.795  1.00  0.00     0.180 C 
ATOM     22  C   UNL     1       4.450  26.616  29.677  1.00  0.00     0.202 C 
BRANCH  18  23
ATOM     23  C   UNL     1       2.899  24.041  26.764  1.00  0.00     0.191 C 
BRANCH  23  24
ATOM     24  O   UNL     1       3.554  22.836  26.576  1.00  0.00    -0.394 OA
ATOM     25  H   UNL     1       2.945  22.101  26.822  1.00  0.00     0.210 HD
ENDBRANCH  23  24
ENDBRANCH  18  23
BRANCH  20  26
ATOM     26  O   UNL     1       5.018  27.996  27.822  1.00  0.00    -0.350 OA
BRANCH  26  27
ATOM     27  C   UNL     1       4.499  28.276  26.571  1.00  0.00     0.169 C 
BRANCH  27  28
ATOM     28  C   UNL     1       5.665  28.629  25.665  1.00  0.00     0.119 C 
BRANCH  28  29
ATOM     29  N   UNL     1       6.272  27.458  25.091  1.00  0.00    -0.092 NA
ATOM     30  N   UNL     1       7.447  27.448  24.744  1.00  0.00     0.001 N 
ATOM     31  N   UNL     1       8.668  27.513  24.607  1.00  0.00    -0.003 NA
ENDBRANCH  28  29
ENDBRANCH  27  28
ENDBRANCH  26  27
ENDBRANCH  20  26
BRANCH  21  32
ATOM     32  O   UNL     1       2.259  27.114  29.016  1.00  0.00    -0.387 OA
ATOM     33  H   UNL     1       2.216  26.878  28.067  1.00  0.00     0.211 HD
ENDBRANCH  21  32
BRANCH  22  34
ATOM     34  O   UNL     1       5.250  25.755  30.422  1.00  0.00    -0.385 OA
ATOM     35  H   UNL     1       5.898  25.338  29.791  1.00  0.00     0.211 HD
ENDBRANCH  22  34
ENDBRANCH  16  17
ENDBRANCH  11  16
BRANCH  13  36
ATOM     36  O   UNL     1       1.252  20.965  30.690  1.00  0.00    -0.385 OA
ATOM     37  H   UNL     1       1.317  20.480  31.532  1.00  0.00     0.211 HD
ENDBRANCH  13  36
BRANCH  14  38
ATOM     38  O   UNL     1       4.659  20.557  30.287  1.00  0.00    -0.387 OA
ATOM     39  H   UNL     1       5.460  20.873  30.753  1.00  0.00     0.211 HD
ENDBRANCH  14  38
BRANCH  15  40
ATOM     40  O   UNL     1       4.830  22.794  31.817  1.00  0.00    -0.387 OA
ATOM     41  H   UNL     1       5.161  23.336  32.557  1.00  0.00     0.211 HD
ENDBRANCH  15  40
ENDBRANCH   9  10
ENDBRANCH   8   9
ENDBRANCH   3   8
BRANCH   3  42
ATOM     42  C   UNL     1       5.178  24.241  36.362  1.00  0.00     0.364 C 
ATOM     43  O   UNL     1       4.586  25.216  36.875  1.00  0.00    -0.246 OA
BRANCH  42  44
ATOM     44  O   UNL     1       5.995  23.525  37.186  1.00  0.00    -0.477 OA
ATOM     45  H   UNL     1       6.309  22.598  36.959  1.00  0.00     0.296 HD
ENDBRANCH  42  44
ENDBRANCH   3  42
BRANCH   6  46
ATOM     46  O   UNL     1       5.746  26.890  32.964  1.00  0.00    -0.391 OA
ATOM     47  H   UNL     1       5.311  27.764  33.127  1.00  0.00     0.211 HD
ENDBRANCH   6  46
BRANCH   7  48
ATOM     48  N   UNL     1       7.971  26.471  35.237  1.00  0.00    -0.348 N 
ATOM     49  C   UNL     1       8.681  27.614  34.804  1.00  0.00     0.217 C 
ATOM     50  H   UNL     1       8.002  26.289  36.277  1.00  0.00     0.163 HD
ATOM     51  C   UNL     1       9.422  28.481  35.794  1.00  0.00     0.114 C 
ATOM     52  O   UNL     1       8.687  27.896  33.579  1.00  0.00    -0.275 OA
ENDBRANCH   7  48
ENDBRANCH   1   2
BRANCH   1  53
ATOM     53  O   UNL     1       9.356  24.244  33.693  1.00  0.00    -0.388 OA
ATOM     54  H   UNL     1      10.093  23.585  33.483  1.00  0.00     0.211 HD
ENDBRANCH   1  53
BRANCH   1  55
ATOM     55  C   UNL     1       9.479  23.487  35.836  1.00  0.00     0.165 C 
BRANCH  55  56
ATOM     56  O   UNL     1       9.022  24.264  36.924  1.00  0.00    -0.388 OA
ATOM     57  H   UNL     1       8.036  24.245  36.855  1.00  0.00     0.211 HD
ENDBRANCH  55  56
BRANCH  55  58
ATOM     58  C   UNL     1      10.917  23.721  35.639  1.00  0.00     0.154 C 
BRANCH  58  59
ATOM     59  N   UNL     1      11.309  25.064  35.442  1.00  0.00    -0.319 N 
ATOM     60  C   UNL     1      12.570  25.670  35.402  1.00  0.00     0.407 C 
ATOM     61  H   UNL     1      10.485  25.761  35.292  1.00  0.00     0.167 HD
ATOM     62  O   UNL     1      13.608  25.007  35.561  1.00  0.00    -0.225 OA
BRANCH  60  63
ATOM     63  O   UNL     1      12.711  27.046  35.180  1.00  0.00    -0.443 OA
BRANCH  63  64
ATOM     64  C   UNL     1      12.376  27.554  33.887  1.00  0.00     0.294 C 
BRANCH  64  65
ATOM     65  C   UNL     1      13.237  28.713  33.540  1.00  0.00     0.120 A 
ATOM     66  C   UNL     1      13.039  29.545  32.439  1.00  0.00     0.138 A 
ATOM     67  N   UNL     1      14.327  29.185  34.163  1.00  0.00    -0.132 NA
ATOM     68  N   UNL     1      14.008  30.466  32.454  1.00  0.00    -0.252 N 
ATOM     69  N   UNL     1      14.778  30.247  33.488  1.00  0.00    -0.067 NA
BRANCH  68  70
ATOM     70  C   UNL     1      14.134  31.527  31.445  1.00  0.00     0.146 C 
BRANCH  70  71
ATOM     71  C   UNL     1      13.346  31.133  30.224  1.00  0.00     0.024 C 
BRANCH  71  72
ATOM     72  C   UNL     1      14.286  31.110  29.038  1.00  0.00     0.006 C 
BRANCH  72  73
ATOM     73  C   UNL     1      13.734  31.978  27.930  1.00  0.00     0.027 C 
BRANCH  73  74
ATOM     74  C   UNL     1      13.738  31.263  26.634  1.00  0.00    -0.035 C 
ATOM     75  C   UNL     1      14.861  31.107  25.961  1.00  0.00     0.004 C 
ENDBRANCH  73  74
ENDBRANCH  72  73
ENDBRANCH  71  72
ENDBRANCH  70  71
ENDBRANCH  68  70
ENDBRANCH  64  65
ENDBRANCH  63  64
ENDBRANCH  60  63
ENDBRANCH  58  59
ENDBRANCH  55  58
ENDBRANCH   1  55
TORSDOF 34
