REMARK VINA RESULT:    -5.165      2.272      2.929
REMARK INTER + INTRA:         -21.440
REMARK INTER:                 -15.104
REMARK INTRA:                  -6.336
REMARK UNBOUND:                -8.275
REMARK SMILES CC(=O)N[C@@H]1[C@@H](O)C[C@](OC[C@H]2O[C@@H](O[C@H]3[C@H](O)[C@@H](O)[C@H](OCCN=[N+]=[N-])O[C@@H]3CO)[C@H](O)[C@@H](O)[C@H]2O)(C(=O)O)O[C@H]1C(O)[C@H](O)CNC(=O)OCc1cn(C(C)(C)C(=O)O)nn1
REMARK SMILES IDX 9 1 8 2 6 3 5 4 42 5 41 6 10 7 11 8 12 9 14 10 13 11 32 12
REMARK SMILES IDX 34 13 36 14 15 15 16 16 29 17 28 18 21 19 17 20 19 21 30 22
REMARK SMILES IDX 31 23 22 25 23 26 24 27 25 28 26 29 27 30 18 31 20 33 33 35
REMARK SMILES IDX 35 37 37 39 38 41 39 42 40 43 7 45 43 47 44 48 45 50 46 51
REMARK SMILES IDX 47 53 48 54 49 55 50 57 51 58 52 59 53 60 54 61 63 62 55 63
REMARK SMILES IDX 62 64 56 65 57 66 58 67 59 68 60 69 61 70 4 72 2 73 1 75
REMARK SMILES IDX 3 76
REMARK H PARENT 31 24 18 32 20 34 33 36 35 38 37 40 40 44 7 46 44 49 46 52
REMARK H PARENT 48 56 61 71 4 74
REMARK Flexibility Score: inf
ROOT
ATOM      1  C   UNL     1      22.823  25.876  22.523  1.00  0.00     0.272 C 
ATOM      2  C   UNL     1      23.366  24.651  23.134  1.00  0.00     0.113 C 
ATOM      3  C   UNL     1      24.688  24.195  22.584  1.00  0.00     0.145 C 
ATOM      4  C   UNL     1      24.851  24.678  21.175  1.00  0.00     0.142 C 
ATOM      5  C   UNL     1      23.424  24.766  20.602  1.00  0.00     0.178 C 
ATOM      6  O   UNL     1      22.851  25.902  21.125  1.00  0.00    -0.332 OA
ENDROOT
BRANCH   1   7
ATOM      7  O   UNL     1      23.381  27.034  22.969  1.00  0.00    -0.338 OA
BRANCH   7   8
ATOM      8  C   UNL     1      23.991  27.853  22.071  1.00  0.00     0.199 C 
BRANCH   8   9
ATOM      9  C   UNL     1      23.708  29.308  22.368  1.00  0.00     0.179 C 
ATOM     10  C   UNL     1      22.063  30.905  22.100  1.00  0.00     0.282 C 
ATOM     11  O   UNL     1      22.351  29.492  22.111  1.00  0.00    -0.341 OA
ATOM     12  C   UNL     1      22.179  31.359  23.506  1.00  0.00     0.202 C 
ATOM     13  C   UNL     1      22.776  30.281  24.409  1.00  0.00     0.179 C 
ATOM     14  C   UNL     1      24.013  29.661  23.776  1.00  0.00     0.177 C 
BRANCH  10  15
ATOM     15  O   UNL     1      20.849  30.976  21.487  1.00  0.00    -0.341 OA
BRANCH  15  16
ATOM     16  C   UNL     1      19.943  29.998  21.860  1.00  0.00     0.184 C 
ATOM     17  C   UNL     1      19.081  29.638  20.691  1.00  0.00     0.178 C 
ATOM     18  O   UNL     1      17.875  29.050  21.103  1.00  0.00    -0.341 OA
ATOM     19  C   UNL     1      16.996  29.967  21.660  1.00  0.00     0.281 C 
ATOM     20  C   UNL     1      19.020  30.519  22.962  1.00  0.00     0.180 C 
ATOM     21  C   UNL     1      17.760  31.076  22.351  1.00  0.00     0.202 C 
BRANCH  17  22
ATOM     22  C   UNL     1      19.745  28.566  19.810  1.00  0.00     0.191 C 
BRANCH  22  23
ATOM     23  O   UNL     1      20.294  27.622  20.654  1.00  0.00    -0.394 OA
ATOM     24  H   UNL     1      19.556  27.220  21.202  1.00  0.00     0.210 HD
ENDBRANCH  22  23
ENDBRANCH  17  22
BRANCH  19  25
ATOM     25  O   UNL     1      16.211  29.254  22.565  1.00  0.00    -0.350 OA
BRANCH  25  26
ATOM     26  C   UNL     1      14.895  29.633  22.613  1.00  0.00     0.169 C 
BRANCH  26  27
ATOM     27  C   UNL     1      14.474  29.528  24.085  1.00  0.00     0.119 C 
BRANCH  27  28
ATOM     28  N   UNL     1      14.695  30.762  24.803  1.00  0.00    -0.092 NA
ATOM     29  N   UNL     1      15.821  30.969  25.280  1.00  0.00     0.001 N 
ATOM     30  N   UNL     1      16.848  31.041  25.941  1.00  0.00    -0.003 NA
ENDBRANCH  27  28
ENDBRANCH  26  27
ENDBRANCH  25  26
ENDBRANCH  19  25
BRANCH  20  31
ATOM     31  O   UNL     1      18.661  29.465  23.796  1.00  0.00    -0.387 OA
ATOM     32  H   UNL     1      19.430  28.906  24.069  1.00  0.00     0.211 HD
ENDBRANCH  20  31
BRANCH  21  33
ATOM     33  O   UNL     1      18.118  32.086  21.467  1.00  0.00    -0.385 OA
ATOM     34  H   UNL     1      17.562  32.113  20.653  1.00  0.00     0.211 HD
ENDBRANCH  21  33
ENDBRANCH  15  16
ENDBRANCH  10  15
BRANCH  12  35
ATOM     35  O   UNL     1      23.116  32.415  23.552  1.00  0.00    -0.385 OA
ATOM     36  H   UNL     1      23.260  32.777  24.439  1.00  0.00     0.211 HD
ENDBRANCH  12  35
BRANCH  13  37
ATOM     37  O   UNL     1      21.825  29.326  24.713  1.00  0.00    -0.387 OA
ATOM     38  H   UNL     1      22.234  28.423  24.740  1.00  0.00     0.211 HD
ENDBRANCH  13  37
BRANCH  14  39
ATOM     39  O   UNL     1      24.325  28.536  24.522  1.00  0.00    -0.387 OA
ATOM     40  H   UNL     1      23.564  27.894  24.434  1.00  0.00     0.211 HD
ENDBRANCH  14  39
ENDBRANCH   8   9
ENDBRANCH   7   8
ENDBRANCH   1   7
BRANCH   1  41
ATOM     41  C   UNL     1      21.319  25.882  22.825  1.00  0.00     0.364 C 
ATOM     42  O   UNL     1      20.829  26.765  23.561  1.00  0.00    -0.246 OA
BRANCH  41  43
ATOM     43  O   UNL     1      20.481  24.920  22.296  1.00  0.00    -0.477 OA
ATOM     44  H   UNL     1      20.669  23.931  22.326  1.00  0.00     0.296 HD
ENDBRANCH  41  43
ENDBRANCH   1  41
BRANCH   3  45
ATOM     45  O   UNL     1      25.704  24.712  23.360  1.00  0.00    -0.391 OA
ATOM     46  H   UNL     1      26.052  24.055  24.019  1.00  0.00     0.211 HD
ENDBRANCH   3  45
BRANCH   5  47
ATOM     47  C   UNL     1      23.435  24.813  19.101  1.00  0.00     0.176 C 
BRANCH  47  48
ATOM     48  O   UNL     1      22.378  24.054  18.604  1.00  0.00    -0.388 OA
ATOM     49  H   UNL     1      21.506  24.530  18.742  1.00  0.00     0.211 HD
ENDBRANCH  47  48
BRANCH  47  50
ATOM     50  C   UNL     1      23.252  26.237  18.629  1.00  0.00     0.165 C 
BRANCH  50  51
ATOM     51  O   UNL     1      21.904  26.503  18.353  1.00  0.00    -0.388 OA
ATOM     52  H   UNL     1      21.361  25.805  18.781  1.00  0.00     0.211 HD
ENDBRANCH  50  51
BRANCH  50  53
ATOM     53  C   UNL     1      24.060  26.554  17.399  1.00  0.00     0.154 C 
BRANCH  53  54
ATOM     54  N   UNL     1      24.111  25.432  16.494  1.00  0.00    -0.319 N 
ATOM     55  C   UNL     1      23.151  25.261  15.468  1.00  0.00     0.407 C 
ATOM     56  H   UNL     1      24.866  24.723  16.585  1.00  0.00     0.167 HD
ATOM     57  O   UNL     1      22.209  26.075  15.291  1.00  0.00    -0.225 OA
BRANCH  55  58
ATOM     58  O   UNL     1      23.209  24.164  14.597  1.00  0.00    -0.443 OA
BRANCH  58  59
ATOM     59  C   UNL     1      23.699  22.915  15.096  1.00  0.00     0.294 C 
BRANCH  59  60
ATOM     60  C   UNL     1      23.278  21.802  14.246  1.00  0.00     0.120 A 
ATOM     61  C   UNL     1      22.449  21.875  13.156  1.00  0.00     0.139 A 
ATOM     62  N   UNL     1      23.628  20.520  14.387  1.00  0.00    -0.132 NA
ATOM     63  N   UNL     1      22.308  20.633  12.651  1.00  0.00    -0.235 N 
ATOM     64  N   UNL     1      23.046  19.841  13.435  1.00  0.00    -0.066 NA
BRANCH  63  65
ATOM     65  C   UNL     1      21.538  20.186  11.509  1.00  0.00     0.155 C 
ATOM     66  C   UNL     1      22.223  19.033  10.838  1.00  0.00     0.049 C 
ATOM     67  C   UNL     1      21.391  21.306  10.485  1.00  0.00     0.049 C 
BRANCH  65  68
ATOM     68  C   UNL     1      20.182  19.831  11.985  1.00  0.00     0.331 C 
ATOM     69  O   UNL     1      19.193  20.213  11.342  1.00  0.00    -0.250 OA
BRANCH  68  70
ATOM     70  O   UNL     1      20.052  19.080  13.139  1.00  0.00    -0.479 OA
ATOM     71  H   UNL     1      20.014  18.067  13.134  1.00  0.00     0.296 HD
ENDBRANCH  68  70
ENDBRANCH  65  68
ENDBRANCH  63  65
ENDBRANCH  59  60
ENDBRANCH  58  59
ENDBRANCH  55  58
ENDBRANCH  53  54
ENDBRANCH  50  53
ENDBRANCH  47  50
ENDBRANCH   5  47
BRANCH   4  72
ATOM     72  N   UNL     1      25.555  23.739  20.341  1.00  0.00    -0.348 N 
ATOM     73  C   UNL     1      26.974  23.634  20.280  1.00  0.00     0.217 C 
ATOM     74  H   UNL     1      24.997  23.094  19.748  1.00  0.00     0.163 HD
ATOM     75  C   UNL     1      27.626  22.629  19.385  1.00  0.00     0.114 C 
ATOM     76  O   UNL     1      27.678  24.399  20.990  1.00  0.00    -0.275 OA
ENDBRANCH   4  72
TORSDOF 32
