REMARK VINA RESULT:    -6.276      3.037     10.100
REMARK INTER + INTRA:         -22.835
REMARK INTER:                 -14.526
REMARK INTRA:                  -8.309
REMARK UNBOUND:                -7.387
REMARK SMILES CC(=O)N[C@@H]1[C@@H](O)C[C@](OC[C@H]2O[C@@H](O[C@H]3[C@H](O)[C@@H](O)[C@H](OCCN=[N+]=[N-])O[C@@H]3CO)[C@H](O)[C@@H](O)[C@H]2O)(C(=O)O)O[C@H]1C(O)[C@H](O)CNC(=O)OCc1cn(C23CC4CC(CC(C4)C2)C3)nn1
REMARK SMILES IDX 9 1 8 2 6 3 5 4 42 5 41 6 10 7 11 8 12 9 14 10 13 11 32 12
REMARK SMILES IDX 34 13 36 14 15 15 16 16 29 17 28 18 21 19 17 20 19 21 30 22
REMARK SMILES IDX 31 23 22 25 23 26 24 27 25 28 26 29 27 30 18 31 20 33 33 35
REMARK SMILES IDX 35 37 37 39 38 41 39 42 40 43 7 45 43 47 44 48 45 50 46 51
REMARK SMILES IDX 47 53 48 54 49 55 50 57 51 58 52 59 53 60 54 61 67 62 55 63
REMARK SMILES IDX 66 64 56 65 65 66 64 67 57 68 60 69 62 70 58 71 59 72 61 73
REMARK SMILES IDX 63 74 4 75 2 76 1 78 3 79
REMARK H PARENT 31 24 18 32 20 34 33 36 35 38 37 40 40 44 7 46 44 49 46 52
REMARK H PARENT 48 56 4 77
REMARK Flexibility Score: inf
ROOT
ATOM      1  C   UNL     1      15.168  29.810  22.426  1.00  0.00     0.272 C 
ATOM      2  C   UNL     1      13.854  29.353  21.893  1.00  0.00     0.113 C 
ATOM      3  C   UNL     1      13.309  30.347  20.887  1.00  0.00     0.145 C 
ATOM      4  C   UNL     1      12.838  31.544  21.725  1.00  0.00     0.142 C 
ATOM      5  C   UNL     1      13.952  31.816  22.691  1.00  0.00     0.178 C 
ATOM      6  O   UNL     1      15.161  31.250  22.376  1.00  0.00    -0.332 OA
ENDROOT
BRANCH   1   7
ATOM      7  O   UNL     1      16.260  29.470  21.755  1.00  0.00    -0.338 OA
BRANCH   7   8
ATOM      8  C   UNL     1      17.487  29.912  21.854  1.00  0.00     0.199 C 
BRANCH   8   9
ATOM      9  C   UNL     1      18.464  29.920  20.726  1.00  0.00     0.179 C 
ATOM     10  C   UNL     1      19.493  28.726  19.125  1.00  0.00     0.282 C 
ATOM     11  O   UNL     1      18.542  28.598  20.158  1.00  0.00    -0.341 OA
ATOM     12  C   UNL     1      18.717  29.128  17.913  1.00  0.00     0.202 C 
ATOM     13  C   UNL     1      17.621  30.073  18.367  1.00  0.00     0.179 C 
ATOM     14  C   UNL     1      18.029  30.849  19.596  1.00  0.00     0.177 C 
BRANCH  10  15
ATOM     15  O   UNL     1      20.232  27.557  18.979  1.00  0.00    -0.341 OA
BRANCH  15  16
ATOM     16  C   UNL     1      21.437  27.699  19.601  1.00  0.00     0.184 C 
ATOM     17  C   UNL     1      22.653  27.332  18.830  1.00  0.00     0.178 C 
ATOM     18  O   UNL     1      23.736  27.961  19.487  1.00  0.00    -0.341 OA
ATOM     19  C   UNL     1      24.006  27.330  20.724  1.00  0.00     0.281 C 
ATOM     20  C   UNL     1      21.520  26.878  20.892  1.00  0.00     0.180 C 
ATOM     21  C   UNL     1      22.788  27.246  21.581  1.00  0.00     0.202 C 
BRANCH  17  22
ATOM     22  C   UNL     1      22.645  27.639  17.380  1.00  0.00     0.191 C 
BRANCH  22  23
ATOM     23  O   UNL     1      21.713  26.783  16.771  1.00  0.00    -0.394 OA
ATOM     24  H   UNL     1      21.620  25.930  17.270  1.00  0.00     0.210 HD
ENDBRANCH  22  23
ENDBRANCH  17  22
BRANCH  19  25
ATOM     25  O   UNL     1      24.925  28.148  21.342  1.00  0.00    -0.350 OA
BRANCH  25  26
ATOM     26  C   UNL     1      25.920  27.546  22.019  1.00  0.00     0.169 C 
BRANCH  26  27
ATOM     27  C   UNL     1      26.463  26.343  21.315  1.00  0.00     0.119 C 
BRANCH  27  28
ATOM     28  N   UNL     1      26.459  25.181  22.211  1.00  0.00    -0.092 NA
ATOM     29  N   UNL     1      25.544  24.377  22.087  1.00  0.00     0.001 N 
ATOM     30  N   UNL     1      24.579  23.608  22.287  1.00  0.00    -0.003 NA
ENDBRANCH  27  28
ENDBRANCH  26  27
ENDBRANCH  25  26
ENDBRANCH  19  25
BRANCH  20  31
ATOM     31  O   UNL     1      20.451  27.161  21.742  1.00  0.00    -0.387 OA
ATOM     32  H   UNL     1      20.246  28.120  21.687  1.00  0.00     0.211 HD
ENDBRANCH  20  31
BRANCH  21  33
ATOM     33  O   UNL     1      23.000  26.298  22.580  1.00  0.00    -0.385 OA
ATOM     34  H   UNL     1      23.954  26.189  22.758  1.00  0.00     0.211 HD
ENDBRANCH  21  33
ENDBRANCH  15  16
ENDBRANCH  10  15
BRANCH  12  35
ATOM     35  O   UNL     1      19.455  29.651  16.881  1.00  0.00    -0.385 OA
ATOM     36  H   UNL     1      20.233  29.076  16.688  1.00  0.00     0.211 HD
ENDBRANCH  12  35
BRANCH  13  37
ATOM     37  O   UNL     1      16.404  29.429  18.553  1.00  0.00    -0.387 OA
ATOM     38  H   UNL     1      16.515  28.451  18.324  1.00  0.00     0.211 HD
ENDBRANCH  13  37
BRANCH  14  39
ATOM     39  O   UNL     1      16.922  31.559  20.039  1.00  0.00    -0.387 OA
ATOM     40  H   UNL     1      16.082  31.225  19.628  1.00  0.00     0.211 HD
ENDBRANCH  14  39
ENDBRANCH   8   9
ENDBRANCH   7   8
ENDBRANCH   1   7
BRANCH   1  41
ATOM     41  C   UNL     1      15.239  29.556  23.875  1.00  0.00     0.364 C 
ATOM     42  O   UNL     1      16.163  29.879  24.633  1.00  0.00    -0.246 OA
BRANCH  41  43
ATOM     43  O   UNL     1      14.116  28.866  24.420  1.00  0.00    -0.477 OA
ATOM     44  H   UNL     1      14.282  28.164  25.109  1.00  0.00     0.296 HD
ENDBRANCH  41  43
ENDBRANCH   1  41
BRANCH   3  45
ATOM     45  O   UNL     1      14.343  30.795  20.075  1.00  0.00    -0.391 OA
ATOM     46  H   UNL     1      14.627  31.678  20.424  1.00  0.00     0.211 HD
ENDBRANCH   3  45
BRANCH   5  47
ATOM     47  C   UNL     1      14.279  33.358  22.740  1.00  0.00     0.176 C 
BRANCH  47  48
ATOM     48  O   UNL     1      15.192  33.465  21.670  1.00  0.00    -0.388 OA
ATOM     49  H   UNL     1      15.267  34.434  21.489  1.00  0.00     0.211 HD
ENDBRANCH  47  48
BRANCH  47  50
ATOM     50  C   UNL     1      14.941  33.695  23.999  1.00  0.00     0.165 C 
BRANCH  50  51
ATOM     51  O   UNL     1      14.327  34.709  24.756  1.00  0.00    -0.388 OA
ATOM     52  H   UNL     1      13.528  34.324  25.225  1.00  0.00     0.211 HD
ENDBRANCH  50  51
BRANCH  50  53
ATOM     53  C   UNL     1      16.401  33.942  23.971  1.00  0.00     0.154 C 
BRANCH  53  54
ATOM     54  N   UNL     1      17.206  32.777  23.964  1.00  0.00    -0.319 N 
ATOM     55  C   UNL     1      18.509  32.621  24.458  1.00  0.00     0.407 C 
ATOM     56  H   UNL     1      16.740  31.894  23.510  1.00  0.00     0.167 HD
ATOM     57  O   UNL     1      19.119  33.574  24.968  1.00  0.00    -0.225 OA
BRANCH  55  58
ATOM     58  O   UNL     1      19.120  31.347  24.364  1.00  0.00    -0.443 OA
BRANCH  58  59
ATOM     59  C   UNL     1      20.196  31.070  25.225  1.00  0.00     0.294 C 
BRANCH  59  60
ATOM     60  C   UNL     1      20.522  29.637  25.162  1.00  0.00     0.120 A 
ATOM     61  C   UNL     1      21.468  29.004  25.927  1.00  0.00     0.138 A 
ATOM     62  N   UNL     1      19.979  28.692  24.373  1.00  0.00    -0.132 NA
ATOM     63  N   UNL     1      21.467  27.714  25.581  1.00  0.00    -0.246 N 
ATOM     64  N   UNL     1      20.558  27.555  24.640  1.00  0.00    -0.066 NA
BRANCH  63  65
ATOM     65  C   UNL     1      22.342  26.727  26.184  1.00  0.00     0.065 C 
ATOM     66  C   UNL     1      22.019  25.384  25.609  1.00  0.00     0.034 C 
ATOM     67  C   UNL     1      23.790  27.128  25.988  1.00  0.00     0.034 C 
ATOM     68  C   UNL     1      22.094  26.671  27.681  1.00  0.00     0.034 C 
ATOM     69  C   UNL     1      22.930  24.330  26.183  1.00  0.00    -0.008 C 
ATOM     70  C   UNL     1      24.678  26.036  26.508  1.00  0.00    -0.008 C 
ATOM     71  C   UNL     1      23.030  25.635  28.257  1.00  0.00    -0.008 C 
ATOM     72  C   UNL     1      22.735  24.280  27.678  1.00  0.00     0.007 C 
ATOM     73  C   UNL     1      24.353  24.724  25.861  1.00  0.00     0.007 C 
ATOM     74  C   UNL     1      24.478  25.955  28.014  1.00  0.00     0.007 C 
ENDBRANCH  63  65
ENDBRANCH  59  60
ENDBRANCH  58  59
ENDBRANCH  55  58
ENDBRANCH  53  54
ENDBRANCH  50  53
ENDBRANCH  47  50
ENDBRANCH   5  47
BRANCH   4  75
ATOM     75  N   UNL     1      11.631  31.134  22.450  1.00  0.00    -0.348 N 
ATOM     76  C   UNL     1      10.606  32.069  22.764  1.00  0.00     0.217 C 
ATOM     77  H   UNL     1      11.512  30.135  22.753  1.00  0.00     0.163 HD
ATOM     78  C   UNL     1       9.376  31.629  23.517  1.00  0.00     0.114 C 
ATOM     79  O   UNL     1      10.756  33.255  22.400  1.00  0.00    -0.275 OA
ENDBRANCH   4  75
TORSDOF 30
