REMARK VINA RESULT:    -6.000      4.817      7.232
REMARK INTER + INTRA:         -24.224
REMARK INTER:                 -18.033
REMARK INTRA:                  -6.191
REMARK UNBOUND:                -7.877
REMARK SMILES CC(=O)N[C@@H]1[C@@H](O)C[C@](OC[C@H]2O[C@@H](O[C@H]3[C@H](O)[C@@H](O)[C@H](OCCN=[N+]=[N-])O[C@@H]3CO)[C@H](O)[C@@H](O)[C@H]2O)(C(=O)O)O[C@H]1C(O)[C@H](O)CNC(=O)OCc1cn(CC(O)CCc2ccccc2)nn1
REMARK SMILES IDX 43 1 42 2 9 3 8 4 41 5 6 6 5 7 10 8 11 9 12 10 14 11 13 12
REMARK SMILES IDX 32 13 34 14 36 15 15 16 16 17 29 18 28 19 21 20 17 21 19 22
REMARK SMILES IDX 30 23 31 24 22 26 23 27 24 28 25 29 26 30 27 31 18 32 20 34
REMARK SMILES IDX 33 36 35 38 37 40 38 42 39 43 40 44 7 46 4 48 2 49 1 51 3 52
REMARK SMILES IDX 44 53 45 55 46 56 47 58 48 59 49 60 50 62 51 63 52 64 53 65
REMARK SMILES IDX 54 66 68 67 55 68 67 69 56 70 57 71 58 72 59 74 60 75 61 76
REMARK SMILES IDX 62 77 66 78 63 79 65 80 64 81
REMARK H PARENT 31 25 18 33 20 35 33 37 35 39 37 41 40 45 7 47 4 50 44 54
REMARK H PARENT 46 57 48 61 58 73
REMARK Flexibility Score: inf
ROOT
ATOM      1  C   UNL     1      25.986  23.851  12.920  1.00  0.00     0.176 C 
ENDROOT
BRANCH   1   2
ATOM      2  C   UNL     1      25.612  22.500  13.559  1.00  0.00     0.178 C 
ATOM      3  C   UNL     1      23.588  21.297  13.270  1.00  0.00     0.272 C 
ATOM      4  C   UNL     1      23.023  22.145  14.360  1.00  0.00     0.113 C 
ATOM      5  O   UNL     1      24.720  21.889  12.777  1.00  0.00    -0.332 OA
ATOM      6  C   UNL     1      23.996  22.317  15.470  1.00  0.00     0.145 C 
ATOM      7  C   UNL     1      25.363  22.718  15.003  1.00  0.00     0.142 C 
BRANCH   3   8
ATOM      8  O   UNL     1      22.630  21.080  12.260  1.00  0.00    -0.338 OA
BRANCH   8   9
ATOM      9  C   UNL     1      21.442  21.703  12.404  1.00  0.00     0.199 C 
BRANCH   9  10
ATOM     10  C   UNL     1      20.385  21.128  11.432  1.00  0.00     0.179 C 
ATOM     11  C   UNL     1      20.040  20.109   9.434  1.00  0.00     0.282 C 
ATOM     12  O   UNL     1      20.914  20.797  10.236  1.00  0.00    -0.341 OA
ATOM     13  C   UNL     1      19.738  18.797  10.211  1.00  0.00     0.202 C 
ATOM     14  C   UNL     1      18.759  19.280  11.285  1.00  0.00     0.179 C 
ATOM     15  C   UNL     1      19.602  20.127  12.198  1.00  0.00     0.177 C 
BRANCH  11  16
ATOM     16  O   UNL     1      20.610  19.761   8.261  1.00  0.00    -0.341 OA
BRANCH  16  17
ATOM     17  C   UNL     1      20.627  20.661   7.221  1.00  0.00     0.184 C 
ATOM     18  C   UNL     1      21.929  21.373   7.065  1.00  0.00     0.178 C 
ATOM     19  O   UNL     1      21.907  22.731   7.101  1.00  0.00    -0.341 OA
ATOM     20  C   UNL     1      20.797  23.374   6.643  1.00  0.00     0.281 C 
ATOM     21  C   UNL     1      19.408  21.525   7.366  1.00  0.00     0.180 C 
ATOM     22  C   UNL     1      19.642  22.982   7.532  1.00  0.00     0.202 C 
BRANCH  18  23
ATOM     23  C   UNL     1      22.568  20.962   5.755  1.00  0.00     0.191 C 
BRANCH  23  24
ATOM     24  O   UNL     1      22.508  19.582   5.571  1.00  0.00    -0.394 OA
ATOM     25  H   UNL     1      23.230  19.198   6.153  1.00  0.00     0.210 HD
ENDBRANCH  23  24
ENDBRANCH  18  23
BRANCH  20  26
ATOM     26  O   UNL     1      20.532  23.163   5.300  1.00  0.00    -0.350 OA
BRANCH  26  27
ATOM     27  C   UNL     1      20.787  24.334   4.584  1.00  0.00     0.169 C 
BRANCH  27  28
ATOM     28  C   UNL     1      19.484  24.712   3.882  1.00  0.00     0.119 C 
BRANCH  28  29
ATOM     29  N   UNL     1      18.377  23.943   4.384  1.00  0.00    -0.092 NA
ATOM     30  N   UNL     1      17.670  23.301   3.581  1.00  0.00     0.001 N 
ATOM     31  N   UNL     1      16.814  22.908   2.764  1.00  0.00    -0.003 NA
ENDBRANCH  28  29
ENDBRANCH  27  28
ENDBRANCH  26  27
ENDBRANCH  20  26
BRANCH  21  32
ATOM     32  O   UNL     1      18.554  21.396   6.237  1.00  0.00    -0.387 OA
ATOM     33  H   UNL     1      17.696  21.860   6.370  1.00  0.00     0.211 HD
ENDBRANCH  21  32
BRANCH  22  34
ATOM     34  O   UNL     1      20.000  23.286   8.849  1.00  0.00    -0.385 OA
ATOM     35  H   UNL     1      19.316  23.813   9.310  1.00  0.00     0.211 HD
ENDBRANCH  22  34
ENDBRANCH  16  17
ENDBRANCH  11  16
BRANCH  13  36
ATOM     36  O   UNL     1      19.250  17.802   9.431  1.00  0.00    -0.385 OA
ATOM     37  H   UNL     1      19.043  16.951   9.851  1.00  0.00     0.211 HD
ENDBRANCH  13  36
BRANCH  14  38
ATOM     38  O   UNL     1      18.175  18.204  11.949  1.00  0.00    -0.387 OA
ATOM     39  H   UNL     1      18.406  17.359  11.503  1.00  0.00     0.211 HD
ENDBRANCH  14  38
BRANCH  15  40
ATOM     40  O   UNL     1      20.465  19.249  12.862  1.00  0.00    -0.387 OA
ATOM     41  H   UNL     1      20.354  19.307  13.839  1.00  0.00     0.211 HD
ENDBRANCH  15  40
ENDBRANCH   9  10
ENDBRANCH   8   9
ENDBRANCH   3   8
BRANCH   3  42
ATOM     42  C   UNL     1      23.837  19.934  13.800  1.00  0.00     0.364 C 
ATOM     43  O   UNL     1      24.964  19.398  13.596  1.00  0.00    -0.246 OA
BRANCH  42  44
ATOM     44  O   UNL     1      22.910  19.216  14.504  1.00  0.00    -0.477 OA
ATOM     45  H   UNL     1      22.735  19.439  15.472  1.00  0.00     0.296 HD
ENDBRANCH  42  44
ENDBRANCH   3  42
BRANCH   6  46
ATOM     46  O   UNL     1      23.430  23.300  16.327  1.00  0.00    -0.391 OA
ATOM     47  H   UNL     1      22.720  23.807  15.884  1.00  0.00     0.211 HD
ENDBRANCH   6  46
BRANCH   7  48
ATOM     48  N   UNL     1      26.420  22.193  15.829  1.00  0.00    -0.348 N 
ATOM     49  C   UNL     1      26.772  22.730  17.098  1.00  0.00     0.217 C 
ATOM     50  H   UNL     1      26.997  21.361  15.502  1.00  0.00     0.163 HD
ATOM     51  C   UNL     1      27.875  22.098  17.853  1.00  0.00     0.114 C 
ATOM     52  O   UNL     1      26.169  23.703  17.563  1.00  0.00    -0.275 OA
ENDBRANCH   7  48
ENDBRANCH   1   2
BRANCH   1  53
ATOM     53  O   UNL     1      27.049  24.414  13.599  1.00  0.00    -0.388 OA
ATOM     54  H   UNL     1      26.902  24.466  14.574  1.00  0.00     0.211 HD
ENDBRANCH   1  53
BRANCH   1  55
ATOM     55  C   UNL     1      24.842  24.747  12.632  1.00  0.00     0.165 C 
BRANCH  55  56
ATOM     56  O   UNL     1      24.665  24.869  11.277  1.00  0.00    -0.388 OA
ATOM     57  H   UNL     1      24.510  24.017  10.823  1.00  0.00     0.211 HD
ENDBRANCH  55  56
BRANCH  55  58
ATOM     58  C   UNL     1      25.143  26.083  13.272  1.00  0.00     0.154 C 
BRANCH  58  59
ATOM     59  N   UNL     1      24.697  26.272  14.600  1.00  0.00    -0.319 N 
ATOM     60  C   UNL     1      25.487  26.486  15.760  1.00  0.00     0.407 C 
ATOM     61  H   UNL     1      23.639  26.264  14.812  1.00  0.00     0.167 HD
ATOM     62  O   UNL     1      26.719  26.543  15.676  1.00  0.00    -0.225 OA
BRANCH  60  63
ATOM     63  O   UNL     1      24.899  26.636  17.007  1.00  0.00    -0.443 OA
BRANCH  63  64
ATOM     64  C   UNL     1      23.554  26.666  17.311  1.00  0.00     0.294 C 
BRANCH  64  65
ATOM     65  C   UNL     1      23.115  25.922  18.502  1.00  0.00     0.120 A 
ATOM     66  C   UNL     1      23.316  26.270  19.832  1.00  0.00     0.138 A 
ATOM     67  N   UNL     1      22.464  24.740  18.509  1.00  0.00    -0.132 NA
ATOM     68  N   UNL     1      22.786  25.293  20.563  1.00  0.00    -0.250 N 
ATOM     69  N   UNL     1      22.280  24.388  19.764  1.00  0.00    -0.067 NA
BRANCH  68  70
ATOM     70  C   UNL     1      22.817  25.283  22.049  1.00  0.00     0.177 C 
BRANCH  70  71
ATOM     71  C   UNL     1      21.471  24.820  22.492  1.00  0.00     0.136 C 
BRANCH  71  72
ATOM     72  O   UNL     1      20.446  25.637  21.985  1.00  0.00    -0.391 OA
ATOM     73  H   UNL     1      20.464  25.690  21.006  1.00  0.00     0.211 HD
ENDBRANCH  71  72
BRANCH  71  74
ATOM     74  C   UNL     1      21.316  24.628  23.949  1.00  0.00     0.038 C 
BRANCH  74  75
ATOM     75  C   UNL     1      22.456  24.599  24.858  1.00  0.00     0.038 C 
BRANCH  75  76
ATOM     76  C   UNL     1      22.330  25.117  26.204  1.00  0.00    -0.048 A 
ATOM     77  C   UNL     1      21.846  26.401  26.433  1.00  0.00     0.004 A 
ATOM     78  C   UNL     1      22.761  24.386  27.312  1.00  0.00     0.004 A 
ATOM     79  C   UNL     1      21.799  26.914  27.696  1.00  0.00     0.000 A 
ATOM     80  C   UNL     1      22.701  24.932  28.571  1.00  0.00     0.000 A 
ATOM     81  C   UNL     1      22.219  26.213  28.800  1.00  0.00     0.000 A 
ENDBRANCH  75  76
ENDBRANCH  74  75
ENDBRANCH  71  74
ENDBRANCH  70  71
ENDBRANCH  68  70
ENDBRANCH  64  65
ENDBRANCH  63  64
ENDBRANCH  60  63
ENDBRANCH  58  59
ENDBRANCH  55  58
ENDBRANCH   1  55
TORSDOF 35
