REMARK VINA RESULT:    -4.211     12.814     18.825
REMARK INTER + INTRA:         -22.523
REMARK INTER:                 -15.493
REMARK INTRA:                  -7.029
REMARK UNBOUND:               -11.418
REMARK SMILES CC(=O)N[C@@H]1[C@@H](O)C[C@](OC[C@H]2O[C@@H](O[C@H]3[C@H](O)[C@@H](O)[C@H](OCCN=[N+]=[N-])O[C@@H]3CO)[C@H](O)[C@@H](O)[C@H]2O)(C(=O)O)O[C@H]1C(O)[C@H](O)CNC(=O)OCc1cn(CC(=O)NCc2cccs2)nn1
REMARK SMILES IDX 43 1 42 2 9 3 8 4 41 5 6 6 5 7 10 8 11 9 12 10 14 11 13 12
REMARK SMILES IDX 32 13 34 14 36 15 15 16 16 17 29 18 28 19 21 20 17 21 19 22
REMARK SMILES IDX 30 23 31 24 22 26 23 27 24 28 25 29 26 30 27 31 18 32 20 34
REMARK SMILES IDX 33 36 35 38 37 40 38 42 39 43 40 44 7 46 4 48 2 49 1 51 3 52
REMARK SMILES IDX 44 53 45 55 46 56 47 58 48 59 49 60 50 62 51 63 52 64 53 65
REMARK SMILES IDX 54 66 67 67 55 68 66 69 56 70 57 71 58 72 59 73 60 75 61 76
REMARK SMILES IDX 62 77 65 78 63 79 64 80
REMARK H PARENT 31 25 18 33 20 35 33 37 35 39 37 41 40 45 7 47 4 50 44 54
REMARK H PARENT 46 57 48 61 59 74
REMARK Flexibility Score: inf
ROOT
ATOM      1  C   UNL     1      15.740  30.565  20.799  1.00  0.00     0.176 C 
ENDROOT
BRANCH   1   2
ATOM      2  C   UNL     1      15.478  31.306  22.084  1.00  0.00     0.178 C 
ATOM      3  C   UNL     1      16.907  30.696  23.867  1.00  0.00     0.272 C 
ATOM      4  C   UNL     1      15.925  29.549  24.162  1.00  0.00     0.113 C 
ATOM      5  O   UNL     1      16.642  31.402  22.764  1.00  0.00    -0.332 OA
ATOM      6  C   UNL     1      14.549  30.072  24.069  1.00  0.00     0.145 C 
ATOM      7  C   UNL     1      14.274  30.894  22.838  1.00  0.00     0.142 C 
BRANCH   3   8
ATOM      8  O   UNL     1      18.129  30.072  23.783  1.00  0.00    -0.338 OA
BRANCH   8   9
ATOM      9  C   UNL     1      19.184  30.676  23.233  1.00  0.00     0.199 C 
BRANCH   9  10
ATOM     10  C   UNL     1      20.368  29.860  22.799  1.00  0.00     0.179 C 
ATOM     11  C   UNL     1      21.568  28.098  23.648  1.00  0.00     0.282 C 
ATOM     12  O   UNL     1      20.293  28.674  23.570  1.00  0.00    -0.341 OA
ATOM     13  C   UNL     1      22.253  28.084  22.323  1.00  0.00     0.202 C 
ATOM     14  C   UNL     1      21.379  28.371  21.147  1.00  0.00     0.179 C 
ATOM     15  C   UNL     1      20.291  29.373  21.368  1.00  0.00     0.177 C 
BRANCH  11  16
ATOM     16  O   UNL     1      21.549  26.847  24.199  1.00  0.00    -0.341 OA
BRANCH  16  17
ATOM     17  C   UNL     1      22.637  26.590  25.032  1.00  0.00     0.184 C 
ATOM     18  C   UNL     1      22.520  25.353  25.808  1.00  0.00     0.178 C 
ATOM     19  O   UNL     1      22.339  25.444  27.162  1.00  0.00    -0.341 OA
ATOM     20  C   UNL     1      22.057  26.661  27.692  1.00  0.00     0.281 C 
ATOM     21  C   UNL     1      22.926  27.853  25.791  1.00  0.00     0.180 C 
ATOM     22  C   UNL     1      23.185  27.613  27.257  1.00  0.00     0.202 C 
BRANCH  18  23
ATOM     23  C   UNL     1      23.792  24.498  25.637  1.00  0.00     0.191 C 
BRANCH  23  24
ATOM     24  O   UNL     1      24.224  23.958  26.828  1.00  0.00    -0.394 OA
ATOM     25  H   UNL     1      24.427  22.996  26.674  1.00  0.00     0.210 HD
ENDBRANCH  23  24
ENDBRANCH  18  23
BRANCH  20  26
ATOM     26  O   UNL     1      22.198  26.584  29.088  1.00  0.00    -0.350 OA
BRANCH  26  27
ATOM     27  C   UNL     1      20.981  26.426  29.720  1.00  0.00     0.169 C 
BRANCH  27  28
ATOM     28  C   UNL     1      20.536  27.812  30.197  1.00  0.00     0.119 C 
BRANCH  28  29
ATOM     29  N   UNL     1      19.743  27.668  31.409  1.00  0.00    -0.092 NA
ATOM     30  N   UNL     1      18.546  27.945  31.387  1.00  0.00     0.001 N 
ATOM     31  N   UNL     1      17.302  28.016  31.379  1.00  0.00    -0.003 NA
ENDBRANCH  28  29
ENDBRANCH  27  28
ENDBRANCH  26  27
ENDBRANCH  20  26
BRANCH  21  32
ATOM     32  O   UNL     1      23.950  28.614  25.218  1.00  0.00    -0.387 OA
ATOM     33  H   UNL     1      24.197  28.257  24.311  1.00  0.00     0.211 HD
ENDBRANCH  21  32
BRANCH  22  34
ATOM     34  O   UNL     1      23.092  28.821  27.919  1.00  0.00    -0.385 OA
ATOM     35  H   UNL     1      22.149  29.027  28.144  1.00  0.00     0.211 HD
ENDBRANCH  22  34
ENDBRANCH  16  17
ENDBRANCH  11  16
BRANCH  13  36
ATOM     36  O   UNL     1      23.375  28.943  22.308  1.00  0.00    -0.385 OA
ATOM     37  H   UNL     1      23.753  29.073  21.424  1.00  0.00     0.211 HD
ENDBRANCH  13  36
BRANCH  14  38
ATOM     38  O   UNL     1      20.876  27.169  20.597  1.00  0.00    -0.387 OA
ATOM     39  H   UNL     1      21.393  26.402  20.946  1.00  0.00     0.211 HD
ENDBRANCH  14  38
BRANCH  15  40
ATOM     40  O   UNL     1      19.070  28.678  21.194  1.00  0.00    -0.387 OA
ATOM     41  H   UNL     1      19.180  27.705  21.284  1.00  0.00     0.211 HD
ENDBRANCH  15  40
ENDBRANCH   9  10
ENDBRANCH   8   9
ENDBRANCH   3   8
BRANCH   3  42
ATOM     42  C   UNL     1      16.821  31.570  25.079  1.00  0.00     0.364 C 
ATOM     43  O   UNL     1      16.927  31.163  26.258  1.00  0.00    -0.246 OA
BRANCH  42  44
ATOM     44  O   UNL     1      16.612  32.934  24.914  1.00  0.00    -0.477 OA
ATOM     45  H   UNL     1      17.361  33.532  24.589  1.00  0.00     0.296 HD
ENDBRANCH  42  44
ENDBRANCH   3  42
BRANCH   6  46
ATOM     46  O   UNL     1      13.630  28.988  24.172  1.00  0.00    -0.391 OA
ATOM     47  H   UNL     1      12.719  29.309  24.350  1.00  0.00     0.211 HD
ENDBRANCH   6  46
BRANCH   7  48
ATOM     48  N   UNL     1      13.419  32.022  23.152  1.00  0.00    -0.348 N 
ATOM     49  C   UNL     1      12.019  31.858  23.203  1.00  0.00     0.217 C 
ATOM     50  H   UNL     1      13.809  32.982  23.343  1.00  0.00     0.163 HD
ATOM     51  C   UNL     1      11.154  33.031  23.527  1.00  0.00     0.114 C 
ATOM     52  O   UNL     1      11.434  30.770  22.989  1.00  0.00    -0.275 OA
ENDBRANCH   7  48
ENDBRANCH   1   2
BRANCH   1  53
ATOM     53  O   UNL     1      17.018  30.632  20.326  1.00  0.00    -0.388 OA
ATOM     54  H   UNL     1      17.300  31.489  19.942  1.00  0.00     0.211 HD
ENDBRANCH   1  53
BRANCH   1  55
ATOM     55  C   UNL     1      15.147  29.174  20.730  1.00  0.00     0.165 C 
BRANCH  55  56
ATOM     56  O   UNL     1      16.064  28.183  20.900  1.00  0.00    -0.388 OA
ATOM     57  H   UNL     1      15.957  27.406  20.308  1.00  0.00     0.211 HD
ENDBRANCH  55  56
BRANCH  55  58
ATOM     58  C   UNL     1      14.381  28.999  19.430  1.00  0.00     0.154 C 
BRANCH  58  59
ATOM     59  N   UNL     1      15.230  29.000  18.276  1.00  0.00    -0.319 N 
ATOM     60  C   UNL     1      15.380  30.042  17.328  1.00  0.00     0.407 C 
ATOM     61  H   UNL     1      15.848  28.140  18.050  1.00  0.00     0.167 HD
ATOM     62  O   UNL     1      14.766  31.104  17.421  1.00  0.00    -0.225 OA
BRANCH  60  63
ATOM     63  O   UNL     1      16.247  29.909  16.225  1.00  0.00    -0.443 OA
BRANCH  63  64
ATOM     64  C   UNL     1      16.951  28.756  15.896  1.00  0.00     0.294 C 
BRANCH  64  65
ATOM     65  C   UNL     1      18.175  28.535  16.677  1.00  0.00     0.120 A 
ATOM     66  C   UNL     1      19.465  28.847  16.306  1.00  0.00     0.138 A 
ATOM     67  N   UNL     1      18.266  27.986  17.917  1.00  0.00    -0.132 NA
ATOM     68  N   UNL     1      20.291  28.491  17.298  1.00  0.00    -0.243 N 
ATOM     69  N   UNL     1      19.541  27.981  18.246  1.00  0.00    -0.067 NA
BRANCH  68  70
ATOM     70  C   UNL     1      21.729  28.605  17.411  1.00  0.00     0.245 C 
BRANCH  70  71
ATOM     71  C   UNL     1      22.319  27.266  17.235  1.00  0.00     0.242 C 
ATOM     72  O   UNL     1      22.606  26.850  16.098  1.00  0.00    -0.273 OA
ATOM     73  N   UNL     1      22.567  26.438  18.357  1.00  0.00    -0.350 N 
ATOM     74  H   UNL     1      22.336  26.753  19.341  1.00  0.00     0.163 HD
BRANCH  73  75
ATOM     75  C   UNL     1      23.140  25.134  18.230  1.00  0.00     0.162 C 
BRANCH  75  76
ATOM     76  C   UNL     1      23.713  24.728  19.522  1.00  0.00     0.024 A 
ATOM     77  C   UNL     1      24.997  24.649  19.953  1.00  0.00     0.017 A 
ATOM     78  S   UNL     1      22.779  24.218  20.921  1.00  0.00    -0.147 S 
ATOM     79  C   UNL     1      25.246  24.245  21.208  1.00  0.00     0.012 A 
ATOM     80  C   UNL     1      24.231  23.922  22.028  1.00  0.00     0.065 A 
ENDBRANCH  75  76
ENDBRANCH  73  75
ENDBRANCH  70  71
ENDBRANCH  68  70
ENDBRANCH  64  65
ENDBRANCH  63  64
ENDBRANCH  60  63
ENDBRANCH  58  59
ENDBRANCH  55  58
ENDBRANCH   1  55
TORSDOF 33
