REMARK VINA RESULT:    -6.664      0.000      0.000
REMARK INTER + INTRA:         -24.779
REMARK INTER:                 -17.221
REMARK INTRA:                  -7.558
REMARK UNBOUND:                -7.402
REMARK SMILES CC(=O)N[C@@H]1[C@@H](O)C[C@](OC[C@H]2O[C@@H](O[C@H]3[C@H](O)[C@@H](O)[C@H](OCCN=[N+]=[N-])O[C@@H]3CO)[C@H](O)[C@@H](O)[C@H]2O)(C(=O)O)O[C@H]1C(O)[C@H](O)CNC(=O)OCc1cn(-c2ccc(S(=O)(=O)c3ccc(N)cc3)cc2)nn1
REMARK SMILES IDX 43 1 42 2 9 3 8 4 41 5 6 6 5 7 10 8 11 9 12 10 14 11 13 12
REMARK SMILES IDX 32 13 34 14 36 15 15 16 16 17 29 18 28 19 21 20 17 21 19 22
REMARK SMILES IDX 30 23 31 24 22 26 23 27 24 28 25 29 26 30 27 31 18 32 20 34
REMARK SMILES IDX 33 36 35 38 37 40 38 42 39 43 40 44 7 46 4 48 2 49 1 51 3 52
REMARK SMILES IDX 44 53 45 55 46 56 47 58 48 59 49 60 50 62 51 63 52 64 53 65
REMARK SMILES IDX 54 66 73 67 55 68 72 69 56 70 57 71 71 72 58 73 70 74 59 75
REMARK SMILES IDX 60 76 61 77 62 78 63 79 64 80 69 81 65 82 68 83 66 84 67 85
REMARK H PARENT 31 25 18 33 20 35 33 37 35 39 37 41 40 45 7 47 4 50 44 54
REMARK H PARENT 46 57 48 61 67 86 67 87
REMARK Flexibility Score: inf
ROOT
ATOM      1  C   UNL     1      16.067  31.094  22.969  1.00  0.00     0.176 C 
ENDROOT
BRANCH   1   2
ATOM      2  C   UNL     1      14.995  30.702  21.952  1.00  0.00     0.178 C 
ATOM      3  C   UNL     1      14.457  30.728  19.702  1.00  0.00     0.272 C 
ATOM      4  C   UNL     1      13.070  31.182  20.022  1.00  0.00     0.113 C 
ATOM      5  O   UNL     1      15.356  31.126  20.709  1.00  0.00    -0.332 OA
ATOM      6  C   UNL     1      13.127  32.088  21.241  1.00  0.00     0.145 C 
ATOM      7  C   UNL     1      13.649  31.299  22.394  1.00  0.00     0.142 C 
BRANCH   3   8
ATOM      8  O   UNL     1      14.999  31.267  18.532  1.00  0.00    -0.338 OA
BRANCH   8   9
ATOM      9  C   UNL     1      14.116  31.579  17.543  1.00  0.00     0.199 C 
BRANCH   9  10
ATOM     10  C   UNL     1      14.642  31.070  16.220  1.00  0.00     0.179 C 
ATOM     11  C   UNL     1      16.484  30.216  15.174  1.00  0.00     0.282 C 
ATOM     12  O   UNL     1      15.925  30.552  16.435  1.00  0.00    -0.341 OA
ATOM     13  C   UNL     1      15.746  28.986  14.728  1.00  0.00     0.202 C 
ATOM     14  C   UNL     1      14.309  29.355  14.442  1.00  0.00     0.179 C 
ATOM     15  C   UNL     1      13.717  30.046  15.659  1.00  0.00     0.177 C 
BRANCH  11  16
ATOM     16  O   UNL     1      17.835  30.067  15.344  1.00  0.00    -0.341 OA
BRANCH  16  17
ATOM     17  C   UNL     1      18.144  29.778  16.694  1.00  0.00     0.184 C 
ATOM     18  C   UNL     1      19.311  30.626  17.089  1.00  0.00     0.178 C 
ATOM     19  O   UNL     1      20.372  29.952  17.631  1.00  0.00    -0.341 OA
ATOM     20  C   UNL     1      20.843  28.865  16.955  1.00  0.00     0.281 C 
ATOM     21  C   UNL     1      18.497  28.296  16.693  1.00  0.00     0.180 C 
ATOM     22  C   UNL     1      19.852  28.211  16.020  1.00  0.00     0.202 C 
BRANCH  18  23
ATOM     23  C   UNL     1      18.793  31.553  18.205  1.00  0.00     0.191 C 
BRANCH  23  24
ATOM     24  O   UNL     1      17.716  31.028  18.876  1.00  0.00    -0.394 OA
ATOM     25  H   UNL     1      16.862  31.505  18.727  1.00  0.00     0.210 HD
ENDBRANCH  23  24
ENDBRANCH  18  23
BRANCH  20  26
ATOM     26  O   UNL     1      21.196  27.904  17.895  1.00  0.00    -0.350 OA
BRANCH  26  27
ATOM     27  C   UNL     1      22.538  27.662  18.012  1.00  0.00     0.169 C 
BRANCH  27  28
ATOM     28  C   UNL     1      23.016  26.743  16.938  1.00  0.00     0.119 C 
BRANCH  28  29
ATOM     29  N   UNL     1      23.614  25.543  17.548  1.00  0.00    -0.092 NA
ATOM     30  N   UNL     1      23.130  25.037  18.559  1.00  0.00     0.001 N 
ATOM     31  N   UNL     1      22.440  24.283  19.266  1.00  0.00    -0.003 NA
ENDBRANCH  28  29
ENDBRANCH  27  28
ENDBRANCH  26  27
ENDBRANCH  20  26
BRANCH  21  32
ATOM     32  O   UNL     1      18.606  27.831  17.982  1.00  0.00    -0.387 OA
ATOM     33  H   UNL     1      18.601  28.587  18.630  1.00  0.00     0.211 HD
ENDBRANCH  21  32
BRANCH  22  34
ATOM     34  O   UNL     1      19.852  28.749  14.754  1.00  0.00    -0.385 OA
ATOM     35  H   UNL     1      20.588  29.401  14.609  1.00  0.00     0.211 HD
ENDBRANCH  22  34
ENDBRANCH  16  17
ENDBRANCH  11  16
BRANCH  13  36
ATOM     36  O   UNL     1      16.347  28.369  13.633  1.00  0.00    -0.385 OA
ATOM     37  H   UNL     1      16.600  29.110  12.996  1.00  0.00     0.211 HD
ENDBRANCH  13  36
BRANCH  14  38
ATOM     38  O   UNL     1      13.572  28.171  14.287  1.00  0.00    -0.387 OA
ATOM     39  H   UNL     1      13.654  27.839  13.374  1.00  0.00     0.211 HD
ENDBRANCH  14  38
BRANCH  15  40
ATOM     40  O   UNL     1      13.326  29.118  16.613  1.00  0.00    -0.387 OA
ATOM     41  H   UNL     1      13.392  29.507  17.515  1.00  0.00     0.211 HD
ENDBRANCH  15  40
ENDBRANCH   9  10
ENDBRANCH   8   9
ENDBRANCH   3   8
BRANCH   3  42
ATOM     42  C   UNL     1      14.583  29.252  19.572  1.00  0.00     0.364 C 
ATOM     43  O   UNL     1      13.924  28.406  20.222  1.00  0.00    -0.246 OA
BRANCH  42  44
ATOM     44  O   UNL     1      15.497  28.736  18.668  1.00  0.00    -0.477 OA
ATOM     45  H   UNL     1      16.514  28.799  18.832  1.00  0.00     0.296 HD
ENDBRANCH  42  44
ENDBRANCH   3  42
BRANCH   6  46
ATOM     46  O   UNL     1      14.073  33.075  20.941  1.00  0.00    -0.391 OA
ATOM     47  H   UNL     1      13.684  33.802  20.383  1.00  0.00     0.211 HD
ENDBRANCH   6  46
BRANCH   7  48
ATOM     48  N   UNL     1      12.790  30.264  22.873  1.00  0.00    -0.348 N 
ATOM     49  C   UNL     1      12.200  30.244  24.169  1.00  0.00     0.217 C 
ATOM     50  H   UNL     1      12.563  29.459  22.240  1.00  0.00     0.163 HD
ATOM     51  C   UNL     1      11.322  29.111  24.551  1.00  0.00     0.114 C 
ATOM     52  O   UNL     1      12.449  31.185  24.934  1.00  0.00    -0.275 OA
ENDBRANCH   7  48
ENDBRANCH   1   2
BRANCH   1  53
ATOM     53  O   UNL     1      15.524  31.234  24.236  1.00  0.00    -0.388 OA
ATOM     54  H   UNL     1      15.659  30.391  24.764  1.00  0.00     0.211 HD
ENDBRANCH   1  53
BRANCH   1  55
ATOM     55  C   UNL     1      17.260  30.221  22.907  1.00  0.00     0.165 C 
BRANCH  55  56
ATOM     56  O   UNL     1      17.704  29.885  24.189  1.00  0.00    -0.388 OA
ATOM     57  H   UNL     1      17.185  29.186  24.619  1.00  0.00     0.211 HD
ENDBRANCH  55  56
BRANCH  55  58
ATOM     58  C   UNL     1      18.423  30.924  22.241  1.00  0.00     0.154 C 
BRANCH  58  59
ATOM     59  N   UNL     1      19.667  30.218  22.358  1.00  0.00    -0.319 N 
ATOM     60  C   UNL     1      19.948  29.175  21.440  1.00  0.00     0.407 C 
ATOM     61  H   UNL     1      20.356  30.450  23.090  1.00  0.00     0.167 HD
ATOM     62  O   UNL     1      19.096  28.913  20.543  1.00  0.00    -0.225 OA
BRANCH  60  63
ATOM     63  O   UNL     1      21.094  28.414  21.450  1.00  0.00    -0.443 OA
BRANCH  63  64
ATOM     64  C   UNL     1      21.125  27.016  21.257  1.00  0.00     0.294 C 
BRANCH  64  65
ATOM     65  C   UNL     1      21.338  26.362  22.572  1.00  0.00     0.121 A 
ATOM     66  C   UNL     1      22.027  26.799  23.686  1.00  0.00     0.144 A 
ATOM     67  N   UNL     1      20.838  25.139  22.936  1.00  0.00    -0.131 NA
ATOM     68  N   UNL     1      21.926  25.854  24.670  1.00  0.00    -0.220 N 
ATOM     69  N   UNL     1      21.206  24.880  24.171  1.00  0.00    -0.062 NA
BRANCH  68  70
ATOM     70  C   UNL     1      22.463  25.896  25.974  1.00  0.00     0.066 A 
ATOM     71  C   UNL     1      22.762  24.714  26.658  1.00  0.00     0.030 A 
ATOM     72  C   UNL     1      22.721  27.066  26.644  1.00  0.00     0.030 A 
ATOM     73  C   UNL     1      23.285  24.701  27.927  1.00  0.00     0.023 A 
ATOM     74  C   UNL     1      23.253  27.060  27.935  1.00  0.00     0.023 A 
ATOM     75  C   UNL     1      23.539  25.882  28.588  1.00  0.00     0.072 A 
BRANCH  75  76
ATOM     76  S   UNL     1      24.210  25.878  30.206  1.00  0.00     0.206 S 
ATOM     77  O   UNL     1      23.797  24.585  30.890  1.00  0.00    -0.219 OA
ATOM     78  O   UNL     1      23.815  27.073  31.006  1.00  0.00    -0.219 OA
BRANCH  76  79
ATOM     79  C   UNL     1      25.968  25.802  30.087  1.00  0.00     0.072 A 
ATOM     80  C   UNL     1      26.717  25.391  31.156  1.00  0.00     0.023 A 
ATOM     81  C   UNL     1      26.609  26.156  28.922  1.00  0.00     0.023 A 
ATOM     82  C   UNL     1      28.077  25.338  31.053  1.00  0.00     0.027 A 
ATOM     83  C   UNL     1      27.976  26.098  28.833  1.00  0.00     0.027 A 
ATOM     84  C   UNL     1      28.749  25.692  29.884  1.00  0.00     0.031 A 
BRANCH  84  85
ATOM     85  N   UNL     1      30.158  25.624  29.822  1.00  0.00    -0.399 N 
ATOM     86  H   UNL     1      30.664  25.813  28.946  1.00  0.00     0.156 HD
ATOM     87  H   UNL     1      30.696  25.380  30.673  1.00  0.00     0.156 HD
ENDBRANCH  84  85
ENDBRANCH  76  79
ENDBRANCH  75  76
ENDBRANCH  68  70
ENDBRANCH  64  65
ENDBRANCH  63  64
ENDBRANCH  60  63
ENDBRANCH  58  59
ENDBRANCH  55  58
ENDBRANCH   1  55
TORSDOF 33
