REMARK VINA RESULT:    -6.677      8.995     14.386
REMARK INTER + INTRA:         -23.192
REMARK INTER:                 -15.125
REMARK INTRA:                  -8.068
REMARK UNBOUND:                -6.367
REMARK SMILES CC(=O)N[C@@H]1[C@@H](O)C[C@](OC[C@H]2O[C@@H](O[C@H]3[C@H](O)[C@@H](O)[C@H](OCCN=[N+]=[N-])O[C@@H]3CO)[C@H](O)[C@@H](O)[C@H]2O)(C(=O)O)O[C@H]1C(O)[C@H](O)CNC(=O)OCc1cn(-c2ncn3c2c(=O)n(C(C)C)c2ccccc23)nn1
REMARK SMILES IDX 9 1 8 2 6 3 5 4 42 5 41 6 10 7 11 8 12 9 14 10 13 11 32 12
REMARK SMILES IDX 34 13 36 14 15 15 16 16 29 17 28 18 21 19 17 20 19 21 30 22
REMARK SMILES IDX 31 23 22 25 23 26 24 27 25 28 26 29 27 30 18 31 20 33 33 35
REMARK SMILES IDX 35 37 37 39 38 41 39 42 40 43 7 45 43 47 44 48 45 50 46 51
REMARK SMILES IDX 47 53 48 54 49 55 50 57 51 58 52 59 53 60 54 61 74 62 55 63
REMARK SMILES IDX 73 64 56 65 57 66 60 67 58 68 59 69 61 70 72 71 63 72 62 73
REMARK SMILES IDX 71 74 67 75 70 76 68 77 69 78 64 79 65 80 66 81 4 82 2 83
REMARK SMILES IDX 1 85 3 86
REMARK H PARENT 31 24 18 32 20 34 33 36 35 38 37 40 40 44 7 46 44 49 46 52
REMARK H PARENT 48 56 4 84
REMARK Flexibility Score: inf
ROOT
ATOM      1  C   UNL     1      14.021  29.772  22.248  1.00  0.00     0.272 C 
ATOM      2  C   UNL     1      12.630  30.327  22.098  1.00  0.00     0.113 C 
ATOM      3  C   UNL     1      12.450  31.619  22.777  1.00  0.00     0.145 C 
ATOM      4  C   UNL     1      13.568  32.601  22.570  1.00  0.00     0.142 C 
ATOM      5  C   UNL     1      14.887  31.964  22.321  1.00  0.00     0.178 C 
ATOM      6  O   UNL     1      14.915  30.767  21.740  1.00  0.00    -0.332 OA
ENDROOT
BRANCH   1   7
ATOM      7  O   UNL     1      14.143  28.792  21.302  1.00  0.00    -0.338 OA
BRANCH   7   8
ATOM      8  C   UNL     1      14.437  28.940  20.042  1.00  0.00     0.199 C 
BRANCH   8   9
ATOM      9  C   UNL     1      15.575  28.308  19.317  1.00  0.00     0.179 C 
ATOM     10  C   UNL     1      16.857  28.779  17.431  1.00  0.00     0.282 C 
ATOM     11  O   UNL     1      15.822  29.200  18.223  1.00  0.00    -0.341 OA
ATOM     12  C   UNL     1      18.181  28.759  18.173  1.00  0.00     0.202 C 
ATOM     13  C   UNL     1      18.060  27.975  19.468  1.00  0.00     0.179 C 
ATOM     14  C   UNL     1      16.824  28.438  20.189  1.00  0.00     0.177 C 
BRANCH  10  15
ATOM     15  O   UNL     1      16.969  29.691  16.388  1.00  0.00    -0.341 OA
BRANCH  15  16
ATOM     16  C   UNL     1      16.538  29.147  15.206  1.00  0.00     0.184 C 
ATOM     17  C   UNL     1      16.962  29.989  14.058  1.00  0.00     0.178 C 
ATOM     18  O   UNL     1      16.023  30.856  13.560  1.00  0.00    -0.341 OA
ATOM     19  C   UNL     1      15.052  31.264  14.436  1.00  0.00     0.281 C 
ATOM     20  C   UNL     1      15.051  28.859  15.199  1.00  0.00     0.180 C 
ATOM     21  C   UNL     1      14.281  30.119  15.045  1.00  0.00     0.202 C 
BRANCH  17  22
ATOM     22  C   UNL     1      17.502  29.126  12.937  1.00  0.00     0.191 C 
BRANCH  22  23
ATOM     23  O   UNL     1      16.459  29.057  11.982  1.00  0.00    -0.394 OA
ATOM     24  H   UNL     1      15.909  29.862  12.120  1.00  0.00     0.210 HD
ENDBRANCH  22  23
ENDBRANCH  17  22
BRANCH  19  25
ATOM     25  O   UNL     1      14.112  32.005  13.698  1.00  0.00    -0.350 OA
BRANCH  25  26
ATOM     26  C   UNL     1      13.638  31.359  12.589  1.00  0.00     0.169 C 
BRANCH  26  27
ATOM     27  C   UNL     1      12.149  31.267  12.471  1.00  0.00     0.119 C 
BRANCH  27  28
ATOM     28  N   UNL     1      11.865  29.904  11.994  1.00  0.00    -0.092 NA
ATOM     29  N   UNL     1      11.752  28.944  12.725  1.00  0.00     0.001 N 
ATOM     30  N   UNL     1      11.897  27.882  13.337  1.00  0.00    -0.003 NA
ENDBRANCH  27  28
ENDBRANCH  26  27
ENDBRANCH  25  26
ENDBRANCH  19  25
BRANCH  20  31
ATOM     31  O   UNL     1      14.782  27.911  14.203  1.00  0.00    -0.387 OA
ATOM     32  H   UNL     1      14.938  27.025  14.645  1.00  0.00     0.211 HD
ENDBRANCH  20  31
BRANCH  21  33
ATOM     33  O   UNL     1      13.865  30.515  16.329  1.00  0.00    -0.385 OA
ATOM     34  H   UNL     1      13.949  29.776  16.986  1.00  0.00     0.211 HD
ENDBRANCH  21  33
ENDBRANCH  15  16
ENDBRANCH  10  15
BRANCH  12  35
ATOM     35  O   UNL     1      19.091  28.061  17.382  1.00  0.00    -0.385 OA
ATOM     36  H   UNL     1      19.575  27.368  17.890  1.00  0.00     0.211 HD
ENDBRANCH  12  35
BRANCH  13  37
ATOM     37  O   UNL     1      19.153  28.358  20.267  1.00  0.00    -0.387 OA
ATOM     38  H   UNL     1      19.928  28.606  19.690  1.00  0.00     0.211 HD
ENDBRANCH  13  37
BRANCH  14  39
ATOM     39  O   UNL     1      17.021  29.821  20.444  1.00  0.00    -0.387 OA
ATOM     40  H   UNL     1      17.953  30.074  20.243  1.00  0.00     0.211 HD
ENDBRANCH  14  39
ENDBRANCH   8   9
ENDBRANCH   7   8
ENDBRANCH   1   7
BRANCH   1  41
ATOM     41  C   UNL     1      14.424  29.488  23.618  1.00  0.00     0.364 C 
ATOM     42  O   UNL     1      13.662  29.471  24.584  1.00  0.00    -0.246 OA
BRANCH  41  43
ATOM     43  O   UNL     1      15.770  29.208  23.918  1.00  0.00    -0.477 OA
ATOM     44  H   UNL     1      16.096  28.250  23.896  1.00  0.00     0.296 HD
ENDBRANCH  41  43
ENDBRANCH   1  41
BRANCH   3  45
ATOM     45  O   UNL     1      11.245  32.178  22.277  1.00  0.00    -0.391 OA
ATOM     46  H   UNL     1      11.428  32.782  21.522  1.00  0.00     0.211 HD
ENDBRANCH   3  45
BRANCH   5  47
ATOM     47  C   UNL     1      15.843  32.890  21.590  1.00  0.00     0.176 C 
BRANCH  47  48
ATOM     48  O   UNL     1      15.959  34.078  22.278  1.00  0.00    -0.388 OA
ATOM     49  H   UNL     1      15.437  34.819  21.881  1.00  0.00     0.211 HD
ENDBRANCH  47  48
BRANCH  47  50
ATOM     50  C   UNL     1      15.499  33.136  20.163  1.00  0.00     0.165 C 
BRANCH  50  51
ATOM     51  O   UNL     1      15.221  32.033  19.402  1.00  0.00    -0.388 OA
ATOM     52  H   UNL     1      15.567  31.187  19.767  1.00  0.00     0.211 HD
ENDBRANCH  50  51
BRANCH  50  53
ATOM     53  C   UNL     1      16.471  34.027  19.452  1.00  0.00     0.154 C 
BRANCH  53  54
ATOM     54  N   UNL     1      17.838  33.785  19.928  1.00  0.00    -0.319 N 
ATOM     55  C   UNL     1      18.640  32.743  19.435  1.00  0.00     0.407 C 
ATOM     56  H   UNL     1      18.250  34.420  20.676  1.00  0.00     0.167 HD
ATOM     57  O   UNL     1      18.209  31.949  18.559  1.00  0.00    -0.225 OA
BRANCH  55  58
ATOM     58  O   UNL     1      19.939  32.608  19.946  1.00  0.00    -0.443 OA
BRANCH  58  59
ATOM     59  C   UNL     1      20.203  32.867  21.296  1.00  0.00     0.294 C 
BRANCH  59  60
ATOM     60  C   UNL     1      19.864  31.691  22.185  1.00  0.00     0.121 A 
ATOM     61  C   UNL     1      20.598  31.244  23.259  1.00  0.00     0.146 A 
ATOM     62  N   UNL     1      18.801  30.874  22.109  1.00  0.00    -0.131 NA
ATOM     63  N   UNL     1      19.972  30.166  23.817  1.00  0.00    -0.200 N 
ATOM     64  N   UNL     1      18.889  29.978  23.088  1.00  0.00    -0.060 NA
BRANCH  63  65
ATOM     65  C   UNL     1      20.430  29.433  24.953  1.00  0.00     0.186 A 
ATOM     66  N   UNL     1      20.381  29.873  26.221  1.00  0.00    -0.216 NA
ATOM     67  C   UNL     1      21.008  28.191  25.033  1.00  0.00     0.158 A 
ATOM     68  C   UNL     1      20.905  28.947  27.047  1.00  0.00     0.207 A 
ATOM     69  N   UNL     1      21.306  27.881  26.320  1.00  0.00    -0.291 N 
ATOM     70  C   UNL     1      21.300  27.295  24.037  1.00  0.00     0.279 A 
ATOM     71  C   UNL     1      21.883  26.712  26.646  1.00  0.00     0.071 A 
ATOM     72  N   UNL     1      21.883  26.105  24.336  1.00  0.00    -0.302 N 
ATOM     73  O   UNL     1      21.032  27.557  22.824  1.00  0.00    -0.267 OA
ATOM     74  C   UNL     1      22.189  26.400  27.943  1.00  0.00     0.029 A 
ATOM     75  C   UNL     1      22.167  25.828  25.628  1.00  0.00     0.068 A 
ATOM     76  C   UNL     1      22.798  25.181  28.283  1.00  0.00     0.002 A 
ATOM     77  C   UNL     1      22.766  24.630  25.967  1.00  0.00     0.028 A 
ATOM     78  C   UNL     1      23.086  24.290  27.276  1.00  0.00     0.002 A 
BRANCH  72  79
ATOM     79  C   UNL     1      22.187  25.144  23.275  1.00  0.00     0.085 C 
ATOM     80  C   UNL     1      20.973  24.532  22.657  1.00  0.00     0.031 C 
ATOM     81  C   UNL     1      23.188  25.684  22.285  1.00  0.00     0.031 C 
ENDBRANCH  72  79
ENDBRANCH  63  65
ENDBRANCH  59  60
ENDBRANCH  58  59
ENDBRANCH  55  58
ENDBRANCH  53  54
ENDBRANCH  50  53
ENDBRANCH  47  50
ENDBRANCH   5  47
BRANCH   4  82
ATOM     82  N   UNL     1      13.587  33.514  23.694  1.00  0.00    -0.348 N 
ATOM     83  C   UNL     1      13.292  34.891  23.582  1.00  0.00     0.217 C 
ATOM     84  H   UNL     1      13.830  33.156  24.649  1.00  0.00     0.163 HD
ATOM     85  C   UNL     1      13.317  35.822  24.749  1.00  0.00     0.114 C 
ATOM     86  O   UNL     1      12.998  35.340  22.435  1.00  0.00    -0.275 OA
ENDBRANCH   4  82
TORSDOF 31
