REMARK VINA RESULT:    -5.375      1.785      2.448
REMARK INTER + INTRA:         -21.065
REMARK INTER:                 -14.603
REMARK INTRA:                  -6.462
REMARK UNBOUND:                -7.364
REMARK SMILES CC(=O)N[C@@H]1[C@@H](O)C[C@](OC[C@H]2O[C@@H](O[C@H]3[C@H](O)[C@@H](O)[C@H](OCCN=[N+]=[N-])O[C@@H]3CO)[C@H](O)[C@@H](O)[C@H]2O)(C(=O)O)O[C@H]1C(O)[C@H](O)CNC(=O)OCc1cn([C@@H](C)C(=O)O)nn1
REMARK SMILES IDX 9 1 8 2 6 3 5 4 42 5 41 6 10 7 11 8 12 9 14 10 13 11 32 12
REMARK SMILES IDX 34 13 36 14 15 15 16 16 29 17 28 18 21 19 17 20 19 21 30 22
REMARK SMILES IDX 31 23 22 25 23 26 24 27 25 28 26 29 27 30 18 31 20 33 33 35
REMARK SMILES IDX 35 37 37 39 38 41 39 42 40 43 7 45 43 47 44 48 45 50 46 51
REMARK SMILES IDX 47 53 48 54 49 55 50 57 51 58 52 59 53 60 54 61 62 62 55 63
REMARK SMILES IDX 61 64 56 65 57 66 58 67 59 68 60 69 4 71 2 72 1 74 3 75
REMARK H PARENT 31 24 18 32 20 34 33 36 35 38 37 40 40 44 7 46 44 49 46 52
REMARK H PARENT 48 56 60 70 4 73
REMARK Flexibility Score: inf
ROOT
ATOM      1  C   UNL     1       2.147  25.998  26.720  1.00  0.00     0.272 C 
ATOM      2  C   UNL     1       2.950  26.051  25.480  1.00  0.00     0.113 C 
ATOM      3  C   UNL     1       4.372  25.701  25.856  1.00  0.00     0.145 C 
ATOM      4  C   UNL     1       4.853  26.991  26.612  1.00  0.00     0.142 C 
ATOM      5  C   UNL     1       3.822  27.468  27.518  1.00  0.00     0.178 C 
ATOM      6  O   UNL     1       2.774  26.633  27.798  1.00  0.00    -0.332 OA
ENDROOT
BRANCH   1   7
ATOM      7  O   UNL     1       1.765  24.735  27.052  1.00  0.00    -0.338 OA
BRANCH   7   8
ATOM      8  C   UNL     1       1.097  23.987  26.154  1.00  0.00     0.199 C 
BRANCH   8   9
ATOM      9  C   UNL     1       0.514  22.714  26.816  1.00  0.00     0.179 C 
ATOM     10  C   UNL     1       1.105  21.110  28.367  1.00  0.00     0.282 C 
ATOM     11  O   UNL     1       1.402  22.340  27.789  1.00  0.00    -0.341 OA
ATOM     12  C   UNL     1      -0.239  20.585  27.956  1.00  0.00     0.202 C 
ATOM     13  C   UNL     1      -1.291  21.674  28.045  1.00  0.00     0.179 C 
ATOM     14  C   UNL     1      -0.840  22.966  27.385  1.00  0.00     0.177 C 
BRANCH  10  15
ATOM     15  O   UNL     1       1.122  21.148  29.768  1.00  0.00    -0.341 OA
BRANCH  15  16
ATOM     16  C   UNL     1       2.047  20.260  30.296  1.00  0.00     0.184 C 
ATOM     17  C   UNL     1       1.674  19.900  31.699  1.00  0.00     0.178 C 
ATOM     18  O   UNL     1       2.562  20.430  32.636  1.00  0.00    -0.341 OA
ATOM     19  C   UNL     1       2.737  21.804  32.445  1.00  0.00     0.281 C 
ATOM     20  C   UNL     1       3.401  20.929  30.261  1.00  0.00     0.180 C 
ATOM     21  C   UNL     1       3.520  22.100  31.197  1.00  0.00     0.202 C 
BRANCH  17  22
ATOM     22  C   UNL     1       1.625  18.404  31.906  1.00  0.00     0.191 C 
BRANCH  22  23
ATOM     23  O   UNL     1       2.719  17.760  31.332  1.00  0.00    -0.394 OA
ATOM     24  H   UNL     1       2.656  17.804  30.357  1.00  0.00     0.210 HD
ENDBRANCH  22  23
ENDBRANCH  17  22
BRANCH  19  25
ATOM     25  O   UNL     1       3.453  22.260  33.538  1.00  0.00    -0.350 OA
BRANCH  25  26
ATOM     26  C   UNL     1       2.577  22.608  34.545  1.00  0.00     0.169 C 
BRANCH  26  27
ATOM     27  C   UNL     1       3.330  22.923  35.822  1.00  0.00     0.119 C 
BRANCH  27  28
ATOM     28  N   UNL     1       2.684  22.210  36.922  1.00  0.00    -0.092 NA
ATOM     29  N   UNL     1       3.118  21.143  37.357  1.00  0.00     0.001 N 
ATOM     30  N   UNL     1       3.751  20.237  37.871  1.00  0.00    -0.003 NA
ENDBRANCH  27  28
ENDBRANCH  26  27
ENDBRANCH  25  26
ENDBRANCH  19  25
BRANCH  20  31
ATOM     31  O   UNL     1       4.436  20.030  30.512  1.00  0.00    -0.387 OA
ATOM     32  H   UNL     1       4.159  19.239  31.022  1.00  0.00     0.211 HD
ENDBRANCH  20  31
BRANCH  21  33
ATOM     33  O   UNL     1       2.986  23.243  30.606  1.00  0.00    -0.385 OA
ATOM     34  H   UNL     1       3.175  24.046  31.143  1.00  0.00     0.211 HD
ENDBRANCH  21  33
ENDBRANCH  15  16
ENDBRANCH  10  15
BRANCH  12  35
ATOM     35  O   UNL     1      -0.248  19.919  26.754  1.00  0.00    -0.385 OA
ATOM     36  H   UNL     1       0.686  19.622  26.518  1.00  0.00     0.211 HD
ENDBRANCH  12  35
BRANCH  13  37
ATOM     37  O   UNL     1      -1.503  21.919  29.419  1.00  0.00    -0.387 OA
ATOM     38  H   UNL     1      -2.470  21.876  29.641  1.00  0.00     0.211 HD
ENDBRANCH  13  37
BRANCH  14  39
ATOM     39  O   UNL     1      -0.821  24.014  28.304  1.00  0.00    -0.387 OA
ATOM     40  H   UNL     1      -1.020  23.664  29.211  1.00  0.00     0.211 HD
ENDBRANCH  14  39
ENDBRANCH   8   9
ENDBRANCH   7   8
ENDBRANCH   1   7
BRANCH   1  41
ATOM     41  C   UNL     1       0.936  26.835  26.504  1.00  0.00     0.364 C 
ATOM     42  O   UNL     1       0.808  27.485  25.457  1.00  0.00    -0.246 OA
BRANCH  41  43
ATOM     43  O   UNL     1      -0.069  26.907  27.458  1.00  0.00    -0.477 OA
ATOM     44  H   UNL     1      -1.061  26.854  27.184  1.00  0.00     0.296 HD
ENDBRANCH  41  43
ENDBRANCH   1  41
BRANCH   3  45
ATOM     45  O   UNL     1       4.324  24.715  26.833  1.00  0.00    -0.391 OA
ATOM     46  H   UNL     1       5.019  24.042  26.742  1.00  0.00     0.211 HD
ENDBRANCH   3  45
BRANCH   5  47
ATOM     47  C   UNL     1       4.295  28.033  28.848  1.00  0.00     0.176 C 
BRANCH  47  48
ATOM     48  O   UNL     1       5.366  28.948  28.544  1.00  0.00    -0.388 OA
ATOM     49  H   UNL     1       4.992  29.824  28.351  1.00  0.00     0.211 HD
ENDBRANCH  47  48
BRANCH  47  50
ATOM     50  C   UNL     1       4.974  27.014  29.742  1.00  0.00     0.165 C 
BRANCH  50  51
ATOM     51  O   UNL     1       4.609  25.718  29.550  1.00  0.00    -0.388 OA
ATOM     52  H   UNL     1       4.458  25.167  30.349  1.00  0.00     0.211 HD
ENDBRANCH  50  51
BRANCH  50  53
ATOM     53  C   UNL     1       5.057  27.469  31.159  1.00  0.00     0.154 C 
BRANCH  53  54
ATOM     54  N   UNL     1       5.582  26.559  32.106  1.00  0.00    -0.319 N 
ATOM     55  C   UNL     1       4.885  25.532  32.794  1.00  0.00     0.407 C 
ATOM     56  H   UNL     1       6.622  26.658  32.328  1.00  0.00     0.167 HD
ATOM     57  O   UNL     1       3.679  25.365  32.569  1.00  0.00    -0.225 OA
BRANCH  55  58
ATOM     58  O   UNL     1       5.567  24.722  33.717  1.00  0.00    -0.443 OA
BRANCH  58  59
ATOM     59  C   UNL     1       6.030  25.252  34.931  1.00  0.00     0.294 C 
BRANCH  59  60
ATOM     60  C   UNL     1       7.306  24.676  35.372  1.00  0.00     0.120 A 
ATOM     61  C   UNL     1       8.556  24.787  34.805  1.00  0.00     0.139 A 
ATOM     62  N   UNL     1       7.429  23.901  36.481  1.00  0.00    -0.132 NA
ATOM     63  N   UNL     1       9.392  24.088  35.575  1.00  0.00    -0.238 N 
ATOM     64  N   UNL     1       8.719  23.553  36.585  1.00  0.00    -0.066 NA
BRANCH  63  65
ATOM     65  C   UNL     1      10.815  23.929  35.350  1.00  0.00     0.215 C 
ATOM     66  C   UNL     1      11.483  25.268  35.376  1.00  0.00     0.046 C 
BRANCH  65  67
ATOM     67  C   UNL     1      11.423  23.034  36.363  1.00  0.00     0.328 C 
ATOM     68  O   UNL     1      12.163  23.539  37.242  1.00  0.00    -0.250 OA
BRANCH  67  69
ATOM     69  O   UNL     1      11.203  21.665  36.372  1.00  0.00    -0.480 OA
ATOM     70  H   UNL     1      10.557  21.223  35.729  1.00  0.00     0.296 HD
ENDBRANCH  67  69
ENDBRANCH  65  67
ENDBRANCH  63  65
ENDBRANCH  59  60
ENDBRANCH  58  59
ENDBRANCH  55  58
ENDBRANCH  53  54
ENDBRANCH  50  53
ENDBRANCH  47  50
ENDBRANCH   5  47
BRANCH   4  71
ATOM     71  N   UNL     1       5.312  27.930  25.606  1.00  0.00    -0.348 N 
ATOM     72  C   UNL     1       6.628  28.146  25.199  1.00  0.00     0.217 C 
ATOM     73  H   UNL     1       4.555  28.506  25.139  1.00  0.00     0.163 HD
ATOM     74  C   UNL     1       6.973  29.143  24.157  1.00  0.00     0.114 C 
ATOM     75  O   UNL     1       7.542  27.486  25.726  1.00  0.00    -0.275 OA
ENDBRANCH   4  71
TORSDOF 32
