REMARK VINA RESULT:    -5.727      6.824     13.849
REMARK INTER + INTRA:         -21.516
REMARK INTER:                 -14.052
REMARK INTRA:                  -7.463
REMARK UNBOUND:                -7.419
REMARK SMILES CC(=O)N[C@@H]1[C@@H](O)C[C@](OC[C@H]2O[C@@H](O[C@H]3[C@H](O)[C@@H](O)[C@H](OCCN=[N+]=[N-])O[C@@H]3CO)[C@H](O)[C@@H](O)[C@H]2O)(C(=O)O)O[C@H]1C(O)[C@H](O)CNC(=O)OCc1cn(-c2ccc(C)cc2)nn1
REMARK SMILES IDX 9 1 8 2 6 3 5 4 42 5 41 6 10 7 11 8 12 9 14 10 13 11 32 12
REMARK SMILES IDX 34 13 36 14 15 15 16 16 29 17 28 18 21 19 17 20 19 21 30 22
REMARK SMILES IDX 31 23 22 25 23 26 24 27 25 28 26 29 27 30 18 31 20 33 33 35
REMARK SMILES IDX 35 37 37 39 38 41 39 42 40 43 7 45 43 47 44 48 45 50 46 51
REMARK SMILES IDX 47 53 48 54 49 55 50 57 51 58 52 59 53 60 54 61 64 62 55 63
REMARK SMILES IDX 63 64 56 65 57 66 62 67 58 68 61 69 59 70 60 71 4 72 2 73
REMARK SMILES IDX 1 75 3 76
REMARK H PARENT 31 24 18 32 20 34 33 36 35 38 37 40 40 44 7 46 44 49 46 52
REMARK H PARENT 48 56 4 74
REMARK Flexibility Score: inf
ROOT
ATOM      1  C   UNL     1      32.962  17.495  25.445  1.00  0.00     0.272 C 
ATOM      2  C   UNL     1      31.848  16.869  26.276  1.00  0.00     0.113 C 
ATOM      3  C   UNL     1      31.863  17.351  27.677  1.00  0.00     0.145 C 
ATOM      4  C   UNL     1      32.332  18.749  27.869  1.00  0.00     0.142 C 
ATOM      5  C   UNL     1      32.582  19.553  26.598  1.00  0.00     0.178 C 
ATOM      6  O   UNL     1      33.117  18.786  25.619  1.00  0.00    -0.332 OA
ENDROOT
BRANCH   1   7
ATOM      7  O   UNL     1      32.530  17.292  24.098  1.00  0.00    -0.338 OA
BRANCH   7   8
ATOM      8  C   UNL     1      33.348  18.053  23.260  1.00  0.00     0.199 C 
BRANCH   8   9
ATOM      9  C   UNL     1      33.445  17.487  21.894  1.00  0.00     0.179 C 
ATOM     10  C   UNL     1      32.355  17.241  19.893  1.00  0.00     0.282 C 
ATOM     11  O   UNL     1      32.398  17.945  21.092  1.00  0.00    -0.341 OA
ATOM     12  C   UNL     1      33.512  17.602  19.042  1.00  0.00     0.202 C 
ATOM     13  C   UNL     1      34.555  18.326  19.847  1.00  0.00     0.179 C 
ATOM     14  C   UNL     1      34.769  17.734  21.224  1.00  0.00     0.177 C 
BRANCH  10  15
ATOM     15  O   UNL     1      31.172  17.546  19.224  1.00  0.00    -0.341 OA
BRANCH  15  16
ATOM     16  C   UNL     1      30.579  18.701  19.736  1.00  0.00     0.184 C 
ATOM     17  C   UNL     1      29.088  18.610  19.907  1.00  0.00     0.178 C 
ATOM     18  O   UNL     1      28.447  19.541  19.084  1.00  0.00    -0.341 OA
ATOM     19  C   UNL     1      28.684  19.216  17.760  1.00  0.00     0.281 C 
ATOM     20  C   UNL     1      30.863  19.789  18.724  1.00  0.00     0.180 C 
ATOM     21  C   UNL     1      30.159  19.344  17.433  1.00  0.00     0.202 C 
BRANCH  17  22
ATOM     22  C   UNL     1      28.693  19.028  21.333  1.00  0.00     0.191 C 
BRANCH  22  23
ATOM     23  O   UNL     1      29.244  20.267  21.649  1.00  0.00    -0.394 OA
ATOM     24  H   UNL     1      29.334  20.295  22.648  1.00  0.00     0.210 HD
ENDBRANCH  22  23
ENDBRANCH  17  22
BRANCH  19  25
ATOM     25  O   UNL     1      27.935  19.980  16.879  1.00  0.00    -0.350 OA
BRANCH  25  26
ATOM     26  C   UNL     1      27.550  21.194  17.390  1.00  0.00     0.169 C 
BRANCH  26  27
ATOM     27  C   UNL     1      28.054  22.394  16.639  1.00  0.00     0.119 C 
BRANCH  27  28
ATOM     28  N   UNL     1      29.292  22.893  17.186  1.00  0.00    -0.092 NA
ATOM     29  N   UNL     1      29.550  24.083  17.131  1.00  0.00     0.001 N 
ATOM     30  N   UNL     1      29.784  25.292  17.166  1.00  0.00    -0.003 NA
ENDBRANCH  27  28
ENDBRANCH  26  27
ENDBRANCH  25  26
ENDBRANCH  19  25
BRANCH  20  31
ATOM     31  O   UNL     1      30.386  21.031  19.116  1.00  0.00    -0.387 OA
ATOM     32  H   UNL     1      29.781  21.348  18.402  1.00  0.00     0.211 HD
ENDBRANCH  20  31
BRANCH  21  33
ATOM     33  O   UNL     1      30.638  18.039  17.196  1.00  0.00    -0.385 OA
ATOM     34  H   UNL     1      31.575  17.925  17.478  1.00  0.00     0.211 HD
ENDBRANCH  21  33
ENDBRANCH  15  16
ENDBRANCH  10  15
BRANCH  12  35
ATOM     35  O   UNL     1      34.071  16.480  18.402  1.00  0.00    -0.385 OA
ATOM     36  H   UNL     1      33.279  15.877  18.222  1.00  0.00     0.211 HD
ENDBRANCH  12  35
BRANCH  13  37
ATOM     37  O   UNL     1      34.276  19.671  19.849  1.00  0.00    -0.387 OA
ATOM     38  H   UNL     1      33.754  19.985  19.044  1.00  0.00     0.211 HD
ENDBRANCH  13  37
BRANCH  14  39
ATOM     39  O   UNL     1      35.480  18.634  21.994  1.00  0.00    -0.387 OA
ATOM     40  H   UNL     1      36.443  18.465  22.044  1.00  0.00     0.211 HD
ENDBRANCH  14  39
ENDBRANCH   8   9
ENDBRANCH   7   8
ENDBRANCH   1   7
BRANCH   1  41
ATOM     41  C   UNL     1      34.156  16.672  25.720  1.00  0.00     0.364 C 
ATOM     42  O   UNL     1      35.285  17.151  25.973  1.00  0.00    -0.246 OA
BRANCH  41  43
ATOM     43  O   UNL     1      34.001  15.273  25.697  1.00  0.00    -0.477 OA
ATOM     44  H   UNL     1      33.129  14.875  26.049  1.00  0.00     0.296 HD
ENDBRANCH  41  43
ENDBRANCH   1  41
BRANCH   3  45
ATOM     45  O   UNL     1      30.621  17.101  28.304  1.00  0.00    -0.391 OA
ATOM     46  H   UNL     1      29.929  17.409  27.634  1.00  0.00     0.211 HD
ENDBRANCH   3  45
BRANCH   5  47
ATOM     47  C   UNL     1      31.293  20.241  26.196  1.00  0.00     0.176 C 
BRANCH  47  48
ATOM     48  O   UNL     1      30.717  20.999  27.204  1.00  0.00    -0.388 OA
ATOM     49  H   UNL     1      29.900  21.401  26.806  1.00  0.00     0.211 HD
ENDBRANCH  47  48
BRANCH  47  50
ATOM     50  C   UNL     1      31.167  20.848  24.880  1.00  0.00     0.165 C 
BRANCH  50  51
ATOM     51  O   UNL     1      30.827  19.978  23.823  1.00  0.00    -0.388 OA
ATOM     52  H   UNL     1      29.847  20.007  23.662  1.00  0.00     0.211 HD
ENDBRANCH  50  51
BRANCH  50  53
ATOM     53  C   UNL     1      32.179  21.803  24.354  1.00  0.00     0.154 C 
BRANCH  53  54
ATOM     54  N   UNL     1      31.631  23.011  23.794  1.00  0.00    -0.319 N 
ATOM     55  C   UNL     1      31.343  23.114  22.401  1.00  0.00     0.407 C 
ATOM     56  H   UNL     1      31.438  23.835  24.408  1.00  0.00     0.167 HD
ATOM     57  O   UNL     1      31.558  22.122  21.662  1.00  0.00    -0.225 OA
BRANCH  55  58
ATOM     58  O   UNL     1      30.840  24.291  21.891  1.00  0.00    -0.443 OA
BRANCH  58  59
ATOM     59  C   UNL     1      30.071  24.366  20.740  1.00  0.00     0.294 C 
BRANCH  59  60
ATOM     60  C   UNL     1      28.726  23.829  20.953  1.00  0.00     0.121 A 
ATOM     61  C   UNL     1      27.666  24.477  21.615  1.00  0.00     0.144 A 
ATOM     62  N   UNL     1      28.225  22.657  20.587  1.00  0.00    -0.131 NA
ATOM     63  N   UNL     1      26.609  23.666  21.606  1.00  0.00    -0.220 N 
ATOM     64  N   UNL     1      26.969  22.566  20.979  1.00  0.00    -0.062 NA
BRANCH  63  65
ATOM     65  C   UNL     1      25.339  23.992  22.200  1.00  0.00     0.066 A 
ATOM     66  C   UNL     1      24.190  23.932  21.443  1.00  0.00     0.029 A 
ATOM     67  C   UNL     1      25.223  24.356  23.525  1.00  0.00     0.029 A 
ATOM     68  C   UNL     1      22.950  24.232  22.014  1.00  0.00     0.005 A 
ATOM     69  C   UNL     1      23.982  24.657  24.097  1.00  0.00     0.005 A 
ATOM     70  C   UNL     1      22.837  24.595  23.337  1.00  0.00    -0.051 A 
ATOM     71  C   UNL     1      21.506  24.905  23.952  1.00  0.00     0.044 C 
ENDBRANCH  63  65
ENDBRANCH  59  60
ENDBRANCH  58  59
ENDBRANCH  55  58
ENDBRANCH  53  54
ENDBRANCH  50  53
ENDBRANCH  47  50
ENDBRANCH   5  47
BRANCH   4  72
ATOM     72  N   UNL     1      33.429  18.849  28.812  1.00  0.00    -0.348 N 
ATOM     73  C   UNL     1      33.301  18.588  30.210  1.00  0.00     0.217 C 
ATOM     74  H   UNL     1      34.378  19.131  28.496  1.00  0.00     0.163 HD
ATOM     75  C   UNL     1      34.464  18.717  31.141  1.00  0.00     0.114 C 
ATOM     76  O   UNL     1      32.152  18.248  30.590  1.00  0.00    -0.275 OA
ENDBRANCH   4  72
TORSDOF 30
