REMARK VINA RESULT:    -4.657      6.055      8.782
REMARK INTER + INTRA:         -21.060
REMARK INTER:                 -12.280
REMARK INTRA:                  -8.780
REMARK UNBOUND:                -8.780
REMARK SMILES COc1ccc(Cn2cc(COC(=O)NC[C@@H](O)C(O)[C@@H]3O[C@@](OC[C@H]4O[C@@H](O[C@H]5[C@H](O)[C@@H](O)[C@H](OCCN=[N+]=[N-])O[C@@H]5CO)[C@H](O)[C@@H](O)[C@H]4O)(C(=O)O)C[C@H](O)[C@H]3NC(C)=O)nn2)cc1OC
REMARK SMILES IDX 23 1 55 2 56 3 58 4 21 5 22 6 24 7 25 8 26 9 28 10 27 11
REMARK SMILES IDX 46 12 48 13 50 14 29 15 30 16 43 17 42 18 35 19 31 20 33 21
REMARK SMILES IDX 44 22 45 23 36 25 37 26 38 27 39 28 40 29 41 30 32 31 34 33
REMARK SMILES IDX 47 35 49 37 51 39 52 41 53 42 54 43 57 45 19 47 20 48 17 50
REMARK SMILES IDX 18 51 16 53 15 54 13 55 14 57 12 58 11 59 10 60 9 61 63 62
REMARK SMILES IDX 8 63 64 64 7 65 6 66 65 67 5 68 66 69 4 70 3 71 67 72 68 73
REMARK SMILES IDX 2 74 1 75 59 76 60 77 61 79 62 80
REMARK H PARENT 45 24 32 32 34 34 47 36 49 38 51 40 54 44 57 46 20 49 18 52
REMARK H PARENT 15 56 59 78
REMARK Flexibility Score: inf
ROOT
ATOM      1  C   UNL     1      19.560  32.192  23.560  1.00  0.00     0.272 C 
ATOM      2  C   UNL     1      18.985  32.825  22.306  1.00  0.00     0.113 C 
ATOM      3  C   UNL     1      18.687  31.953  21.141  1.00  0.00     0.145 C 
ATOM      4  C   UNL     1      19.502  30.667  21.241  1.00  0.00     0.142 C 
ATOM      5  C   UNL     1      20.751  31.049  21.930  1.00  0.00     0.178 C 
ATOM      6  O   UNL     1      20.506  31.185  23.283  1.00  0.00    -0.332 OA
ENDROOT
BRANCH   1   7
ATOM      7  O   UNL     1      18.468  31.593  24.175  1.00  0.00    -0.338 OA
BRANCH   7   8
ATOM      8  C   UNL     1      18.280  31.838  25.501  1.00  0.00     0.199 C 
BRANCH   8   9
ATOM      9  C   UNL     1      16.815  31.915  25.836  1.00  0.00     0.179 C 
ATOM     10  C   UNL     1      14.754  31.006  25.537  1.00  0.00     0.282 C 
ATOM     11  O   UNL     1      16.168  30.695  25.563  1.00  0.00    -0.341 OA
ATOM     12  C   UNL     1      14.281  31.248  26.895  1.00  0.00     0.202 C 
ATOM     13  C   UNL     1      15.212  32.150  27.688  1.00  0.00     0.179 C 
ATOM     14  C   UNL     1      16.649  32.050  27.356  1.00  0.00     0.177 C 
BRANCH  10  15
ATOM     15  O   UNL     1      14.146  29.958  24.875  1.00  0.00    -0.341 OA
BRANCH  15  16
ATOM     16  C   UNL     1      14.025  30.250  23.516  1.00  0.00     0.184 C 
ATOM     17  C   UNL     1      12.643  30.135  23.008  1.00  0.00     0.178 C 
ATOM     18  O   UNL     1      12.601  30.711  21.741  1.00  0.00    -0.341 OA
ATOM     19  C   UNL     1      13.705  30.472  21.005  1.00  0.00     0.281 C 
ATOM     20  C   UNL     1      14.935  29.269  22.768  1.00  0.00     0.180 C 
ATOM     21  C   UNL     1      14.444  29.190  21.317  1.00  0.00     0.202 C 
BRANCH  17  22
ATOM     22  C   UNL     1      11.616  30.751  23.931  1.00  0.00     0.191 C 
BRANCH  22  23
ATOM     23  O   UNL     1      11.434  29.847  24.977  1.00  0.00    -0.394 OA
ATOM     24  H   UNL     1      10.587  29.333  24.817  1.00  0.00     0.210 HD
ENDBRANCH  22  23
ENDBRANCH  17  22
BRANCH  19  25
ATOM     25  O   UNL     1      14.650  31.530  21.264  1.00  0.00    -0.350 OA
BRANCH  25  26
ATOM     26  C   UNL     1      14.000  32.738  20.940  1.00  0.00     0.169 C 
BRANCH  26  27
ATOM     27  C   UNL     1      14.381  33.878  21.867  1.00  0.00     0.119 C 
BRANCH  27  28
ATOM     28  N   UNL     1      15.465  33.451  22.708  1.00  0.00    -0.092 NA
ATOM     29  N   UNL     1      16.101  34.239  23.414  1.00  0.00     0.001 N 
ATOM     30  N   UNL     1      16.650  35.268  23.856  1.00  0.00    -0.003 NA
ENDBRANCH  27  28
ENDBRANCH  26  27
ENDBRANCH  25  26
ENDBRANCH  19  25
BRANCH  20  31
ATOM     31  O   UNL     1      16.204  29.824  22.740  1.00  0.00    -0.387 OA
ATOM     32  H   UNL     1      16.867  29.092  22.924  1.00  0.00     0.211 HD
ENDBRANCH  20  31
BRANCH  21  33
ATOM     33  O   UNL     1      13.586  28.122  21.211  1.00  0.00    -0.385 OA
ATOM     34  H   UNL     1      14.000  27.270  21.520  1.00  0.00     0.211 HD
ENDBRANCH  21  33
ENDBRANCH  15  16
ENDBRANCH  10  15
BRANCH  12  35
ATOM     35  O   UNL     1      13.045  31.873  26.906  1.00  0.00    -0.385 OA
ATOM     36  H   UNL     1      12.294  31.222  26.792  1.00  0.00     0.211 HD
ENDBRANCH  12  35
BRANCH  13  37
ATOM     37  O   UNL     1      14.985  31.885  29.065  1.00  0.00    -0.387 OA
ATOM     38  H   UNL     1      15.151  30.914  29.195  1.00  0.00     0.211 HD
ENDBRANCH  13  37
BRANCH  14  39
ATOM     39  O   UNL     1      17.226  30.879  27.897  1.00  0.00    -0.387 OA
ATOM     40  H   UNL     1      16.698  30.560  28.706  1.00  0.00     0.211 HD
ENDBRANCH  14  39
ENDBRANCH   8   9
ENDBRANCH   7   8
ENDBRANCH   1   7
BRANCH   1  41
ATOM     41  C   UNL     1      20.230  33.256  24.350  1.00  0.00     0.364 C 
ATOM     42  O   UNL     1      21.316  33.066  24.903  1.00  0.00    -0.246 OA
BRANCH  41  43
ATOM     43  O   UNL     1      19.684  34.555  24.534  1.00  0.00    -0.477 OA
ATOM     44  H   UNL     1      18.641  34.611  24.472  1.00  0.00     0.296 HD
ENDBRANCH  41  43
ENDBRANCH   1  41
BRANCH   3  45
ATOM     45  O   UNL     1      17.355  31.618  21.081  1.00  0.00    -0.391 OA
ATOM     46  H   UNL     1      17.155  31.146  20.221  1.00  0.00     0.211 HD
ENDBRANCH   3  45
BRANCH   5  47
ATOM     47  C   UNL     1      21.923  30.274  21.537  1.00  0.00     0.176 C 
BRANCH  47  48
ATOM     48  O   UNL     1      22.508  30.608  20.321  1.00  0.00    -0.388 OA
ATOM     49  H   UNL     1      21.897  30.787  19.598  1.00  0.00     0.211 HD
ENDBRANCH  47  48
BRANCH  47  50
ATOM     50  C   UNL     1      23.150  30.736  22.494  1.00  0.00     0.165 C 
BRANCH  50  51
ATOM     51  O   UNL     1      23.051  32.063  22.650  1.00  0.00    -0.388 OA
ATOM     52  H   UNL     1      22.845  32.550  21.799  1.00  0.00     0.211 HD
ENDBRANCH  50  51
BRANCH  50  53
ATOM     53  C   UNL     1      24.368  30.067  22.102  1.00  0.00     0.154 C 
BRANCH  53  54
ATOM     54  N   UNL     1      24.483  28.673  21.834  1.00  0.00    -0.319 N 
ATOM     55  C   UNL     1      24.870  28.314  20.520  1.00  0.00     0.407 C 
ATOM     56  H   UNL     1      24.301  27.910  22.483  1.00  0.00     0.167 HD
ATOM     57  O   UNL     1      25.087  29.211  19.640  1.00  0.00    -0.225 OA
BRANCH  55  58
ATOM     58  O   UNL     1      25.049  27.013  20.060  1.00  0.00    -0.443 OA
BRANCH  58  59
ATOM     59  C   UNL     1      23.889  26.394  19.406  1.00  0.00     0.294 C 
BRANCH  59  60
ATOM     60  C   UNL     1      23.340  25.520  20.484  1.00  0.00     0.120 A 
ATOM     61  C   UNL     1      22.190  25.814  21.253  1.00  0.00     0.138 A 
ATOM     62  N   UNL     1      23.765  24.318  20.853  1.00  0.00    -0.132 NA
ATOM     63  N   UNL     1      22.002  24.732  22.046  1.00  0.00    -0.248 N 
ATOM     64  N   UNL     1      22.924  23.867  21.808  1.00  0.00    -0.067 NA
BRANCH  63  65
ATOM     65  C   UNL     1      20.856  24.578  22.983  1.00  0.00     0.181 C 
BRANCH  65  66
ATOM     66  C   UNL     1      21.379  25.231  24.264  1.00  0.00    -0.023 A 
ATOM     67  C   UNL     1      20.851  26.404  24.757  1.00  0.00     0.056 A 
ATOM     68  C   UNL     1      22.308  24.543  24.975  1.00  0.00     0.010 A 
ATOM     69  C   UNL     1      21.345  26.807  26.030  1.00  0.00     0.161 A 
ATOM     70  C   UNL     1      22.791  24.965  26.252  1.00  0.00     0.051 A 
ATOM     71  C   UNL     1      22.255  26.128  26.735  1.00  0.00     0.160 A 
BRANCH  69  72
ATOM     72  O   UNL     1      20.856  27.991  26.584  1.00  0.00    -0.493 OA
ATOM     73  C   UNL     1      21.241  29.275  26.080  1.00  0.00     0.278 C 
ENDBRANCH  69  72
BRANCH  71  74
ATOM     74  O   UNL     1      22.651  26.616  28.013  1.00  0.00    -0.493 OA
ATOM     75  C   UNL     1      22.113  25.965  29.183  1.00  0.00     0.278 C 
ENDBRANCH  71  74
ENDBRANCH  65  66
ENDBRANCH  63  65
ENDBRANCH  59  60
ENDBRANCH  58  59
ENDBRANCH  55  58
ENDBRANCH  53  54
ENDBRANCH  50  53
ENDBRANCH  47  50
ENDBRANCH   5  47
BRANCH   4  76
ATOM     76  N   UNL     1      19.672  30.131  19.917  1.00  0.00    -0.348 N 
ATOM     77  C   UNL     1      18.852  29.082  19.488  1.00  0.00     0.217 C 
ATOM     78  H   UNL     1      20.379  30.501  19.224  1.00  0.00     0.163 HD
ATOM     79  C   UNL     1      18.917  28.400  18.160  1.00  0.00     0.114 C 
ATOM     80  O   UNL     1      17.919  28.577  20.236  1.00  0.00    -0.275 OA
ENDBRANCH   4  76
TORSDOF 33
