REMARK VINA RESULT:    -6.309     10.448     19.981
REMARK INTER + INTRA:         -21.827
REMARK INTER:                 -17.587
REMARK INTRA:                  -4.240
REMARK UNBOUND:                -6.298
REMARK SMILES CC(=O)N[C@@H]1[C@@H](O)C[C@](OC[C@H]2O[C@@H](O[C@H]3[C@H](O)[C@@H](O)[C@H](OCCN=[N+]=[N-])O[C@@H]3CO)[C@H](O)[C@@H](O)[C@H]2O)(C(=O)O)O[C@H]1C(O)[C@H](O)CNC(=O)OCc1cn(-c2c(C)cc(C)cc2C)nn1
REMARK SMILES IDX 9 1 8 2 6 3 5 4 42 5 41 6 10 7 11 8 12 9 14 10 13 11 32 12
REMARK SMILES IDX 34 13 36 14 15 15 16 16 29 17 28 18 21 19 17 20 19 21 30 22
REMARK SMILES IDX 31 23 22 25 23 26 24 27 25 28 26 29 27 30 18 31 20 33 33 35
REMARK SMILES IDX 35 37 37 39 38 41 39 42 40 43 7 45 43 47 44 48 45 50 46 51
REMARK SMILES IDX 47 53 48 54 49 55 50 57 51 58 52 59 53 60 54 61 66 62 55 63
REMARK SMILES IDX 65 64 56 65 57 66 63 67 58 68 59 69 62 70 64 71 60 72 61 73
REMARK SMILES IDX 4 74 2 75 1 77 3 78
REMARK H PARENT 31 24 18 32 20 34 33 36 35 38 37 40 40 44 7 46 44 49 46 52
REMARK H PARENT 48 56 4 76
REMARK Flexibility Score: inf
ROOT
ATOM      1  C   UNL     1      29.686  20.249  21.155  1.00  0.00     0.272 C 
ATOM      2  C   UNL     1      28.837  19.164  20.619  1.00  0.00     0.113 C 
ATOM      3  C   UNL     1      29.106  18.738  19.197  1.00  0.00     0.145 C 
ATOM      4  C   UNL     1      29.532  19.918  18.382  1.00  0.00     0.142 C 
ATOM      5  C   UNL     1      28.959  21.142  19.107  1.00  0.00     0.178 C 
ATOM      6  O   UNL     1      29.771  21.325  20.259  1.00  0.00    -0.332 OA
ENDROOT
BRANCH   1   7
ATOM      7  O   UNL     1      30.931  19.921  21.601  1.00  0.00    -0.338 OA
BRANCH   7   8
ATOM      8  C   UNL     1      31.169  18.709  22.137  1.00  0.00     0.199 C 
BRANCH   8   9
ATOM      9  C   UNL     1      32.030  18.920  23.392  1.00  0.00     0.179 C 
ATOM     10  C   UNL     1      32.584  17.718  25.275  1.00  0.00     0.282 C 
ATOM     11  O   UNL     1      31.565  18.145  24.437  1.00  0.00    -0.341 OA
ATOM     12  C   UNL     1      33.380  16.712  24.483  1.00  0.00     0.202 C 
ATOM     13  C   UNL     1      34.052  17.494  23.364  1.00  0.00     0.179 C 
ATOM     14  C   UNL     1      33.489  18.852  23.135  1.00  0.00     0.177 C 
BRANCH  10  15
ATOM     15  O   UNL     1      32.171  17.324  26.490  1.00  0.00    -0.341 OA
BRANCH  15  16
ATOM     16  C   UNL     1      31.912  18.249  27.436  1.00  0.00     0.184 C 
ATOM     17  C   UNL     1      32.770  19.477  27.191  1.00  0.00     0.178 C 
ATOM     18  O   UNL     1      33.838  19.563  28.032  1.00  0.00    -0.341 OA
ATOM     19  C   UNL     1      33.512  19.689  29.373  1.00  0.00     0.281 C 
ATOM     20  C   UNL     1      32.258  17.661  28.807  1.00  0.00     0.180 C 
ATOM     21  C   UNL     1      32.431  18.776  29.823  1.00  0.00     0.202 C 
BRANCH  17  22
ATOM     22  C   UNL     1      31.921  20.737  27.168  1.00  0.00     0.191 C 
BRANCH  22  23
ATOM     23  O   UNL     1      30.566  20.417  27.189  1.00  0.00    -0.394 OA
ATOM     24  H   UNL     1      30.088  20.775  27.972  1.00  0.00     0.210 HD
ENDBRANCH  22  23
ENDBRANCH  17  22
BRANCH  19  25
ATOM     25  O   UNL     1      33.163  21.012  29.685  1.00  0.00    -0.350 OA
BRANCH  25  26
ATOM     26  C   UNL     1      34.160  21.713  30.314  1.00  0.00     0.169 C 
BRANCH  26  27
ATOM     27  C   UNL     1      34.430  23.077  29.759  1.00  0.00     0.119 C 
BRANCH  27  28
ATOM     28  N   UNL     1      35.516  23.074  28.795  1.00  0.00    -0.092 NA
ATOM     29  N   UNL     1      35.307  22.789  27.599  1.00  0.00     0.001 N 
ATOM     30  N   UNL     1      34.885  22.542  26.463  1.00  0.00    -0.003 NA
ENDBRANCH  27  28
ENDBRANCH  26  27
ENDBRANCH  25  26
ENDBRANCH  19  25
BRANCH  20  31
ATOM     31  O   UNL     1      31.303  16.798  29.283  1.00  0.00    -0.387 OA
ATOM     32  H   UNL     1      30.721  16.396  28.588  1.00  0.00     0.211 HD
ENDBRANCH  20  31
BRANCH  21  33
ATOM     33  O   UNL     1      32.811  18.176  31.021  1.00  0.00    -0.385 OA
ATOM     34  H   UNL     1      32.084  18.242  31.702  1.00  0.00     0.211 HD
ENDBRANCH  21  33
ENDBRANCH  15  16
ENDBRANCH  10  15
BRANCH  12  35
ATOM     35  O   UNL     1      34.390  16.118  25.234  1.00  0.00    -0.385 OA
ATOM     36  H   UNL     1      35.231  16.638  25.051  1.00  0.00     0.211 HD
ENDBRANCH  12  35
BRANCH  13  37
ATOM     37  O   UNL     1      34.024  16.785  22.165  1.00  0.00    -0.387 OA
ATOM     38  H   UNL     1      33.519  17.249  21.448  1.00  0.00     0.211 HD
ENDBRANCH  13  37
BRANCH  14  39
ATOM     39  O   UNL     1      33.752  19.194  21.787  1.00  0.00    -0.387 OA
ATOM     40  H   UNL     1      33.927  18.387  21.251  1.00  0.00     0.211 HD
ENDBRANCH  14  39
ENDBRANCH   8   9
ENDBRANCH   7   8
ENDBRANCH   1   7
BRANCH   1  41
ATOM     41  C   UNL     1      28.915  20.851  22.308  1.00  0.00     0.364 C 
ATOM     42  O   UNL     1      29.541  21.393  23.226  1.00  0.00    -0.246 OA
BRANCH  41  43
ATOM     43  O   UNL     1      27.535  20.808  22.355  1.00  0.00    -0.477 OA
ATOM     44  H   UNL     1      26.983  19.973  22.270  1.00  0.00     0.296 HD
ENDBRANCH  41  43
ENDBRANCH   1  41
BRANCH   3  45
ATOM     45  O   UNL     1      30.053  17.716  19.248  1.00  0.00    -0.391 OA
ATOM     46  H   UNL     1      30.360  17.614  20.206  1.00  0.00     0.211 HD
ENDBRANCH   3  45
BRANCH   5  47
ATOM     47  C   UNL     1      29.078  22.417  18.370  1.00  0.00     0.176 C 
BRANCH  47  48
ATOM     48  O   UNL     1      29.405  23.421  19.352  1.00  0.00    -0.388 OA
ATOM     49  H   UNL     1      29.962  22.999  20.057  1.00  0.00     0.211 HD
ENDBRANCH  47  48
BRANCH  47  50
ATOM     50  C   UNL     1      27.818  22.992  17.754  1.00  0.00     0.165 C 
BRANCH  50  51
ATOM     51  O   UNL     1      28.342  24.124  17.020  1.00  0.00    -0.388 OA
ATOM     52  H   UNL     1      29.292  24.222  17.226  1.00  0.00     0.211 HD
ENDBRANCH  50  51
BRANCH  50  53
ATOM     53  C   UNL     1      26.939  23.651  18.789  1.00  0.00     0.154 C 
BRANCH  53  54
ATOM     54  N   UNL     1      25.594  23.930  18.391  1.00  0.00    -0.319 N 
ATOM     55  C   UNL     1      25.239  25.251  17.981  1.00  0.00     0.407 C 
ATOM     56  H   UNL     1      24.855  23.171  18.399  1.00  0.00     0.167 HD
ATOM     57  O   UNL     1      26.158  26.115  18.007  1.00  0.00    -0.225 OA
BRANCH  55  58
ATOM     58  O   UNL     1      23.955  25.588  17.570  1.00  0.00    -0.443 OA
BRANCH  58  59
ATOM     59  C   UNL     1      22.978  26.056  18.469  1.00  0.00     0.294 C 
BRANCH  59  60
ATOM     60  C   UNL     1      22.915  25.288  19.742  1.00  0.00     0.121 A 
ATOM     61  C   UNL     1      23.180  25.726  21.020  1.00  0.00     0.144 A 
ATOM     62  N   UNL     1      22.577  23.973  19.880  1.00  0.00    -0.131 NA
ATOM     63  N   UNL     1      23.004  24.707  21.877  1.00  0.00    -0.220 N 
ATOM     64  N   UNL     1      22.638  23.662  21.136  1.00  0.00    -0.062 NA
BRANCH  63  65
ATOM     65  C   UNL     1      23.174  24.695  23.308  1.00  0.00     0.072 A 
ATOM     66  C   UNL     1      22.030  24.683  24.067  1.00  0.00    -0.025 A 
ATOM     67  C   UNL     1      24.414  24.698  23.844  1.00  0.00    -0.025 A 
ATOM     68  C   UNL     1      20.668  24.680  23.430  1.00  0.00     0.047 C 
ATOM     69  C   UNL     1      22.172  24.675  25.441  1.00  0.00     0.009 A 
ATOM     70  C   UNL     1      24.507  24.690  25.241  1.00  0.00     0.009 A 
ATOM     71  C   UNL     1      25.673  24.709  23.055  1.00  0.00     0.047 C 
ATOM     72  C   UNL     1      23.399  24.678  26.052  1.00  0.00    -0.050 A 
ATOM     73  C   UNL     1      23.483  24.666  27.534  1.00  0.00     0.044 C 
ENDBRANCH  63  65
ENDBRANCH  59  60
ENDBRANCH  58  59
ENDBRANCH  55  58
ENDBRANCH  53  54
ENDBRANCH  50  53
ENDBRANCH  47  50
ENDBRANCH   5  47
BRANCH   4  74
ATOM     74  N   UNL     1      29.237  19.879  17.015  1.00  0.00    -0.348 N 
ATOM     75  C   UNL     1      30.035  19.188  16.059  1.00  0.00     0.217 C 
ATOM     76  H   UNL     1      28.389  20.351  16.653  1.00  0.00     0.163 HD
ATOM     77  C   UNL     1      29.690  19.165  14.604  1.00  0.00     0.114 C 
ATOM     78  O   UNL     1      31.042  18.593  16.476  1.00  0.00    -0.275 OA
ENDBRANCH   4  74
TORSDOF 30
