REMARK VINA RESULT:    -5.356     16.543     20.955
REMARK INTER + INTRA:         -21.412
REMARK INTER:                 -15.112
REMARK INTRA:                  -6.300
REMARK UNBOUND:                -7.602
REMARK SMILES CC(=O)N[C@@H]1[C@@H](O)C[C@](OC[C@H]2O[C@@H](O[C@H]3[C@H](O)[C@@H](O)[C@H](OCCN=[N+]=[N-])O[C@@H]3CO)[C@H](O)[C@@H](O)[C@H]2O)(C(=O)O)O[C@H]1C(O)[C@H](O)CNC(=O)OCc1cn(CC(=O)Nc2ncccn2)nn1
REMARK SMILES IDX 9 1 8 2 6 3 5 4 42 5 41 6 10 7 11 8 12 9 14 10 13 11 32 12
REMARK SMILES IDX 34 13 36 14 15 15 16 16 29 17 28 18 21 19 17 20 19 21 30 22
REMARK SMILES IDX 31 23 22 25 23 26 24 27 25 28 26 29 27 30 18 31 20 33 33 35
REMARK SMILES IDX 35 37 37 39 38 41 39 42 40 43 7 45 43 47 44 48 45 50 46 51
REMARK SMILES IDX 47 53 48 54 49 55 50 57 51 58 52 59 53 60 54 61 67 62 55 63
REMARK SMILES IDX 66 64 56 65 57 66 58 67 59 68 60 70 61 71 65 72 62 73 64 74
REMARK SMILES IDX 63 75 4 76 2 77 1 79 3 80
REMARK H PARENT 31 24 18 32 20 34 33 36 35 38 37 40 40 44 7 46 44 49 46 52
REMARK H PARENT 48 56 59 69 4 78
REMARK Flexibility Score: inf
ROOT
ATOM      1  C   UNL     1       2.454  24.727  27.078  1.00  0.00     0.272 C 
ATOM      2  C   UNL     1       3.546  24.694  26.022  1.00  0.00     0.113 C 
ATOM      3  C   UNL     1       4.204  26.008  25.903  1.00  0.00     0.145 C 
ATOM      4  C   UNL     1       4.566  26.684  27.217  1.00  0.00     0.142 C 
ATOM      5  C   UNL     1       3.704  26.297  28.332  1.00  0.00     0.178 C 
ATOM      6  O   UNL     1       3.266  24.983  28.246  1.00  0.00    -0.332 OA
ENDROOT
BRANCH   1   7
ATOM      7  O   UNL     1       1.967  23.502  27.231  1.00  0.00    -0.338 OA
BRANCH   7   8
ATOM      8  C   UNL     1       2.367  22.305  27.389  1.00  0.00     0.199 C 
BRANCH   8   9
ATOM      9  C   UNL     1       2.315  21.463  28.619  1.00  0.00     0.179 C 
ATOM     10  C   UNL     1       2.366  21.773  30.933  1.00  0.00     0.282 C 
ATOM     11  O   UNL     1       2.516  22.390  29.730  1.00  0.00    -0.341 OA
ATOM     12  C   UNL     1       0.843  21.615  31.249  1.00  0.00     0.202 C 
ATOM     13  C   UNL     1       0.214  21.770  29.878  1.00  0.00     0.179 C 
ATOM     14  C   UNL     1       1.024  20.819  28.969  1.00  0.00     0.177 C 
BRANCH  10  15
ATOM     15  O   UNL     1       2.905  22.580  31.943  1.00  0.00    -0.341 OA
BRANCH  15  16
ATOM     16  C   UNL     1       3.657  21.859  32.863  1.00  0.00     0.184 C 
ATOM     17  C   UNL     1       3.315  22.393  34.260  1.00  0.00     0.178 C 
ATOM     18  O   UNL     1       4.463  22.728  34.962  1.00  0.00    -0.341 OA
ATOM     19  C   UNL     1       5.154  23.774  34.333  1.00  0.00     0.281 C 
ATOM     20  C   UNL     1       5.102  21.982  32.558  1.00  0.00     0.180 C 
ATOM     21  C   UNL     1       5.806  23.182  33.116  1.00  0.00     0.202 C 
BRANCH  17  22
ATOM     22  C   UNL     1       2.607  21.312  35.059  1.00  0.00     0.191 C 
BRANCH  22  23
ATOM     23  O   UNL     1       3.395  20.164  35.155  1.00  0.00    -0.394 OA
ATOM     24  H   UNL     1       2.957  19.454  35.700  1.00  0.00     0.210 HD
ENDBRANCH  22  23
ENDBRANCH  17  22
BRANCH  19  25
ATOM     25  O   UNL     1       6.105  24.198  35.242  1.00  0.00    -0.350 OA
BRANCH  25  26
ATOM     26  C   UNL     1       5.639  24.283  36.537  1.00  0.00     0.169 C 
BRANCH  26  27
ATOM     27  C   UNL     1       6.660  23.907  37.588  1.00  0.00     0.119 C 
BRANCH  27  28
ATOM     28  N   UNL     1       6.093  23.941  38.927  1.00  0.00    -0.092 NA
ATOM     29  N   UNL     1       5.811  22.908  39.543  1.00  0.00     0.001 N 
ATOM     30  N   UNL     1       5.474  21.797  39.936  1.00  0.00    -0.003 NA
ENDBRANCH  27  28
ENDBRANCH  26  27
ENDBRANCH  25  26
ENDBRANCH  19  25
BRANCH  20  31
ATOM     31  O   UNL     1       5.781  20.857  33.103  1.00  0.00    -0.387 OA
ATOM     32  H   UNL     1       6.704  20.813  32.719  1.00  0.00     0.211 HD
ENDBRANCH  20  31
BRANCH  21  33
ATOM     33  O   UNL     1       5.897  24.149  32.120  1.00  0.00    -0.385 OA
ATOM     34  H   UNL     1       6.393  24.931  32.461  1.00  0.00     0.211 HD
ENDBRANCH  21  33
ENDBRANCH  15  16
ENDBRANCH  10  15
BRANCH  12  35
ATOM     35  O   UNL     1       0.623  20.283  31.619  1.00  0.00    -0.385 OA
ATOM     36  H   UNL     1       1.437  19.781  31.344  1.00  0.00     0.211 HD
ENDBRANCH  12  35
BRANCH  13  37
ATOM     37  O   UNL     1       0.197  23.060  29.421  1.00  0.00    -0.387 OA
ATOM     38  H   UNL     1       0.917  23.618  29.775  1.00  0.00     0.211 HD
ENDBRANCH  13  37
BRANCH  14  39
ATOM     39  O   UNL     1       0.199  20.358  28.006  1.00  0.00    -0.387 OA
ATOM     40  H   UNL     1      -0.750  20.368  28.283  1.00  0.00     0.211 HD
ENDBRANCH  14  39
ENDBRANCH   8   9
ENDBRANCH   7   8
ENDBRANCH   1   7
BRANCH   1  41
ATOM     41  C   UNL     1       1.482  25.792  26.955  1.00  0.00     0.364 C 
ATOM     42  O   UNL     1       0.604  25.962  27.867  1.00  0.00    -0.246 OA
BRANCH  41  43
ATOM     43  O   UNL     1       1.396  26.679  25.907  1.00  0.00    -0.477 OA
ATOM     44  H   UNL     1       1.793  27.586  25.879  1.00  0.00     0.296 HD
ENDBRANCH  41  43
ENDBRANCH   1  41
BRANCH   3  45
ATOM     45  O   UNL     1       5.382  25.811  25.140  1.00  0.00    -0.391 OA
ATOM     46  H   UNL     1       5.288  24.955  24.621  1.00  0.00     0.211 HD
ENDBRANCH   3  45
BRANCH   5  47
ATOM     47  C   UNL     1       4.377  26.366  29.729  1.00  0.00     0.176 C 
BRANCH  47  48
ATOM     48  O   UNL     1       5.684  26.064  29.758  1.00  0.00    -0.388 OA
ATOM     49  H   UNL     1       6.092  25.831  28.878  1.00  0.00     0.211 HD
ENDBRANCH  47  48
BRANCH  47  50
ATOM     50  C   UNL     1       3.810  27.318  30.662  1.00  0.00     0.165 C 
BRANCH  50  51
ATOM     51  O   UNL     1       3.906  28.620  29.928  1.00  0.00    -0.388 OA
ATOM     52  H   UNL     1       4.441  28.471  29.133  1.00  0.00     0.211 HD
ENDBRANCH  50  51
BRANCH  50  53
ATOM     53  C   UNL     1       4.263  27.591  32.011  1.00  0.00     0.154 C 
BRANCH  53  54
ATOM     54  N   UNL     1       5.372  27.080  32.672  1.00  0.00    -0.319 N 
ATOM     55  C   UNL     1       6.300  27.596  33.600  1.00  0.00     0.407 C 
ATOM     56  H   UNL     1       5.580  26.013  32.408  1.00  0.00     0.167 HD
ATOM     57  O   UNL     1       6.227  28.774  33.996  1.00  0.00    -0.225 OA
BRANCH  55  58
ATOM     58  O   UNL     1       7.312  26.822  34.107  1.00  0.00    -0.443 OA
BRANCH  58  59
ATOM     59  C   UNL     1       8.645  27.062  34.175  1.00  0.00     0.294 C 
BRANCH  59  60
ATOM     60  C   UNL     1       9.462  25.879  34.529  1.00  0.00     0.120 A 
ATOM     61  C   UNL     1      10.602  25.870  35.345  1.00  0.00     0.138 A 
ATOM     62  N   UNL     1       9.358  24.585  34.116  1.00  0.00    -0.132 NA
ATOM     63  N   UNL     1      11.126  24.641  35.398  1.00  0.00    -0.243 N 
ATOM     64  N   UNL     1      10.343  23.893  34.641  1.00  0.00    -0.067 NA
BRANCH  63  65
ATOM     65  C   UNL     1      12.295  24.164  36.111  1.00  0.00     0.246 C 
BRANCH  65  66
ATOM     66  C   UNL     1      11.841  23.726  37.488  1.00  0.00     0.248 C 
ATOM     67  O   UNL     1      12.610  23.758  38.479  1.00  0.00    -0.272 OA
ATOM     68  N   UNL     1      10.516  23.265  37.682  1.00  0.00    -0.293 N 
ATOM     69  H   UNL     1       9.917  23.259  36.819  1.00  0.00     0.173 HD
BRANCH  68  70
ATOM     70  C   UNL     1       9.950  22.839  38.903  1.00  0.00     0.229 A 
ATOM     71  N   UNL     1       9.517  23.665  39.871  1.00  0.00    -0.221 NA
ATOM     72  N   UNL     1       9.842  21.513  39.120  1.00  0.00    -0.221 NA
ATOM     73  C   UNL     1       8.985  23.212  41.044  1.00  0.00     0.117 A 
ATOM     74  C   UNL     1       9.329  21.015  40.246  1.00  0.00     0.117 A 
ATOM     75  C   UNL     1       8.888  21.850  41.237  1.00  0.00     0.040 A 
ENDBRANCH  68  70
ENDBRANCH  65  66
ENDBRANCH  63  65
ENDBRANCH  59  60
ENDBRANCH  58  59
ENDBRANCH  55  58
ENDBRANCH  53  54
ENDBRANCH  50  53
ENDBRANCH  47  50
ENDBRANCH   5  47
BRANCH   4  76
ATOM     76  N   UNL     1       4.682  28.080  26.919  1.00  0.00    -0.348 N 
ATOM     77  C   UNL     1       5.936  28.655  26.489  1.00  0.00     0.217 C 
ATOM     78  H   UNL     1       3.864  28.740  27.000  1.00  0.00     0.163 HD
ATOM     79  C   UNL     1       5.984  30.102  26.192  1.00  0.00     0.114 C 
ATOM     80  O   UNL     1       6.949  27.935  26.377  1.00  0.00    -0.275 OA
ENDBRANCH   4  76
TORSDOF 32
