REMARK VINA RESULT:    -5.541      4.156      8.691
REMARK INTER + INTRA:         -21.151
REMARK INTER:                 -13.488
REMARK INTRA:                  -7.663
REMARK UNBOUND:                -6.864
REMARK SMILES CC(=O)N[C@@H]1[C@@H](O)C[C@](OC[C@H]2O[C@@H](O[C@H]3[C@H](O)[C@@H](O)[C@H](OCCN=[N+]=[N-])O[C@@H]3CO)[C@H](O)[C@@H](O)[C@H]2O)(C(=O)O)O[C@H]1C(O)[C@H](O)CNC(=O)OCc1cn(CCC2OCCO2)nn1
REMARK SMILES IDX 9 1 8 2 6 3 5 4 42 5 41 6 10 7 11 8 12 9 14 10 13 11 32 12
REMARK SMILES IDX 34 13 36 14 15 15 16 16 29 17 28 18 21 19 17 20 19 21 30 22
REMARK SMILES IDX 31 23 22 25 23 26 24 27 25 28 26 29 27 30 18 31 20 33 33 35
REMARK SMILES IDX 35 37 37 39 38 41 39 42 40 43 7 45 43 47 44 48 45 50 46 51
REMARK SMILES IDX 47 53 48 54 49 55 50 57 51 58 52 59 53 60 54 61 64 62 55 63
REMARK SMILES IDX 63 64 56 65 57 66 58 67 59 68 62 69 60 70 61 71 4 72 2 73
REMARK SMILES IDX 1 75 3 76
REMARK H PARENT 31 24 18 32 20 34 33 36 35 38 37 40 40 44 7 46 44 49 46 52
REMARK H PARENT 48 56 4 74
REMARK Flexibility Score: inf
ROOT
ATOM      1  C   UNL     1      12.515  29.939  23.663  1.00  0.00     0.272 C 
ATOM      2  C   UNL     1      12.025  31.415  23.425  1.00  0.00     0.113 C 
ATOM      3  C   UNL     1      11.986  32.173  24.683  1.00  0.00     0.145 C 
ATOM      4  C   UNL     1      13.364  32.191  25.312  1.00  0.00     0.142 C 
ATOM      5  C   UNL     1      14.216  31.060  24.845  1.00  0.00     0.178 C 
ATOM      6  O   UNL     1      13.599  29.909  24.505  1.00  0.00    -0.332 OA
ENDROOT
BRANCH   1   7
ATOM      7  O   UNL     1      12.859  29.549  22.436  1.00  0.00    -0.338 OA
BRANCH   7   8
ATOM      8  C   UNL     1      13.000  30.264  21.343  1.00  0.00     0.199 C 
BRANCH   8   9
ATOM      9  C   UNL     1      14.131  30.044  20.389  1.00  0.00     0.179 C 
ATOM     10  C   UNL     1      16.404  30.536  20.129  1.00  0.00     0.282 C 
ATOM     11  O   UNL     1      15.191  30.864  20.699  1.00  0.00    -0.341 OA
ATOM     12  C   UNL     1      16.356  29.537  19.032  1.00  0.00     0.202 C 
ATOM     13  C   UNL     1      15.509  28.333  19.341  1.00  0.00     0.179 C 
ATOM     14  C   UNL     1      14.683  28.607  20.553  1.00  0.00     0.177 C 
BRANCH  10  15
ATOM     15  O   UNL     1      17.311  30.265  21.153  1.00  0.00    -0.341 OA
BRANCH  15  16
ATOM     16  C   UNL     1      18.559  30.841  20.959  1.00  0.00     0.184 C 
ATOM     17  C   UNL     1      19.710  29.962  21.342  1.00  0.00     0.178 C 
ATOM     18  O   UNL     1      20.889  30.637  21.016  1.00  0.00    -0.341 OA
ATOM     19  C   UNL     1      21.110  31.765  21.793  1.00  0.00     0.281 C 
ATOM     20  C   UNL     1      18.686  32.086  21.882  1.00  0.00     0.180 C 
ATOM     21  C   UNL     1      19.991  32.746  21.452  1.00  0.00     0.202 C 
BRANCH  17  22
ATOM     22  C   UNL     1      19.703  28.715  20.476  1.00  0.00     0.191 C 
BRANCH  22  23
ATOM     23  O   UNL     1      20.156  27.672  21.323  1.00  0.00    -0.394 OA
ATOM     24  H   UNL     1      19.446  27.319  21.898  1.00  0.00     0.210 HD
ENDBRANCH  22  23
ENDBRANCH  17  22
BRANCH  19  25
ATOM     25  O   UNL     1      22.333  32.286  21.477  1.00  0.00    -0.350 OA
BRANCH  25  26
ATOM     26  C   UNL     1      23.367  31.939  22.299  1.00  0.00     0.169 C 
BRANCH  26  27
ATOM     27  C   UNL     1      24.634  31.520  21.586  1.00  0.00     0.119 C 
BRANCH  27  28
ATOM     28  N   UNL     1      24.866  30.099  21.771  1.00  0.00    -0.092 NA
ATOM     29  N   UNL     1      23.956  29.288  21.924  1.00  0.00     0.001 N 
ATOM     30  N   UNL     1      23.111  28.397  21.921  1.00  0.00    -0.003 NA
ENDBRANCH  27  28
ENDBRANCH  26  27
ENDBRANCH  25  26
ENDBRANCH  19  25
BRANCH  20  31
ATOM     31  O   UNL     1      17.626  32.923  21.633  1.00  0.00    -0.387 OA
ATOM     32  H   UNL     1      17.269  33.252  22.504  1.00  0.00     0.211 HD
ENDBRANCH  20  31
BRANCH  21  33
ATOM     33  O   UNL     1      20.105  33.928  22.151  1.00  0.00    -0.385 OA
ATOM     34  H   UNL     1      20.785  34.490  21.702  1.00  0.00     0.211 HD
ENDBRANCH  21  33
ENDBRANCH  15  16
ENDBRANCH  10  15
BRANCH  12  35
ATOM     35  O   UNL     1      15.914  30.171  17.844  1.00  0.00    -0.385 OA
ATOM     36  H   UNL     1      15.107  29.661  17.568  1.00  0.00     0.211 HD
ENDBRANCH  12  35
BRANCH  13  37
ATOM     37  O   UNL     1      16.275  27.173  19.457  1.00  0.00    -0.387 OA
ATOM     38  H   UNL     1      16.086  26.607  18.663  1.00  0.00     0.211 HD
ENDBRANCH  13  37
BRANCH  14  39
ATOM     39  O   UNL     1      15.378  28.532  21.742  1.00  0.00    -0.387 OA
ATOM     40  H   UNL     1      16.247  28.064  21.674  1.00  0.00     0.211 HD
ENDBRANCH  14  39
ENDBRANCH   8   9
ENDBRANCH   7   8
ENDBRANCH   1   7
BRANCH   1  41
ATOM     41  C   UNL     1      11.385  29.330  24.364  1.00  0.00     0.364 C 
ATOM     42  O   UNL     1      10.189  29.800  24.165  1.00  0.00    -0.246 OA
BRANCH  41  43
ATOM     43  O   UNL     1      11.392  28.275  25.247  1.00  0.00    -0.477 OA
ATOM     44  H   UNL     1      10.592  27.662  25.307  1.00  0.00     0.296 HD
ENDBRANCH  41  43
ENDBRANCH   1  41
BRANCH   3  45
ATOM     45  O   UNL     1      11.600  33.501  24.338  1.00  0.00    -0.391 OA
ATOM     46  H   UNL     1      12.019  34.096  25.033  1.00  0.00     0.211 HD
ENDBRANCH   3  45
BRANCH   5  47
ATOM     47  C   UNL     1      15.231  31.552  23.857  1.00  0.00     0.176 C 
BRANCH  47  48
ATOM     48  O   UNL     1      15.483  32.928  23.969  1.00  0.00    -0.388 OA
ATOM     49  H   UNL     1      14.930  33.445  23.314  1.00  0.00     0.211 HD
ENDBRANCH  47  48
BRANCH  47  50
ATOM     50  C   UNL     1      16.616  30.919  24.169  1.00  0.00     0.165 C 
BRANCH  50  51
ATOM     51  O   UNL     1      16.487  29.551  24.127  1.00  0.00    -0.388 OA
ATOM     52  H   UNL     1      17.262  29.087  23.759  1.00  0.00     0.211 HD
ENDBRANCH  50  51
BRANCH  50  53
ATOM     53  C   UNL     1      17.126  31.522  25.415  1.00  0.00     0.154 C 
BRANCH  53  54
ATOM     54  N   UNL     1      18.549  31.436  25.517  1.00  0.00    -0.319 N 
ATOM     55  C   UNL     1      19.242  31.090  26.676  1.00  0.00     0.407 C 
ATOM     56  H   UNL     1      19.097  31.650  24.647  1.00  0.00     0.167 HD
ATOM     57  O   UNL     1      18.645  30.837  27.735  1.00  0.00    -0.225 OA
BRANCH  55  58
ATOM     58  O   UNL     1      20.640  31.003  26.739  1.00  0.00    -0.443 OA
BRANCH  58  59
ATOM     59  C   UNL     1      21.401  30.658  25.595  1.00  0.00     0.294 C 
BRANCH  59  60
ATOM     60  C   UNL     1      21.138  29.277  25.128  1.00  0.00     0.120 A 
ATOM     61  C   UNL     1      22.023  28.203  25.267  1.00  0.00     0.138 A 
ATOM     62  N   UNL     1      20.070  28.760  24.502  1.00  0.00    -0.132 NA
ATOM     63  N   UNL     1      21.459  27.090  24.726  1.00  0.00    -0.252 N 
ATOM     64  N   UNL     1      20.283  27.457  24.273  1.00  0.00    -0.067 NA
BRANCH  63  65
ATOM     65  C   UNL     1      22.126  25.796  24.717  1.00  0.00     0.151 C 
BRANCH  65  66
ATOM     66  C   UNL     1      21.263  24.757  24.014  1.00  0.00     0.086 C 
BRANCH  66  67
ATOM     67  C   UNL     1      21.863  24.341  22.702  1.00  0.00     0.251 C 
ATOM     68  O   UNL     1      21.467  25.239  21.709  1.00  0.00    -0.350 OA
ATOM     69  O   UNL     1      23.244  24.365  22.694  1.00  0.00    -0.350 OA
ATOM     70  C   UNL     1      22.374  25.042  20.674  1.00  0.00     0.192 C 
ATOM     71  C   UNL     1      23.493  24.232  21.308  1.00  0.00     0.192 C 
ENDBRANCH  66  67
ENDBRANCH  65  66
ENDBRANCH  63  65
ENDBRANCH  59  60
ENDBRANCH  58  59
ENDBRANCH  55  58
ENDBRANCH  53  54
ENDBRANCH  50  53
ENDBRANCH  47  50
ENDBRANCH   5  47
BRANCH   4  72
ATOM     72  N   UNL     1      13.264  32.268  26.768  1.00  0.00    -0.348 N 
ATOM     73  C   UNL     1      14.068  33.100  27.554  1.00  0.00     0.217 C 
ATOM     74  H   UNL     1      12.532  31.647  27.221  1.00  0.00     0.163 HD
ATOM     75  C   UNL     1      13.904  33.122  29.044  1.00  0.00     0.114 C 
ATOM     76  O   UNL     1      14.921  33.817  26.964  1.00  0.00    -0.275 OA
ENDBRANCH   4  72
TORSDOF 32
