REMARK VINA RESULT:    -5.860      8.205     14.173
REMARK INTER + INTRA:         -20.388
REMARK INTER:                 -13.352
REMARK INTRA:                  -7.036
REMARK UNBOUND:                -5.964
REMARK SMILES CC(=O)N[C@@H]1[C@@H](O)C[C@](OC[C@H]2O[C@@H](O[C@H]3[C@H](O)[C@@H](O)[C@H](OCCN=[N+]=[N-])O[C@@H]3CO)[C@H](O)[C@@H](O)[C@H]2O)(C(=O)O)O[C@H]1C(O)[C@H](O)CNC(=O)OCc1cn(C2CCN(C)CC2)nn1
REMARK SMILES IDX 9 1 8 2 6 3 5 4 42 5 41 6 10 7 11 8 12 9 14 10 13 11 32 12
REMARK SMILES IDX 34 13 36 14 15 15 16 16 29 17 28 18 21 19 17 20 19 21 30 22
REMARK SMILES IDX 31 23 22 25 23 26 24 27 25 28 26 29 27 30 18 31 20 33 33 35
REMARK SMILES IDX 35 37 37 39 38 41 39 42 40 43 7 45 43 47 44 48 45 50 46 51
REMARK SMILES IDX 47 53 48 54 49 55 50 57 51 58 52 59 53 60 54 61 64 62 55 63
REMARK SMILES IDX 63 64 56 65 57 66 62 67 58 68 61 69 59 70 60 71 4 72 2 73
REMARK SMILES IDX 1 75 3 76
REMARK H PARENT 31 24 18 32 20 34 33 36 35 38 37 40 40 44 7 46 44 49 46 52
REMARK H PARENT 48 56 4 74
REMARK Flexibility Score: inf
ROOT
ATOM      1  C   UNL     1      15.761  30.391  16.852  1.00  0.00     0.272 C 
ATOM      2  C   UNL     1      14.812  29.538  16.029  1.00  0.00     0.113 C 
ATOM      3  C   UNL     1      15.278  29.150  14.688  1.00  0.00     0.145 C 
ATOM      4  C   UNL     1      16.748  28.802  14.602  1.00  0.00     0.142 C 
ATOM      5  C   UNL     1      17.556  29.375  15.701  1.00  0.00     0.178 C 
ATOM      6  O   UNL     1      17.002  29.676  16.870  1.00  0.00    -0.332 OA
ENDROOT
BRANCH   1   7
ATOM      7  O   UNL     1      15.378  30.331  18.136  1.00  0.00    -0.338 OA
BRANCH   7   8
ATOM      8  C   UNL     1      14.575  29.560  18.788  1.00  0.00     0.199 C 
BRANCH   8   9
ATOM      9  C   UNL     1      15.005  28.602  19.856  1.00  0.00     0.179 C 
ATOM     10  C   UNL     1      16.970  29.485  20.887  1.00  0.00     0.282 C 
ATOM     11  O   UNL     1      16.365  28.712  19.955  1.00  0.00    -0.341 OA
ATOM     12  C   UNL     1      16.055  30.249  21.741  1.00  0.00     0.202 C 
ATOM     13  C   UNL     1      15.057  29.223  22.305  1.00  0.00     0.179 C 
ATOM     14  C   UNL     1      14.264  28.747  21.142  1.00  0.00     0.177 C 
BRANCH  10  15
ATOM     15  O   UNL     1      17.938  30.182  20.176  1.00  0.00    -0.341 OA
BRANCH  15  16
ATOM     16  C   UNL     1      19.174  30.216  20.676  1.00  0.00     0.184 C 
ATOM     17  C   UNL     1      19.759  31.583  20.594  1.00  0.00     0.178 C 
ATOM     18  O   UNL     1      20.836  31.661  21.485  1.00  0.00    -0.341 OA
ATOM     19  C   UNL     1      21.861  30.853  21.051  1.00  0.00     0.281 C 
ATOM     20  C   UNL     1      20.180  29.340  19.913  1.00  0.00     0.180 C 
ATOM     21  C   UNL     1      21.464  29.436  20.733  1.00  0.00     0.202 C 
BRANCH  17  22
ATOM     22  C   UNL     1      18.793  32.703  20.769  1.00  0.00     0.191 C 
BRANCH  22  23
ATOM     23  O   UNL     1      18.110  32.896  19.576  1.00  0.00    -0.394 OA
ATOM     24  H   UNL     1      17.703  33.797  19.522  1.00  0.00     0.210 HD
ENDBRANCH  22  23
ENDBRANCH  17  22
BRANCH  19  25
ATOM     25  O   UNL     1      22.773  30.766  22.111  1.00  0.00    -0.350 OA
BRANCH  25  26
ATOM     26  C   UNL     1      22.195  30.804  23.354  1.00  0.00     0.169 C 
BRANCH  26  27
ATOM     27  C   UNL     1      22.569  29.628  24.234  1.00  0.00     0.119 C 
BRANCH  27  28
ATOM     28  N   UNL     1      21.399  28.840  24.574  1.00  0.00    -0.092 NA
ATOM     29  N   UNL     1      20.291  29.124  24.123  1.00  0.00     0.001 N 
ATOM     30  N   UNL     1      19.129  29.533  24.138  1.00  0.00    -0.003 NA
ENDBRANCH  27  28
ENDBRANCH  26  27
ENDBRANCH  25  26
ENDBRANCH  19  25
BRANCH  20  31
ATOM     31  O   UNL     1      19.831  28.016  19.885  1.00  0.00    -0.387 OA
ATOM     32  H   UNL     1      18.984  27.917  19.398  1.00  0.00     0.211 HD
ENDBRANCH  20  31
BRANCH  21  33
ATOM     33  O   UNL     1      22.477  28.794  20.066  1.00  0.00    -0.385 OA
ATOM     34  H   UNL     1      22.160  28.101  19.464  1.00  0.00     0.211 HD
ENDBRANCH  21  33
ENDBRANCH  15  16
ENDBRANCH  10  15
BRANCH  12  35
ATOM     35  O   UNL     1      16.631  30.794  22.886  1.00  0.00    -0.385 OA
ATOM     36  H   UNL     1      16.013  30.709  23.654  1.00  0.00     0.211 HD
ENDBRANCH  12  35
BRANCH  13  37
ATOM     37  O   UNL     1      14.279  29.741  23.309  1.00  0.00    -0.387 OA
ATOM     38  H   UNL     1      13.357  29.835  22.959  1.00  0.00     0.211 HD
ENDBRANCH  13  37
BRANCH  14  39
ATOM     39  O   UNL     1      13.196  29.620  20.951  1.00  0.00    -0.387 OA
ATOM     40  H   UNL     1      13.420  30.557  21.154  1.00  0.00     0.211 HD
ENDBRANCH  14  39
ENDBRANCH   8   9
ENDBRANCH   7   8
ENDBRANCH   1   7
BRANCH   1  41
ATOM     41  C   UNL     1      15.971  31.660  16.170  1.00  0.00     0.364 C 
ATOM     42  O   UNL     1      16.823  32.478  16.706  1.00  0.00    -0.246 OA
BRANCH  41  43
ATOM     43  O   UNL     1      15.411  32.167  15.029  1.00  0.00    -0.477 OA
ATOM     44  H   UNL     1      15.013  33.103  14.949  1.00  0.00     0.296 HD
ENDBRANCH  41  43
ENDBRANCH   1  41
BRANCH   3  45
ATOM     45  O   UNL     1      14.522  28.021  14.251  1.00  0.00    -0.391 OA
ATOM     46  H   UNL     1      15.094  27.229  14.164  1.00  0.00     0.211 HD
ENDBRANCH   3  45
BRANCH   5  47
ATOM     47  C   UNL     1      18.789  28.479  16.002  1.00  0.00     0.176 C 
BRANCH  47  48
ATOM     48  O   UNL     1      18.697  28.003  17.303  1.00  0.00    -0.388 OA
ATOM     49  H   UNL     1      19.564  27.948  17.755  1.00  0.00     0.211 HD
ENDBRANCH  47  48
BRANCH  47  50
ATOM     50  C   UNL     1      20.030  29.214  15.775  1.00  0.00     0.165 C 
BRANCH  50  51
ATOM     51  O   UNL     1      20.404  28.950  14.400  1.00  0.00    -0.388 OA
ATOM     52  H   UNL     1      20.065  28.059  14.143  1.00  0.00     0.211 HD
ENDBRANCH  50  51
BRANCH  50  53
ATOM     53  C   UNL     1      21.219  28.963  16.598  1.00  0.00     0.154 C 
BRANCH  53  54
ATOM     54  N   UNL     1      21.578  27.691  17.067  1.00  0.00    -0.319 N 
ATOM     55  C   UNL     1      22.080  26.605  16.309  1.00  0.00     0.407 C 
ATOM     56  H   UNL     1      21.461  27.507  18.122  1.00  0.00     0.167 HD
ATOM     57  O   UNL     1      22.294  26.709  15.086  1.00  0.00    -0.225 OA
BRANCH  55  58
ATOM     58  O   UNL     1      22.336  25.384  16.974  1.00  0.00    -0.443 OA
BRANCH  58  59
ATOM     59  C   UNL     1      23.399  25.322  17.890  1.00  0.00     0.294 C 
BRANCH  59  60
ATOM     60  C   UNL     1      22.844  25.358  19.264  1.00  0.00     0.120 A 
ATOM     61  C   UNL     1      23.344  24.650  20.371  1.00  0.00     0.138 A 
ATOM     62  N   UNL     1      21.802  26.036  19.765  1.00  0.00    -0.132 NA
ATOM     63  N   UNL     1      22.604  24.925  21.458  1.00  0.00    -0.249 N 
ATOM     64  N   UNL     1      21.681  25.763  21.064  1.00  0.00    -0.067 NA
BRANCH  63  65
ATOM     65  C   UNL     1      22.800  24.395  22.787  1.00  0.00     0.111 C 
ATOM     66  C   UNL     1      24.118  24.910  23.293  1.00  0.00     0.043 C 
ATOM     67  C   UNL     1      21.708  24.810  23.734  1.00  0.00     0.043 C 
ATOM     68  C   UNL     1      23.871  26.030  24.277  1.00  0.00     0.086 C 
ATOM     69  C   UNL     1      22.102  24.688  25.181  1.00  0.00     0.086 C 
ATOM     70  N   UNL     1      23.303  25.438  25.487  1.00  0.00    -0.306 NA
ATOM     71  C   UNL     1      24.296  24.536  26.043  1.00  0.00     0.105 C 
ENDBRANCH  63  65
ENDBRANCH  59  60
ENDBRANCH  58  59
ENDBRANCH  55  58
ENDBRANCH  53  54
ENDBRANCH  50  53
ENDBRANCH  47  50
ENDBRANCH   5  47
BRANCH   4  72
ATOM     72  N   UNL     1      17.301  29.141  13.305  1.00  0.00    -0.348 N 
ATOM     73  C   UNL     1      17.802  30.444  13.086  1.00  0.00     0.217 C 
ATOM     74  H   UNL     1      17.343  28.450  12.516  1.00  0.00     0.163 HD
ATOM     75  C   UNL     1      18.381  30.846  11.763  1.00  0.00     0.114 C 
ATOM     76  O   UNL     1      17.767  31.303  14.025  1.00  0.00    -0.275 OA
ENDBRANCH   4  72
TORSDOF 30
