REMARK VINA RESULT:    -5.809      2.415      8.909
REMARK INTER + INTRA:         -22.668
REMARK INTER:                 -14.903
REMARK INTRA:                  -7.765
REMARK UNBOUND:                -7.010
REMARK SMILES CC(=O)N[C@@H]1[C@@H](O)C[C@](OC[C@H]2O[C@@H](O[C@H]3[C@H](O)[C@@H](O)[C@H](OCCN=[N+]=[N-])O[C@@H]3CO)[C@H](O)[C@@H](O)[C@H]2O)(C(=O)O)O[C@H]1C(O)[C@H](O)CNC(=O)OCc1cn([C@@H](CC(=O)O)C(=O)O)nn1
REMARK SMILES IDX 43 1 42 2 9 3 8 4 41 5 6 6 5 7 10 8 11 9 12 10 14 11 13 12
REMARK SMILES IDX 32 13 34 14 36 15 15 16 16 17 29 18 28 19 21 20 17 21 19 22
REMARK SMILES IDX 30 23 31 24 22 26 23 27 24 28 25 29 26 30 27 31 18 32 20 34
REMARK SMILES IDX 33 36 35 38 37 40 38 42 39 43 40 44 7 46 4 48 2 49 1 51 3 52
REMARK SMILES IDX 44 53 45 55 46 56 47 58 48 59 49 60 50 62 51 63 52 64 53 65
REMARK SMILES IDX 54 66 65 67 55 68 64 69 56 70 57 71 58 72 59 73 60 74 61 76
REMARK SMILES IDX 62 77 63 78
REMARK H PARENT 31 25 18 33 20 35 33 37 35 39 37 41 40 45 7 47 4 50 44 54
REMARK H PARENT 46 57 48 61 60 75 63 79
REMARK Flexibility Score: inf
ROOT
ATOM      1  C   UNL     1      25.363  27.272  21.133  1.00  0.00     0.176 C 
ENDROOT
BRANCH   1   2
ATOM      2  C   UNL     1      24.662  25.947  21.378  1.00  0.00     0.178 C 
ATOM      3  C   UNL     1      22.982  24.999  22.722  1.00  0.00     0.272 C 
ATOM      4  C   UNL     1      23.754  23.779  22.201  1.00  0.00     0.113 C 
ATOM      5  O   UNL     1      23.788  26.116  22.407  1.00  0.00    -0.332 OA
ATOM      6  C   UNL     1      25.189  23.981  22.666  1.00  0.00     0.145 C 
ATOM      7  C   UNL     1      25.768  24.933  21.607  1.00  0.00     0.142 C 
BRANCH   3   8
ATOM      8  O   UNL     1      22.755  24.911  23.950  1.00  0.00    -0.338 OA
BRANCH   8   9
ATOM      9  C   UNL     1      22.527  24.812  25.170  1.00  0.00     0.199 C 
BRANCH   9  10
ATOM     10  C   UNL     1      23.629  25.248  26.136  1.00  0.00     0.179 C 
ATOM     11  C   UNL     1      22.728  27.127  27.112  1.00  0.00     0.282 C 
ATOM     12  O   UNL     1      23.723  26.580  26.355  1.00  0.00    -0.341 OA
ATOM     13  C   UNL     1      22.573  26.466  28.427  1.00  0.00     0.202 C 
ATOM     14  C   UNL     1      23.764  25.503  28.563  1.00  0.00     0.179 C 
ATOM     15  C   UNL     1      23.576  24.496  27.445  1.00  0.00     0.177 C 
BRANCH  11  16
ATOM     16  O   UNL     1      21.560  27.450  26.439  1.00  0.00    -0.341 OA
BRANCH  16  17
ATOM     17  C   UNL     1      21.638  28.623  25.726  1.00  0.00     0.184 C 
ATOM     18  C   UNL     1      20.768  29.685  26.294  1.00  0.00     0.178 C 
ATOM     19  O   UNL     1      20.903  30.879  25.597  1.00  0.00    -0.341 OA
ATOM     20  C   UNL     1      21.058  30.716  24.216  1.00  0.00     0.281 C 
ATOM     21  C   UNL     1      21.174  28.286  24.311  1.00  0.00     0.180 C 
ATOM     22  C   UNL     1      20.376  29.427  23.768  1.00  0.00     0.202 C 
BRANCH  18  23
ATOM     23  C   UNL     1      21.266  29.978  27.708  1.00  0.00     0.191 C 
BRANCH  23  24
ATOM     24  O   UNL     1      20.447  29.285  28.624  1.00  0.00    -0.394 OA
ATOM     25  H   UNL     1      19.722  29.938  28.856  1.00  0.00     0.210 HD
ENDBRANCH  23  24
ENDBRANCH  18  23
BRANCH  20  26
ATOM     26  O   UNL     1      22.411  30.580  23.964  1.00  0.00    -0.350 OA
BRANCH  26  27
ATOM     27  C   UNL     1      23.205  31.639  24.278  1.00  0.00     0.169 C 
BRANCH  27  28
ATOM     28  C   UNL     1      24.502  31.181  24.872  1.00  0.00     0.119 C 
BRANCH  28  29
ATOM     29  N   UNL     1      24.782  29.836  24.367  1.00  0.00    -0.092 NA
ATOM     30  N   UNL     1      25.502  29.095  25.067  1.00  0.00     0.001 N 
ATOM     31  N   UNL     1      26.447  28.317  25.297  1.00  0.00    -0.003 NA
ENDBRANCH  28  29
ENDBRANCH  27  28
ENDBRANCH  26  27
ENDBRANCH  20  26
BRANCH  21  32
ATOM     32  O   UNL     1      22.276  28.053  23.498  1.00  0.00    -0.387 OA
ATOM     33  H   UNL     1      22.117  27.250  22.922  1.00  0.00     0.211 HD
ENDBRANCH  21  32
BRANCH  22  34
ATOM     34  O   UNL     1      19.035  29.419  24.157  1.00  0.00    -0.385 OA
ATOM     35  H   UNL     1      18.633  30.217  23.689  1.00  0.00     0.211 HD
ENDBRANCH  22  34
ENDBRANCH  16  17
ENDBRANCH  11  16
BRANCH  13  36
ATOM     36  O   UNL     1      22.678  27.339  29.512  1.00  0.00    -0.385 OA
ATOM     37  H   UNL     1      21.755  27.466  29.880  1.00  0.00     0.211 HD
ENDBRANCH  13  36
BRANCH  14  38
ATOM     38  O   UNL     1      23.825  24.899  29.793  1.00  0.00    -0.387 OA
ATOM     39  H   UNL     1      22.921  24.777  30.199  1.00  0.00     0.211 HD
ENDBRANCH  14  38
BRANCH  15  40
ATOM     40  O   UNL     1      22.381  23.835  27.624  1.00  0.00    -0.387 OA
ATOM     41  H   UNL     1      22.468  22.882  27.795  1.00  0.00     0.211 HD
ENDBRANCH  15  40
ENDBRANCH   9  10
ENDBRANCH   8   9
ENDBRANCH   3   8
BRANCH   3  42
ATOM     42  C   UNL     1      21.757  25.062  21.814  1.00  0.00     0.364 C 
ATOM     43  O   UNL     1      21.877  24.842  20.600  1.00  0.00    -0.246 OA
BRANCH  42  44
ATOM     44  O   UNL     1      20.507  25.362  22.320  1.00  0.00    -0.477 OA
ATOM     45  H   UNL     1      19.940  24.674  22.834  1.00  0.00     0.296 HD
ENDBRANCH  42  44
ENDBRANCH   3  42
BRANCH   6  46
ATOM     46  O   UNL     1      25.205  24.763  23.841  1.00  0.00    -0.391 OA
ATOM     47  H   UNL     1      25.029  25.703  23.670  1.00  0.00     0.211 HD
ENDBRANCH   6  46
BRANCH   7  48
ATOM     48  N   UNL     1      26.050  24.118  20.449  1.00  0.00    -0.348 N 
ATOM     49  C   UNL     1      27.342  23.533  20.280  1.00  0.00     0.217 C 
ATOM     50  H   UNL     1      25.342  23.927  19.703  1.00  0.00     0.163 HD
ATOM     51  C   UNL     1      27.572  22.698  19.053  1.00  0.00     0.114 C 
ATOM     52  O   UNL     1      28.264  23.702  21.121  1.00  0.00    -0.275 OA
ENDBRANCH   7  48
ENDBRANCH   1   2
BRANCH   1  53
ATOM     53  O   UNL     1      26.172  27.630  22.205  1.00  0.00    -0.388 OA
ATOM     54  H   UNL     1      25.799  27.312  23.075  1.00  0.00     0.211 HD
ENDBRANCH   1  53
BRANCH   1  55
ATOM     55  C   UNL     1      24.489  28.400  20.732  1.00  0.00     0.165 C 
BRANCH  55  56
ATOM     56  O   UNL     1      24.013  29.194  21.751  1.00  0.00    -0.388 OA
ATOM     57  H   UNL     1      23.665  28.691  22.535  1.00  0.00     0.211 HD
ENDBRANCH  55  56
BRANCH  55  58
ATOM     58  C   UNL     1      23.449  27.967  19.756  1.00  0.00     0.154 C 
BRANCH  58  59
ATOM     59  N   UNL     1      22.094  28.015  20.210  1.00  0.00    -0.319 N 
ATOM     60  C   UNL     1      21.239  29.042  19.745  1.00  0.00     0.407 C 
ATOM     61  H   UNL     1      21.722  27.315  20.867  1.00  0.00     0.167 HD
ATOM     62  O   UNL     1      21.719  29.890  18.915  1.00  0.00    -0.225 OA
BRANCH  60  63
ATOM     63  O   UNL     1      19.917  29.229  20.108  1.00  0.00    -0.443 OA
BRANCH  63  64
ATOM     64  C   UNL     1      18.871  28.749  19.248  1.00  0.00     0.294 C 
BRANCH  64  65
ATOM     65  C   UNL     1      17.595  28.765  20.002  1.00  0.00     0.120 A 
ATOM     66  C   UNL     1      17.033  29.757  20.774  1.00  0.00     0.139 A 
ATOM     67  N   UNL     1      16.706  27.720  20.082  1.00  0.00    -0.132 NA
ATOM     68  N   UNL     1      15.854  29.302  21.288  1.00  0.00    -0.237 N 
ATOM     69  N   UNL     1      15.711  28.088  20.843  1.00  0.00    -0.066 NA
BRANCH  68  70
ATOM     70  C   UNL     1      14.962  30.030  22.163  1.00  0.00     0.229 C 
BRANCH  70  71
ATOM     71  C   UNL     1      13.547  29.866  21.637  1.00  0.00     0.161 C 
BRANCH  71  72
ATOM     72  C   UNL     1      13.341  30.626  20.389  1.00  0.00     0.306 C 
ATOM     73  O   UNL     1      12.836  31.777  20.406  1.00  0.00    -0.252 OA
BRANCH  72  74
ATOM     74  O   UNL     1      13.699  30.084  19.175  1.00  0.00    -0.481 OA
ATOM     75  H   UNL     1      13.295  29.181  18.900  1.00  0.00     0.296 HD
ENDBRANCH  72  74
ENDBRANCH  71  72
ENDBRANCH  70  71
BRANCH  70  76
ATOM     76  C   UNL     1      15.051  29.462  23.520  1.00  0.00     0.329 C 
ATOM     77  O   UNL     1      16.179  29.322  24.046  1.00  0.00    -0.250 OA
BRANCH  76  78
ATOM     78  O   UNL     1      13.938  29.071  24.252  1.00  0.00    -0.480 OA
ATOM     79  H   UNL     1      13.039  29.482  24.016  1.00  0.00     0.296 HD
ENDBRANCH  76  78
ENDBRANCH  70  76
ENDBRANCH  68  70
ENDBRANCH  64  65
ENDBRANCH  63  64
ENDBRANCH  60  63
ENDBRANCH  58  59
ENDBRANCH  55  58
ENDBRANCH   1  55
TORSDOF 35
