REMARK VINA RESULT:    -4.865      4.528      9.016
REMARK INTER + INTRA:         -22.360
REMARK INTER:                 -13.042
REMARK INTRA:                  -9.318
REMARK UNBOUND:                -8.679
REMARK SMILES CCOC(CCn1cc(COC(=O)NC[C@@H](O)C(O)[C@@H]2O[C@@](OC[C@H]3O[C@@H](O[C@H]4[C@H](O)[C@@H](O)[C@H](OCCN=[N+]=[N-])O[C@@H]4CO)[C@H](O)[C@@H](O)[C@H]3O)(C(=O)O)C[C@H](O)[C@H]2NC(C)=O)nn1)OCC
REMARK SMILES IDX 18 1 20 2 22 3 54 4 21 5 55 6 57 7 23 8 24 9 25 10 27 11
REMARK SMILES IDX 26 12 45 13 47 14 49 15 28 16 29 17 42 18 41 19 34 20 30 21
REMARK SMILES IDX 32 22 43 23 44 24 35 26 36 27 37 28 38 29 39 30 40 31 31 32
REMARK SMILES IDX 33 34 46 36 48 38 50 40 51 42 52 43 53 44 56 46 58 48 59 49
REMARK SMILES IDX 60 51 61 52 19 53 16 55 17 56 15 58 14 59 12 60 13 62 11 63
REMARK SMILES IDX 10 64 9 65 8 66 62 67 7 68 63 69 6 70 5 71 4 72 3 73 2 74
REMARK SMILES IDX 1 75 64 76 65 77 66 78
REMARK H PARENT 44 25 31 33 33 35 46 37 48 39 50 41 53 45 56 47 58 50 19 54
REMARK H PARENT 17 57 14 61
REMARK Flexibility Score: inf
ROOT
ATOM      1  C   UNL     1      22.901  30.683  21.311  1.00  0.00     0.176 C 
ENDROOT
BRANCH   1   2
ATOM      2  C   UNL     1      22.063  30.681  22.555  1.00  0.00     0.178 C 
ATOM      3  C   UNL     1      22.059  30.183  24.814  1.00  0.00     0.272 C 
ATOM      4  C   UNL     1      20.711  30.795  24.671  1.00  0.00     0.113 C 
ATOM      5  O   UNL     1      22.782  30.124  23.601  1.00  0.00    -0.332 OA
ATOM      6  C   UNL     1      19.900  30.336  23.510  1.00  0.00     0.145 C 
ATOM      7  C   UNL     1      20.824  29.790  22.414  1.00  0.00     0.142 C 
BRANCH   3   8
ATOM      8  O   UNL     1      22.163  28.991  25.410  1.00  0.00    -0.338 OA
BRANCH   8   9
ATOM      9  C   UNL     1      21.172  28.480  26.163  1.00  0.00     0.199 C 
BRANCH   9  10
ATOM     10  C   UNL     1      21.580  27.164  26.786  1.00  0.00     0.179 C 
ATOM     11  C   UNL     1      22.251  25.049  26.443  1.00  0.00     0.282 C 
ATOM     12  O   UNL     1      22.374  26.382  25.968  1.00  0.00    -0.341 OA
ATOM     13  C   UNL     1      22.969  24.955  27.738  1.00  0.00     0.202 C 
ATOM     14  C   UNL     1      22.405  25.966  28.708  1.00  0.00     0.179 C 
ATOM     15  C   UNL     1      22.263  27.352  28.137  1.00  0.00     0.177 C 
BRANCH  11  16
ATOM     16  O   UNL     1      22.700  24.174  25.448  1.00  0.00    -0.341 OA
BRANCH  16  17
ATOM     17  C   UNL     1      23.100  24.898  24.370  1.00  0.00     0.184 C 
ATOM     18  C   UNL     1      22.437  24.668  23.067  1.00  0.00     0.178 C 
ATOM     19  O   UNL     1      22.722  25.762  22.238  1.00  0.00    -0.341 OA
ATOM     20  C   UNL     1      24.085  25.779  21.904  1.00  0.00     0.281 C 
ATOM     21  C   UNL     1      24.614  24.648  24.077  1.00  0.00     0.180 C 
ATOM     22  C   UNL     1      24.977  25.799  23.127  1.00  0.00     0.202 C 
BRANCH  18  23
ATOM     23  C   UNL     1      20.949  24.571  23.216  1.00  0.00     0.191 C 
BRANCH  23  24
ATOM     24  O   UNL     1      20.398  25.710  23.803  1.00  0.00    -0.394 OA
ATOM     25  H   UNL     1      19.738  25.505  24.487  1.00  0.00     0.210 HD
ENDBRANCH  23  24
ENDBRANCH  18  23
BRANCH  20  26
ATOM     26  O   UNL     1      24.303  26.949  21.198  1.00  0.00    -0.350 OA
BRANCH  26  27
ATOM     27  C   UNL     1      24.482  26.827  19.853  1.00  0.00     0.169 C 
BRANCH  27  28
ATOM     28  C   UNL     1      23.351  27.489  19.111  1.00  0.00     0.119 C 
BRANCH  28  29
ATOM     29  N   UNL     1      22.302  26.503  18.859  1.00  0.00    -0.092 NA
ATOM     30  N   UNL     1      22.718  25.364  18.567  1.00  0.00     0.001 N 
ATOM     31  N   UNL     1      22.887  24.333  17.911  1.00  0.00    -0.003 NA
ENDBRANCH  28  29
ENDBRANCH  27  28
ENDBRANCH  26  27
ENDBRANCH  20  26
BRANCH  21  32
ATOM     32  O   UNL     1      25.360  24.714  25.224  1.00  0.00    -0.387 OA
ATOM     33  H   UNL     1      25.876  23.890  25.398  1.00  0.00     0.211 HD
ENDBRANCH  21  32
BRANCH  22  34
ATOM     34  O   UNL     1      26.285  25.722  22.732  1.00  0.00    -0.385 OA
ATOM     35  H   UNL     1      26.710  24.983  23.268  1.00  0.00     0.211 HD
ENDBRANCH  22  34
ENDBRANCH  16  17
ENDBRANCH  11  16
BRANCH  13  36
ATOM     36  O   UNL     1      22.777  23.702  28.341  1.00  0.00    -0.385 OA
ATOM     37  H   UNL     1      23.628  23.226  28.470  1.00  0.00     0.211 HD
ENDBRANCH  13  36
BRANCH  14  38
ATOM     38  O   UNL     1      23.085  25.958  29.921  1.00  0.00    -0.387 OA
ATOM     39  H   UNL     1      22.603  26.491  30.609  1.00  0.00     0.211 HD
ENDBRANCH  14  38
BRANCH  15  40
ATOM     40  O   UNL     1      23.485  27.980  27.951  1.00  0.00    -0.387 OA
ATOM     41  H   UNL     1      23.377  28.827  27.464  1.00  0.00     0.211 HD
ENDBRANCH  15  40
ENDBRANCH   9  10
ENDBRANCH   8   9
ENDBRANCH   3   8
BRANCH   3  42
ATOM     42  C   UNL     1      22.868  31.137  25.638  1.00  0.00     0.364 C 
ATOM     43  O   UNL     1      22.642  32.361  25.632  1.00  0.00    -0.246 OA
BRANCH  42  44
ATOM     44  O   UNL     1      23.908  30.692  26.447  1.00  0.00    -0.477 OA
ATOM     45  H   UNL     1      24.617  30.096  26.033  1.00  0.00     0.296 HD
ENDBRANCH  42  44
ENDBRANCH   3  42
BRANCH   6  46
ATOM     46  O   UNL     1      18.912  29.432  23.813  1.00  0.00    -0.391 OA
ATOM     47  H   UNL     1      18.844  29.210  24.775  1.00  0.00     0.211 HD
ENDBRANCH   6  46
BRANCH   7  48
ATOM     48  N   UNL     1      20.228  29.847  21.120  1.00  0.00    -0.348 N 
ATOM     49  C   UNL     1      19.877  28.622  20.485  1.00  0.00     0.217 C 
ATOM     50  H   UNL     1      20.034  30.735  20.617  1.00  0.00     0.163 HD
ATOM     51  C   UNL     1      19.254  28.648  19.136  1.00  0.00     0.114 C 
ATOM     52  O   UNL     1      20.087  27.497  21.053  1.00  0.00    -0.275 OA
ENDBRANCH   7  48
ENDBRANCH   1   2
BRANCH   1  53
ATOM     53  O   UNL     1      22.306  31.605  20.430  1.00  0.00    -0.388 OA
ATOM     54  H   UNL     1      22.208  32.497  20.874  1.00  0.00     0.211 HD
ENDBRANCH   1  53
BRANCH   1  55
ATOM     55  C   UNL     1      24.264  31.242  21.670  1.00  0.00     0.165 C 
BRANCH  55  56
ATOM     56  O   UNL     1      24.521  32.396  20.989  1.00  0.00    -0.388 OA
ATOM     57  H   UNL     1      24.104  32.450  20.093  1.00  0.00     0.211 HD
ENDBRANCH  55  56
BRANCH  55  58
ATOM     58  C   UNL     1      25.334  30.219  21.407  1.00  0.00     0.154 C 
BRANCH  58  59
ATOM     59  N   UNL     1      25.626  29.330  22.493  1.00  0.00    -0.319 N 
ATOM     60  C   UNL     1      26.490  29.613  23.562  1.00  0.00     0.407 C 
ATOM     61  H   UNL     1      25.132  28.386  22.457  1.00  0.00     0.167 HD
ATOM     62  O   UNL     1      27.096  30.691  23.679  1.00  0.00    -0.225 OA
BRANCH  60  63
ATOM     63  O   UNL     1      26.711  28.654  24.576  1.00  0.00    -0.443 OA
BRANCH  63  64
ATOM     64  C   UNL     1      27.281  29.081  25.822  1.00  0.00     0.294 C 
BRANCH  64  65
ATOM     65  C   UNL     1      26.844  28.142  26.886  1.00  0.00     0.120 A 
ATOM     66  C   UNL     1      26.945  28.313  28.246  1.00  0.00     0.138 A 
ATOM     67  N   UNL     1      26.277  26.948  26.694  1.00  0.00    -0.132 NA
ATOM     68  N   UNL     1      26.431  27.205  28.820  1.00  0.00    -0.252 N 
ATOM     69  N   UNL     1      26.035  26.399  27.851  1.00  0.00    -0.067 NA
BRANCH  68  70
ATOM     70  C   UNL     1      26.352  26.995  30.236  1.00  0.00     0.151 C 
BRANCH  70  71
ATOM     71  C   UNL     1      26.581  25.578  30.675  1.00  0.00     0.086 C 
BRANCH  71  72
ATOM     72  C   UNL     1      27.952  25.478  31.342  1.00  0.00     0.251 C 
BRANCH  72  73
ATOM     73  O   UNL     1      28.796  24.889  30.420  1.00  0.00    -0.353 OA
BRANCH  73  74
ATOM     74  C   UNL     1      29.948  25.634  30.206  1.00  0.00     0.160 C 
ATOM     75  C   UNL     1      30.073  26.059  28.756  1.00  0.00     0.035 C 
ENDBRANCH  73  74
ENDBRANCH  72  73
BRANCH  72  76
ATOM     76  O   UNL     1      27.889  24.879  32.565  1.00  0.00    -0.353 OA
BRANCH  76  77
ATOM     77  C   UNL     1      28.130  25.662  33.662  1.00  0.00     0.160 C 
ATOM     78  C   UNL     1      26.814  26.119  34.245  1.00  0.00     0.035 C 
ENDBRANCH  76  77
ENDBRANCH  72  76
ENDBRANCH  71  72
ENDBRANCH  70  71
ENDBRANCH  68  70
ENDBRANCH  64  65
ENDBRANCH  63  64
ENDBRANCH  60  63
ENDBRANCH  58  59
ENDBRANCH  55  58
ENDBRANCH   1  55
TORSDOF 36
