REMARK VINA RESULT:    -6.728     18.024     23.235
REMARK INTER + INTRA:         -22.697
REMARK INTER:                 -17.639
REMARK INTRA:                  -5.057
REMARK UNBOUND:                -5.152
REMARK SMILES CC(=O)N[C@@H]1[C@@H](O)C[C@](OC[C@H]2O[C@@H](O[C@H]3[C@H](O)[C@@H](O)[C@H](OCCN=[N+]=[N-])O[C@@H]3CO)[C@H](O)[C@@H](O)[C@H]2O)(C(=O)O)O[C@H]1C(O)[C@H](O)CNC(=O)OCc1cn(CC(O)c2ccccc2)nn1
REMARK SMILES IDX 9 1 8 2 6 3 5 4 42 5 41 6 10 7 11 8 12 9 14 10 13 11 32 12
REMARK SMILES IDX 34 13 36 14 15 15 16 16 29 17 28 18 21 19 17 20 19 21 30 22
REMARK SMILES IDX 31 23 22 25 23 26 24 27 25 28 26 29 27 30 18 31 20 33 33 35
REMARK SMILES IDX 35 37 37 39 38 41 39 42 40 43 7 45 43 47 44 48 45 50 46 51
REMARK SMILES IDX 47 53 48 54 49 55 50 57 51 58 52 59 53 60 54 61 66 62 55 63
REMARK SMILES IDX 65 64 56 65 57 66 58 67 59 69 60 70 64 71 61 72 63 73 62 74
REMARK SMILES IDX 4 75 2 76 1 78 3 79
REMARK H PARENT 31 24 18 32 20 34 33 36 35 38 37 40 40 44 7 46 44 49 46 52
REMARK H PARENT 48 56 58 68 4 77
REMARK Flexibility Score: inf
ROOT
ATOM      1  C   UNL     1       4.540  23.632  33.786  1.00  0.00     0.272 C 
ATOM      2  C   UNL     1       3.452  24.573  33.429  1.00  0.00     0.113 C 
ATOM      3  C   UNL     1       2.078  24.009  33.333  1.00  0.00     0.145 C 
ATOM      4  C   UNL     1       2.163  22.517  33.278  1.00  0.00     0.142 C 
ATOM      5  C   UNL     1       3.358  22.157  32.414  1.00  0.00     0.178 C 
ATOM      6  O   UNL     1       4.566  22.542  32.908  1.00  0.00    -0.332 OA
ENDROOT
BRANCH   1   7
ATOM      7  O   UNL     1       4.547  23.121  35.050  1.00  0.00    -0.338 OA
BRANCH   7   8
ATOM      8  C   UNL     1       4.245  23.953  36.082  1.00  0.00     0.199 C 
BRANCH   8   9
ATOM      9  C   UNL     1       5.282  23.869  37.179  1.00  0.00     0.179 C 
ATOM     10  C   UNL     1       7.515  24.344  37.461  1.00  0.00     0.282 C 
ATOM     11  O   UNL     1       6.554  23.810  36.645  1.00  0.00    -0.341 OA
ATOM     12  C   UNL     1       7.374  25.827  37.726  1.00  0.00     0.202 C 
ATOM     13  C   UNL     1       5.898  26.157  37.756  1.00  0.00     0.179 C 
ATOM     14  C   UNL     1       5.175  24.915  38.237  1.00  0.00     0.177 C 
BRANCH  10  15
ATOM     15  O   UNL     1       8.793  24.185  36.935  1.00  0.00    -0.341 OA
BRANCH  15  16
ATOM     16  C   UNL     1       9.458  23.058  37.332  1.00  0.00     0.184 C 
ATOM     17  C   UNL     1      10.142  23.395  38.652  1.00  0.00     0.178 C 
ATOM     18  O   UNL     1      11.476  23.689  38.463  1.00  0.00    -0.341 OA
ATOM     19  C   UNL     1      11.565  24.641  37.431  1.00  0.00     0.281 C 
ATOM     20  C   UNL     1      10.477  22.743  36.244  1.00  0.00     0.180 C 
ATOM     21  C   UNL     1      11.490  23.869  36.119  1.00  0.00     0.202 C 
BRANCH  17  22
ATOM     22  C   UNL     1       9.946  22.278  39.662  1.00  0.00     0.191 C 
BRANCH  22  23
ATOM     23  O   UNL     1       9.773  21.049  39.031  1.00  0.00    -0.394 OA
ATOM     24  H   UNL     1       8.827  20.746  39.059  1.00  0.00     0.210 HD
ENDBRANCH  22  23
ENDBRANCH  17  22
BRANCH  19  25
ATOM     25  O   UNL     1      12.759  25.298  37.599  1.00  0.00    -0.350 OA
BRANCH  25  26
ATOM     26  C   UNL     1      12.663  26.623  37.951  1.00  0.00     0.169 C 
BRANCH  26  27
ATOM     27  C   UNL     1      13.233  27.577  36.938  1.00  0.00     0.119 C 
BRANCH  27  28
ATOM     28  N   UNL     1      13.375  26.901  35.643  1.00  0.00    -0.092 NA
ATOM     29  N   UNL     1      12.820  27.480  34.696  1.00  0.00     0.001 N 
ATOM     30  N   UNL     1      12.499  27.943  33.601  1.00  0.00    -0.003 NA
ENDBRANCH  27  28
ENDBRANCH  26  27
ENDBRANCH  25  26
ENDBRANCH  19  25
BRANCH  20  31
ATOM     31  O   UNL     1      11.118  21.543  36.519  1.00  0.00    -0.387 OA
ATOM     32  H   UNL     1      10.449  20.802  36.542  1.00  0.00     0.211 HD
ENDBRANCH  20  31
BRANCH  21  33
ATOM     33  O   UNL     1      11.198  24.683  35.040  1.00  0.00    -0.385 OA
ATOM     34  H   UNL     1      10.438  25.263  35.295  1.00  0.00     0.211 HD
ENDBRANCH  21  33
ENDBRANCH  15  16
ENDBRANCH  10  15
BRANCH  12  35
ATOM     35  O   UNL     1       7.933  26.111  38.976  1.00  0.00    -0.385 OA
ATOM     36  H   UNL     1       8.631  26.807  38.834  1.00  0.00     0.211 HD
ENDBRANCH  12  35
BRANCH  13  37
ATOM     37  O   UNL     1       5.542  26.467  36.446  1.00  0.00    -0.387 OA
ATOM     38  H   UNL     1       4.682  26.914  36.360  1.00  0.00     0.211 HD
ENDBRANCH  13  37
BRANCH  14  39
ATOM     39  O   UNL     1       3.891  25.146  38.672  1.00  0.00    -0.387 OA
ATOM     40  H   UNL     1       3.192  24.789  38.068  1.00  0.00     0.211 HD
ENDBRANCH  14  39
ENDBRANCH   8   9
ENDBRANCH   7   8
ENDBRANCH   1   7
BRANCH   1  41
ATOM     41  C   UNL     1       5.833  24.371  33.478  1.00  0.00     0.364 C 
ATOM     42  O   UNL     1       5.906  25.574  33.667  1.00  0.00    -0.246 OA
BRANCH  41  43
ATOM     43  O   UNL     1       6.871  23.598  32.989  1.00  0.00    -0.477 OA
ATOM     44  H   UNL     1       7.283  23.891  32.128  1.00  0.00     0.296 HD
ENDBRANCH  41  43
ENDBRANCH   1  41
BRANCH   3  45
ATOM     45  O   UNL     1       1.245  24.483  34.348  1.00  0.00    -0.391 OA
ATOM     46  H   UNL     1       0.744  25.250  33.953  1.00  0.00     0.211 HD
ENDBRANCH   3  45
BRANCH   5  47
ATOM     47  C   UNL     1       3.231  20.683  32.124  1.00  0.00     0.176 C 
BRANCH  47  48
ATOM     48  O   UNL     1       3.952  19.975  33.098  1.00  0.00    -0.388 OA
ATOM     49  H   UNL     1       3.348  19.884  33.886  1.00  0.00     0.211 HD
ENDBRANCH  47  48
BRANCH  47  50
ATOM     50  C   UNL     1       3.658  20.333  30.738  1.00  0.00     0.165 C 
BRANCH  50  51
ATOM     51  O   UNL     1       4.961  20.665  30.483  1.00  0.00    -0.388 OA
ATOM     52  H   UNL     1       5.572  20.552  31.228  1.00  0.00     0.211 HD
ENDBRANCH  50  51
BRANCH  50  53
ATOM     53  C   UNL     1       2.669  20.704  29.664  1.00  0.00     0.154 C 
BRANCH  53  54
ATOM     54  N   UNL     1       2.960  21.905  28.938  1.00  0.00    -0.319 N 
ATOM     55  C   UNL     1       2.178  23.095  28.993  1.00  0.00     0.407 C 
ATOM     56  H   UNL     1       3.825  21.938  28.310  1.00  0.00     0.167 HD
ATOM     57  O   UNL     1       1.164  23.157  29.711  1.00  0.00    -0.225 OA
BRANCH  55  58
ATOM     58  O   UNL     1       2.519  24.208  28.256  1.00  0.00    -0.443 OA
BRANCH  58  59
ATOM     59  C   UNL     1       3.119  24.138  26.963  1.00  0.00     0.294 C 
BRANCH  59  60
ATOM     60  C   UNL     1       4.021  25.317  26.768  1.00  0.00     0.120 A 
ATOM     61  C   UNL     1       4.634  25.777  25.631  1.00  0.00     0.138 A 
ATOM     62  N   UNL     1       4.370  26.164  27.761  1.00  0.00    -0.132 NA
ATOM     63  N   UNL     1       5.348  26.899  25.944  1.00  0.00    -0.249 N 
ATOM     64  N   UNL     1       5.147  27.075  27.230  1.00  0.00    -0.067 NA
BRANCH  63  65
ATOM     65  C   UNL     1       6.137  27.692  25.014  1.00  0.00     0.182 C 
BRANCH  65  66
ATOM     66  C   UNL     1       7.596  27.278  25.090  1.00  0.00     0.166 C 
BRANCH  66  67
ATOM     67  O   UNL     1       7.725  26.243  24.134  1.00  0.00    -0.386 OA
ATOM     68  H   UNL     1       7.200  26.473  23.319  1.00  0.00     0.211 HD
ENDBRANCH  66  67
BRANCH  66  69
ATOM     69  C   UNL     1       8.544  28.359  24.800  1.00  0.00    -0.018 A 
ATOM     70  C   UNL     1       8.155  29.626  24.490  1.00  0.00     0.006 A 
ATOM     71  C   UNL     1       9.899  28.001  24.843  1.00  0.00     0.006 A 
ATOM     72  C   UNL     1       9.134  30.568  24.216  1.00  0.00     0.000 A 
ATOM     73  C   UNL     1      10.846  28.949  24.567  1.00  0.00     0.000 A 
ATOM     74  C   UNL     1      10.469  30.239  24.251  1.00  0.00     0.000 A 
ENDBRANCH  66  69
ENDBRANCH  65  66
ENDBRANCH  63  65
ENDBRANCH  59  60
ENDBRANCH  58  59
ENDBRANCH  55  58
ENDBRANCH  53  54
ENDBRANCH  50  53
ENDBRANCH  47  50
ENDBRANCH   5  47
BRANCH   4  75
ATOM     75  N   UNL     1       1.002  21.969  32.560  1.00  0.00    -0.348 N 
ATOM     76  C   UNL     1      -0.088  21.360  33.232  1.00  0.00     0.217 C 
ATOM     77  H   UNL     1       0.959  22.018  31.520  1.00  0.00     0.163 HD
ATOM     78  C   UNL     1      -1.277  20.796  32.541  1.00  0.00     0.114 C 
ATOM     79  O   UNL     1      -0.043  21.298  34.491  1.00  0.00    -0.275 OA
ENDBRANCH   4  75
TORSDOF 33
