REMARK VINA RESULT:    -5.186     17.827     22.390
REMARK INTER + INTRA:         -19.924
REMARK INTER:                 -13.710
REMARK INTRA:                  -6.215
REMARK UNBOUND:                -6.855
REMARK SMILES CC(=O)N[C@@H]1[C@@H](O)C[C@](OC[C@H]2O[C@@H](O[C@H]3[C@H](O)[C@@H](O)[C@H](OCCN=[N+]=[N-])O[C@@H]3CO)[C@H](O)[C@@H](O)[C@H]2O)(C(=O)O)O[C@H]1C(O)[C@H](O)CNC(=O)OCc1cn(Cc2ccsc2)nn1
REMARK SMILES IDX 9 1 8 2 6 3 5 4 42 5 41 6 10 7 11 8 12 9 14 10 13 11 32 12
REMARK SMILES IDX 34 13 36 14 15 15 16 16 29 17 28 18 21 19 17 20 19 21 30 22
REMARK SMILES IDX 31 23 22 25 23 26 24 27 25 28 26 29 27 30 18 31 20 33 33 35
REMARK SMILES IDX 35 37 37 39 38 41 39 42 40 43 7 45 43 47 44 48 45 50 46 51
REMARK SMILES IDX 47 53 48 54 49 55 50 57 51 58 52 59 53 60 54 61 63 62 55 63
REMARK SMILES IDX 62 64 56 65 57 66 58 67 61 68 59 69 60 70 4 71 2 72 1 74
REMARK SMILES IDX 3 75
REMARK H PARENT 31 24 18 32 20 34 33 36 35 38 37 40 40 44 7 46 44 49 46 52
REMARK H PARENT 48 56 4 73
REMARK Flexibility Score: inf
ROOT
ATOM      1  C   UNL     1       2.063  22.292  32.193  1.00  0.00     0.272 C 
ATOM      2  C   UNL     1       1.256  22.089  33.440  1.00  0.00     0.113 C 
ATOM      3  C   UNL     1       2.031  22.213  34.724  1.00  0.00     0.145 C 
ATOM      4  C   UNL     1       2.979  23.349  34.726  1.00  0.00     0.142 C 
ATOM      5  C   UNL     1       3.492  23.749  33.357  1.00  0.00     0.178 C 
ATOM      6  O   UNL     1       2.622  23.623  32.333  1.00  0.00    -0.332 OA
ENDROOT
BRANCH   1   7
ATOM      7  O   UNL     1       1.240  22.457  31.136  1.00  0.00    -0.338 OA
BRANCH   7   8
ATOM      8  C   UNL     1       1.139  23.547  30.399  1.00  0.00     0.199 C 
BRANCH   8   9
ATOM      9  C   UNL     1       1.132  23.578  28.927  1.00  0.00     0.179 C 
ATOM     10  C   UNL     1       1.442  25.132  27.295  1.00  0.00     0.282 C 
ATOM     11  O   UNL     1       1.927  24.729  28.561  1.00  0.00    -0.341 OA
ATOM     12  C   UNL     1       1.347  24.005  26.326  1.00  0.00     0.202 C 
ATOM     13  C   UNL     1       1.900  22.698  26.768  1.00  0.00     0.179 C 
ATOM     14  C   UNL     1       1.900  22.456  28.251  1.00  0.00     0.177 C 
BRANCH  10  15
ATOM     15  O   UNL     1       2.223  26.172  26.859  1.00  0.00    -0.341 OA
BRANCH  15  16
ATOM     16  C   UNL     1       3.580  26.043  27.200  1.00  0.00     0.184 C 
ATOM     17  C   UNL     1       4.035  27.134  28.104  1.00  0.00     0.178 C 
ATOM     18  O   UNL     1       4.646  28.208  27.534  1.00  0.00    -0.341 OA
ATOM     19  C   UNL     1       4.687  28.192  26.130  1.00  0.00     0.281 C 
ATOM     20  C   UNL     1       4.438  25.792  26.001  1.00  0.00     0.180 C 
ATOM     21  C   UNL     1       5.431  26.938  25.762  1.00  0.00     0.202 C 
BRANCH  17  22
ATOM     22  C   UNL     1       4.916  26.626  29.234  1.00  0.00     0.191 C 
BRANCH  22  23
ATOM     23  O   UNL     1       4.294  25.490  29.749  1.00  0.00    -0.394 OA
ATOM     24  H   UNL     1       4.866  25.036  30.436  1.00  0.00     0.210 HD
ENDBRANCH  22  23
ENDBRANCH  17  22
BRANCH  19  25
ATOM     25  O   UNL     1       5.269  29.363  25.726  1.00  0.00    -0.350 OA
BRANCH  25  26
ATOM     26  C   UNL     1       4.565  30.037  24.747  1.00  0.00     0.169 C 
BRANCH  26  27
ATOM     27  C   UNL     1       5.351  30.438  23.541  1.00  0.00     0.119 C 
BRANCH  27  28
ATOM     28  N   UNL     1       5.767  29.288  22.785  1.00  0.00    -0.092 NA
ATOM     29  N   UNL     1       5.382  29.190  21.609  1.00  0.00     0.001 N 
ATOM     30  N   UNL     1       5.245  28.885  20.425  1.00  0.00    -0.003 NA
ENDBRANCH  27  28
ENDBRANCH  26  27
ENDBRANCH  25  26
ENDBRANCH  19  25
BRANCH  20  31
ATOM     31  O   UNL     1       5.085  24.575  26.007  1.00  0.00    -0.387 OA
ATOM     32  H   UNL     1       4.459  23.838  26.165  1.00  0.00     0.211 HD
ENDBRANCH  20  31
BRANCH  21  33
ATOM     33  O   UNL     1       5.909  26.961  24.477  1.00  0.00    -0.385 OA
ATOM     34  H   UNL     1       6.559  26.228  24.297  1.00  0.00     0.211 HD
ENDBRANCH  21  33
ENDBRANCH  15  16
ENDBRANCH  10  15
BRANCH  12  35
ATOM     35  O   UNL     1       0.029  23.868  25.817  1.00  0.00    -0.385 OA
ATOM     36  H   UNL     1      -0.457  23.173  26.333  1.00  0.00     0.211 HD
ENDBRANCH  12  35
BRANCH  13  37
ATOM     37  O   UNL     1       3.239  22.605  26.340  1.00  0.00    -0.387 OA
ATOM     38  H   UNL     1       3.290  22.938  25.415  1.00  0.00     0.211 HD
ENDBRANCH  13  37
BRANCH  14  39
ATOM     39  O   UNL     1       3.215  22.559  28.767  1.00  0.00    -0.387 OA
ATOM     40  H   UNL     1       3.485  23.509  28.572  1.00  0.00     0.211 HD
ENDBRANCH  14  39
ENDBRANCH   8   9
ENDBRANCH   7   8
ENDBRANCH   1   7
BRANCH   1  41
ATOM     41  C   UNL     1       3.237  21.428  32.066  1.00  0.00     0.364 C 
ATOM     42  O   UNL     1       3.329  20.315  32.618  1.00  0.00    -0.246 OA
BRANCH  41  43
ATOM     43  O   UNL     1       4.359  21.801  31.303  1.00  0.00    -0.477 OA
ATOM     44  H   UNL     1       5.235  21.306  31.390  1.00  0.00     0.296 HD
ENDBRANCH  41  43
ENDBRANCH   1  41
BRANCH   3  45
ATOM     45  O   UNL     1       1.038  22.470  35.708  1.00  0.00    -0.391 OA
ATOM     46  H   UNL     1       0.327  23.057  35.326  1.00  0.00     0.211 HD
ENDBRANCH   3  45
BRANCH   5  47
ATOM     47  C   UNL     1       3.838  25.258  33.407  1.00  0.00     0.176 C 
BRANCH  47  48
ATOM     48  O   UNL     1       3.086  25.924  32.442  1.00  0.00    -0.388 OA
ATOM     49  H   UNL     1       2.968  26.867  32.699  1.00  0.00     0.211 HD
ENDBRANCH  47  48
BRANCH  47  50
ATOM     50  C   UNL     1       5.277  25.407  33.064  1.00  0.00     0.165 C 
BRANCH  50  51
ATOM     51  O   UNL     1       5.686  24.299  32.323  1.00  0.00    -0.388 OA
ATOM     52  H   UNL     1       6.357  23.770  32.816  1.00  0.00     0.211 HD
ENDBRANCH  50  51
BRANCH  50  53
ATOM     53  C   UNL     1       6.196  25.530  34.251  1.00  0.00     0.154 C 
BRANCH  53  54
ATOM     54  N   UNL     1       7.369  24.715  34.147  1.00  0.00    -0.319 N 
ATOM     55  C   UNL     1       8.682  25.148  34.373  1.00  0.00     0.407 C 
ATOM     56  H   UNL     1       7.231  23.695  33.874  1.00  0.00     0.167 HD
ATOM     57  O   UNL     1       8.883  26.339  34.694  1.00  0.00    -0.225 OA
BRANCH  55  58
ATOM     58  O   UNL     1       9.724  24.256  34.236  1.00  0.00    -0.443 OA
BRANCH  58  59
ATOM     59  C   UNL     1      10.912  24.315  34.971  1.00  0.00     0.294 C 
BRANCH  59  60
ATOM     60  C   UNL     1      10.684  23.735  36.310  1.00  0.00     0.120 A 
ATOM     61  C   UNL     1      10.944  24.322  37.509  1.00  0.00     0.138 A 
ATOM     62  N   UNL     1      10.176  22.517  36.547  1.00  0.00    -0.132 NA
ATOM     63  N   UNL     1      10.585  23.444  38.462  1.00  0.00    -0.248 N 
ATOM     64  N   UNL     1      10.124  22.359  37.873  1.00  0.00    -0.067 NA
BRANCH  63  65
ATOM     65  C   UNL     1      10.694  23.669  39.881  1.00  0.00     0.182 C 
BRANCH  65  66
ATOM     66  C   UNL     1       9.368  23.267  40.539  1.00  0.00    -0.016 A 
ATOM     67  C   UNL     1       8.281  24.011  40.510  1.00  0.00     0.017 A 
ATOM     68  C   UNL     1       9.332  22.040  41.200  1.00  0.00     0.070 A 
ATOM     69  C   UNL     1       7.110  23.599  41.120  1.00  0.00     0.065 A 
ATOM     70  S   UNL     1       7.633  21.982  41.803  1.00  0.00    -0.152 S 
ENDBRANCH  65  66
ENDBRANCH  63  65
ENDBRANCH  59  60
ENDBRANCH  58  59
ENDBRANCH  55  58
ENDBRANCH  53  54
ENDBRANCH  50  53
ENDBRANCH  47  50
ENDBRANCH   5  47
BRANCH   4  71
ATOM     71  N   UNL     1       4.116  23.182  35.580  1.00  0.00    -0.348 N 
ATOM     72  C   UNL     1       4.166  23.695  36.902  1.00  0.00     0.217 C 
ATOM     73  H   UNL     1       4.954  22.664  35.238  1.00  0.00     0.163 HD
ATOM     74  C   UNL     1       5.347  23.525  37.803  1.00  0.00     0.114 C 
ATOM     75  O   UNL     1       3.132  24.317  37.285  1.00  0.00    -0.275 OA
ENDBRANCH   4  71
TORSDOF 31
