REMARK VINA RESULT:    -6.267      3.755      9.472
REMARK INTER + INTRA:         -22.813
REMARK INTER:                 -16.164
REMARK INTRA:                  -6.648
REMARK UNBOUND:                -7.387
REMARK SMILES CC(=O)N[C@@H]1[C@@H](O)C[C@](OC[C@H]2O[C@@H](O[C@H]3[C@H](O)[C@@H](O)[C@H](OCCN=[N+]=[N-])O[C@@H]3CO)[C@H](O)[C@@H](O)[C@H]2O)(C(=O)O)O[C@H]1C(O)[C@H](O)CNC(=O)OCc1cn(C23CC4CC(CC(C4)C2)C3)nn1
REMARK SMILES IDX 9 1 8 2 6 3 5 4 42 5 41 6 10 7 11 8 12 9 14 10 13 11 32 12
REMARK SMILES IDX 34 13 36 14 15 15 16 16 29 17 28 18 21 19 17 20 19 21 30 22
REMARK SMILES IDX 31 23 22 25 23 26 24 27 25 28 26 29 27 30 18 31 20 33 33 35
REMARK SMILES IDX 35 37 37 39 38 41 39 42 40 43 7 45 43 47 44 48 45 50 46 51
REMARK SMILES IDX 47 53 48 54 49 55 50 57 51 58 52 59 53 60 54 61 67 62 55 63
REMARK SMILES IDX 66 64 56 65 65 66 64 67 57 68 60 69 62 70 58 71 59 72 61 73
REMARK SMILES IDX 63 74 4 75 2 76 1 78 3 79
REMARK H PARENT 31 24 18 32 20 34 33 36 35 38 37 40 40 44 7 46 44 49 46 52
REMARK H PARENT 48 56 4 77
REMARK Flexibility Score: inf
ROOT
ATOM      1  C   UNL     1      24.569  25.741  20.223  1.00  0.00     0.272 C 
ATOM      2  C   UNL     1      24.280  24.473  20.949  1.00  0.00     0.113 C 
ATOM      3  C   UNL     1      22.794  24.178  20.943  1.00  0.00     0.145 C 
ATOM      4  C   UNL     1      22.186  25.180  21.935  1.00  0.00     0.142 C 
ATOM      5  C   UNL     1      22.805  26.503  21.595  1.00  0.00     0.178 C 
ATOM      6  O   UNL     1      23.403  26.577  20.363  1.00  0.00    -0.332 OA
ENDROOT
BRANCH   1   7
ATOM      7  O   UNL     1      24.761  25.674  18.913  1.00  0.00    -0.338 OA
BRANCH   7   8
ATOM      8  C   UNL     1      24.766  26.619  18.007  1.00  0.00     0.199 C 
BRANCH   8   9
ATOM      9  C   UNL     1      24.444  26.396  16.567  1.00  0.00     0.179 C 
ATOM     10  C   UNL     1      24.650  25.042  14.786  1.00  0.00     0.282 C 
ATOM     11  O   UNL     1      25.003  25.135  16.148  1.00  0.00    -0.341 OA
ATOM     12  C   UNL     1      23.311  24.381  14.761  1.00  0.00     0.202 C 
ATOM     13  C   UNL     1      22.525  24.902  15.951  1.00  0.00     0.179 C 
ATOM     14  C   UNL     1      22.942  26.305  16.322  1.00  0.00     0.177 C 
BRANCH  10  15
ATOM     15  O   UNL     1      25.635  24.384  14.059  1.00  0.00    -0.341 OA
BRANCH  15  16
ATOM     16  C   UNL     1      25.319  23.062  13.955  1.00  0.00     0.184 C 
ATOM     17  C   UNL     1      26.163  22.095  14.703  1.00  0.00     0.178 C 
ATOM     18  O   UNL     1      25.404  20.906  14.797  1.00  0.00    -0.341 OA
ATOM     19  C   UNL     1      25.318  20.265  13.539  1.00  0.00     0.281 C 
ATOM     20  C   UNL     1      25.346  22.575  12.502  1.00  0.00     0.180 C 
ATOM     21  C   UNL     1      24.811  21.186  12.481  1.00  0.00     0.202 C 
BRANCH  17  22
ATOM     22  C   UNL     1      26.661  22.527  16.031  1.00  0.00     0.191 C 
BRANCH  22  23
ATOM     23  O   UNL     1      27.638  23.513  15.816  1.00  0.00    -0.394 OA
ATOM     24  H   UNL     1      28.409  23.157  15.301  1.00  0.00     0.210 HD
ENDBRANCH  22  23
ENDBRANCH  17  22
BRANCH  19  25
ATOM     25  O   UNL     1      24.403  19.254  13.721  1.00  0.00    -0.350 OA
BRANCH  25  26
ATOM     26  C   UNL     1      23.117  19.615  13.891  1.00  0.00     0.169 C 
BRANCH  26  27
ATOM     27  C   UNL     1      22.171  18.824  13.045  1.00  0.00     0.119 C 
BRANCH  27  28
ATOM     28  N   UNL     1      22.852  18.326  11.844  1.00  0.00    -0.092 NA
ATOM     29  N   UNL     1      22.385  18.644  10.758  1.00  0.00     0.001 N 
ATOM     30  N   UNL     1      21.918  18.641   9.599  1.00  0.00    -0.003 NA
ENDBRANCH  27  28
ENDBRANCH  26  27
ENDBRANCH  25  26
ENDBRANCH  19  25
BRANCH  20  31
ATOM     31  O   UNL     1      24.549  23.375  11.685  1.00  0.00    -0.387 OA
ATOM     32  H   UNL     1      23.808  23.737  12.219  1.00  0.00     0.211 HD
ENDBRANCH  20  31
BRANCH  21  33
ATOM     33  O   UNL     1      25.113  20.651  11.230  1.00  0.00    -0.385 OA
ATOM     34  H   UNL     1      26.046  20.366  11.190  1.00  0.00     0.211 HD
ENDBRANCH  21  33
ENDBRANCH  15  16
ENDBRANCH  10  15
BRANCH  12  35
ATOM     35  O   UNL     1      22.609  24.500  13.588  1.00  0.00    -0.385 OA
ATOM     36  H   UNL     1      21.639  24.495  13.765  1.00  0.00     0.211 HD
ENDBRANCH  12  35
BRANCH  13  37
ATOM     37  O   UNL     1      22.584  24.047  17.044  1.00  0.00    -0.387 OA
ATOM     38  H   UNL     1      22.366  23.110  16.737  1.00  0.00     0.211 HD
ENDBRANCH  13  37
BRANCH  14  39
ATOM     39  O   UNL     1      22.301  26.640  17.507  1.00  0.00    -0.387 OA
ATOM     40  H   UNL     1      22.209  25.856  18.110  1.00  0.00     0.211 HD
ENDBRANCH  14  39
ENDBRANCH   8   9
ENDBRANCH   7   8
ENDBRANCH   1   7
BRANCH   1  41
ATOM     41  C   UNL     1      25.589  26.516  20.949  1.00  0.00     0.364 C 
ATOM     42  O   UNL     1      25.740  27.744  20.916  1.00  0.00    -0.246 OA
BRANCH  41  43
ATOM     43  O   UNL     1      26.472  25.740  21.757  1.00  0.00    -0.477 OA
ATOM     44  H   UNL     1      26.399  24.746  21.715  1.00  0.00     0.296 HD
ENDBRANCH  41  43
ENDBRANCH   1  41
BRANCH   3  45
ATOM     45  O   UNL     1      22.270  24.472  19.690  1.00  0.00    -0.391 OA
ATOM     46  H   UNL     1      21.704  23.704  19.422  1.00  0.00     0.211 HD
ENDBRANCH   3  45
BRANCH   5  47
ATOM     47  C   UNL     1      21.705  27.629  21.529  1.00  0.00     0.176 C 
BRANCH  47  48
ATOM     48  O   UNL     1      20.548  26.851  21.314  1.00  0.00    -0.388 OA
ATOM     49  H   UNL     1      19.790  27.456  21.508  1.00  0.00     0.211 HD
ENDBRANCH  47  48
BRANCH  47  50
ATOM     50  C   UNL     1      21.943  28.501  20.379  1.00  0.00     0.165 C 
BRANCH  50  51
ATOM     51  O   UNL     1      23.070  29.336  20.474  1.00  0.00    -0.388 OA
ATOM     52  H   UNL     1      23.835  28.806  20.850  1.00  0.00     0.211 HD
ENDBRANCH  50  51
BRANCH  50  53
ATOM     53  C   UNL     1      20.805  29.297  19.865  1.00  0.00     0.154 C 
BRANCH  53  54
ATOM     54  N   UNL     1      19.982  28.629  18.925  1.00  0.00    -0.319 N 
ATOM     55  C   UNL     1      19.595  29.062  17.649  1.00  0.00     0.407 C 
ATOM     56  H   UNL     1      19.607  27.651  19.250  1.00  0.00     0.167 HD
ATOM     57  O   UNL     1      19.957  30.165  17.210  1.00  0.00    -0.225 OA
BRANCH  55  58
ATOM     58  O   UNL     1      18.778  28.212  16.865  1.00  0.00    -0.443 OA
BRANCH  58  59
ATOM     59  C   UNL     1      17.399  28.480  16.826  1.00  0.00     0.294 C 
BRANCH  59  60
ATOM     60  C   UNL     1      16.829  28.337  18.175  1.00  0.00     0.120 A 
ATOM     61  C   UNL     1      16.104  29.293  18.837  1.00  0.00     0.138 A 
ATOM     62  N   UNL     1      16.900  27.277  19.002  1.00  0.00    -0.132 NA
ATOM     63  N   UNL     1      15.763  28.789  20.026  1.00  0.00    -0.246 N 
ATOM     64  N   UNL     1      16.258  27.570  20.098  1.00  0.00    -0.066 NA
BRANCH  63  65
ATOM     65  C   UNL     1      14.984  29.519  21.007  1.00  0.00     0.065 C 
ATOM     66  C   UNL     1      14.705  30.889  20.475  1.00  0.00     0.034 C 
ATOM     67  C   UNL     1      13.727  28.746  21.353  1.00  0.00     0.034 C 
ATOM     68  C   UNL     1      15.784  29.665  22.288  1.00  0.00     0.034 C 
ATOM     69  C   UNL     1      13.865  31.675  21.450  1.00  0.00    -0.008 C 
ATOM     70  C   UNL     1      12.878  29.572  22.272  1.00  0.00    -0.008 C 
ATOM     71  C   UNL     1      14.929  30.426  23.273  1.00  0.00    -0.008 C 
ATOM     72  C   UNL     1      14.620  31.801  22.750  1.00  0.00     0.007 C 
ATOM     73  C   UNL     1      12.579  30.911  21.672  1.00  0.00     0.007 C 
ATOM     74  C   UNL     1      13.633  29.730  23.584  1.00  0.00     0.007 C 
ENDBRANCH  63  65
ENDBRANCH  59  60
ENDBRANCH  58  59
ENDBRANCH  55  58
ENDBRANCH  53  54
ENDBRANCH  50  53
ENDBRANCH  47  50
ENDBRANCH   5  47
BRANCH   4  75
ATOM     75  N   UNL     1      22.585  24.769  23.285  1.00  0.00    -0.348 N 
ATOM     76  C   UNL     1      21.770  25.058  24.415  1.00  0.00     0.217 C 
ATOM     77  H   UNL     1      23.488  24.254  23.434  1.00  0.00     0.163 HD
ATOM     78  C   UNL     1      22.201  24.633  25.796  1.00  0.00     0.114 C 
ATOM     79  O   UNL     1      20.696  25.670  24.228  1.00  0.00    -0.275 OA
ENDBRANCH   4  75
TORSDOF 30
