REMARK VINA RESULT:    -4.118     21.484     26.393
REMARK INTER + INTRA:         -22.276
REMARK INTER:                 -16.847
REMARK INTRA:                  -5.429
REMARK UNBOUND:               -11.418
REMARK SMILES CC(=O)N[C@@H]1[C@@H](O)C[C@](OC[C@H]2O[C@@H](O[C@H]3[C@H](O)[C@@H](O)[C@H](OCCN=[N+]=[N-])O[C@@H]3CO)[C@H](O)[C@@H](O)[C@H]2O)(C(=O)O)O[C@H]1C(O)[C@H](O)CNC(=O)OCc1cn(CC(=O)NCc2cccs2)nn1
REMARK SMILES IDX 43 1 42 2 9 3 8 4 41 5 6 6 5 7 10 8 11 9 12 10 14 11 13 12
REMARK SMILES IDX 32 13 34 14 36 15 15 16 16 17 29 18 28 19 21 20 17 21 19 22
REMARK SMILES IDX 30 23 31 24 22 26 23 27 24 28 25 29 26 30 27 31 18 32 20 34
REMARK SMILES IDX 33 36 35 38 37 40 38 42 39 43 40 44 7 46 4 48 2 49 1 51 3 52
REMARK SMILES IDX 44 53 45 55 46 56 47 58 48 59 49 60 50 62 51 63 52 64 53 65
REMARK SMILES IDX 54 66 67 67 55 68 66 69 56 70 57 71 58 72 59 73 60 75 61 76
REMARK SMILES IDX 62 77 65 78 63 79 64 80
REMARK H PARENT 31 25 18 33 20 35 33 37 35 39 37 41 40 45 7 47 4 50 44 54
REMARK H PARENT 46 57 48 61 59 74
REMARK Flexibility Score: inf
ROOT
ATOM      1  C   UNL     1      31.542  20.306  26.584  1.00  0.00     0.176 C 
ENDROOT
BRANCH   1   2
ATOM      2  C   UNL     1      32.713  19.368  26.713  1.00  0.00     0.178 C 
ATOM      3  C   UNL     1      32.919  17.819  24.937  1.00  0.00     0.272 C 
ATOM      4  C   UNL     1      31.933  16.922  25.704  1.00  0.00     0.113 C 
ATOM      5  O   UNL     1      33.123  19.028  25.471  1.00  0.00    -0.332 OA
ATOM      6  C   UNL     1      32.311  16.920  27.130  1.00  0.00     0.145 C 
ATOM      7  C   UNL     1      32.572  18.285  27.710  1.00  0.00     0.142 C 
BRANCH   3   8
ATOM      8  O   UNL     1      32.372  17.912  23.679  1.00  0.00    -0.338 OA
BRANCH   8   9
ATOM      9  C   UNL     1      32.708  18.897  22.843  1.00  0.00     0.199 C 
BRANCH   9  10
ATOM     10  C   UNL     1      31.807  20.088  22.693  1.00  0.00     0.179 C 
ATOM     11  C   UNL     1      31.213  21.515  20.996  1.00  0.00     0.282 C 
ATOM     12  O   UNL     1      31.577  20.196  21.299  1.00  0.00    -0.341 OA
ATOM     13  C   UNL     1      30.208  22.049  21.962  1.00  0.00     0.202 C 
ATOM     14  C   UNL     1      29.557  21.030  22.837  1.00  0.00     0.179 C 
ATOM     15  C   UNL     1      30.425  19.895  23.278  1.00  0.00     0.177 C 
BRANCH  11  16
ATOM     16  O   UNL     1      30.776  21.660  19.709  1.00  0.00    -0.341 OA
BRANCH  16  17
ATOM     17  C   UNL     1      29.807  20.728  19.343  1.00  0.00     0.184 C 
ATOM     18  C   UNL     1      30.315  19.628  18.519  1.00  0.00     0.178 C 
ATOM     19  O   UNL     1      29.936  19.564  17.205  1.00  0.00    -0.341 OA
ATOM     20  C   UNL     1      29.293  20.633  16.669  1.00  0.00     0.281 C 
ATOM     21  C   UNL     1      28.627  21.493  18.816  1.00  0.00     0.180 C 
ATOM     22  C   UNL     1      28.060  20.902  17.550  1.00  0.00     0.202 C 
BRANCH  18  23
ATOM     23  C   UNL     1      29.883  18.274  19.119  1.00  0.00     0.191 C 
BRANCH  23  24
ATOM     24  O   UNL     1      29.013  18.424  20.177  1.00  0.00    -0.394 OA
ATOM     25  H   UNL     1      28.991  19.389  20.422  1.00  0.00     0.210 HD
ENDBRANCH  23  24
ENDBRANCH  18  23
BRANCH  20  26
ATOM     26  O   UNL     1      28.750  20.252  15.431  1.00  0.00    -0.350 OA
BRANCH  26  27
ATOM     27  C   UNL     1      28.363  18.928  15.424  1.00  0.00     0.169 C 
BRANCH  27  28
ATOM     28  C   UNL     1      27.756  18.641  14.047  1.00  0.00     0.119 C 
BRANCH  28  29
ATOM     29  N   UNL     1      26.317  18.853  14.106  1.00  0.00    -0.092 NA
ATOM     30  N   UNL     1      25.590  18.311  13.275  1.00  0.00     0.001 N 
ATOM     31  N   UNL     1      24.792  17.638  12.596  1.00  0.00    -0.003 NA
ENDBRANCH  28  29
ENDBRANCH  27  28
ENDBRANCH  26  27
ENDBRANCH  20  26
BRANCH  21  32
ATOM     32  O   UNL     1      27.626  21.683  19.774  1.00  0.00    -0.387 OA
ATOM     33  H   UNL     1      27.811  21.137  20.598  1.00  0.00     0.211 HD
ENDBRANCH  21  32
BRANCH  22  34
ATOM     34  O   UNL     1      27.233  21.841  16.964  1.00  0.00    -0.385 OA
ATOM     35  H   UNL     1      27.683  22.272  16.193  1.00  0.00     0.211 HD
ENDBRANCH  22  34
ENDBRANCH  16  17
ENDBRANCH  11  16
BRANCH  13  36
ATOM     36  O   UNL     1      30.748  23.088  22.753  1.00  0.00    -0.385 OA
ATOM     37  H   UNL     1      30.973  22.812  23.656  1.00  0.00     0.211 HD
ENDBRANCH  13  36
BRANCH  14  38
ATOM     38  O   UNL     1      28.354  20.570  22.254  1.00  0.00    -0.387 OA
ATOM     39  H   UNL     1      28.164  21.087  21.433  1.00  0.00     0.211 HD
ENDBRANCH  14  38
BRANCH  15  40
ATOM     40  O   UNL     1      29.860  18.723  22.720  1.00  0.00    -0.387 OA
ATOM     41  H   UNL     1      29.735  18.797  21.746  1.00  0.00     0.211 HD
ENDBRANCH  15  40
ENDBRANCH   9  10
ENDBRANCH   8   9
ENDBRANCH   3   8
BRANCH   3  42
ATOM     42  C   UNL     1      34.192  17.034  24.923  1.00  0.00     0.364 C 
ATOM     43  O   UNL     1      34.303  15.868  24.480  1.00  0.00    -0.246 OA
BRANCH  42  44
ATOM     44  O   UNL     1      35.350  17.614  25.427  1.00  0.00    -0.477 OA
ATOM     45  H   UNL     1      35.933  18.193  24.836  1.00  0.00     0.296 HD
ENDBRANCH  42  44
ENDBRANCH   3  42
BRANCH   6  46
ATOM     46  O   UNL     1      31.311  16.233  27.877  1.00  0.00    -0.391 OA
ATOM     47  H   UNL     1      31.709  15.561  28.471  1.00  0.00     0.211 HD
ENDBRANCH   6  46
BRANCH   7  48
ATOM     48  N   UNL     1      33.690  18.248  28.632  1.00  0.00    -0.348 N 
ATOM     49  C   UNL     1      33.461  18.192  30.023  1.00  0.00     0.217 C 
ATOM     50  H   UNL     1      34.690  18.267  28.299  1.00  0.00     0.163 HD
ATOM     51  C   UNL     1      34.625  18.155  30.957  1.00  0.00     0.114 C 
ATOM     52  O   UNL     1      32.321  18.172  30.543  1.00  0.00    -0.275 OA
ENDBRANCH   7  48
ENDBRANCH   1   2
BRANCH   1  53
ATOM     53  O   UNL     1      30.490  20.060  27.418  1.00  0.00    -0.388 OA
ATOM     54  H   UNL     1      30.710  19.840  28.348  1.00  0.00     0.211 HD
ENDBRANCH   1  53
BRANCH   1  55
ATOM     55  C   UNL     1      31.903  21.773  26.492  1.00  0.00     0.165 C 
BRANCH  55  56
ATOM     56  O   UNL     1      32.732  22.066  25.452  1.00  0.00    -0.388 OA
ATOM     57  H   UNL     1      32.702  22.997  25.141  1.00  0.00     0.211 HD
ENDBRANCH  55  56
BRANCH  55  58
ATOM     58  C   UNL     1      32.486  22.249  27.812  1.00  0.00     0.154 C 
BRANCH  58  59
ATOM     59  N   UNL     1      31.859  23.439  28.304  1.00  0.00    -0.319 N 
ATOM     60  C   UNL     1      32.340  24.767  28.189  1.00  0.00     0.407 C 
ATOM     61  H   UNL     1      30.914  23.383  28.829  1.00  0.00     0.167 HD
ATOM     62  O   UNL     1      33.397  25.033  27.616  1.00  0.00    -0.225 OA
BRANCH  60  63
ATOM     63  O   UNL     1      31.625  25.854  28.731  1.00  0.00    -0.443 OA
BRANCH  63  64
ATOM     64  C   UNL     1      31.297  26.006  30.073  1.00  0.00     0.294 C 
BRANCH  64  65
ATOM     65  C   UNL     1      29.889  25.745  30.398  1.00  0.00     0.120 A 
ATOM     66  C   UNL     1      29.164  26.279  31.441  1.00  0.00     0.138 A 
ATOM     67  N   UNL     1      29.031  24.932  29.727  1.00  0.00    -0.132 NA
ATOM     68  N   UNL     1      27.917  25.794  31.386  1.00  0.00    -0.243 N 
ATOM     69  N   UNL     1      27.872  24.992  30.348  1.00  0.00    -0.067 NA
BRANCH  68  70
ATOM     70  C   UNL     1      26.774  26.040  32.238  1.00  0.00     0.245 C 
BRANCH  70  71
ATOM     71  C   UNL     1      25.653  26.495  31.396  1.00  0.00     0.242 C 
ATOM     72  O   UNL     1      25.491  27.708  31.167  1.00  0.00    -0.273 OA
ATOM     73  N   UNL     1      24.748  25.560  30.839  1.00  0.00    -0.350 N 
ATOM     74  H   UNL     1      24.849  24.520  31.010  1.00  0.00     0.163 HD
BRANCH  73  75
ATOM     75  C   UNL     1      23.648  25.961  30.016  1.00  0.00     0.162 C 
BRANCH  75  76
ATOM     76  C   UNL     1      23.905  25.545  28.629  1.00  0.00     0.024 A 
ATOM     77  C   UNL     1      24.913  25.840  27.772  1.00  0.00     0.017 A 
ATOM     78  S   UNL     1      22.874  24.471  27.694  1.00  0.00    -0.147 S 
ATOM     79  C   UNL     1      24.906  25.311  26.539  1.00  0.00     0.012 A 
ATOM     80  C   UNL     1      23.907  24.495  26.160  1.00  0.00     0.065 A 
ENDBRANCH  75  76
ENDBRANCH  73  75
ENDBRANCH  70  71
ENDBRANCH  68  70
ENDBRANCH  64  65
ENDBRANCH  63  64
ENDBRANCH  60  63
ENDBRANCH  58  59
ENDBRANCH  55  58
ENDBRANCH   1  55
TORSDOF 33
