REMARK VINA RESULT:    -6.350      4.573     12.167
REMARK INTER + INTRA:         -22.207
REMARK INTER:                 -14.597
REMARK INTRA:                  -7.610
REMARK UNBOUND:                -5.463
REMARK SMILES CC(=O)N[C@@H]1[C@@H](O)C[C@](OC[C@H]2O[C@@H](O[C@H]3[C@H](O)[C@@H](O)[C@H](OCCN=[N+]=[N-])O[C@@H]3CO)[C@H](O)[C@@H](O)[C@H]2O)(C(=O)O)O[C@H]1C(O)[C@H](O)CNC(=O)OCc1cn(COCc2ccccc2)nn1
REMARK SMILES IDX 43 1 42 2 9 3 8 4 41 5 6 6 5 7 10 8 11 9 12 10 14 11 13 12
REMARK SMILES IDX 32 13 34 14 36 15 15 16 16 17 29 18 28 19 21 20 17 21 19 22
REMARK SMILES IDX 30 23 31 24 22 26 23 27 24 28 25 29 26 30 27 31 18 32 20 34
REMARK SMILES IDX 33 36 35 38 37 40 38 42 39 43 40 44 7 46 4 48 2 49 1 51 3 52
REMARK SMILES IDX 44 53 45 55 46 56 47 58 48 59 49 60 50 62 51 63 52 64 53 65
REMARK SMILES IDX 54 66 66 67 55 68 65 69 56 70 57 71 58 72 59 73 60 74 64 75
REMARK SMILES IDX 61 76 63 77 62 78
REMARK H PARENT 31 25 18 33 20 35 33 37 35 39 37 41 40 45 7 47 4 50 44 54
REMARK H PARENT 46 57 48 61
REMARK Flexibility Score: inf
ROOT
ATOM      1  C   UNL     1      23.049  28.342  21.248  1.00  0.00     0.176 C 
ENDROOT
BRANCH   1   2
ATOM      2  C   UNL     1      23.267  26.823  21.428  1.00  0.00     0.178 C 
ATOM      3  C   UNL     1      22.882  25.250  23.095  1.00  0.00     0.272 C 
ATOM      4  C   UNL     1      24.230  24.608  22.786  1.00  0.00     0.113 C 
ATOM      5  O   UNL     1      23.016  26.565  22.777  1.00  0.00    -0.332 OA
ATOM      6  C   UNL     1      25.218  25.676  22.378  1.00  0.00     0.145 C 
ATOM      7  C   UNL     1      24.671  26.412  21.117  1.00  0.00     0.142 C 
BRANCH   3   8
ATOM      8  O   UNL     1      22.580  25.088  24.462  1.00  0.00    -0.338 OA
BRANCH   8   9
ATOM      9  C   UNL     1      23.487  24.457  25.223  1.00  0.00     0.199 C 
BRANCH   9  10
ATOM     10  C   UNL     1      24.027  25.385  26.286  1.00  0.00     0.179 C 
ATOM     11  C   UNL     1      24.326  27.524  26.972  1.00  0.00     0.282 C 
ATOM     12  O   UNL     1      23.754  26.727  25.953  1.00  0.00    -0.341 OA
ATOM     13  C   UNL     1      23.476  27.455  28.236  1.00  0.00     0.202 C 
ATOM     14  C   UNL     1      22.578  26.221  28.060  1.00  0.00     0.179 C 
ATOM     15  C   UNL     1      23.512  25.102  27.650  1.00  0.00     0.177 C 
BRANCH  11  16
ATOM     16  O   UNL     1      24.327  28.820  26.536  1.00  0.00    -0.341 OA
BRANCH  16  17
ATOM     17  C   UNL     1      23.099  29.456  26.654  1.00  0.00     0.184 C 
ATOM     18  C   UNL     1      22.295  29.432  25.404  1.00  0.00     0.178 C 
ATOM     19  O   UNL     1      22.838  30.281  24.487  1.00  0.00    -0.341 OA
ATOM     20  C   UNL     1      22.752  31.616  24.802  1.00  0.00     0.281 C 
ATOM     21  C   UNL     1      23.316  30.844  27.150  1.00  0.00     0.180 C 
ATOM     22  C   UNL     1      22.984  31.953  26.223  1.00  0.00     0.202 C 
BRANCH  18  23
ATOM     23  C   UNL     1      20.845  29.712  25.723  1.00  0.00     0.191 C 
BRANCH  23  24
ATOM     24  O   UNL     1      20.486  29.177  26.966  1.00  0.00    -0.394 OA
ATOM     25  H   UNL     1      19.575  28.794  26.909  1.00  0.00     0.210 HD
ENDBRANCH  23  24
ENDBRANCH  18  23
BRANCH  20  26
ATOM     26  O   UNL     1      21.469  32.038  24.437  1.00  0.00    -0.350 OA
BRANCH  26  27
ATOM     27  C   UNL     1      21.296  32.218  23.089  1.00  0.00     0.169 C 
BRANCH  27  28
ATOM     28  C   UNL     1      19.865  32.684  22.888  1.00  0.00     0.119 C 
BRANCH  28  29
ATOM     29  N   UNL     1      18.912  31.822  23.551  1.00  0.00    -0.092 NA
ATOM     30  N   UNL     1      18.719  30.665  23.134  1.00  0.00     0.001 N 
ATOM     31  N   UNL     1      18.176  29.809  22.409  1.00  0.00    -0.003 NA
ENDBRANCH  28  29
ENDBRANCH  27  28
ENDBRANCH  26  27
ENDBRANCH  20  26
BRANCH  21  32
ATOM     32  O   UNL     1      22.547  31.057  28.327  1.00  0.00    -0.387 OA
ATOM     33  H   UNL     1      22.078  30.255  28.606  1.00  0.00     0.211 HD
ENDBRANCH  21  32
BRANCH  22  34
ATOM     34  O   UNL     1      24.067  32.872  26.246  1.00  0.00    -0.385 OA
ATOM     35  H   UNL     1      24.356  32.921  27.194  1.00  0.00     0.211 HD
ENDBRANCH  22  34
ENDBRANCH  16  17
ENDBRANCH  11  16
BRANCH  13  36
ATOM     36  O   UNL     1      24.247  27.198  29.369  1.00  0.00    -0.385 OA
ATOM     37  H   UNL     1      24.952  27.891  29.407  1.00  0.00     0.211 HD
ENDBRANCH  13  36
BRANCH  14  38
ATOM     38  O   UNL     1      21.752  26.523  26.985  1.00  0.00    -0.387 OA
ATOM     39  H   UNL     1      22.242  26.838  26.185  1.00  0.00     0.211 HD
ENDBRANCH  14  38
BRANCH  15  40
ATOM     40  O   UNL     1      22.928  23.853  27.789  1.00  0.00    -0.387 OA
ATOM     41  H   UNL     1      22.035  23.788  27.364  1.00  0.00     0.211 HD
ENDBRANCH  15  40
ENDBRANCH   9  10
ENDBRANCH   8   9
ENDBRANCH   3   8
BRANCH   3  42
ATOM     42  C   UNL     1      21.773  24.625  22.375  1.00  0.00     0.364 C 
ATOM     43  O   UNL     1      21.842  23.747  21.474  1.00  0.00    -0.246 OA
BRANCH  42  44
ATOM     44  O   UNL     1      20.450  25.017  22.692  1.00  0.00    -0.477 OA
ATOM     45  H   UNL     1      20.162  25.129  23.663  1.00  0.00     0.296 HD
ENDBRANCH  42  44
ENDBRANCH   3  42
BRANCH   6  46
ATOM     46  O   UNL     1      25.518  26.624  23.290  1.00  0.00    -0.391 OA
ATOM     47  H   UNL     1      24.702  27.067  23.680  1.00  0.00     0.211 HD
ENDBRANCH   6  46
BRANCH   7  48
ATOM     48  N   UNL     1      24.750  25.415  20.076  1.00  0.00    -0.348 N 
ATOM     49  C   UNL     1      25.908  25.360  19.274  1.00  0.00     0.217 C 
ATOM     50  H   UNL     1      23.980  24.762  19.917  1.00  0.00     0.163 HD
ATOM     51  C   UNL     1      26.019  24.332  18.204  1.00  0.00     0.114 C 
ATOM     52  O   UNL     1      26.868  26.174  19.455  1.00  0.00    -0.275 OA
ENDBRANCH   7  48
ENDBRANCH   1   2
BRANCH   1  53
ATOM     53  O   UNL     1      23.826  28.962  22.300  1.00  0.00    -0.388 OA
ATOM     54  H   UNL     1      23.330  29.803  22.531  1.00  0.00     0.211 HD
ENDBRANCH   1  53
BRANCH   1  55
ATOM     55  C   UNL     1      21.651  28.806  21.454  1.00  0.00     0.165 C 
BRANCH  55  56
ATOM     56  O   UNL     1      20.830  28.025  22.216  1.00  0.00    -0.388 OA
ATOM     57  H   UNL     1      20.046  27.665  21.746  1.00  0.00     0.211 HD
ENDBRANCH  55  56
BRANCH  55  58
ATOM     58  C   UNL     1      20.928  29.483  20.355  1.00  0.00     0.154 C 
BRANCH  58  59
ATOM     59  N   UNL     1      19.802  28.809  19.772  1.00  0.00    -0.319 N 
ATOM     60  C   UNL     1      19.718  28.405  18.414  1.00  0.00     0.407 C 
ATOM     61  H   UNL     1      18.974  28.572  20.363  1.00  0.00     0.167 HD
ATOM     62  O   UNL     1      20.661  28.619  17.643  1.00  0.00    -0.225 OA
BRANCH  60  63
ATOM     63  O   UNL     1      18.607  27.758  17.861  1.00  0.00    -0.443 OA
BRANCH  63  64
ATOM     64  C   UNL     1      17.390  28.480  17.666  1.00  0.00     0.294 C 
BRANCH  64  65
ATOM     65  C   UNL     1      16.511  28.440  18.858  1.00  0.00     0.120 A 
ATOM     66  C   UNL     1      15.323  29.133  18.955  1.00  0.00     0.141 A 
ATOM     67  N   UNL     1      16.662  27.786  20.016  1.00  0.00    -0.132 NA
ATOM     68  N   UNL     1      14.793  28.875  20.176  1.00  0.00    -0.226 N 
ATOM     69  N   UNL     1      15.631  28.055  20.793  1.00  0.00    -0.065 NA
BRANCH  68  70
ATOM     70  C   UNL     1      13.556  29.368  20.738  1.00  0.00     0.307 C 
BRANCH  70  71
ATOM     71  O   UNL     1      13.422  29.043  22.060  1.00  0.00    -0.355 OA
BRANCH  71  72
ATOM     72  C   UNL     1      12.740  30.047  22.729  1.00  0.00     0.198 C 
BRANCH  72  73
ATOM     73  C   UNL     1      13.494  30.392  23.986  1.00  0.00    -0.022 A 
ATOM     74  C   UNL     1      14.872  30.371  23.937  1.00  0.00     0.006 A 
ATOM     75  C   UNL     1      12.826  30.713  25.140  1.00  0.00     0.006 A 
ATOM     76  C   UNL     1      15.598  30.680  25.068  1.00  0.00     0.000 A 
ATOM     77  C   UNL     1      13.565  31.014  26.247  1.00  0.00     0.000 A 
ATOM     78  C   UNL     1      14.951  31.006  26.240  1.00  0.00     0.000 A 
ENDBRANCH  72  73
ENDBRANCH  71  72
ENDBRANCH  70  71
ENDBRANCH  68  70
ENDBRANCH  64  65
ENDBRANCH  63  64
ENDBRANCH  60  63
ENDBRANCH  58  59
ENDBRANCH  55  58
ENDBRANCH   1  55
TORSDOF 33
