REMARK VINA RESULT:    -6.244     14.407     19.769
REMARK INTER + INTRA:         -21.625
REMARK INTER:                 -14.771
REMARK INTRA:                  -6.855
REMARK UNBOUND:                -5.342
REMARK SMILES CC(=O)N[C@@H]1[C@@H](O)C[C@](OC[C@H]2O[C@@H](O[C@H]3[C@H](O)[C@@H](O)[C@H](OCCN=[N+]=[N-])O[C@@H]3CO)[C@H](O)[C@@H](O)[C@H]2O)(C(=O)O)O[C@H]1C(O)[C@H](O)CNC(=O)OCc1cn(CCC(=O)O)nn1
REMARK SMILES IDX 43 1 42 2 9 3 8 4 41 5 6 6 5 7 10 8 11 9 12 10 14 11 13 12
REMARK SMILES IDX 32 13 34 14 36 15 15 16 16 17 29 18 28 19 21 20 17 21 19 22
REMARK SMILES IDX 30 23 31 24 22 26 23 27 24 28 25 29 26 30 27 31 18 32 20 34
REMARK SMILES IDX 33 36 35 38 37 40 38 42 39 43 40 44 7 46 4 48 2 49 1 51 3 52
REMARK SMILES IDX 44 53 45 55 46 56 47 58 48 59 49 60 50 62 51 63 52 64 53 65
REMARK SMILES IDX 54 66 62 67 55 68 61 69 56 70 57 71 58 72 59 73 60 74
REMARK H PARENT 31 25 18 33 20 35 33 37 35 39 37 41 40 45 7 47 4 50 44 54
REMARK H PARENT 46 57 48 61 60 75
REMARK Flexibility Score: inf
ROOT
ATOM      1  C   UNL     1      22.157  27.325  19.880  1.00  0.00     0.176 C 
ENDROOT
BRANCH   1   2
ATOM      2  C   UNL     1      22.556  26.110  20.683  1.00  0.00     0.178 C 
ATOM      3  C   UNL     1      22.746  25.360  22.898  1.00  0.00     0.272 C 
ATOM      4  C   UNL     1      22.995  24.119  22.059  1.00  0.00     0.113 C 
ATOM      5  O   UNL     1      22.992  26.419  21.945  1.00  0.00    -0.332 OA
ATOM      6  C   UNL     1      24.155  24.342  21.067  1.00  0.00     0.145 C 
ATOM      7  C   UNL     1      23.691  25.342  20.016  1.00  0.00     0.142 C 
BRANCH   3   8
ATOM      8  O   UNL     1      23.647  25.453  23.893  1.00  0.00    -0.338 OA
BRANCH   8   9
ATOM      9  C   UNL     1      23.743  24.756  24.991  1.00  0.00     0.199 C 
BRANCH   9  10
ATOM     10  C   UNL     1      23.985  25.259  26.349  1.00  0.00     0.179 C 
ATOM     11  C   UNL     1      24.329  27.009  27.796  1.00  0.00     0.282 C 
ATOM     12  O   UNL     1      24.242  26.594  26.498  1.00  0.00    -0.341 OA
ATOM     13  C   UNL     1      24.168  25.941  28.841  1.00  0.00     0.202 C 
ATOM     14  C   UNL     1      22.982  25.041  28.555  1.00  0.00     0.179 C 
ATOM     15  C   UNL     1      22.610  25.074  27.090  1.00  0.00     0.177 C 
BRANCH  11  16
ATOM     16  O   UNL     1      23.425  28.019  28.121  1.00  0.00    -0.341 OA
BRANCH  16  17
ATOM     17  C   UNL     1      23.884  29.296  27.809  1.00  0.00     0.184 C 
ATOM     18  C   UNL     1      22.821  30.282  28.148  1.00  0.00     0.178 C 
ATOM     19  O   UNL     1      22.270  30.932  27.031  1.00  0.00    -0.341 OA
ATOM     20  C   UNL     1      21.889  29.890  26.161  1.00  0.00     0.281 C 
ATOM     21  C   UNL     1      24.285  29.287  26.363  1.00  0.00     0.180 C 
ATOM     22  C   UNL     1      23.146  29.503  25.417  1.00  0.00     0.202 C 
BRANCH  18  23
ATOM     23  C   UNL     1      23.338  31.349  29.101  1.00  0.00     0.191 C 
BRANCH  23  24
ATOM     24  O   UNL     1      24.588  30.988  29.597  1.00  0.00    -0.394 OA
ATOM     25  H   UNL     1      24.555  31.027  30.581  1.00  0.00     0.210 HD
ENDBRANCH  23  24
ENDBRANCH  18  23
BRANCH  20  26
ATOM     26  O   UNL     1      20.876  30.273  25.314  1.00  0.00    -0.350 OA
BRANCH  26  27
ATOM     27  C   UNL     1      20.883  31.660  25.188  1.00  0.00     0.169 C 
BRANCH  27  28
ATOM     28  C   UNL     1      20.156  32.049  23.907  1.00  0.00     0.119 C 
BRANCH  28  29
ATOM     29  N   UNL     1      20.193  30.885  23.046  1.00  0.00    -0.092 NA
ATOM     30  N   UNL     1      19.127  30.393  22.680  1.00  0.00     0.001 N 
ATOM     31  N   UNL     1      18.219  29.765  22.094  1.00  0.00    -0.003 NA
ENDBRANCH  28  29
ENDBRANCH  27  28
ENDBRANCH  26  27
ENDBRANCH  20  26
BRANCH  21  32
ATOM     32  O   UNL     1      25.209  30.311  26.183  1.00  0.00    -0.387 OA
ATOM     33  H   UNL     1      25.669  30.464  27.031  1.00  0.00     0.211 HD
ENDBRANCH  21  32
BRANCH  22  34
ATOM     34  O   UNL     1      22.932  28.373  24.625  1.00  0.00    -0.385 OA
ATOM     35  H   UNL     1      23.338  27.570  25.053  1.00  0.00     0.211 HD
ENDBRANCH  22  34
ENDBRANCH  16  17
ENDBRANCH  11  16
BRANCH  13  36
ATOM     36  O   UNL     1      25.340  25.204  29.066  1.00  0.00    -0.385 OA
ATOM     37  H   UNL     1      26.007  25.771  29.485  1.00  0.00     0.211 HD
ENDBRANCH  13  36
BRANCH  14  38
ATOM     38  O   UNL     1      21.930  25.348  29.388  1.00  0.00    -0.387 OA
ATOM     39  H   UNL     1      21.638  24.562  29.892  1.00  0.00     0.211 HD
ENDBRANCH  14  38
BRANCH  15  40
ATOM     40  O   UNL     1      21.865  26.180  26.755  1.00  0.00    -0.387 OA
ATOM     41  H   UNL     1      22.054  26.987  27.287  1.00  0.00     0.211 HD
ENDBRANCH  15  40
ENDBRANCH   9  10
ENDBRANCH   8   9
ENDBRANCH   3   8
BRANCH   3  42
ATOM     42  C   UNL     1      21.352  25.525  23.320  1.00  0.00     0.364 C 
ATOM     43  O   UNL     1      20.985  26.588  23.879  1.00  0.00    -0.246 OA
BRANCH  42  44
ATOM     44  O   UNL     1      20.420  24.539  23.119  1.00  0.00    -0.477 OA
ATOM     45  H   UNL     1      19.649  24.331  23.721  1.00  0.00     0.296 HD
ENDBRANCH  42  44
ENDBRANCH   3  42
BRANCH   6  46
ATOM     46  O   UNL     1      25.191  24.906  21.778  1.00  0.00    -0.391 OA
ATOM     47  H   UNL     1      25.732  25.463  21.145  1.00  0.00     0.211 HD
ENDBRANCH   6  46
BRANCH   7  48
ATOM     48  N   UNL     1      23.269  24.672  18.830  1.00  0.00    -0.348 N 
ATOM     49  C   UNL     1      24.134  24.631  17.705  1.00  0.00     0.217 C 
ATOM     50  H   UNL     1      22.341  24.202  18.746  1.00  0.00     0.163 HD
ATOM     51  C   UNL     1      23.774  23.958  16.433  1.00  0.00     0.114 C 
ATOM     52  O   UNL     1      25.273  25.181  17.743  1.00  0.00    -0.275 OA
ENDBRANCH   7  48
ENDBRANCH   1   2
BRANCH   1  53
ATOM     53  O   UNL     1      21.571  26.885  18.692  1.00  0.00    -0.388 OA
ATOM     54  H   UNL     1      21.208  27.631  18.173  1.00  0.00     0.211 HD
ENDBRANCH   1  53
BRANCH   1  55
ATOM     55  C   UNL     1      21.203  28.245  20.571  1.00  0.00     0.165 C 
BRANCH  55  56
ATOM     56  O   UNL     1      20.213  27.478  21.194  1.00  0.00    -0.388 OA
ATOM     57  H   UNL     1      19.940  27.934  22.026  1.00  0.00     0.211 HD
ENDBRANCH  55  56
BRANCH  55  58
ATOM     58  C   UNL     1      20.513  29.067  19.476  1.00  0.00     0.154 C 
BRANCH  58  59
ATOM     59  N   UNL     1      19.152  28.643  19.298  1.00  0.00    -0.319 N 
ATOM     60  C   UNL     1      18.619  28.131  18.084  1.00  0.00     0.407 C 
ATOM     61  H   UNL     1      18.462  28.696  20.107  1.00  0.00     0.167 HD
ATOM     62  O   UNL     1      19.394  28.044  17.098  1.00  0.00    -0.225 OA
BRANCH  60  63
ATOM     63  O   UNL     1      17.299  27.735  17.961  1.00  0.00    -0.443 OA
BRANCH  63  64
ATOM     64  C   UNL     1      16.283  28.705  18.015  1.00  0.00     0.294 C 
BRANCH  64  65
ATOM     65  C   UNL     1      15.628  28.709  19.337  1.00  0.00     0.120 A 
ATOM     66  C   UNL     1      14.437  29.376  19.589  1.00  0.00     0.138 A 
ATOM     67  N   UNL     1      16.020  28.093  20.478  1.00  0.00    -0.132 NA
ATOM     68  N   UNL     1      14.152  29.133  20.891  1.00  0.00    -0.252 N 
ATOM     69  N   UNL     1      15.112  28.369  21.391  1.00  0.00    -0.067 NA
BRANCH  68  70
ATOM     70  C   UNL     1      12.997  29.614  21.619  1.00  0.00     0.158 C 
BRANCH  70  71
ATOM     71  C   UNL     1      13.293  30.826  22.473  1.00  0.00     0.146 C 
BRANCH  71  72
ATOM     72  C   UNL     1      13.408  30.386  23.870  1.00  0.00     0.305 C 
ATOM     73  O   UNL     1      13.082  31.164  24.793  1.00  0.00    -0.252 OA
BRANCH  72  74
ATOM     74  O   UNL     1      13.875  29.116  24.205  1.00  0.00    -0.481 OA
ATOM     75  H   UNL     1      14.734  28.955  24.721  1.00  0.00     0.296 HD
ENDBRANCH  72  74
ENDBRANCH  71  72
ENDBRANCH  70  71
ENDBRANCH  68  70
ENDBRANCH  64  65
ENDBRANCH  63  64
ENDBRANCH  60  63
ENDBRANCH  58  59
ENDBRANCH  55  58
ENDBRANCH   1  55
TORSDOF 33
