REMARK VINA RESULT:    -4.836      2.842      4.922
REMARK INTER + INTRA:         -22.921
REMARK INTER:                 -12.551
REMARK INTRA:                 -10.370
REMARK UNBOUND:                -9.744
REMARK SMILES CC(=O)N[C@@H]1[C@@H](O)C[C@](OC[C@H]2O[C@@H](O[C@H]3[C@H](O)[C@@H](O)[C@H](OCCN=[N+]=[N-])O[C@@H]3CO)[C@H](O)[C@@H](O)[C@H]2O)(C(=O)O)O[C@H]1C(O)[C@H](O)CNC(=O)OCc1cn(CC(O)Cn2ccnc2[N+](=O)[O-])nn1
REMARK SMILES IDX 43 1 42 2 9 3 8 4 41 5 6 6 5 7 10 8 11 9 12 10 14 11 13 12
REMARK SMILES IDX 32 13 34 14 36 15 15 16 16 17 29 18 28 19 21 20 17 21 19 22
REMARK SMILES IDX 30 23 31 24 22 26 23 27 24 28 25 29 26 30 27 31 18 32 20 34
REMARK SMILES IDX 33 36 35 38 37 40 38 42 39 43 40 44 7 46 4 48 2 49 1 51 3 52
REMARK SMILES IDX 44 53 45 55 46 56 47 58 48 59 49 60 50 62 51 63 52 64 53 65
REMARK SMILES IDX 54 66 69 67 55 68 68 69 56 70 57 71 58 72 59 74 60 75 61 76
REMARK SMILES IDX 64 77 62 78 63 79 65 80 66 81 67 82
REMARK H PARENT 31 25 18 33 20 35 33 37 35 39 37 41 40 45 7 47 4 50 44 54
REMARK H PARENT 46 57 48 61 58 73
REMARK Flexibility Score: inf
ROOT
ATOM      1  C   UNL     1      14.228  31.203  14.190  1.00  0.00     0.176 C 
ENDROOT
BRANCH   1   2
ATOM      2  C   UNL     1      13.667  31.713  15.552  1.00  0.00     0.178 C 
ATOM      3  C   UNL     1      14.608  32.333  17.572  1.00  0.00     0.272 C 
ATOM      4  C   UNL     1      13.523  31.610  18.312  1.00  0.00     0.113 C 
ATOM      5  O   UNL     1      14.826  31.743  16.331  1.00  0.00    -0.332 OA
ATOM      6  C   UNL     1      13.071  30.364  17.561  1.00  0.00     0.145 C 
ATOM      7  C   UNL     1      12.748  30.710  16.113  1.00  0.00     0.142 C 
BRANCH   3   8
ATOM      8  O   UNL     1      15.847  32.245  18.195  1.00  0.00    -0.338 OA
BRANCH   8   9
ATOM      9  C   UNL     1      16.891  31.740  17.516  1.00  0.00     0.199 C 
BRANCH   9  10
ATOM     10  C   UNL     1      17.505  30.516  18.167  1.00  0.00     0.179 C 
ATOM     11  C   UNL     1      17.568  29.321  20.053  1.00  0.00     0.282 C 
ATOM     12  O   UNL     1      16.670  30.004  19.196  1.00  0.00    -0.341 OA
ATOM     13  C   UNL     1      18.269  28.211  19.310  1.00  0.00     0.202 C 
ATOM     14  C   UNL     1      17.526  28.023  17.988  1.00  0.00     0.179 C 
ATOM     15  C   UNL     1      17.664  29.344  17.225  1.00  0.00     0.177 C 
BRANCH  11  16
ATOM     16  O   UNL     1      16.931  28.810  21.164  1.00  0.00    -0.341 OA
BRANCH  16  17
ATOM     17  C   UNL     1      15.891  29.657  21.473  1.00  0.00     0.184 C 
ATOM     18  C   UNL     1      16.025  30.327  22.832  1.00  0.00     0.178 C 
ATOM     19  O   UNL     1      15.134  31.402  22.779  1.00  0.00    -0.341 OA
ATOM     20  C   UNL     1      13.815  31.042  22.733  1.00  0.00     0.281 C 
ATOM     21  C   UNL     1      14.556  28.929  21.534  1.00  0.00     0.180 C 
ATOM     22  C   UNL     1      13.459  29.840  21.939  1.00  0.00     0.202 C 
BRANCH  18  23
ATOM     23  C   UNL     1      17.403  30.782  23.154  1.00  0.00     0.191 C 
BRANCH  23  24
ATOM     24  O   UNL     1      18.096  29.718  23.718  1.00  0.00    -0.394 OA
ATOM     25  H   UNL     1      17.919  29.612  24.686  1.00  0.00     0.210 HD
ENDBRANCH  23  24
ENDBRANCH  18  23
BRANCH  20  26
ATOM     26  O   UNL     1      13.133  32.139  22.143  1.00  0.00    -0.350 OA
BRANCH  26  27
ATOM     27  C   UNL     1      13.968  33.184  21.841  1.00  0.00     0.169 C 
BRANCH  27  28
ATOM     28  C   UNL     1      13.103  34.223  21.114  1.00  0.00     0.119 C 
BRANCH  28  29
ATOM     29  N   UNL     1      12.130  34.816  21.978  1.00  0.00    -0.092 NA
ATOM     30  N   UNL     1      10.901  34.682  21.772  1.00  0.00     0.001 N 
ATOM     31  N   UNL     1       9.743  34.360  21.981  1.00  0.00    -0.003 NA
ENDBRANCH  28  29
ENDBRANCH  27  28
ENDBRANCH  26  27
ENDBRANCH  20  26
BRANCH  21  32
ATOM     32  O   UNL     1      14.263  28.403  20.258  1.00  0.00    -0.387 OA
ATOM     33  H   UNL     1      13.980  27.483  20.404  1.00  0.00     0.211 HD
ENDBRANCH  21  32
BRANCH  22  34
ATOM     34  O   UNL     1      12.585  29.067  22.745  1.00  0.00    -0.385 OA
ATOM     35  H   UNL     1      11.794  28.772  22.223  1.00  0.00     0.211 HD
ENDBRANCH  22  34
ENDBRANCH  16  17
ENDBRANCH  11  16
BRANCH  13  36
ATOM     36  O   UNL     1      19.592  28.593  19.084  1.00  0.00    -0.385 OA
ATOM     37  H   UNL     1      19.773  28.720  18.111  1.00  0.00     0.211 HD
ENDBRANCH  13  36
BRANCH  14  38
ATOM     38  O   UNL     1      16.182  27.893  18.287  1.00  0.00    -0.387 OA
ATOM     39  H   UNL     1      15.819  28.744  18.587  1.00  0.00     0.211 HD
ENDBRANCH  14  38
BRANCH  15  40
ATOM     40  O   UNL     1      16.695  29.309  16.247  1.00  0.00    -0.387 OA
ATOM     41  H   UNL     1      17.076  29.194  15.341  1.00  0.00     0.211 HD
ENDBRANCH  15  40
ENDBRANCH   9  10
ENDBRANCH   8   9
ENDBRANCH   3   8
BRANCH   3  42
ATOM     42  C   UNL     1      14.264  33.747  17.373  1.00  0.00     0.364 C 
ATOM     43  O   UNL     1      13.109  34.213  17.672  1.00  0.00    -0.246 OA
BRANCH  42  44
ATOM     44  O   UNL     1      15.133  34.686  16.852  1.00  0.00    -0.477 OA
ATOM     45  H   UNL     1      15.065  35.048  15.897  1.00  0.00     0.296 HD
ENDBRANCH  42  44
ENDBRANCH   3  42
BRANCH   6  46
ATOM     46  O   UNL     1      13.995  29.342  17.653  1.00  0.00    -0.391 OA
ATOM     47  H   UNL     1      14.883  29.618  17.314  1.00  0.00     0.211 HD
ENDBRANCH   6  46
BRANCH   7  48
ATOM     48  N   UNL     1      11.343  30.906  15.943  1.00  0.00    -0.348 N 
ATOM     49  C   UNL     1      10.458  30.199  15.136  1.00  0.00     0.217 C 
ATOM     50  H   UNL     1      10.869  31.716  16.529  1.00  0.00     0.163 HD
ATOM     51  C   UNL     1       8.976  30.534  15.112  1.00  0.00     0.114 C 
ATOM     52  O   UNL     1      10.790  29.269  14.399  1.00  0.00    -0.275 OA
ENDBRANCH   7  48
ENDBRANCH   1   2
BRANCH   1  53
ATOM     53  O   UNL     1      13.868  29.836  14.092  1.00  0.00    -0.388 OA
ATOM     54  H   UNL     1      14.121  29.328  14.878  1.00  0.00     0.211 HD
ENDBRANCH   1  53
BRANCH   1  55
ATOM     55  C   UNL     1      15.663  31.370  14.003  1.00  0.00     0.165 C 
BRANCH  55  56
ATOM     56  O   UNL     1      16.148  32.648  13.889  1.00  0.00    -0.388 OA
ATOM     57  H   UNL     1      15.452  33.341  13.847  1.00  0.00     0.211 HD
ENDBRANCH  55  56
BRANCH  55  58
ATOM     58  C   UNL     1      16.223  30.522  12.835  1.00  0.00     0.154 C 
BRANCH  58  59
ATOM     59  N   UNL     1      17.242  29.663  13.427  1.00  0.00    -0.319 N 
ATOM     60  C   UNL     1      18.607  30.083  13.539  1.00  0.00     0.407 C 
ATOM     61  H   UNL     1      16.990  28.714  13.785  1.00  0.00     0.167 HD
ATOM     62  O   UNL     1      18.941  31.213  13.124  1.00  0.00    -0.225 OA
BRANCH  60  63
ATOM     63  O   UNL     1      19.567  29.262  14.095  1.00  0.00    -0.443 OA
BRANCH  63  64
ATOM     64  C   UNL     1      20.826  29.635  14.563  1.00  0.00     0.294 C 
BRANCH  64  65
ATOM     65  C   UNL     1      21.216  28.777  15.709  1.00  0.00     0.120 A 
ATOM     66  C   UNL     1      22.262  28.995  16.587  1.00  0.00     0.138 A 
ATOM     67  N   UNL     1      20.651  27.636  16.133  1.00  0.00    -0.132 NA
ATOM     68  N   UNL     1      22.283  27.989  17.497  1.00  0.00    -0.249 N 
ATOM     69  N   UNL     1      21.298  27.182  17.196  1.00  0.00    -0.067 NA
BRANCH  68  70
ATOM     70  C   UNL     1      23.240  27.931  18.598  1.00  0.00     0.181 C 
BRANCH  70  71
ATOM     71  C   UNL     1      22.946  26.616  19.315  1.00  0.00     0.170 C 
BRANCH  71  72
ATOM     72  O   UNL     1      23.496  25.588  18.586  1.00  0.00    -0.388 OA
ATOM     73  H   UNL     1      23.116  25.574  17.675  1.00  0.00     0.211 HD
ENDBRANCH  71  72
BRANCH  71  74
ATOM     74  C   UNL     1      23.436  26.671  20.729  1.00  0.00     0.239 C 
BRANCH  74  75
ATOM     75  N   UNL     1      22.434  26.104  21.617  1.00  0.00    -0.227 N 
ATOM     76  C   UNL     1      22.274  24.748  21.758  1.00  0.00     0.204 A 
ATOM     77  C   UNL     1      21.570  26.736  22.410  1.00  0.00     0.434 A 
ATOM     78  C   UNL     1      21.269  24.555  22.678  1.00  0.00     0.245 A 
ATOM     79  N   UNL     1      20.854  25.778  23.063  1.00  0.00    -0.074 NA
BRANCH  77  80
ATOM     80  N   UNL     1      21.407  28.137  22.546  1.00  0.00    -0.047 N 
ATOM     81  O   UNL     1      20.408  28.730  22.028  1.00  0.00    -0.390 OA
ATOM     82  O   UNL     1      22.287  28.940  23.217  1.00  0.00    -0.390 OA
ENDBRANCH  77  80
ENDBRANCH  74  75
ENDBRANCH  71  74
ENDBRANCH  70  71
ENDBRANCH  68  70
ENDBRANCH  64  65
ENDBRANCH  63  64
ENDBRANCH  60  63
ENDBRANCH  58  59
ENDBRANCH  55  58
ENDBRANCH   1  55
TORSDOF 35
