REMARK VINA RESULT:    -5.800     15.645     20.846
REMARK INTER + INTRA:         -22.631
REMARK INTER:                 -16.889
REMARK INTRA:                  -5.742
REMARK UNBOUND:                -8.354
REMARK SMILES CC(=O)N[C@@H]1[C@@H](O)C[C@](OC[C@H]2O[C@@H](O[C@H]3[C@H](O)[C@@H](O)[C@H](OCCN=[N+]=[N-])O[C@@H]3CO)[C@H](O)[C@@H](O)[C@H]2O)(C(=O)O)O[C@H]1C(O)[C@H](O)CNC(=O)OCc1cn(-c2cccc(Cl)c2)nn1
REMARK SMILES IDX 9 1 8 2 6 3 5 4 42 5 41 6 10 7 11 8 12 9 14 10 13 11 32 12
REMARK SMILES IDX 34 13 36 14 15 15 16 16 29 17 28 18 21 19 17 20 19 21 30 22
REMARK SMILES IDX 31 23 22 25 23 26 24 27 25 28 26 29 27 30 18 31 20 33 33 35
REMARK SMILES IDX 35 37 37 39 38 41 39 42 40 43 7 45 43 47 44 48 45 50 46 51
REMARK SMILES IDX 47 53 48 54 49 55 50 57 51 58 52 59 53 60 54 61 64 62 55 63
REMARK SMILES IDX 63 64 56 65 57 66 62 67 58 68 60 69 59 70 61 71 4 72 2 73
REMARK SMILES IDX 1 75 3 76
REMARK H PARENT 31 24 18 32 20 34 33 36 35 38 37 40 40 44 7 46 44 49 46 52
REMARK H PARENT 48 56 4 74
REMARK Flexibility Score: inf
ROOT
ATOM      1  C   UNL     1       2.261  20.993  31.610  1.00  0.00     0.272 C 
ATOM      2  C   UNL     1       1.762  20.224  32.751  1.00  0.00     0.113 C 
ATOM      3  C   UNL     1       2.041  20.719  34.131  1.00  0.00     0.145 C 
ATOM      4  C   UNL     1       2.884  21.968  34.161  1.00  0.00     0.142 C 
ATOM      5  C   UNL     1       3.864  21.811  32.987  1.00  0.00     0.178 C 
ATOM      6  O   UNL     1       3.112  22.067  31.879  1.00  0.00    -0.332 OA
ENDROOT
BRANCH   1   7
ATOM      7  O   UNL     1       1.401  21.436  30.653  1.00  0.00    -0.338 OA
BRANCH   7   8
ATOM      8  C   UNL     1       1.426  22.657  30.123  1.00  0.00     0.199 C 
BRANCH   8   9
ATOM      9  C   UNL     1       0.794  22.919  28.797  1.00  0.00     0.179 C 
ATOM     10  C   UNL     1       0.900  24.322  26.966  1.00  0.00     0.282 C 
ATOM     11  O   UNL     1       1.544  23.924  28.151  1.00  0.00    -0.341 OA
ATOM     12  C   UNL     1       0.811  23.149  26.039  1.00  0.00     0.202 C 
ATOM     13  C   UNL     1       0.286  21.871  26.612  1.00  0.00     0.179 C 
ATOM     14  C   UNL     1       0.958  21.637  27.947  1.00  0.00     0.177 C 
BRANCH  10  15
ATOM     15  O   UNL     1       1.756  25.227  26.394  1.00  0.00    -0.341 OA
BRANCH  15  16
ATOM     16  C   UNL     1       2.941  25.515  27.068  1.00  0.00     0.184 C 
ATOM     17  C   UNL     1       3.012  26.849  27.651  1.00  0.00     0.178 C 
ATOM     18  O   UNL     1       4.188  27.516  27.407  1.00  0.00    -0.341 OA
ATOM     19  C   UNL     1       4.759  27.268  26.162  1.00  0.00     0.281 C 
ATOM     20  C   UNL     1       4.035  24.995  26.203  1.00  0.00     0.180 C 
ATOM     21  C   UNL     1       5.271  25.836  26.280  1.00  0.00     0.202 C 
BRANCH  17  22
ATOM     22  C   UNL     1       2.916  26.780  29.185  1.00  0.00     0.191 C 
BRANCH  22  23
ATOM     23  O   UNL     1       3.536  25.567  29.579  1.00  0.00    -0.394 OA
ATOM     24  H   UNL     1       2.981  24.820  29.288  1.00  0.00     0.210 HD
ENDBRANCH  22  23
ENDBRANCH  17  22
BRANCH  19  25
ATOM     25  O   UNL     1       5.805  28.127  25.985  1.00  0.00    -0.350 OA
BRANCH  25  26
ATOM     26  C   UNL     1       6.075  28.508  24.696  1.00  0.00     0.169 C 
BRANCH  26  27
ATOM     27  C   UNL     1       7.529  28.748  24.388  1.00  0.00     0.119 C 
BRANCH  27  28
ATOM     28  N   UNL     1       8.157  27.428  24.225  1.00  0.00    -0.092 NA
ATOM     29  N   UNL     1       8.816  27.008  25.199  1.00  0.00     0.001 N 
ATOM     30  N   UNL     1       9.119  26.358  26.216  1.00  0.00    -0.003 NA
ENDBRANCH  27  28
ENDBRANCH  26  27
ENDBRANCH  25  26
ENDBRANCH  19  25
BRANCH  20  31
ATOM     31  O   UNL     1       4.313  23.651  26.520  1.00  0.00    -0.387 OA
ATOM     32  H   UNL     1       3.453  23.266  26.824  1.00  0.00     0.211 HD
ENDBRANCH  20  31
BRANCH  21  33
ATOM     33  O   UNL     1       6.071  25.535  25.173  1.00  0.00    -0.385 OA
ATOM     34  H   UNL     1       6.085  24.584  24.978  1.00  0.00     0.211 HD
ENDBRANCH  21  33
ENDBRANCH  15  16
ENDBRANCH  10  15
BRANCH  12  35
ATOM     35  O   UNL     1      -0.013  23.430  24.937  1.00  0.00    -0.385 OA
ATOM     36  H   UNL     1      -0.831  22.884  24.942  1.00  0.00     0.211 HD
ENDBRANCH  12  35
BRANCH  13  37
ATOM     37  O   UNL     1       0.663  20.824  25.770  1.00  0.00    -0.387 OA
ATOM     38  H   UNL     1       0.352  20.914  24.853  1.00  0.00     0.211 HD
ENDBRANCH  13  37
BRANCH  14  39
ATOM     39  O   UNL     1       2.346  21.606  27.673  1.00  0.00    -0.387 OA
ATOM     40  H   UNL     1       2.596  22.165  26.922  1.00  0.00     0.211 HD
ENDBRANCH  14  39
ENDBRANCH   8   9
ENDBRANCH   7   8
ENDBRANCH   1   7
BRANCH   1  41
ATOM     41  C   UNL     1       3.183  20.040  30.834  1.00  0.00     0.364 C 
ATOM     42  O   UNL     1       4.099  20.440  30.095  1.00  0.00    -0.246 OA
BRANCH  41  43
ATOM     43  O   UNL     1       2.986  18.659  30.961  1.00  0.00    -0.477 OA
ATOM     44  H   UNL     1       2.020  18.315  31.003  1.00  0.00     0.296 HD
ENDBRANCH  41  43
ENDBRANCH   1  41
BRANCH   3  45
ATOM     45  O   UNL     1       0.903  20.936  34.888  1.00  0.00    -0.391 OA
ATOM     46  H   UNL     1       1.067  21.543  35.646  1.00  0.00     0.211 HD
ENDBRANCH   3  45
BRANCH   5  47
ATOM     47  C   UNL     1       5.085  22.697  33.162  1.00  0.00     0.176 C 
BRANCH  47  48
ATOM     48  O   UNL     1       5.933  22.308  32.092  1.00  0.00    -0.388 OA
ATOM     49  H   UNL     1       6.399  21.468  32.382  1.00  0.00     0.211 HD
ENDBRANCH  47  48
BRANCH  47  50
ATOM     50  C   UNL     1       4.692  24.130  32.870  1.00  0.00     0.165 C 
BRANCH  50  51
ATOM     51  O   UNL     1       5.175  24.504  31.627  1.00  0.00    -0.388 OA
ATOM     52  H   UNL     1       6.133  24.727  31.628  1.00  0.00     0.211 HD
ENDBRANCH  50  51
BRANCH  50  53
ATOM     53  C   UNL     1       5.354  25.045  33.906  1.00  0.00     0.154 C 
BRANCH  53  54
ATOM     54  N   UNL     1       6.140  26.076  33.289  1.00  0.00    -0.319 N 
ATOM     55  C   UNL     1       5.913  27.458  33.386  1.00  0.00     0.407 C 
ATOM     56  H   UNL     1       6.977  25.769  32.698  1.00  0.00     0.167 HD
ATOM     57  O   UNL     1       4.963  27.889  34.082  1.00  0.00    -0.225 OA
BRANCH  55  58
ATOM     58  O   UNL     1       6.738  28.402  32.713  1.00  0.00    -0.443 OA
BRANCH  58  59
ATOM     59  C   UNL     1       7.713  29.110  33.431  1.00  0.00     0.294 C 
BRANCH  59  60
ATOM     60  C   UNL     1       9.022  28.413  33.525  1.00  0.00     0.121 A 
ATOM     61  C   UNL     1       9.364  27.360  34.379  1.00  0.00     0.144 A 
ATOM     62  N   UNL     1      10.153  28.640  32.837  1.00  0.00    -0.131 NA
ATOM     63  N   UNL     1      10.646  27.008  34.177  1.00  0.00    -0.220 N 
ATOM     64  N   UNL     1      11.114  27.790  33.240  1.00  0.00    -0.062 NA
BRANCH  63  65
ATOM     65  C   UNL     1      11.290  25.972  34.905  1.00  0.00     0.068 A 
ATOM     66  C   UNL     1      12.624  25.990  35.244  1.00  0.00     0.028 A 
ATOM     67  C   UNL     1      10.563  24.844  35.325  1.00  0.00     0.049 A 
ATOM     68  C   UNL     1      13.208  24.950  35.960  1.00  0.00     0.004 A 
ATOM     69  C   UNL     1      11.143  23.818  36.030  1.00  0.00     0.043 A 
ATOM     70  C   UNL     1      12.478  23.852  36.361  1.00  0.00     0.020 A 
ATOM     71  Cl  UNL     1      10.218  22.416  36.548  1.00  0.00    -0.084 Cl
ENDBRANCH  63  65
ENDBRANCH  59  60
ENDBRANCH  58  59
ENDBRANCH  55  58
ENDBRANCH  53  54
ENDBRANCH  50  53
ENDBRANCH  47  50
ENDBRANCH   5  47
BRANCH   4  72
ATOM     72  N   UNL     1       3.530  22.182  35.414  1.00  0.00    -0.348 N 
ATOM     73  C   UNL     1       3.005  23.111  36.380  1.00  0.00     0.217 C 
ATOM     74  H   UNL     1       4.404  21.698  35.729  1.00  0.00     0.163 HD
ATOM     75  C   UNL     1       3.651  23.349  37.679  1.00  0.00     0.114 C 
ATOM     76  O   UNL     1       1.960  23.733  36.091  1.00  0.00    -0.275 OA
ENDBRANCH   4  72
TORSDOF 30
