REMARK VINA RESULT:    -5.959      7.972     15.087
REMARK INTER + INTRA:         -24.519
REMARK INTER:                 -17.541
REMARK INTRA:                  -6.978
REMARK UNBOUND:                -8.981
REMARK SMILES CC(=O)N[C@@H]1[C@@H](O)C[C@](OC[C@H]2O[C@@H](O[C@H]3[C@H](O)[C@@H](O)[C@H](OCCN=[N+]=[N-])O[C@@H]3CO)[C@H](O)[C@@H](O)[C@H]2O)(C(=O)O)O[C@H]1C(O)[C@H](O)CNC(=O)OCc1cn(-c2cc(C(=O)O)nc(-c3ccccc3)c2)nn1
REMARK SMILES IDX 9 1 8 2 6 3 5 4 42 5 41 6 10 7 11 8 12 9 14 10 13 11 32 12
REMARK SMILES IDX 34 13 36 14 15 15 16 16 29 17 28 18 21 19 17 20 19 21 30 22
REMARK SMILES IDX 31 23 22 25 23 26 24 27 25 28 26 29 27 30 18 31 20 33 33 35
REMARK SMILES IDX 35 37 37 39 38 41 39 42 40 43 7 45 43 47 44 48 45 50 46 51
REMARK SMILES IDX 47 53 48 54 49 55 50 57 51 58 52 59 53 60 54 61 72 62 55 63
REMARK SMILES IDX 71 64 56 65 57 66 70 67 58 68 63 69 62 70 59 71 60 72 61 73
REMARK SMILES IDX 64 75 65 76 69 77 66 78 68 79 67 80 4 81 2 82 1 84 3 85
REMARK H PARENT 31 24 18 32 20 34 33 36 35 38 37 40 40 44 7 46 44 49 46 52
REMARK H PARENT 48 56 61 74 4 83
REMARK Flexibility Score: inf
ROOT
ATOM      1  C   UNL     1      24.594  25.334  23.993  1.00  0.00     0.272 C 
ATOM      2  C   UNL     1      24.837  26.856  23.955  1.00  0.00     0.113 C 
ATOM      3  C   UNL     1      23.658  27.669  24.347  1.00  0.00     0.145 C 
ATOM      4  C   UNL     1      22.344  27.134  23.791  1.00  0.00     0.142 C 
ATOM      5  C   UNL     1      22.767  26.003  22.848  1.00  0.00     0.178 C 
ATOM      6  O   UNL     1      23.277  25.017  23.663  1.00  0.00    -0.332 OA
ENDROOT
BRANCH   1   7
ATOM      7  O   UNL     1      24.840  24.965  25.276  1.00  0.00    -0.338 OA
BRANCH   7   8
ATOM      8  C   UNL     1      23.894  24.290  25.977  1.00  0.00     0.199 C 
BRANCH   8   9
ATOM      9  C   UNL     1      23.904  24.727  27.463  1.00  0.00     0.179 C 
ATOM     10  C   UNL     1      24.661  26.511  28.772  1.00  0.00     0.282 C 
ATOM     11  O   UNL     1      24.581  25.901  27.546  1.00  0.00    -0.341 OA
ATOM     12  C   UNL     1      23.674  25.847  29.713  1.00  0.00     0.202 C 
ATOM     13  C   UNL     1      22.305  25.662  29.106  1.00  0.00     0.179 C 
ATOM     14  C   UNL     1      22.440  24.967  27.798  1.00  0.00     0.177 C 
BRANCH  10  15
ATOM     15  O   UNL     1      24.370  27.852  28.596  1.00  0.00    -0.341 OA
BRANCH  15  16
ATOM     16  C   UNL     1      25.443  28.710  28.765  1.00  0.00     0.184 C 
ATOM     17  C   UNL     1      26.735  28.014  28.984  1.00  0.00     0.178 C 
ATOM     18  O   UNL     1      27.286  28.316  30.218  1.00  0.00    -0.341 OA
ATOM     19  C   UNL     1      26.385  28.118  31.263  1.00  0.00     0.281 C 
ATOM     20  C   UNL     1      25.072  29.687  29.843  1.00  0.00     0.180 C 
ATOM     21  C   UNL     1      25.429  29.290  31.231  1.00  0.00     0.202 C 
BRANCH  17  22
ATOM     22  C   UNL     1      27.734  28.461  27.937  1.00  0.00     0.191 C 
BRANCH  22  23
ATOM     23  O   UNL     1      27.360  28.083  26.660  1.00  0.00    -0.394 OA
ATOM     24  H   UNL     1      27.388  27.093  26.588  1.00  0.00     0.210 HD
ENDBRANCH  22  23
ENDBRANCH  17  22
BRANCH  19  25
ATOM     25  O   UNL     1      27.117  28.161  32.440  1.00  0.00    -0.350 OA
BRANCH  25  26
ATOM     26  C   UNL     1      28.245  27.340  32.382  1.00  0.00     0.169 C 
BRANCH  26  27
ATOM     27  C   UNL     1      27.975  26.022  33.063  1.00  0.00     0.119 C 
BRANCH  27  28
ATOM     28  N   UNL     1      27.877  24.980  32.065  1.00  0.00    -0.092 NA
ATOM     29  N   UNL     1      28.280  25.213  30.934  1.00  0.00     0.001 N 
ATOM     30  N   UNL     1      28.820  25.063  29.826  1.00  0.00    -0.003 NA
ENDBRANCH  27  28
ENDBRANCH  26  27
ENDBRANCH  25  26
ENDBRANCH  19  25
BRANCH  20  31
ATOM     31  O   UNL     1      25.773  30.885  29.568  1.00  0.00    -0.387 OA
ATOM     32  H   UNL     1      25.171  31.548  29.146  1.00  0.00     0.211 HD
ENDBRANCH  20  31
BRANCH  21  33
ATOM     33  O   UNL     1      24.238  28.999  31.929  1.00  0.00    -0.385 OA
ATOM     34  H   UNL     1      24.394  28.336  32.656  1.00  0.00     0.211 HD
ENDBRANCH  21  33
ENDBRANCH  15  16
ENDBRANCH  10  15
BRANCH  12  35
ATOM     35  O   UNL     1      24.109  24.616  30.187  1.00  0.00    -0.385 OA
ATOM     36  H   UNL     1      25.098  24.616  30.044  1.00  0.00     0.211 HD
ENDBRANCH  12  35
BRANCH  13  37
ATOM     37  O   UNL     1      21.740  26.932  28.993  1.00  0.00    -0.387 OA
ATOM     38  H   UNL     1      21.614  27.106  28.025  1.00  0.00     0.211 HD
ENDBRANCH  13  37
BRANCH  14  39
ATOM     39  O   UNL     1      21.909  25.832  26.820  1.00  0.00    -0.387 OA
ATOM     40  H   UNL     1      21.576  26.664  27.196  1.00  0.00     0.211 HD
ENDBRANCH  14  39
ENDBRANCH   8   9
ENDBRANCH   7   8
ENDBRANCH   1   7
BRANCH   1  41
ATOM     41  C   UNL     1      25.459  24.699  22.968  1.00  0.00     0.364 C 
ATOM     42  O   UNL     1      26.318  25.350  22.314  1.00  0.00    -0.246 OA
BRANCH  41  43
ATOM     43  O   UNL     1      25.349  23.353  22.697  1.00  0.00    -0.477 OA
ATOM     44  H   UNL     1      25.448  22.951  21.756  1.00  0.00     0.296 HD
ENDBRANCH  41  43
ENDBRANCH   1  41
BRANCH   3  45
ATOM     45  O   UNL     1      23.595  27.940  25.696  1.00  0.00    -0.391 OA
ATOM     46  H   UNL     1      24.135  28.732  25.891  1.00  0.00     0.211 HD
ENDBRANCH   3  45
BRANCH   5  47
ATOM     47  C   UNL     1      21.712  25.592  21.893  1.00  0.00     0.176 C 
BRANCH  47  48
ATOM     48  O   UNL     1      20.634  25.039  22.621  1.00  0.00    -0.388 OA
ATOM     49  H   UNL     1      20.454  25.603  23.438  1.00  0.00     0.211 HD
ENDBRANCH  47  48
BRANCH  47  50
ATOM     50  C   UNL     1      22.137  24.645  20.805  1.00  0.00     0.165 C 
BRANCH  50  51
ATOM     51  O   UNL     1      22.767  23.550  21.361  1.00  0.00    -0.388 OA
ATOM     52  H   UNL     1      23.474  23.805  22.011  1.00  0.00     0.211 HD
ENDBRANCH  50  51
BRANCH  50  53
ATOM     53  C   UNL     1      23.049  25.420  19.886  1.00  0.00     0.154 C 
BRANCH  53  54
ATOM     54  N   UNL     1      22.476  26.538  19.228  1.00  0.00    -0.319 N 
ATOM     55  C   UNL     1      22.967  27.855  19.424  1.00  0.00     0.407 C 
ATOM     56  H   UNL     1      21.666  26.420  18.572  1.00  0.00     0.167 HD
ATOM     57  O   UNL     1      23.914  28.043  20.210  1.00  0.00    -0.225 OA
BRANCH  55  58
ATOM     58  O   UNL     1      22.398  28.948  18.741  1.00  0.00    -0.443 OA
BRANCH  58  59
ATOM     59  C   UNL     1      21.397  29.695  19.385  1.00  0.00     0.294 C 
BRANCH  59  60
ATOM     60  C   UNL     1      20.044  29.246  18.980  1.00  0.00     0.121 A 
ATOM     61  C   UNL     1      18.832  29.890  19.071  1.00  0.00     0.144 A 
ATOM     62  N   UNL     1      19.724  28.034  18.439  1.00  0.00    -0.131 NA
ATOM     63  N   UNL     1      17.836  29.103  18.610  1.00  0.00    -0.220 N 
ATOM     64  N   UNL     1      18.426  27.970  18.230  1.00  0.00    -0.062 NA
BRANCH  63  65
ATOM     65  C   UNL     1      16.454  29.415  18.574  1.00  0.00     0.071 A 
ATOM     66  C   UNL     1      15.854  29.512  17.328  1.00  0.00     0.064 A 
ATOM     67  C   UNL     1      15.653  29.615  19.679  1.00  0.00     0.057 A 
ATOM     68  C   UNL     1      14.504  29.799  17.249  1.00  0.00     0.151 A 
ATOM     69  C   UNL     1      14.326  29.896  19.593  1.00  0.00     0.073 A 
ATOM     70  N   UNL     1      13.772  29.984  18.367  1.00  0.00    -0.241 NA
BRANCH  68  71
ATOM     71  C   UNL     1      13.844  29.904  15.955  1.00  0.00     0.354 C 
ATOM     72  O   UNL     1      12.589  29.855  15.927  1.00  0.00    -0.245 OA
BRANCH  71  73
ATOM     73  O   UNL     1      14.512  30.055  14.764  1.00  0.00    -0.477 OA
ATOM     74  H   UNL     1      14.314  30.819  14.105  1.00  0.00     0.297 HD
ENDBRANCH  71  73
ENDBRANCH  68  71
BRANCH  69  75
ATOM     75  C   UNL     1      13.495  30.097  20.775  1.00  0.00     0.000 A 
ATOM     76  C   UNL     1      12.784  31.291  20.876  1.00  0.00     0.010 A 
ATOM     77  C   UNL     1      13.375  29.187  21.785  1.00  0.00     0.010 A 
ATOM     78  C   UNL     1      11.978  31.564  21.949  1.00  0.00     0.001 A 
ATOM     79  C   UNL     1      12.558  29.474  22.865  1.00  0.00     0.001 A 
ATOM     80  C   UNL     1      11.857  30.640  22.972  1.00  0.00     0.000 A 
ENDBRANCH  69  75
ENDBRANCH  63  65
ENDBRANCH  59  60
ENDBRANCH  58  59
ENDBRANCH  55  58
ENDBRANCH  53  54
ENDBRANCH  50  53
ENDBRANCH  47  50
ENDBRANCH   5  47
BRANCH   4  81
ATOM     81  N   UNL     1      21.576  28.150  23.149  1.00  0.00    -0.348 N 
ATOM     82  C   UNL     1      20.641  28.913  23.894  1.00  0.00     0.217 C 
ATOM     83  H   UNL     1      21.714  28.319  22.126  1.00  0.00     0.163 HD
ATOM     84  C   UNL     1      19.814  29.984  23.280  1.00  0.00     0.114 C 
ATOM     85  O   UNL     1      20.478  28.702  25.143  1.00  0.00    -0.275 OA
ENDBRANCH   4  81
TORSDOF 33
