REMARK VINA RESULT:    -6.485      3.165      8.561
REMARK INTER + INTRA:         -22.733
REMARK INTER:                 -14.708
REMARK INTRA:                  -8.025
REMARK UNBOUND:                -5.634
REMARK SMILES CC(=O)N[C@@H]1[C@@H](O)C[C@](OC[C@H]2O[C@@H](O[C@H]3[C@H](O)[C@@H](O)[C@H](OCCN=[N+]=[N-])O[C@@H]3CO)[C@H](O)[C@@H](O)[C@H]2O)(C(=O)O)O[C@H]1C(O)[C@H](O)CNC(=O)OCc1cn(Cc2ccccc2OC(C)=O)nn1
REMARK SMILES IDX 43 1 42 2 9 3 8 4 41 5 6 6 5 7 10 8 11 9 12 10 14 11 13 12
REMARK SMILES IDX 32 13 34 14 36 15 15 16 16 17 29 18 28 19 21 20 17 21 19 22
REMARK SMILES IDX 30 23 31 24 22 26 23 27 24 28 25 29 26 30 27 31 18 32 20 34
REMARK SMILES IDX 33 36 35 38 37 40 38 42 39 43 40 44 7 46 4 48 2 49 1 51 3 52
REMARK SMILES IDX 44 53 45 55 46 56 47 58 48 59 49 60 50 62 51 63 52 64 53 65
REMARK SMILES IDX 54 66 68 67 55 68 67 69 56 70 57 71 62 72 58 73 61 74 59 75
REMARK SMILES IDX 60 76 63 77 64 78 66 79 65 80
REMARK H PARENT 31 25 18 33 20 35 33 37 35 39 37 41 40 45 7 47 4 50 44 54
REMARK H PARENT 46 57 48 61
REMARK Flexibility Score: inf
ROOT
ATOM      1  C   UNL     1      15.776  30.725  25.116  1.00  0.00     0.176 C 
ENDROOT
BRANCH   1   2
ATOM      2  C   UNL     1      17.110  31.300  24.665  1.00  0.00     0.178 C 
ATOM      3  C   UNL     1      19.010  30.725  23.442  1.00  0.00     0.272 C 
ATOM      4  C   UNL     1      19.503  31.950  24.204  1.00  0.00     0.113 C 
ATOM      5  O   UNL     1      17.801  30.289  24.036  1.00  0.00    -0.332 OA
ATOM      6  C   UNL     1      19.284  31.650  25.677  1.00  0.00     0.145 C 
ATOM      7  C   UNL     1      17.830  31.734  25.943  1.00  0.00     0.142 C 
BRANCH   3   8
ATOM      8  O   UNL     1      19.863  29.665  23.517  1.00  0.00    -0.338 OA
BRANCH   8   9
ATOM      9  C   UNL     1      21.101  29.779  22.968  1.00  0.00     0.199 C 
BRANCH   9  10
ATOM     10  C   UNL     1      21.703  28.367  22.876  1.00  0.00     0.179 C 
ATOM     11  C   UNL     1      21.672  26.324  23.930  1.00  0.00     0.282 C 
ATOM     12  O   UNL     1      21.068  27.627  23.878  1.00  0.00    -0.341 OA
ATOM     13  C   UNL     1      21.156  25.613  22.730  1.00  0.00     0.202 C 
ATOM     14  C   UNL     1      21.766  26.328  21.512  1.00  0.00     0.179 C 
ATOM     15  C   UNL     1      21.467  27.789  21.517  1.00  0.00     0.177 C 
BRANCH  11  16
ATOM     16  O   UNL     1      21.313  25.843  25.165  1.00  0.00    -0.341 OA
BRANCH  16  17
ATOM     17  C   UNL     1      22.337  26.043  26.109  1.00  0.00     0.184 C 
ATOM     18  C   UNL     1      22.883  24.789  26.685  1.00  0.00     0.178 C 
ATOM     19  O   UNL     1      23.026  24.842  28.075  1.00  0.00    -0.341 OA
ATOM     20  C   UNL     1      23.628  26.003  28.541  1.00  0.00     0.281 C 
ATOM     21  C   UNL     1      21.653  26.758  27.334  1.00  0.00     0.180 C 
ATOM     22  C   UNL     1      22.796  27.235  28.186  1.00  0.00     0.202 C 
BRANCH  18  23
ATOM     23  C   UNL     1      24.102  24.232  26.019  1.00  0.00     0.191 C 
BRANCH  23  24
ATOM     24  O   UNL     1      24.728  25.238  25.298  1.00  0.00    -0.394 OA
ATOM     25  H   UNL     1      25.642  25.375  25.624  1.00  0.00     0.210 HD
ENDBRANCH  23  24
ENDBRANCH  18  23
BRANCH  20  26
ATOM     26  O   UNL     1      24.858  26.172  28.013  1.00  0.00    -0.350 OA
BRANCH  26  27
ATOM     27  C   UNL     1      25.620  27.236  28.331  1.00  0.00     0.169 C 
BRANCH  27  28
ATOM     28  C   UNL     1      27.019  27.009  28.777  1.00  0.00     0.119 C 
BRANCH  28  29
ATOM     29  N   UNL     1      27.193  25.690  29.283  1.00  0.00    -0.092 NA
ATOM     30  N   UNL     1      28.022  25.407  30.119  1.00  0.00     0.001 N 
ATOM     31  N   UNL     1      28.705  25.295  31.141  1.00  0.00    -0.003 NA
ENDBRANCH  28  29
ENDBRANCH  27  28
ENDBRANCH  26  27
ENDBRANCH  20  26
BRANCH  21  32
ATOM     32  O   UNL     1      20.834  27.761  26.876  1.00  0.00    -0.387 OA
ATOM     33  H   UNL     1      20.804  27.746  25.867  1.00  0.00     0.211 HD
ENDBRANCH  21  32
BRANCH  22  34
ATOM     34  O   UNL     1      22.376  27.942  29.291  1.00  0.00    -0.385 OA
ATOM     35  H   UNL     1      22.759  27.487  30.095  1.00  0.00     0.211 HD
ENDBRANCH  22  34
ENDBRANCH  16  17
ENDBRANCH  11  16
BRANCH  13  36
ATOM     36  O   UNL     1      21.591  24.302  22.628  1.00  0.00    -0.385 OA
ATOM     37  H   UNL     1      22.550  24.203  22.449  1.00  0.00     0.211 HD
ENDBRANCH  13  36
BRANCH  14  38
ATOM     38  O   UNL     1      21.347  25.705  20.335  1.00  0.00    -0.387 OA
ATOM     39  H   UNL     1      20.873  26.407  19.803  1.00  0.00     0.211 HD
ENDBRANCH  14  38
BRANCH  15  40
ATOM     40  O   UNL     1      20.158  27.967  21.075  1.00  0.00    -0.387 OA
ATOM     41  H   UNL     1      19.538  28.224  21.783  1.00  0.00     0.211 HD
ENDBRANCH  15  40
ENDBRANCH   9  10
ENDBRANCH   8   9
ENDBRANCH   3   8
BRANCH   3  42
ATOM     42  C   UNL     1      18.724  31.190  22.067  1.00  0.00     0.364 C 
ATOM     43  O   UNL     1      19.082  32.290  21.653  1.00  0.00    -0.246 OA
BRANCH  42  44
ATOM     44  O   UNL     1      18.019  30.341  21.210  1.00  0.00    -0.477 OA
ATOM     45  H   UNL     1      18.507  29.693  20.574  1.00  0.00     0.296 HD
ENDBRANCH  42  44
ENDBRANCH   3  42
BRANCH   6  46
ATOM     46  O   UNL     1      19.684  30.322  25.856  1.00  0.00    -0.391 OA
ATOM     47  H   UNL     1      20.164  30.165  26.704  1.00  0.00     0.211 HD
ENDBRANCH   6  46
BRANCH   7  48
ATOM     48  N   UNL     1      17.316  32.953  26.412  1.00  0.00    -0.348 N 
ATOM     49  C   UNL     1      17.053  33.236  27.782  1.00  0.00     0.217 C 
ATOM     50  H   UNL     1      17.111  33.708  25.698  1.00  0.00     0.163 HD
ATOM     51  C   UNL     1      16.512  34.528  28.236  1.00  0.00     0.114 C 
ATOM     52  O   UNL     1      17.303  32.335  28.593  1.00  0.00    -0.275 OA
ENDBRANCH   7  48
ENDBRANCH   1   2
BRANCH   1  53
ATOM     53  O   UNL     1      15.837  30.620  26.493  1.00  0.00    -0.388 OA
ATOM     54  H   UNL     1      15.500  31.402  26.980  1.00  0.00     0.211 HD
ENDBRANCH   1  53
BRANCH   1  55
ATOM     55  C   UNL     1      14.593  31.465  24.589  1.00  0.00     0.165 C 
BRANCH  55  56
ATOM     56  O   UNL     1      13.447  30.760  24.966  1.00  0.00    -0.388 OA
ATOM     57  H   UNL     1      13.130  31.016  25.845  1.00  0.00     0.211 HD
ENDBRANCH  55  56
BRANCH  55  58
ATOM     58  C   UNL     1      14.638  31.665  23.093  1.00  0.00     0.154 C 
BRANCH  58  59
ATOM     59  N   UNL     1      14.940  30.490  22.345  1.00  0.00    -0.319 N 
ATOM     60  C   UNL     1      13.966  29.589  21.841  1.00  0.00     0.407 C 
ATOM     61  H   UNL     1      15.949  30.255  22.141  1.00  0.00     0.167 HD
ATOM     62  O   UNL     1      12.758  29.844  22.074  1.00  0.00    -0.225 OA
BRANCH  60  63
ATOM     63  O   UNL     1      14.271  28.460  21.120  1.00  0.00    -0.443 OA
BRANCH  63  64
ATOM     64  C   UNL     1      14.436  28.473  19.703  1.00  0.00     0.294 C 
BRANCH  64  65
ATOM     65  C   UNL     1      15.851  28.343  19.325  1.00  0.00     0.120 A 
ATOM     66  C   UNL     1      16.326  28.538  18.049  1.00  0.00     0.138 A 
ATOM     67  N   UNL     1      16.919  28.034  20.070  1.00  0.00    -0.132 NA
ATOM     68  N   UNL     1      17.647  28.347  18.047  1.00  0.00    -0.248 N 
ATOM     69  N   UNL     1      17.980  28.036  19.314  1.00  0.00    -0.067 NA
BRANCH  68  70
ATOM     70  C   UNL     1      18.602  28.423  16.958  1.00  0.00     0.185 C 
BRANCH  70  71
ATOM     71  C   UNL     1      18.393  29.616  16.131  1.00  0.00     0.016 A 
ATOM     72  C   UNL     1      18.552  30.867  16.618  1.00  0.00     0.135 A 
ATOM     73  C   UNL     1      18.031  29.404  14.797  1.00  0.00     0.009 A 
ATOM     74  C   UNL     1      18.350  31.953  15.765  1.00  0.00     0.047 A 
ATOM     75  C   UNL     1      17.834  30.478  13.969  1.00  0.00     0.001 A 
ATOM     76  C   UNL     1      17.992  31.760  14.445  1.00  0.00     0.004 A 
BRANCH  72  77
ATOM     77  O   UNL     1      18.906  31.126  17.926  1.00  0.00    -0.426 OA
BRANCH  77  78
ATOM     78  C   UNL     1      20.248  30.962  18.285  1.00  0.00     0.308 C 
ATOM     79  O   UNL     1      20.517  30.315  19.321  1.00  0.00    -0.252 OA
ATOM     80  C   UNL     1      21.304  31.542  17.452  1.00  0.00     0.139 C 
ENDBRANCH  77  78
ENDBRANCH  72  77
ENDBRANCH  70  71
ENDBRANCH  68  70
ENDBRANCH  64  65
ENDBRANCH  63  64
ENDBRANCH  60  63
ENDBRANCH  58  59
ENDBRANCH  55  58
ENDBRANCH   1  55
TORSDOF 33
