REMARK VINA RESULT:    -5.945      6.117      9.697
REMARK INTER + INTRA:         -21.328
REMARK INTER:                 -12.846
REMARK INTRA:                  -8.481
REMARK UNBOUND:                -6.520
REMARK SMILES CC(=O)N[C@@H]1[C@@H](O)C[C@](OC[C@H]2O[C@@H](O[C@H]3[C@H](O)[C@@H](O)[C@H](OCCN=[N+]=[N-])O[C@@H]3CO)[C@H](O)[C@@H](O)[C@H]2O)(C(=O)O)O[C@H]1C(O)[C@H](O)CNC(=O)OCc1cn(-c2nc(C)nc(N)n2)nn1
REMARK SMILES IDX 9 1 8 2 6 3 5 4 42 5 41 6 10 7 11 8 12 9 14 10 13 11 32 12
REMARK SMILES IDX 34 13 36 14 15 15 16 16 29 17 28 18 21 19 17 20 19 21 30 22
REMARK SMILES IDX 31 23 22 25 23 26 24 27 25 28 26 29 27 30 18 31 20 33 33 35
REMARK SMILES IDX 35 37 37 39 38 41 39 42 40 43 7 45 43 47 44 48 45 50 46 51
REMARK SMILES IDX 47 53 48 54 49 55 50 57 51 58 52 59 53 60 54 61 65 62 55 63
REMARK SMILES IDX 64 64 56 65 63 66 57 67 61 68 58 69 60 70 59 71 62 72 4 75
REMARK SMILES IDX 2 76 1 78 3 79
REMARK H PARENT 31 24 18 32 20 34 33 36 35 38 37 40 40 44 7 46 44 49 46 52
REMARK H PARENT 48 56 62 73 62 74 4 77
REMARK Flexibility Score: inf
ROOT
ATOM      1  C   UNL     1      11.946  31.366  14.607  1.00  0.00     0.272 C 
ATOM      2  C   UNL     1      11.237  30.171  15.146  1.00  0.00     0.113 C 
ATOM      3  C   UNL     1      12.004  28.911  14.882  1.00  0.00     0.145 C 
ATOM      4  C   UNL     1      12.248  28.799  13.400  1.00  0.00     0.142 C 
ATOM      5  C   UNL     1      12.722  30.091  12.777  1.00  0.00     0.178 C 
ATOM      6  O   UNL     1      12.078  31.190  13.203  1.00  0.00    -0.332 OA
ENDROOT
BRANCH   1   7
ATOM      7  O   UNL     1      13.008  31.794  15.194  1.00  0.00    -0.338 OA
BRANCH   7   8
ATOM      8  C   UNL     1      13.487  32.192  16.309  1.00  0.00     0.199 C 
BRANCH   8   9
ATOM      9  C   UNL     1      14.250  31.416  17.326  1.00  0.00     0.179 C 
ATOM     10  C   UNL     1      14.233  30.191  19.181  1.00  0.00     0.282 C 
ATOM     11  O   UNL     1      13.434  30.659  18.103  1.00  0.00    -0.341 OA
ATOM     12  C   UNL     1      14.995  29.033  18.587  1.00  0.00     0.202 C 
ATOM     13  C   UNL     1      15.943  29.554  17.535  1.00  0.00     0.179 C 
ATOM     14  C   UNL     1      15.543  30.816  16.878  1.00  0.00     0.177 C 
BRANCH  10  15
ATOM     15  O   UNL     1      13.461  29.795  20.240  1.00  0.00    -0.341 OA
BRANCH  15  16
ATOM     16  C   UNL     1      13.662  30.536  21.391  1.00  0.00     0.184 C 
ATOM     17  C   UNL     1      14.302  31.868  21.188  1.00  0.00     0.178 C 
ATOM     18  O   UNL     1      15.438  32.056  21.963  1.00  0.00    -0.341 OA
ATOM     19  C   UNL     1      15.257  31.793  23.315  1.00  0.00     0.281 C 
ATOM     20  C   UNL     1      14.590  29.670  22.264  1.00  0.00     0.180 C 
ATOM     21  C   UNL     1      14.761  30.401  23.575  1.00  0.00     0.202 C 
BRANCH  17  22
ATOM     22  C   UNL     1      13.366  33.042  21.294  1.00  0.00     0.191 C 
BRANCH  22  23
ATOM     23  O   UNL     1      12.447  32.925  20.227  1.00  0.00    -0.394 OA
ATOM     24  H   UNL     1      12.344  31.998  19.921  1.00  0.00     0.210 HD
ENDBRANCH  22  23
ENDBRANCH  17  22
BRANCH  19  25
ATOM     25  O   UNL     1      14.433  32.686  23.940  1.00  0.00    -0.350 OA
BRANCH  25  26
ATOM     26  C   UNL     1      13.658  32.221  24.961  1.00  0.00     0.169 C 
BRANCH  26  27
ATOM     27  C   UNL     1      12.245  32.736  24.930  1.00  0.00     0.119 C 
BRANCH  27  28
ATOM     28  N   UNL     1      11.477  31.897  23.999  1.00  0.00    -0.092 NA
ATOM     29  N   UNL     1      11.340  30.715  24.306  1.00  0.00     0.001 N 
ATOM     30  N   UNL     1      11.402  29.481  24.113  1.00  0.00    -0.003 NA
ENDBRANCH  27  28
ENDBRANCH  26  27
ENDBRANCH  25  26
ENDBRANCH  19  25
BRANCH  20  31
ATOM     31  O   UNL     1      14.048  28.412  22.417  1.00  0.00    -0.387 OA
ATOM     32  H   UNL     1      14.759  27.716  22.480  1.00  0.00     0.211 HD
ENDBRANCH  20  31
BRANCH  21  33
ATOM     33  O   UNL     1      15.660  29.660  24.342  1.00  0.00    -0.385 OA
ATOM     34  H   UNL     1      15.331  29.545  25.268  1.00  0.00     0.211 HD
ENDBRANCH  21  33
ENDBRANCH  15  16
ENDBRANCH  10  15
BRANCH  12  35
ATOM     35  O   UNL     1      15.676  28.286  19.546  1.00  0.00    -0.385 OA
ATOM     36  H   UNL     1      15.002  27.887  20.152  1.00  0.00     0.211 HD
ENDBRANCH  12  35
BRANCH  13  37
ATOM     37  O   UNL     1      16.175  28.502  16.644  1.00  0.00    -0.387 OA
ATOM     38  H   UNL     1      15.401  27.891  16.562  1.00  0.00     0.211 HD
ENDBRANCH  13  37
BRANCH  14  39
ATOM     39  O   UNL     1      15.697  30.704  15.500  1.00  0.00    -0.387 OA
ATOM     40  H   UNL     1      16.159  31.547  15.209  1.00  0.00     0.211 HD
ENDBRANCH  14  39
ENDBRANCH   8   9
ENDBRANCH   7   8
ENDBRANCH   1   7
BRANCH   1  41
ATOM     41  C   UNL     1      10.829  32.448  14.616  1.00  0.00     0.364 C 
ATOM     42  O   UNL     1      10.854  33.259  13.699  1.00  0.00    -0.246 OA
BRANCH  41  43
ATOM     43  O   UNL     1       9.895  32.462  15.604  1.00  0.00    -0.477 OA
ATOM     44  H   UNL     1      10.120  32.359  16.603  1.00  0.00     0.296 HD
ENDBRANCH  41  43
ENDBRANCH   1  41
BRANCH   3  45
ATOM     45  O   UNL     1      13.234  28.854  15.498  1.00  0.00    -0.391 OA
ATOM     46  H   UNL     1      13.917  29.368  15.032  1.00  0.00     0.211 HD
ENDBRANCH   3  45
BRANCH   5  47
ATOM     47  C   UNL     1      14.225  30.217  12.723  1.00  0.00     0.176 C 
BRANCH  47  48
ATOM     48  O   UNL     1      14.831  29.025  13.079  1.00  0.00    -0.388 OA
ATOM     49  H   UNL     1      14.269  28.233  13.005  1.00  0.00     0.211 HD
ENDBRANCH  47  48
BRANCH  47  50
ATOM     50  C   UNL     1      14.634  30.646  11.350  1.00  0.00     0.165 C 
BRANCH  50  51
ATOM     51  O   UNL     1      13.606  30.311  10.449  1.00  0.00    -0.388 OA
ATOM     52  H   UNL     1      13.557  29.342  10.385  1.00  0.00     0.211 HD
ENDBRANCH  50  51
BRANCH  50  53
ATOM     53  C   UNL     1      15.902  30.047  10.844  1.00  0.00     0.154 C 
BRANCH  53  54
ATOM     54  N   UNL     1      17.063  30.509  11.572  1.00  0.00    -0.319 N 
ATOM     55  C   UNL     1      17.964  29.666  12.249  1.00  0.00     0.407 C 
ATOM     56  H   UNL     1      17.279  31.549  11.620  1.00  0.00     0.167 HD
ATOM     57  O   UNL     1      17.799  28.442  12.249  1.00  0.00    -0.225 OA
BRANCH  55  58
ATOM     58  O   UNL     1      19.064  30.165  12.939  1.00  0.00    -0.443 OA
BRANCH  58  59
ATOM     59  C   UNL     1      18.986  30.784  14.197  1.00  0.00     0.294 C 
BRANCH  59  60
ATOM     60  C   UNL     1      19.135  29.800  15.311  1.00  0.00     0.121 A 
ATOM     61  C   UNL     1      19.278  30.096  16.650  1.00  0.00     0.148 A 
ATOM     62  N   UNL     1      19.159  28.456  15.215  1.00  0.00    -0.131 NA
ATOM     63  N   UNL     1      19.384  28.936  17.322  1.00  0.00    -0.185 N 
ATOM     64  N   UNL     1      19.309  27.967  16.433  1.00  0.00    -0.059 NA
BRANCH  63  65
ATOM     65  C   UNL     1      19.545  28.845  18.731  1.00  0.00     0.257 A 
ATOM     66  N   UNL     1      18.781  29.608  19.535  1.00  0.00    -0.175 NA
ATOM     67  N   UNL     1      20.426  28.027  19.334  1.00  0.00    -0.196 NA
ATOM     68  C   UNL     1      18.890  29.561  20.887  1.00  0.00     0.225 A 
ATOM     69  C   UNL     1      20.561  27.952  20.663  1.00  0.00     0.133 A 
ATOM     70  N   UNL     1      19.794  28.718  21.432  1.00  0.00    -0.198 NA
ATOM     71  C   UNL     1      21.561  27.022  21.294  1.00  0.00     0.090 C 
BRANCH  68  72
ATOM     72  N   UNL     1      18.063  30.383  21.685  1.00  0.00    -0.368 N 
ATOM     73  H   UNL     1      17.619  30.027  22.554  1.00  0.00     0.159 HD
ATOM     74  H   UNL     1      17.882  31.370  21.417  1.00  0.00     0.159 HD
ENDBRANCH  68  72
ENDBRANCH  63  65
ENDBRANCH  59  60
ENDBRANCH  58  59
ENDBRANCH  55  58
ENDBRANCH  53  54
ENDBRANCH  50  53
ENDBRANCH  47  50
ENDBRANCH   5  47
BRANCH   4  75
ATOM     75  N   UNL     1      11.027  28.356  12.761  1.00  0.00    -0.348 N 
ATOM     76  C   UNL     1      11.053  27.765  11.466  1.00  0.00     0.217 C 
ATOM     77  H   UNL     1      10.085  28.450  13.218  1.00  0.00     0.163 HD
ATOM     78  C   UNL     1       9.804  27.323  10.832  1.00  0.00     0.114 C 
ATOM     79  O   UNL     1      12.145  27.627  10.873  1.00  0.00    -0.275 OA
ENDBRANCH   4  75
TORSDOF 31
