REMARK VINA RESULT:    -6.509     19.405     23.702
REMARK INTER + INTRA:         -22.125
REMARK INTER:                 -15.807
REMARK INTRA:                  -6.319
REMARK UNBOUND:                -5.152
REMARK SMILES CC(=O)N[C@@H]1[C@@H](O)C[C@](OC[C@H]2O[C@@H](O[C@H]3[C@H](O)[C@@H](O)[C@H](OCCN=[N+]=[N-])O[C@@H]3CO)[C@H](O)[C@@H](O)[C@H]2O)(C(=O)O)O[C@H]1C(O)[C@H](O)CNC(=O)OCc1cn(CC(O)c2ccccc2)nn1
REMARK SMILES IDX 9 1 8 2 6 3 5 4 42 5 41 6 10 7 11 8 12 9 14 10 13 11 32 12
REMARK SMILES IDX 34 13 36 14 15 15 16 16 29 17 28 18 21 19 17 20 19 21 30 22
REMARK SMILES IDX 31 23 22 25 23 26 24 27 25 28 26 29 27 30 18 31 20 33 33 35
REMARK SMILES IDX 35 37 37 39 38 41 39 42 40 43 7 45 43 47 44 48 45 50 46 51
REMARK SMILES IDX 47 53 48 54 49 55 50 57 51 58 52 59 53 60 54 61 66 62 55 63
REMARK SMILES IDX 65 64 56 65 57 66 58 67 59 69 60 70 64 71 61 72 63 73 62 74
REMARK SMILES IDX 4 75 2 76 1 78 3 79
REMARK H PARENT 31 24 18 32 20 34 33 36 35 38 37 40 40 44 7 46 44 49 46 52
REMARK H PARENT 48 56 58 68 4 77
REMARK Flexibility Score: inf
ROOT
ATOM      1  C   UNL     1       4.040  24.266  32.449  1.00  0.00     0.272 C 
ATOM      2  C   UNL     1       2.876  24.301  33.366  1.00  0.00     0.113 C 
ATOM      3  C   UNL     1       2.503  23.023  34.030  1.00  0.00     0.145 C 
ATOM      4  C   UNL     1       3.194  21.891  33.338  1.00  0.00     0.142 C 
ATOM      5  C   UNL     1       3.171  22.183  31.848  1.00  0.00     0.178 C 
ATOM      6  O   UNL     1       3.872  23.285  31.466  1.00  0.00    -0.332 OA
ENDROOT
BRANCH   1   7
ATOM      7  O   UNL     1       5.272  24.070  32.996  1.00  0.00    -0.338 OA
BRANCH   7   8
ATOM      8  C   UNL     1       5.794  25.054  33.778  1.00  0.00     0.199 C 
BRANCH   8   9
ATOM      9  C   UNL     1       6.161  24.532  35.148  1.00  0.00     0.179 C 
ATOM     10  C   UNL     1       7.953  24.620  36.587  1.00  0.00     0.282 C 
ATOM     11  O   UNL     1       7.532  24.464  35.294  1.00  0.00    -0.341 OA
ATOM     12  C   UNL     1       7.658  25.973  37.196  1.00  0.00     0.202 C 
ATOM     13  C   UNL     1       6.348  26.466  36.621  1.00  0.00     0.179 C 
ATOM     14  C   UNL     1       5.518  25.242  36.292  1.00  0.00     0.177 C 
BRANCH  10  15
ATOM     15  O   UNL     1       9.329  24.454  36.711  1.00  0.00    -0.341 OA
BRANCH  15  16
ATOM     16  C   UNL     1       9.740  23.215  37.122  1.00  0.00     0.184 C 
ATOM     17  C   UNL     1      10.115  23.344  38.593  1.00  0.00     0.178 C 
ATOM     18  O   UNL     1      11.480  23.460  38.753  1.00  0.00    -0.341 OA
ATOM     19  C   UNL     1      11.929  24.471  37.884  1.00  0.00     0.281 C 
ATOM     20  C   UNL     1      10.949  22.849  36.270  1.00  0.00     0.180 C 
ATOM     21  C   UNL     1      12.087  23.827  36.511  1.00  0.00     0.202 C 
BRANCH  17  22
ATOM     22  C   UNL     1       9.548  22.187  39.398  1.00  0.00     0.191 C 
BRANCH  22  23
ATOM     23  O   UNL     1       9.921  20.961  38.856  1.00  0.00    -0.394 OA
ATOM     24  H   UNL     1      10.468  21.068  38.034  1.00  0.00     0.210 HD
ENDBRANCH  22  23
ENDBRANCH  17  22
BRANCH  19  25
ATOM     25  O   UNL     1      13.116  24.936  38.396  1.00  0.00    -0.350 OA
BRANCH  25  26
ATOM     26  C   UNL     1      13.114  26.251  38.796  1.00  0.00     0.169 C 
BRANCH  26  27
ATOM     27  C   UNL     1      11.841  26.990  38.492  1.00  0.00     0.119 C 
BRANCH  27  28
ATOM     28  N   UNL     1      11.318  27.605  39.717  1.00  0.00    -0.092 NA
ATOM     29  N   UNL     1      10.114  27.902  39.672  1.00  0.00     0.001 N 
ATOM     30  N   UNL     1       8.929  28.128  39.918  1.00  0.00    -0.003 NA
ENDBRANCH  27  28
ENDBRANCH  26  27
ENDBRANCH  25  26
ENDBRANCH  19  25
BRANCH  20  31
ATOM     31  O   UNL     1      11.357  21.552  36.550  1.00  0.00    -0.387 OA
ATOM     32  H   UNL     1      11.159  20.962  35.769  1.00  0.00     0.211 HD
ENDBRANCH  20  31
BRANCH  21  33
ATOM     33  O   UNL     1      12.166  24.759  35.493  1.00  0.00    -0.385 OA
ATOM     34  H   UNL     1      13.041  25.214  35.566  1.00  0.00     0.211 HD
ENDBRANCH  21  33
ENDBRANCH  15  16
ENDBRANCH  10  15
BRANCH  12  35
ATOM     35  O   UNL     1       7.524  25.819  38.580  1.00  0.00    -0.385 OA
ATOM     36  H   UNL     1       7.137  26.666  38.933  1.00  0.00     0.211 HD
ENDBRANCH  12  35
BRANCH  13  37
ATOM     37  O   UNL     1       6.673  27.176  35.468  1.00  0.00    -0.387 OA
ATOM     38  H   UNL     1       7.255  27.941  35.621  1.00  0.00     0.211 HD
ENDBRANCH  13  37
BRANCH  14  39
ATOM     39  O   UNL     1       4.181  25.502  36.113  1.00  0.00    -0.387 OA
ATOM     40  H   UNL     1       3.646  24.705  35.861  1.00  0.00     0.211 HD
ENDBRANCH  14  39
ENDBRANCH   8   9
ENDBRANCH   7   8
ENDBRANCH   1   7
BRANCH   1  41
ATOM     41  C   UNL     1       3.981  25.570  31.668  1.00  0.00     0.364 C 
ATOM     42  O   UNL     1       3.206  26.449  32.009  1.00  0.00    -0.246 OA
BRANCH  41  43
ATOM     43  O   UNL     1       4.840  25.670  30.589  1.00  0.00    -0.477 OA
ATOM     44  H   UNL     1       4.722  25.001  29.857  1.00  0.00     0.296 HD
ENDBRANCH  41  43
ENDBRANCH   1  41
BRANCH   3  45
ATOM     45  O   UNL     1       2.737  23.060  35.406  1.00  0.00    -0.391 OA
ATOM     46  H   UNL     1       2.376  23.935  35.720  1.00  0.00     0.211 HD
ENDBRANCH   3  45
BRANCH   5  47
ATOM     47  C   UNL     1       3.582  20.902  31.169  1.00  0.00     0.176 C 
BRANCH  47  48
ATOM     48  O   UNL     1       4.977  20.776  31.262  1.00  0.00    -0.388 OA
ATOM     49  H   UNL     1       5.300  20.536  30.349  1.00  0.00     0.211 HD
ENDBRANCH  47  48
BRANCH  47  50
ATOM     50  C   UNL     1       3.100  20.821  29.759  1.00  0.00     0.165 C 
BRANCH  50  51
ATOM     51  O   UNL     1       3.474  21.901  29.006  1.00  0.00    -0.388 OA
ATOM     52  H   UNL     1       4.421  21.960  28.806  1.00  0.00     0.211 HD
ENDBRANCH  50  51
BRANCH  50  53
ATOM     53  C   UNL     1       1.664  20.389  29.611  1.00  0.00     0.154 C 
BRANCH  53  54
ATOM     54  N   UNL     1       0.730  21.430  29.302  1.00  0.00    -0.319 N 
ATOM     55  C   UNL     1       0.213  21.697  28.000  1.00  0.00     0.407 C 
ATOM     56  H   UNL     1       0.375  22.062  30.089  1.00  0.00     0.167 HD
ATOM     57  O   UNL     1       0.554  21.004  27.027  1.00  0.00    -0.225 OA
BRANCH  55  58
ATOM     58  O   UNL     1      -0.677  22.727  27.784  1.00  0.00    -0.443 OA
BRANCH  58  59
ATOM     59  C   UNL     1      -0.375  23.868  26.981  1.00  0.00     0.294 C 
BRANCH  59  60
ATOM     60  C   UNL     1       1.062  24.244  27.171  1.00  0.00     0.120 A 
ATOM     61  C   UNL     1       2.015  24.573  26.242  1.00  0.00     0.138 A 
ATOM     62  N   UNL     1       1.659  24.331  28.380  1.00  0.00    -0.132 NA
ATOM     63  N   UNL     1       3.181  24.858  26.896  1.00  0.00    -0.249 N 
ATOM     64  N   UNL     1       2.899  24.695  28.168  1.00  0.00    -0.067 NA
BRANCH  63  65
ATOM     65  C   UNL     1       4.432  25.256  26.269  1.00  0.00     0.182 C 
BRANCH  65  66
ATOM     66  C   UNL     1       4.780  26.680  26.664  1.00  0.00     0.166 C 
BRANCH  66  67
ATOM     67  O   UNL     1       4.996  26.621  28.062  1.00  0.00    -0.386 OA
ATOM     68  H   UNL     1       5.766  26.019  28.256  1.00  0.00     0.211 HD
ENDBRANCH  66  67
BRANCH  66  69
ATOM     69  C   UNL     1       5.965  27.218  25.990  1.00  0.00    -0.018 A 
ATOM     70  C   UNL     1       6.300  28.538  26.016  1.00  0.00     0.006 A 
ATOM     71  C   UNL     1       6.739  26.282  25.290  1.00  0.00     0.006 A 
ATOM     72  C   UNL     1       7.433  28.943  25.329  1.00  0.00     0.000 A 
ATOM     73  C   UNL     1       7.853  26.709  24.619  1.00  0.00     0.000 A 
ATOM     74  C   UNL     1       8.206  28.043  24.635  1.00  0.00     0.000 A 
ENDBRANCH  66  69
ENDBRANCH  65  66
ENDBRANCH  63  65
ENDBRANCH  59  60
ENDBRANCH  58  59
ENDBRANCH  55  58
ENDBRANCH  53  54
ENDBRANCH  50  53
ENDBRANCH  47  50
ENDBRANCH   5  47
BRANCH   4  75
ATOM     75  N   UNL     1       2.413  20.653  33.489  1.00  0.00    -0.348 N 
ATOM     76  C   UNL     1       2.932  19.502  34.134  1.00  0.00     0.217 C 
ATOM     77  H   UNL     1       1.442  20.598  33.114  1.00  0.00     0.163 HD
ATOM     78  C   UNL     1       2.175  18.235  34.305  1.00  0.00     0.114 C 
ATOM     79  O   UNL     1       4.107  19.562  34.590  1.00  0.00    -0.275 OA
ENDBRANCH   4  75
TORSDOF 33
