REMARK VINA RESULT:    -6.160      8.252     13.420
REMARK INTER + INTRA:         -21.385
REMARK INTER:                 -13.991
REMARK INTRA:                  -7.394
REMARK UNBOUND:                -5.863
REMARK SMILES CC(=O)N[C@@H]1[C@@H](O)C[C@](OC[C@H]2O[C@@H](O[C@H]3[C@H](O)[C@@H](O)[C@H](OCCN=[N+]=[N-])O[C@@H]3CO)[C@H](O)[C@@H](O)[C@H]2O)(C(=O)O)O[C@H]1C(O)[C@H](O)CNC(=O)OCc1cn(-c2ncccc2C#N)nn1
REMARK SMILES IDX 9 1 8 2 6 3 5 4 42 5 41 6 10 7 11 8 12 9 14 10 13 11 32 12
REMARK SMILES IDX 34 13 36 14 15 15 16 16 29 17 28 18 21 19 17 20 19 21 30 22
REMARK SMILES IDX 31 23 22 25 23 26 24 27 25 28 26 29 27 30 18 31 20 33 33 35
REMARK SMILES IDX 35 37 37 39 38 41 39 42 40 43 7 45 43 47 44 48 45 50 46 51
REMARK SMILES IDX 47 53 48 54 49 55 50 57 51 58 52 59 53 60 54 61 65 62 55 63
REMARK SMILES IDX 64 64 56 65 57 66 61 67 58 68 60 69 59 70 62 71 63 72 4 73
REMARK SMILES IDX 2 74 1 76 3 77
REMARK H PARENT 31 24 18 32 20 34 33 36 35 38 37 40 40 44 7 46 44 49 46 52
REMARK H PARENT 48 56 4 75
REMARK Flexibility Score: inf
ROOT
ATOM      1  C   UNL     1      25.386  20.814  12.810  1.00  0.00     0.272 C 
ATOM      2  C   UNL     1      24.993  21.820  11.813  1.00  0.00     0.113 C 
ATOM      3  C   UNL     1      23.530  21.985  11.681  1.00  0.00     0.145 C 
ATOM      4  C   UNL     1      22.711  21.702  12.896  1.00  0.00     0.142 C 
ATOM      5  C   UNL     1      23.470  21.366  14.148  1.00  0.00     0.178 C 
ATOM      6  O   UNL     1      24.643  20.802  13.967  1.00  0.00    -0.332 OA
ENDROOT
BRANCH   1   7
ATOM      7  O   UNL     1      26.649  20.717  13.236  1.00  0.00    -0.338 OA
BRANCH   7   8
ATOM      8  C   UNL     1      27.798  21.172  12.842  1.00  0.00     0.199 C 
BRANCH   8   9
ATOM      9  C   UNL     1      28.846  20.697  13.855  1.00  0.00     0.179 C 
ATOM     10  C   UNL     1      29.334  20.516  16.061  1.00  0.00     0.282 C 
ATOM     11  O   UNL     1      28.655  21.307  15.064  1.00  0.00    -0.341 OA
ATOM     12  C   UNL     1      28.579  19.258  16.296  1.00  0.00     0.202 C 
ATOM     13  C   UNL     1      28.309  18.527  14.977  1.00  0.00     0.179 C 
ATOM     14  C   UNL     1      29.045  19.227  13.898  1.00  0.00     0.177 C 
BRANCH  10  15
ATOM     15  O   UNL     1      29.515  21.233  17.192  1.00  0.00    -0.341 OA
BRANCH  15  16
ATOM     16  C   UNL     1      28.683  22.304  17.356  1.00  0.00     0.184 C 
ATOM     17  C   UNL     1      29.494  23.524  17.882  1.00  0.00     0.178 C 
ATOM     18  O   UNL     1      29.107  23.762  19.200  1.00  0.00    -0.341 OA
ATOM     19  C   UNL     1      29.247  22.600  19.973  1.00  0.00     0.281 C 
ATOM     20  C   UNL     1      27.535  22.073  18.304  1.00  0.00     0.180 C 
ATOM     21  C   UNL     1      28.082  21.695  19.685  1.00  0.00     0.202 C 
BRANCH  17  22
ATOM     22  C   UNL     1      29.232  24.692  16.986  1.00  0.00     0.191 C 
BRANCH  22  23
ATOM     23  O   UNL     1      28.417  24.343  15.893  1.00  0.00    -0.394 OA
ATOM     24  H   UNL     1      28.925  24.314  15.048  1.00  0.00     0.210 HD
ENDBRANCH  22  23
ENDBRANCH  17  22
BRANCH  19  25
ATOM     25  O   UNL     1      29.302  23.005  21.287  1.00  0.00    -0.350 OA
BRANCH  25  26
ATOM     26  C   UNL     1      30.283  22.296  22.005  1.00  0.00     0.169 C 
BRANCH  26  27
ATOM     27  C   UNL     1      29.652  21.536  23.153  1.00  0.00     0.119 C 
BRANCH  27  28
ATOM     28  N   UNL     1      29.391  20.180  22.652  1.00  0.00    -0.092 NA
ATOM     29  N   UNL     1      30.382  19.404  22.662  1.00  0.00     0.001 N 
ATOM     30  N   UNL     1      31.350  18.714  22.308  1.00  0.00    -0.003 NA
ENDBRANCH  27  28
ENDBRANCH  26  27
ENDBRANCH  25  26
ENDBRANCH  19  25
BRANCH  20  31
ATOM     31  O   UNL     1      26.702  23.161  18.419  1.00  0.00    -0.387 OA
ATOM     32  H   UNL     1      27.081  23.982  18.773  1.00  0.00     0.211 HD
ENDBRANCH  20  31
BRANCH  21  33
ATOM     33  O   UNL     1      28.444  20.351  19.696  1.00  0.00    -0.385 OA
ATOM     34  H   UNL     1      29.204  20.262  20.333  1.00  0.00     0.211 HD
ENDBRANCH  21  33
ENDBRANCH  15  16
ENDBRANCH  10  15
BRANCH  12  35
ATOM     35  O   UNL     1      29.275  18.413  17.141  1.00  0.00    -0.385 OA
ATOM     36  H   UNL     1      30.255  18.664  17.076  1.00  0.00     0.211 HD
ENDBRANCH  12  35
BRANCH  13  37
ATOM     37  O   UNL     1      26.915  18.515  14.736  1.00  0.00    -0.387 OA
ATOM     38  H   UNL     1      26.611  17.584  14.542  1.00  0.00     0.211 HD
ENDBRANCH  13  37
BRANCH  14  39
ATOM     39  O   UNL     1      28.832  18.682  12.628  1.00  0.00    -0.387 OA
ATOM     40  H   UNL     1      28.615  17.698  12.707  1.00  0.00     0.211 HD
ENDBRANCH  14  39
ENDBRANCH   8   9
ENDBRANCH   7   8
ENDBRANCH   1   7
BRANCH   1  41
ATOM     41  C   UNL     1      25.094  19.466  12.152  1.00  0.00     0.364 C 
ATOM     42  O   UNL     1      24.600  18.507  12.721  1.00  0.00    -0.246 OA
BRANCH  41  43
ATOM     43  O   UNL     1      25.410  19.295  10.789  1.00  0.00    -0.477 OA
ATOM     44  H   UNL     1      24.875  18.697  10.179  1.00  0.00     0.296 HD
ENDBRANCH  41  43
ENDBRANCH   1  41
BRANCH   3  45
ATOM     45  O   UNL     1      23.222  23.245  11.135  1.00  0.00    -0.391 OA
ATOM     46  H   UNL     1      22.941  23.044  10.183  1.00  0.00     0.211 HD
ENDBRANCH   3  45
BRANCH   5  47
ATOM     47  C   UNL     1      23.518  22.582  15.117  1.00  0.00     0.176 C 
BRANCH  47  48
ATOM     48  O   UNL     1      22.449  23.436  14.715  1.00  0.00    -0.388 OA
ATOM     49  H   UNL     1      22.069  23.143  13.870  1.00  0.00     0.211 HD
ENDBRANCH  47  48
BRANCH  47  50
ATOM     50  C   UNL     1      24.718  23.379  15.088  1.00  0.00     0.165 C 
BRANCH  50  51
ATOM     51  O   UNL     1      25.924  22.748  15.482  1.00  0.00    -0.388 OA
ATOM     52  H   UNL     1      26.368  22.365  14.662  1.00  0.00     0.211 HD
ENDBRANCH  50  51
BRANCH  50  53
ATOM     53  C   UNL     1      24.681  24.610  15.936  1.00  0.00     0.154 C 
BRANCH  53  54
ATOM     54  N   UNL     1      24.025  24.600  17.183  1.00  0.00    -0.319 N 
ATOM     55  C   UNL     1      22.796  25.146  17.551  1.00  0.00     0.407 C 
ATOM     56  H   UNL     1      24.544  24.098  18.003  1.00  0.00     0.167 HD
ATOM     57  O   UNL     1      22.129  25.739  16.668  1.00  0.00    -0.225 OA
BRANCH  55  58
ATOM     58  O   UNL     1      22.343  25.013  18.879  1.00  0.00    -0.443 OA
BRANCH  58  59
ATOM     59  C   UNL     1      23.119  24.286  19.785  1.00  0.00     0.294 C 
BRANCH  59  60
ATOM     60  C   UNL     1      23.276  24.960  21.060  1.00  0.00     0.121 A 
ATOM     61  C   UNL     1      23.139  24.404  22.275  1.00  0.00     0.146 A 
ATOM     62  N   UNL     1      23.532  26.325  21.258  1.00  0.00    -0.131 NA
ATOM     63  N   UNL     1      23.291  25.326  23.217  1.00  0.00    -0.201 N 
ATOM     64  N   UNL     1      23.518  26.420  22.554  1.00  0.00    -0.060 NA
BRANCH  63  65
ATOM     65  C   UNL     1      23.295  25.220  24.625  1.00  0.00     0.173 A 
ATOM     66  N   UNL     1      24.290  24.461  25.154  1.00  0.00    -0.236 NA
ATOM     67  C   UNL     1      22.259  25.736  25.414  1.00  0.00     0.097 A 
ATOM     68  C   UNL     1      24.243  24.189  26.573  1.00  0.00     0.113 A 
ATOM     69  C   UNL     1      22.276  25.428  26.757  1.00  0.00     0.025 A 
ATOM     70  C   UNL     1      23.249  24.679  27.273  1.00  0.00     0.022 A 
BRANCH  67  71
ATOM     71  C   UNL     1      21.243  26.625  24.949  1.00  0.00     0.103 C 
ATOM     72  N   UNL     1      20.370  27.362  24.549  1.00  0.00    -0.192 NA
ENDBRANCH  67  71
ENDBRANCH  63  65
ENDBRANCH  59  60
ENDBRANCH  58  59
ENDBRANCH  55  58
ENDBRANCH  53  54
ENDBRANCH  50  53
ENDBRANCH  47  50
ENDBRANCH   5  47
BRANCH   4  73
ATOM     73  N   UNL     1      21.690  20.768  12.476  1.00  0.00    -0.348 N 
ATOM     74  C   UNL     1      20.317  20.993  12.348  1.00  0.00     0.217 C 
ATOM     75  H   UNL     1      22.003  19.758  12.238  1.00  0.00     0.163 HD
ATOM     76  C   UNL     1      19.398  19.897  11.841  1.00  0.00     0.114 C 
ATOM     77  O   UNL     1      19.736  22.066  12.622  1.00  0.00    -0.275 OA
ENDBRANCH   4  73
TORSDOF 31
