REMARK VINA RESULT:    -4.937     18.275     23.287
REMARK INTER + INTRA:         -21.292
REMARK INTER:                 -14.608
REMARK INTRA:                  -6.685
REMARK UNBOUND:                -8.562
REMARK SMILES CC(=O)N[C@@H]1[C@@H](O)C[C@](OC[C@H]2O[C@@H](O[C@H]3[C@H](O)[C@@H](O)[C@H](OCCN=[N+]=[N-])O[C@@H]3CO)[C@H](O)[C@@H](O)[C@H]2O)(C(=O)O)O[C@H]1C(O)[C@H](O)CNC(=O)OCc1cn(Cc2ccc(C#N)cc2)nn1
REMARK SMILES IDX 9 1 8 2 6 3 5 4 42 5 41 6 10 7 11 8 12 9 14 10 13 11 32 12
REMARK SMILES IDX 34 13 36 14 15 15 16 16 29 17 28 18 21 19 17 20 19 21 30 22
REMARK SMILES IDX 31 23 22 25 23 26 24 27 25 28 26 29 27 30 18 31 20 33 33 35
REMARK SMILES IDX 35 37 37 39 38 41 39 42 40 43 7 45 43 47 44 48 45 50 46 51
REMARK SMILES IDX 47 53 48 54 49 55 50 57 51 58 52 59 53 60 54 61 66 62 55 63
REMARK SMILES IDX 65 64 56 65 57 66 58 67 64 68 59 69 63 70 60 71 61 72 62 73
REMARK SMILES IDX 4 74 2 75 1 77 3 78
REMARK H PARENT 31 24 18 32 20 34 33 36 35 38 37 40 40 44 7 46 44 49 46 52
REMARK H PARENT 48 56 4 76
REMARK Flexibility Score: inf
ROOT
ATOM      1  C   UNL     1       2.270  24.026  31.740  1.00  0.00     0.272 C 
ATOM      2  C   UNL     1       0.953  23.830  32.405  1.00  0.00     0.113 C 
ATOM      3  C   UNL     1       0.992  23.067  33.681  1.00  0.00     0.145 C 
ATOM      4  C   UNL     1       2.159  22.070  33.598  1.00  0.00     0.142 C 
ATOM      5  C   UNL     1       2.347  21.768  32.142  1.00  0.00     0.178 C 
ATOM      6  O   UNL     1       2.954  22.820  31.518  1.00  0.00    -0.332 OA
ENDROOT
BRANCH   1   7
ATOM      7  O   UNL     1       3.112  24.949  32.321  1.00  0.00    -0.338 OA
BRANCH   7   8
ATOM      8  C   UNL     1       2.510  26.075  32.771  1.00  0.00     0.199 C 
BRANCH   8   9
ATOM      9  C   UNL     1       3.528  27.167  33.145  1.00  0.00     0.179 C 
ATOM     10  C   UNL     1       5.743  27.362  33.762  1.00  0.00     0.282 C 
ATOM     11  O   UNL     1       4.669  26.492  33.582  1.00  0.00    -0.341 OA
ATOM     12  C   UNL     1       6.161  28.050  32.503  1.00  0.00     0.202 C 
ATOM     13  C   UNL     1       5.232  27.649  31.381  1.00  0.00     0.179 C 
ATOM     14  C   UNL     1       3.826  27.938  31.886  1.00  0.00     0.177 C 
BRANCH  10  15
ATOM     15  O   UNL     1       6.814  26.593  34.211  1.00  0.00    -0.341 OA
BRANCH  15  16
ATOM     16  C   UNL     1       6.419  25.404  34.821  1.00  0.00     0.184 C 
ATOM     17  C   UNL     1       6.590  25.517  36.294  1.00  0.00     0.178 C 
ATOM     18  O   UNL     1       7.743  25.004  36.814  1.00  0.00    -0.341 OA
ATOM     19  C   UNL     1       8.712  24.636  35.916  1.00  0.00     0.281 C 
ATOM     20  C   UNL     1       7.041  24.199  34.193  1.00  0.00     0.180 C 
ATOM     21  C   UNL     1       8.148  23.573  34.999  1.00  0.00     0.202 C 
BRANCH  17  22
ATOM     22  C   UNL     1       5.348  24.960  36.987  1.00  0.00     0.191 C 
BRANCH  22  23
ATOM     23  O   UNL     1       5.407  23.569  36.905  1.00  0.00    -0.394 OA
ATOM     24  H   UNL     1       4.657  23.145  37.423  1.00  0.00     0.210 HD
ENDBRANCH  22  23
ENDBRANCH  17  22
BRANCH  19  25
ATOM     25  O   UNL     1       9.744  24.042  36.671  1.00  0.00    -0.350 OA
BRANCH  25  26
ATOM     26  C   UNL     1      10.667  24.994  37.079  1.00  0.00     0.169 C 
BRANCH  26  27
ATOM     27  C   UNL     1      12.046  24.679  36.533  1.00  0.00     0.119 C 
BRANCH  27  28
ATOM     28  N   UNL     1      12.432  25.581  35.465  1.00  0.00    -0.092 NA
ATOM     29  N   UNL     1      11.741  25.679  34.464  1.00  0.00     0.001 N 
ATOM     30  N   UNL     1      11.008  26.213  33.617  1.00  0.00    -0.003 NA
ENDBRANCH  27  28
ENDBRANCH  26  27
ENDBRANCH  25  26
ENDBRANCH  19  25
BRANCH  20  31
ATOM     31  O   UNL     1       6.100  23.236  33.808  1.00  0.00    -0.387 OA
ATOM     32  H   UNL     1       5.286  23.302  34.389  1.00  0.00     0.211 HD
ENDBRANCH  20  31
BRANCH  21  33
ATOM     33  O   UNL     1       9.148  23.038  34.184  1.00  0.00    -0.385 OA
ATOM     34  H   UNL     1       9.740  23.793  33.928  1.00  0.00     0.211 HD
ENDBRANCH  21  33
ENDBRANCH  15  16
ENDBRANCH  10  15
BRANCH  12  35
ATOM     35  O   UNL     1       6.185  29.425  32.579  1.00  0.00    -0.385 OA
ATOM     36  H   UNL     1       5.282  29.764  32.837  1.00  0.00     0.211 HD
ENDBRANCH  12  35
BRANCH  13  37
ATOM     37  O   UNL     1       5.432  26.305  31.113  1.00  0.00    -0.387 OA
ATOM     38  H   UNL     1       4.711  25.711  31.418  1.00  0.00     0.211 HD
ENDBRANCH  13  37
BRANCH  14  39
ATOM     39  O   UNL     1       2.859  27.793  30.921  1.00  0.00    -0.387 OA
ATOM     40  H   UNL     1       1.996  27.588  31.340  1.00  0.00     0.211 HD
ENDBRANCH  14  39
ENDBRANCH   8   9
ENDBRANCH   7   8
ENDBRANCH   1   7
BRANCH   1  41
ATOM     41  C   UNL     1       1.970  24.501  30.347  1.00  0.00     0.364 C 
ATOM     42  O   UNL     1       2.794  25.186  29.733  1.00  0.00    -0.246 OA
BRANCH  41  43
ATOM     43  O   UNL     1       0.767  24.156  29.777  1.00  0.00    -0.477 OA
ATOM     44  H   UNL     1       0.155  23.437  30.141  1.00  0.00     0.296 HD
ENDBRANCH  41  43
ENDBRANCH   1  41
BRANCH   3  45
ATOM     45  O   UNL     1       1.002  23.802  34.833  1.00  0.00    -0.391 OA
ATOM     46  H   UNL     1       0.290  24.474  34.835  1.00  0.00     0.211 HD
ENDBRANCH   3  45
BRANCH   5  47
ATOM     47  C   UNL     1       3.104  20.457  31.892  1.00  0.00     0.176 C 
BRANCH  47  48
ATOM     48  O   UNL     1       2.207  19.445  32.307  1.00  0.00    -0.388 OA
ATOM     49  H   UNL     1       2.727  18.613  32.436  1.00  0.00     0.211 HD
ENDBRANCH  47  48
BRANCH  47  50
ATOM     50  C   UNL     1       3.418  20.268  30.475  1.00  0.00     0.165 C 
BRANCH  50  51
ATOM     51  O   UNL     1       4.697  20.817  30.156  1.00  0.00    -0.388 OA
ATOM     52  H   UNL     1       5.006  20.255  29.377  1.00  0.00     0.211 HD
ENDBRANCH  50  51
BRANCH  50  53
ATOM     53  C   UNL     1       2.426  20.731  29.484  1.00  0.00     0.154 C 
BRANCH  53  54
ATOM     54  N   UNL     1       2.706  21.724  28.542  1.00  0.00    -0.319 N 
ATOM     55  C   UNL     1       2.107  21.989  27.296  1.00  0.00     0.407 C 
ATOM     56  H   UNL     1       3.504  22.409  28.784  1.00  0.00     0.167 HD
ATOM     57  O   UNL     1       1.156  21.336  26.843  1.00  0.00    -0.225 OA
BRANCH  55  58
ATOM     58  O   UNL     1       2.565  23.038  26.484  1.00  0.00    -0.443 OA
BRANCH  58  59
ATOM     59  C   UNL     1       1.886  24.283  26.484  1.00  0.00     0.294 C 
BRANCH  59  60
ATOM     60  C   UNL     1       2.828  25.328  25.946  1.00  0.00     0.120 A 
ATOM     61  C   UNL     1       4.175  25.378  26.238  1.00  0.00     0.138 A 
ATOM     62  N   UNL     1       2.578  26.371  25.134  1.00  0.00    -0.132 NA
ATOM     63  N   UNL     1       4.702  26.451  25.593  1.00  0.00    -0.248 N 
ATOM     64  N   UNL     1       3.718  26.999  24.958  1.00  0.00    -0.067 NA
BRANCH  63  65
ATOM     65  C   UNL     1       6.106  26.812  25.698  1.00  0.00     0.181 C 
BRANCH  65  66
ATOM     66  C   UNL     1       6.104  28.186  26.322  1.00  0.00    -0.026 A 
ATOM     67  C   UNL     1       5.531  28.335  27.561  1.00  0.00     0.007 A 
ATOM     68  C   UNL     1       6.673  29.263  25.640  1.00  0.00     0.007 A 
ATOM     69  C   UNL     1       5.478  29.550  28.205  1.00  0.00     0.020 A 
ATOM     70  C   UNL     1       6.621  30.474  26.283  1.00  0.00     0.020 A 
ATOM     71  C   UNL     1       6.052  30.618  27.507  1.00  0.00     0.052 A 
BRANCH  71  72
ATOM     72  C   UNL     1       5.992  31.920  28.160  1.00  0.00     0.099 C 
ATOM     73  N   UNL     1       5.925  32.962  28.675  1.00  0.00    -0.192 NA
ENDBRANCH  71  72
ENDBRANCH  65  66
ENDBRANCH  63  65
ENDBRANCH  59  60
ENDBRANCH  58  59
ENDBRANCH  55  58
ENDBRANCH  53  54
ENDBRANCH  50  53
ENDBRANCH  47  50
ENDBRANCH   5  47
BRANCH   4  74
ATOM     74  N   UNL     1       1.887  20.920  34.424  1.00  0.00    -0.348 N 
ATOM     75  C   UNL     1       2.473  20.856  35.715  1.00  0.00     0.217 C 
ATOM     76  H   UNL     1       1.283  20.143  34.115  1.00  0.00     0.163 HD
ATOM     77  C   UNL     1       2.240  19.713  36.616  1.00  0.00     0.114 C 
ATOM     78  O   UNL     1       3.226  21.794  36.141  1.00  0.00    -0.275 OA
ENDBRANCH   4  74
TORSDOF 32
