REMARK VINA RESULT:    -6.396      3.977     10.408
REMARK INTER + INTRA:         -21.786
REMARK INTER:                 -13.795
REMARK INTRA:                  -7.991
REMARK UNBOUND:                -6.043
REMARK SMILES CC(=O)N[C@@H]1[C@@H](O)C[C@](OC[C@H]2O[C@@H](O[C@H]3[C@H](O)[C@@H](O)[C@H](OCCN=[N+]=[N-])O[C@@H]3CO)[C@H](O)[C@@H](O)[C@H]2O)(C(=O)O)O[C@H]1C(O)[C@H](O)CNC(=O)OCc1cn(-c2ccccc2I)nn1
REMARK SMILES IDX 9 1 8 2 6 3 5 4 42 5 41 6 10 7 11 8 12 9 14 10 13 11 32 12
REMARK SMILES IDX 34 13 36 14 15 15 16 16 29 17 28 18 21 19 17 20 19 21 30 22
REMARK SMILES IDX 31 23 22 25 23 26 24 27 25 28 26 29 27 30 18 31 20 33 33 35
REMARK SMILES IDX 35 37 37 39 38 41 39 42 40 43 7 45 43 47 44 48 45 50 46 51
REMARK SMILES IDX 47 53 48 54 49 55 50 57 51 58 52 59 53 60 54 61 64 62 55 63
REMARK SMILES IDX 63 64 56 65 57 66 61 67 58 68 60 69 62 70 59 71 4 72 2 73
REMARK SMILES IDX 1 75 3 76
REMARK H PARENT 31 24 18 32 20 34 33 36 35 38 37 40 40 44 7 46 44 49 46 52
REMARK H PARENT 48 56 4 74
REMARK Flexibility Score: inf
ROOT
ATOM      1  C   UNL     1      23.288  25.087  21.752  1.00  0.00     0.272 C 
ATOM      2  C   UNL     1      22.489  24.018  22.442  1.00  0.00     0.113 C 
ATOM      3  C   UNL     1      21.249  24.610  23.135  1.00  0.00     0.145 C 
ATOM      4  C   UNL     1      21.823  25.545  24.239  1.00  0.00     0.142 C 
ATOM      5  C   UNL     1      22.828  26.466  23.607  1.00  0.00     0.178 C 
ATOM      6  O   UNL     1      22.727  26.324  22.217  1.00  0.00    -0.332 OA
ENDROOT
BRANCH   1   7
ATOM      7  O   UNL     1      23.180  25.195  20.401  1.00  0.00    -0.338 OA
BRANCH   7   8
ATOM      8  C   UNL     1      24.035  24.847  19.486  1.00  0.00     0.199 C 
BRANCH   8   9
ATOM      9  C   UNL     1      23.661  24.766  18.059  1.00  0.00     0.179 C 
ATOM     10  C   UNL     1      22.574  26.660  17.388  1.00  0.00     0.282 C 
ATOM     11  O   UNL     1      22.490  25.323  17.666  1.00  0.00    -0.341 OA
ATOM     12  C   UNL     1      23.246  26.890  16.041  1.00  0.00     0.202 C 
ATOM     13  C   UNL     1      24.258  25.742  15.818  1.00  0.00     0.179 C 
ATOM     14  C   UNL     1      24.806  25.347  17.175  1.00  0.00     0.177 C 
BRANCH  10  15
ATOM     15  O   UNL     1      22.935  27.507  18.387  1.00  0.00    -0.341 OA
BRANCH  15  16
ATOM     16  C   UNL     1      22.078  28.556  18.631  1.00  0.00     0.184 C 
ATOM     17  C   UNL     1      22.731  29.870  18.970  1.00  0.00     0.178 C 
ATOM     18  O   UNL     1      21.855  30.672  19.697  1.00  0.00    -0.341 OA
ATOM     19  C   UNL     1      20.505  30.431  19.414  1.00  0.00     0.281 C 
ATOM     20  C   UNL     1      21.319  28.196  19.926  1.00  0.00     0.180 C 
ATOM     21  C   UNL     1      20.071  29.069  19.889  1.00  0.00     0.202 C 
BRANCH  17  22
ATOM     22  C   UNL     1      23.346  30.590  17.814  1.00  0.00     0.191 C 
BRANCH  22  23
ATOM     23  O   UNL     1      22.655  30.184  16.666  1.00  0.00    -0.394 OA
ATOM     24  H   UNL     1      23.019  30.699  15.896  1.00  0.00     0.210 HD
ENDBRANCH  22  23
ENDBRANCH  17  22
BRANCH  19  25
ATOM     25  O   UNL     1      20.175  30.706  18.123  1.00  0.00    -0.350 OA
BRANCH  25  26
ATOM     26  C   UNL     1      18.862  31.024  17.965  1.00  0.00     0.169 C 
BRANCH  26  27
ATOM     27  C   UNL     1      18.089  30.250  16.945  1.00  0.00     0.119 C 
BRANCH  27  28
ATOM     28  N   UNL     1      16.923  29.558  17.418  1.00  0.00    -0.092 NA
ATOM     29  N   UNL     1      17.113  28.453  17.959  1.00  0.00     0.001 N 
ATOM     30  N   UNL     1      17.061  27.325  18.451  1.00  0.00    -0.003 NA
ENDBRANCH  27  28
ENDBRANCH  26  27
ENDBRANCH  25  26
ENDBRANCH  19  25
BRANCH  20  31
ATOM     31  O   UNL     1      20.997  26.852  19.948  1.00  0.00    -0.387 OA
ATOM     32  H   UNL     1      20.124  26.773  20.416  1.00  0.00     0.211 HD
ENDBRANCH  20  31
BRANCH  21  33
ATOM     33  O   UNL     1      19.440  29.092  21.131  1.00  0.00    -0.385 OA
ATOM     34  H   UNL     1      18.806  29.881  21.141  1.00  0.00     0.211 HD
ENDBRANCH  21  33
ENDBRANCH  15  16
ENDBRANCH  10  15
BRANCH  12  35
ATOM     35  O   UNL     1      22.360  26.812  14.975  1.00  0.00    -0.385 OA
ATOM     36  H   UNL     1      21.860  25.961  15.082  1.00  0.00     0.211 HD
ENDBRANCH  12  35
BRANCH  13  37
ATOM     37  O   UNL     1      25.245  26.046  14.934  1.00  0.00    -0.387 OA
ATOM     38  H   UNL     1      26.076  25.485  14.999  1.00  0.00     0.211 HD
ENDBRANCH  13  37
BRANCH  14  39
ATOM     39  O   UNL     1      25.248  26.483  17.831  1.00  0.00    -0.387 OA
ATOM     40  H   UNL     1      26.254  26.534  17.773  1.00  0.00     0.211 HD
ENDBRANCH  14  39
ENDBRANCH   8   9
ENDBRANCH   7   8
ENDBRANCH   1   7
BRANCH   1  41
ATOM     41  C   UNL     1      24.691  25.038  22.201  1.00  0.00     0.364 C 
ATOM     42  O   UNL     1      25.522  25.951  22.049  1.00  0.00    -0.246 OA
BRANCH  41  43
ATOM     43  O   UNL     1      25.194  23.894  22.857  1.00  0.00    -0.477 OA
ATOM     44  H   UNL     1      25.153  22.984  22.375  1.00  0.00     0.296 HD
ENDBRANCH  41  43
ENDBRANCH   1  41
BRANCH   3  45
ATOM     45  O   UNL     1      20.448  25.317  22.265  1.00  0.00    -0.391 OA
ATOM     46  H   UNL     1      20.789  26.236  22.153  1.00  0.00     0.211 HD
ENDBRANCH   3  45
BRANCH   5  47
ATOM     47  C   UNL     1      22.385  27.937  23.830  1.00  0.00     0.176 C 
BRANCH  47  48
ATOM     48  O   UNL     1      20.977  27.958  23.491  1.00  0.00    -0.388 OA
ATOM     49  H   UNL     1      20.552  27.320  24.141  1.00  0.00     0.211 HD
ENDBRANCH  47  48
BRANCH  47  50
ATOM     50  C   UNL     1      22.968  28.858  22.801  1.00  0.00     0.165 C 
BRANCH  50  51
ATOM     51  O   UNL     1      24.371  28.649  22.737  1.00  0.00    -0.388 OA
ATOM     52  H   UNL     1      24.729  28.930  21.858  1.00  0.00     0.211 HD
ENDBRANCH  50  51
BRANCH  50  53
ATOM     53  C   UNL     1      22.719  30.300  22.918  1.00  0.00     0.154 C 
BRANCH  53  54
ATOM     54  N   UNL     1      21.329  30.692  23.059  1.00  0.00    -0.319 N 
ATOM     55  C   UNL     1      20.952  32.028  22.730  1.00  0.00     0.407 C 
ATOM     56  H   UNL     1      20.575  30.057  23.388  1.00  0.00     0.167 HD
ATOM     57  O   UNL     1      21.847  32.844  22.332  1.00  0.00    -0.225 OA
BRANCH  55  58
ATOM     58  O   UNL     1      19.668  32.529  22.808  1.00  0.00    -0.443 OA
BRANCH  58  59
ATOM     59  C   UNL     1      18.958  32.541  24.037  1.00  0.00     0.294 C 
BRANCH  59  60
ATOM     60  C   UNL     1      17.866  31.506  23.949  1.00  0.00     0.121 A 
ATOM     61  C   UNL     1      16.505  31.703  23.952  1.00  0.00     0.144 A 
ATOM     62  N   UNL     1      18.054  30.178  23.855  1.00  0.00    -0.131 NA
ATOM     63  N   UNL     1      15.956  30.477  23.860  1.00  0.00    -0.219 N 
ATOM     64  N   UNL     1      16.899  29.557  23.801  1.00  0.00    -0.062 NA
BRANCH  63  65
ATOM     65  C   UNL     1      14.566  30.169  23.836  1.00  0.00     0.080 A 
ATOM     66  C   UNL     1      13.811  30.197  25.003  1.00  0.00     0.029 A 
ATOM     67  C   UNL     1      13.935  29.829  22.662  1.00  0.00     0.039 A 
ATOM     68  C   UNL     1      12.450  29.880  24.932  1.00  0.00     0.002 A 
ATOM     69  C   UNL     1      12.571  29.516  22.611  1.00  0.00     0.017 A 
ATOM     70  I   UNL     1      15.058  29.776  20.872  1.00  0.00    -0.042 I 
ATOM     71  C   UNL     1      11.820  29.542  23.758  1.00  0.00     0.001 A 
ENDBRANCH  63  65
ENDBRANCH  59  60
ENDBRANCH  58  59
ENDBRANCH  55  58
ENDBRANCH  53  54
ENDBRANCH  50  53
ENDBRANCH  47  50
ENDBRANCH   5  47
BRANCH   4  72
ATOM     72  N   UNL     1      22.310  24.682  25.253  1.00  0.00    -0.348 N 
ATOM     73  C   UNL     1      22.356  25.057  26.642  1.00  0.00     0.217 C 
ATOM     74  H   UNL     1      22.662  23.727  25.061  1.00  0.00     0.163 HD
ATOM     75  C   UNL     1      22.861  24.167  27.705  1.00  0.00     0.114 C 
ATOM     76  O   UNL     1      21.935  26.212  26.918  1.00  0.00    -0.275 OA
ENDBRANCH   4  72
TORSDOF 30
