REMARK VINA RESULT:    -6.516      6.240     11.290
REMARK INTER + INTRA:         -21.628
REMARK INTER:                 -14.134
REMARK INTRA:                  -7.494
REMARK UNBOUND:                -4.828
REMARK SMILES CC(=O)N[C@@H]1[C@@H](O)C[C@](OC[C@H]2O[C@@H](O[C@H]3[C@H](O)[C@@H](O)[C@H](OCCN=[N+]=[N-])O[C@@H]3CO)[C@H](O)[C@@H](O)[C@H]2O)(C(=O)O)O[C@H]1C(O)[C@H](O)CNC(=O)OCc1cn(CCN2CCCC2)nn1
REMARK SMILES IDX 9 1 8 2 6 3 5 4 42 5 41 6 10 7 11 8 12 9 14 10 13 11 32 12
REMARK SMILES IDX 34 13 36 14 15 15 16 16 29 17 28 18 21 19 17 20 19 21 30 22
REMARK SMILES IDX 31 23 22 25 23 26 24 27 25 28 26 29 27 30 18 31 20 33 33 35
REMARK SMILES IDX 35 37 37 39 38 41 39 42 40 43 7 45 43 47 44 48 45 50 46 51
REMARK SMILES IDX 47 53 48 54 49 55 50 57 51 58 52 59 53 60 54 61 64 62 55 63
REMARK SMILES IDX 63 64 56 65 57 66 58 67 59 68 62 69 60 70 61 71 4 72 2 73
REMARK SMILES IDX 1 75 3 76
REMARK H PARENT 31 24 18 32 20 34 33 36 35 38 37 40 40 44 7 46 44 49 46 52
REMARK H PARENT 48 56 4 74
REMARK Flexibility Score: inf
ROOT
ATOM      1  C   UNL     1      15.268  31.994  16.934  1.00  0.00     0.272 C 
ATOM      2  C   UNL     1      14.203  31.455  17.835  1.00  0.00     0.113 C 
ATOM      3  C   UNL     1      13.980  29.958  17.578  1.00  0.00     0.145 C 
ATOM      4  C   UNL     1      13.429  29.870  16.127  1.00  0.00     0.142 C 
ATOM      5  C   UNL     1      14.409  30.566  15.256  1.00  0.00     0.178 C 
ATOM      6  O   UNL     1      15.523  30.999  15.982  1.00  0.00    -0.332 OA
ENDROOT
BRANCH   1   7
ATOM      7  O   UNL     1      16.495  32.116  17.591  1.00  0.00    -0.338 OA
BRANCH   7   8
ATOM      8  C   UNL     1      17.596  31.657  16.964  1.00  0.00     0.199 C 
BRANCH   8   9
ATOM      9  C   UNL     1      18.378  30.643  17.795  1.00  0.00     0.179 C 
ATOM     10  C   UNL     1      18.596  29.765  19.902  1.00  0.00     0.282 C 
ATOM     11  O   UNL     1      17.740  30.289  18.971  1.00  0.00    -0.341 OA
ATOM     12  C   UNL     1      19.606  28.882  19.250  1.00  0.00     0.202 C 
ATOM     13  C   UNL     1      19.020  28.325  17.965  1.00  0.00     0.179 C 
ATOM     14  C   UNL     1      18.735  29.426  16.964  1.00  0.00     0.177 C 
BRANCH  10  15
ATOM     15  O   UNL     1      18.008  29.247  21.018  1.00  0.00    -0.341 OA
BRANCH  15  16
ATOM     16  C   UNL     1      16.781  29.581  21.404  1.00  0.00     0.184 C 
ATOM     17  C   UNL     1      16.605  30.099  22.816  1.00  0.00     0.178 C 
ATOM     18  O   UNL     1      15.438  30.869  22.822  1.00  0.00    -0.341 OA
ATOM     19  C   UNL     1      14.366  29.929  22.823  1.00  0.00     0.281 C 
ATOM     20  C   UNL     1      15.712  28.514  21.240  1.00  0.00     0.180 C 
ATOM     21  C   UNL     1      14.404  29.246  21.472  1.00  0.00     0.202 C 
BRANCH  17  22
ATOM     22  C   UNL     1      17.767  30.872  23.343  1.00  0.00     0.191 C 
BRANCH  22  23
ATOM     23  O   UNL     1      18.686  29.967  23.866  1.00  0.00    -0.394 OA
ATOM     24  H   UNL     1      18.331  29.039  23.789  1.00  0.00     0.210 HD
ENDBRANCH  22  23
ENDBRANCH  17  22
BRANCH  19  25
ATOM     25  O   UNL     1      13.231  30.672  22.883  1.00  0.00    -0.350 OA
BRANCH  25  26
ATOM     26  C   UNL     1      12.386  30.539  23.930  1.00  0.00     0.169 C 
BRANCH  26  27
ATOM     27  C   UNL     1      12.936  30.018  25.212  1.00  0.00     0.119 C 
BRANCH  27  28
ATOM     28  N   UNL     1      13.518  31.023  26.068  1.00  0.00    -0.092 NA
ATOM     29  N   UNL     1      14.713  30.976  26.323  1.00  0.00     0.001 N 
ATOM     30  N   UNL     1      15.939  30.865  26.432  1.00  0.00    -0.003 NA
ENDBRANCH  27  28
ENDBRANCH  26  27
ENDBRANCH  25  26
ENDBRANCH  19  25
BRANCH  20  31
ATOM     31  O   UNL     1      15.670  28.036  19.939  1.00  0.00    -0.387 OA
ATOM     32  H   UNL     1      15.442  28.708  19.268  1.00  0.00     0.211 HD
ENDBRANCH  20  31
BRANCH  21  33
ATOM     33  O   UNL     1      13.297  28.466  21.235  1.00  0.00    -0.385 OA
ATOM     34  H   UNL     1      12.493  28.685  21.735  1.00  0.00     0.211 HD
ENDBRANCH  21  33
ENDBRANCH  15  16
ENDBRANCH  10  15
BRANCH  12  35
ATOM     35  O   UNL     1      20.785  29.550  18.900  1.00  0.00    -0.385 OA
ATOM     36  H   UNL     1      21.399  29.606  19.688  1.00  0.00     0.211 HD
ENDBRANCH  12  35
BRANCH  13  37
ATOM     37  O   UNL     1      17.801  27.695  18.234  1.00  0.00    -0.387 OA
ATOM     38  H   UNL     1      17.713  26.865  17.667  1.00  0.00     0.211 HD
ENDBRANCH  13  37
BRANCH  14  39
ATOM     39  O   UNL     1      17.659  28.993  16.192  1.00  0.00    -0.387 OA
ATOM     40  H   UNL     1      17.479  28.056  16.499  1.00  0.00     0.211 HD
ENDBRANCH  14  39
ENDBRANCH   8   9
ENDBRANCH   7   8
ENDBRANCH   1   7
BRANCH   1  41
ATOM     41  C   UNL     1      14.902  33.263  16.252  1.00  0.00     0.364 C 
ATOM     42  O   UNL     1      13.798  33.804  16.567  1.00  0.00    -0.246 OA
BRANCH  41  43
ATOM     43  O   UNL     1      15.648  33.914  15.305  1.00  0.00    -0.477 OA
ATOM     44  H   UNL     1      16.628  34.077  15.300  1.00  0.00     0.296 HD
ENDBRANCH  41  43
ENDBRANCH   1  41
BRANCH   3  45
ATOM     45  O   UNL     1      15.165  29.265  17.586  1.00  0.00    -0.391 OA
ATOM     46  H   UNL     1      15.566  29.187  18.493  1.00  0.00     0.211 HD
ENDBRANCH   3  45
BRANCH   5  47
ATOM     47  C   UNL     1      14.994  29.614  14.240  1.00  0.00     0.176 C 
BRANCH  47  48
ATOM     48  O   UNL     1      15.123  28.310  14.681  1.00  0.00    -0.388 OA
ATOM     49  H   UNL     1      15.743  27.748  14.167  1.00  0.00     0.211 HD
ENDBRANCH  47  48
BRANCH  47  50
ATOM     50  C   UNL     1      14.505  29.670  12.846  1.00  0.00     0.165 C 
BRANCH  50  51
ATOM     51  O   UNL     1      15.426  29.424  11.855  1.00  0.00    -0.388 OA
ATOM     52  H   UNL     1      15.062  29.102  11.000  1.00  0.00     0.211 HD
ENDBRANCH  50  51
BRANCH  50  53
ATOM     53  C   UNL     1      13.419  30.651  12.548  1.00  0.00     0.154 C 
BRANCH  53  54
ATOM     54  N   UNL     1      12.178  30.054  12.222  1.00  0.00    -0.319 N 
ATOM     55  C   UNL     1      11.943  29.384  10.971  1.00  0.00     0.407 C 
ATOM     56  H   UNL     1      11.380  30.082  12.904  1.00  0.00     0.167 HD
ATOM     57  O   UNL     1      12.810  29.279  10.084  1.00  0.00    -0.225 OA
BRANCH  55  58
ATOM     58  O   UNL     1      10.699  28.810  10.706  1.00  0.00    -0.443 OA
BRANCH  58  59
ATOM     59  C   UNL     1       9.563  29.645  10.461  1.00  0.00     0.294 C 
BRANCH  59  60
ATOM     60  C   UNL     1       8.628  29.608  11.603  1.00  0.00     0.120 A 
ATOM     61  C   UNL     1       7.728  30.509  12.093  1.00  0.00     0.138 A 
ATOM     62  N   UNL     1       8.518  28.531  12.434  1.00  0.00    -0.132 NA
ATOM     63  N   UNL     1       7.114  29.994  13.158  1.00  0.00    -0.251 N 
ATOM     64  N   UNL     1       7.626  28.761  13.349  1.00  0.00    -0.067 NA
BRANCH  63  65
ATOM     65  C   UNL     1       6.104  30.550  14.002  1.00  0.00     0.161 C 
BRANCH  65  66
ATOM     66  C   UNL     1       5.791  29.742  15.207  1.00  0.00     0.108 C 
BRANCH  66  67
ATOM     67  N   UNL     1       5.517  30.384  16.423  1.00  0.00    -0.301 NA
ATOM     68  C   UNL     1       4.568  29.858  17.320  1.00  0.00     0.084 C 
ATOM     69  C   UNL     1       6.647  30.913  17.125  1.00  0.00     0.084 C 
ATOM     70  C   UNL     1       5.192  29.849  18.707  1.00  0.00     0.017 C 
ATOM     71  C   UNL     1       6.391  30.744  18.590  1.00  0.00     0.017 C 
ENDBRANCH  66  67
ENDBRANCH  65  66
ENDBRANCH  63  65
ENDBRANCH  59  60
ENDBRANCH  58  59
ENDBRANCH  55  58
ENDBRANCH  53  54
ENDBRANCH  50  53
ENDBRANCH  47  50
ENDBRANCH   5  47
BRANCH   4  72
ATOM     72  N   UNL     1      12.110  30.473  16.167  1.00  0.00    -0.348 N 
ATOM     73  C   UNL     1      10.989  29.976  15.443  1.00  0.00     0.217 C 
ATOM     74  H   UNL     1      11.934  31.315  16.745  1.00  0.00     0.163 HD
ATOM     75  C   UNL     1       9.668  30.688  15.552  1.00  0.00     0.114 C 
ATOM     76  O   UNL     1      11.119  28.973  14.740  1.00  0.00    -0.275 OA
ENDBRANCH   4  72
TORSDOF 32
