REMARK VINA RESULT:    -8.307      3.823      9.497
REMARK INTER + INTRA:         -19.659
REMARK INTER:                 -12.479
REMARK INTRA:                  -7.180
REMARK UNBOUND:                 2.731
REMARK SMILES CC(=O)N[C@@H]1[C@@H](O)C[C@](OC[C@H]2O[C@@H](O[C@H]3[C@H](O)[C@@H](O)[C@H](OCCN=[N+]=[N-])O[C@@H]3CO)[C@H](O)[C@@H](O)[C@H]2O)(C(=O)O)O[C@H]1C(O)[C@H](O)CNC(=O)OCc1cn(C2CCc3ccccc3NC2=O)nn1
REMARK SMILES IDX 43 1 42 2 9 3 8 4 41 5 6 6 5 7 10 8 11 9 12 10 14 11 13 12
REMARK SMILES IDX 32 13 34 14 36 15 15 16 16 17 29 18 28 19 21 20 17 21 19 22
REMARK SMILES IDX 30 23 31 24 22 26 23 27 24 28 25 29 26 30 27 31 18 32 20 34
REMARK SMILES IDX 33 36 35 38 37 40 38 42 39 43 40 44 7 46 4 48 2 49 1 51 3 52
REMARK SMILES IDX 44 53 45 55 46 56 47 58 48 59 49 60 50 62 51 63 52 64 53 65
REMARK SMILES IDX 54 66 69 67 55 68 68 69 56 70 57 71 66 73 65 74 67 75 64 77
REMARK SMILES IDX 59 78 63 79 60 80 62 81 61 82 58 83
REMARK H PARENT 31 25 18 33 20 35 33 37 35 39 37 41 40 45 7 47 4 50 44 54
REMARK H PARENT 46 57 48 61 65 76
REMARK Flexibility Score: 90.00
ROOT
ATOM      1  C   UNL     1      22.404  28.598  22.461  1.00  0.00     0.176 C 
ENDROOT
BRANCH   1   2
ATOM      2  C   UNL     1      22.784  27.428  23.391  1.00  0.00     0.178 C 
ATOM      3  C   UNL     1      23.618  25.349  22.571  1.00  0.00     0.272 C 
ATOM      4  C   UNL     1      22.389  24.662  23.011  1.00  0.00     0.113 C 
ATOM      5  O   UNL     1      23.779  26.685  22.945  1.00  0.00    -0.332 OA
ATOM      6  C   UNL     1      21.193  25.552  23.004  1.00  0.00     0.145 C 
ATOM      7  C   UNL     1      21.522  26.762  23.867  1.00  0.00     0.142 C 
BRANCH   3   8
ATOM      8  O   UNL     1      23.871  25.322  21.246  1.00  0.00    -0.338 OA
BRANCH   8   9
ATOM      9  C   UNL     1      23.278  24.530  20.367  1.00  0.00     0.199 C 
BRANCH   9  10
ATOM     10  C   UNL     1      23.407  24.607  18.909  1.00  0.00     0.179 C 
ATOM     11  C   UNL     1      22.679  25.931  17.157  1.00  0.00     0.282 C 
ATOM     12  O   UNL     1      22.859  25.881  18.538  1.00  0.00    -0.341 OA
ATOM     13  C   UNL     1      23.430  24.936  16.364  1.00  0.00     0.202 C 
ATOM     14  C   UNL     1      24.740  24.474  16.906  1.00  0.00     0.179 C 
ATOM     15  C   UNL     1      24.837  24.736  18.387  1.00  0.00     0.177 C 
BRANCH  11  16
ATOM     16  O   UNL     1      22.865  27.265  16.737  1.00  0.00    -0.341 OA
BRANCH  16  17
ATOM     17  C   UNL     1      22.665  28.167  17.748  1.00  0.00     0.184 C 
ATOM     18  C   UNL     1      21.410  28.992  17.643  1.00  0.00     0.178 C 
ATOM     19  O   UNL     1      21.333  29.723  18.830  1.00  0.00    -0.341 OA
ATOM     20  C   UNL     1      22.207  30.800  18.826  1.00  0.00     0.281 C 
ATOM     21  C   UNL     1      23.823  29.149  17.847  1.00  0.00     0.180 C 
ATOM     22  C   UNL     1      23.410  30.572  17.959  1.00  0.00     0.202 C 
BRANCH  18  23
ATOM     23  C   UNL     1      20.166  28.127  17.587  1.00  0.00     0.191 C 
BRANCH  23  24
ATOM     24  O   UNL     1      19.565  28.003  18.837  1.00  0.00    -0.394 OA
ATOM     25  H   UNL     1      18.586  27.950  18.791  1.00  0.00     0.210 HD
ENDBRANCH  23  24
ENDBRANCH  18  23
BRANCH  20  26
ATOM     26  O   UNL     1      22.546  31.095  20.134  1.00  0.00    -0.350 OA
BRANCH  26  27
ATOM     27  C   UNL     1      23.652  31.924  20.204  1.00  0.00     0.169 C 
BRANCH  27  28
ATOM     28  C   UNL     1      24.613  31.603  21.304  1.00  0.00     0.119 C 
BRANCH  28  29
ATOM     29  N   UNL     1      23.919  31.677  22.578  1.00  0.00    -0.092 NA
ATOM     30  N   UNL     1      24.487  31.409  23.652  1.00  0.00     0.001 N 
ATOM     31  N   UNL     1      25.263  31.595  24.601  1.00  0.00    -0.003 NA
ENDBRANCH  28  29
ENDBRANCH  27  28
ENDBRANCH  26  27
ENDBRANCH  20  26
BRANCH  21  32
ATOM     32  O   UNL     1      24.731  28.770  18.847  1.00  0.00    -0.387 OA
ATOM     33  H   UNL     1      25.429  29.471  18.920  1.00  0.00     0.211 HD
ENDBRANCH  21  32
BRANCH  22  34
ATOM     34  O   UNL     1      23.192  31.174  16.697  1.00  0.00    -0.385 OA
ATOM     35  H   UNL     1      23.262  30.533  15.965  1.00  0.00     0.211 HD
ENDBRANCH  22  34
ENDBRANCH  16  17
ENDBRANCH  11  16
BRANCH  13  36
ATOM     36  O   UNL     1      22.588  23.878  16.008  1.00  0.00    -0.385 OA
ATOM     37  H   UNL     1      23.111  23.183  15.531  1.00  0.00     0.211 HD
ENDBRANCH  13  36
BRANCH  14  38
ATOM     38  O   UNL     1      25.832  24.976  16.201  1.00  0.00    -0.387 OA
ATOM     39  H   UNL     1      26.632  24.769  16.752  1.00  0.00     0.211 HD
ENDBRANCH  14  38
BRANCH  15  40
ATOM     40  O   UNL     1      25.286  26.062  18.609  1.00  0.00    -0.387 OA
ATOM     41  H   UNL     1      24.723  26.414  19.332  1.00  0.00     0.211 HD
ENDBRANCH  15  40
ENDBRANCH   9  10
ENDBRANCH   8   9
ENDBRANCH   3   8
BRANCH   3  42
ATOM     42  C   UNL     1      24.748  24.718  23.354  1.00  0.00     0.364 C 
ATOM     43  O   UNL     1      25.186  25.216  24.365  1.00  0.00    -0.246 OA
BRANCH  42  44
ATOM     44  O   UNL     1      25.314  23.521  22.903  1.00  0.00    -0.477 OA
ATOM     45  H   UNL     1      26.111  23.099  23.350  1.00  0.00     0.296 HD
ENDBRANCH  42  44
ENDBRANCH   3  42
BRANCH   6  46
ATOM     46  O   UNL     1      20.979  25.957  21.676  1.00  0.00    -0.391 OA
ATOM     47  H   UNL     1      21.621  25.577  21.054  1.00  0.00     0.211 HD
ENDBRANCH   6  46
BRANCH   7  48
ATOM     48  N   UNL     1      21.532  26.347  25.229  1.00  0.00    -0.348 N 
ATOM     49  C   UNL     1      21.194  27.259  26.269  1.00  0.00     0.217 C 
ATOM     50  H   UNL     1      21.788  25.368  25.500  1.00  0.00     0.163 HD
ATOM     51  C   UNL     1      21.192  26.874  27.706  1.00  0.00     0.114 C 
ATOM     52  O   UNL     1      20.893  28.414  25.946  1.00  0.00    -0.275 OA
ENDBRANCH   7  48
ENDBRANCH   1   2
BRANCH   1  53
ATOM     53  O   UNL     1      22.644  28.231  21.133  1.00  0.00    -0.388 OA
ATOM     54  H   UNL     1      22.544  28.974  20.498  1.00  0.00     0.211 HD
ENDBRANCH   1  53
BRANCH   1  55
ATOM     55  C   UNL     1      20.979  29.001  22.579  1.00  0.00     0.165 C 
BRANCH  55  56
ATOM     56  O   UNL     1      20.197  28.737  21.462  1.00  0.00    -0.388 OA
ATOM     57  H   UNL     1      20.734  28.170  20.846  1.00  0.00     0.211 HD
ENDBRANCH  55  56
BRANCH  55  58
ATOM     58  C   UNL     1      20.722  30.415  22.985  1.00  0.00     0.154 C 
BRANCH  58  59
ATOM     59  N   UNL     1      19.404  30.906  22.715  1.00  0.00    -0.319 N 
ATOM     60  C   UNL     1      18.317  30.802  23.613  1.00  0.00     0.407 C 
ATOM     61  H   UNL     1      19.233  31.369  21.800  1.00  0.00     0.167 HD
ATOM     62  O   UNL     1      18.452  30.256  24.735  1.00  0.00    -0.225 OA
BRANCH  60  63
ATOM     63  O   UNL     1      17.094  31.312  23.244  1.00  0.00    -0.443 OA
BRANCH  63  64
ATOM     64  C   UNL     1      15.883  30.839  23.721  1.00  0.00     0.294 C 
BRANCH  64  65
ATOM     65  C   UNL     1      15.195  30.046  22.700  1.00  0.00     0.120 A 
ATOM     66  C   UNL     1      15.529  29.957  21.371  1.00  0.00     0.139 A 
ATOM     67  N   UNL     1      14.106  29.253  22.844  1.00  0.00    -0.132 NA
ATOM     68  N   UNL     1      14.656  29.130  20.744  1.00  0.00    -0.240 N 
ATOM     69  N   UNL     1      13.810  28.724  21.668  1.00  0.00    -0.066 NA
BRANCH  68  70
ATOM     70  C   UNL     1      14.659  28.760  19.318  1.00  0.00     0.198 C 
BRANCH  70  71
ATOM     71  C   UNL     1      14.071  29.908  18.587  1.00  0.00     0.042 CG0
ATOM     72  G   UNL     1      14.336  29.986  17.124  1.00  0.00     0.000 G0
ENDBRANCH  70  71
BRANCH  70  73
ATOM     73  C   UNL     1      16.050  28.424  18.997  1.00  0.00     0.249 C 
ATOM     74  N   UNL     1      17.067  29.211  18.397  1.00  0.00    -0.324 N 
ATOM     75  O   UNL     1      16.392  27.251  19.305  1.00  0.00    -0.272 OA
ATOM     76  H   UNL     1      18.064  28.963  18.575  1.00  0.00     0.170 HD
BRANCH  74  77
ATOM     77  C   UNL     1      16.807  30.348  17.546  1.00  0.00     0.044 A 
ATOM     78  C   UNL     1      15.615  30.743  16.950  1.00  0.00    -0.024 A 
ATOM     79  C   UNL     1      17.945  31.099  17.341  1.00  0.00     0.026 A 
ATOM     80  C   UNL     1      15.541  31.866  16.160  1.00  0.00     0.006 A 
ATOM     81  C   UNL     1      17.898  32.232  16.551  1.00  0.00     0.002 A 
ATOM     82  C   UNL     1      16.683  32.603  15.966  1.00  0.00     0.000 A 
BRANCH  78  83
ATOM     83  C   UNL     1      14.333  30.000  17.111  1.00  0.00     0.040 CG0
ATOM     84  G   UNL     1      14.068  29.905  18.573  1.00  0.00     0.000 G0
ENDBRANCH  78  83
ENDBRANCH  74  77
ENDBRANCH  70  73
ENDBRANCH  68  70
ENDBRANCH  64  65
ENDBRANCH  63  64
ENDBRANCH  60  63
ENDBRANCH  58  59
ENDBRANCH  55  58
ENDBRANCH   1  55
TORSDOF 30
