REMARK VINA RESULT:    -8.373      1.547      2.232
REMARK INTER + INTRA:         -19.837
REMARK INTER:                 -13.836
REMARK INTRA:                  -6.001
REMARK UNBOUND:                 2.731
REMARK SMILES CC(=O)N[C@@H]1[C@@H](O)C[C@](OC[C@H]2O[C@@H](O[C@H]3[C@H](O)[C@@H](O)[C@H](OCCN=[N+]=[N-])O[C@@H]3CO)[C@H](O)[C@@H](O)[C@H]2O)(C(=O)O)O[C@H]1C(O)[C@H](O)CNC(=O)OCc1cn(C2CCc3ccccc3NC2=O)nn1
REMARK SMILES IDX 43 1 42 2 9 3 8 4 41 5 6 6 5 7 10 8 11 9 12 10 14 11 13 12
REMARK SMILES IDX 32 13 34 14 36 15 15 16 16 17 29 18 28 19 21 20 17 21 19 22
REMARK SMILES IDX 30 23 31 24 22 26 23 27 24 28 25 29 26 30 27 31 18 32 20 34
REMARK SMILES IDX 33 36 35 38 37 40 38 42 39 43 40 44 7 46 4 48 2 49 1 51 3 52
REMARK SMILES IDX 44 53 45 55 46 56 47 58 48 59 49 60 50 62 51 63 52 64 53 65
REMARK SMILES IDX 54 66 69 67 55 68 68 69 56 70 57 71 66 73 65 74 67 75 64 77
REMARK SMILES IDX 59 78 63 79 60 80 62 81 61 82 58 83
REMARK H PARENT 31 25 18 33 20 35 33 37 35 39 37 41 40 45 7 47 4 50 44 54
REMARK H PARENT 46 57 48 61 65 76
REMARK Flexibility Score: 90.00
ROOT
ATOM      1  C   UNL     1      16.576  32.229  22.740  1.00  0.00     0.176 C 
ENDROOT
BRANCH   1   2
ATOM      2  C   UNL     1      15.717  31.018  22.323  1.00  0.00     0.178 C 
ATOM      3  C   UNL     1      15.714  30.141  20.105  1.00  0.00     0.272 C 
ATOM      4  C   UNL     1      14.319  30.581  19.913  1.00  0.00     0.113 C 
ATOM      5  O   UNL     1      16.260  30.267  21.384  1.00  0.00    -0.332 OA
ATOM      6  C   UNL     1      13.976  31.789  20.718  1.00  0.00     0.145 C 
ATOM      7  C   UNL     1      14.290  31.469  22.173  1.00  0.00     0.142 C 
BRANCH   3   8
ATOM      8  O   UNL     1      16.628  30.690  19.277  1.00  0.00    -0.338 OA
BRANCH   8   9
ATOM      9  C   UNL     1      17.894  30.926  19.581  1.00  0.00     0.199 C 
BRANCH   9  10
ATOM     10  C   UNL     1      19.054  30.173  19.095  1.00  0.00     0.179 C 
ATOM     11  C   UNL     1      20.646  28.700  19.902  1.00  0.00     0.282 C 
ATOM     12  O   UNL     1      19.394  29.261  20.151  1.00  0.00    -0.341 OA
ATOM     13  C   UNL     1      21.140  28.797  18.513  1.00  0.00     0.202 C 
ATOM     14  C   UNL     1      20.126  28.809  17.422  1.00  0.00     0.179 C 
ATOM     15  C   UNL     1      18.769  29.206  17.947  1.00  0.00     0.177 C 
BRANCH  11  16
ATOM     16  O   UNL     1      20.654  27.392  20.430  1.00  0.00    -0.341 OA
BRANCH  16  17
ATOM     17  C   UNL     1      21.760  27.144  21.200  1.00  0.00     0.184 C 
ATOM     18  C   UNL     1      22.261  28.311  22.010  1.00  0.00     0.178 C 
ATOM     19  O   UNL     1      23.282  27.804  22.817  1.00  0.00    -0.341 OA
ATOM     20  C   UNL     1      24.455  27.618  22.101  1.00  0.00     0.281 C 
ATOM     21  C   UNL     1      22.930  26.673  20.349  1.00  0.00     0.180 C 
ATOM     22  C   UNL     1      24.215  27.357  20.644  1.00  0.00     0.202 C 
BRANCH  18  23
ATOM     23  C   UNL     1      21.197  28.849  22.946  1.00  0.00     0.191 C 
BRANCH  23  24
ATOM     24  O   UNL     1      20.420  27.829  23.489  1.00  0.00    -0.394 OA
ATOM     25  H   UNL     1      20.554  26.964  23.046  1.00  0.00     0.210 HD
ENDBRANCH  23  24
ENDBRANCH  18  23
BRANCH  20  26
ATOM     26  O   UNL     1      25.184  26.611  22.707  1.00  0.00    -0.350 OA
BRANCH  26  27
ATOM     27  C   UNL     1      24.528  26.093  23.810  1.00  0.00     0.169 C 
BRANCH  27  28
ATOM     28  C   UNL     1      24.231  24.629  23.739  1.00  0.00     0.119 C 
BRANCH  28  29
ATOM     29  N   UNL     1      22.933  24.378  24.343  1.00  0.00    -0.092 NA
ATOM     30  N   UNL     1      21.873  24.705  23.779  1.00  0.00     0.001 N 
ATOM     31  N   UNL     1      20.968  24.629  22.936  1.00  0.00    -0.003 NA
ENDBRANCH  28  29
ENDBRANCH  27  28
ENDBRANCH  26  27
ENDBRANCH  20  26
BRANCH  21  32
ATOM     32  O   UNL     1      23.045  25.275  20.368  1.00  0.00    -0.387 OA
ATOM     33  H   UNL     1      23.681  25.022  21.086  1.00  0.00     0.211 HD
ENDBRANCH  21  32
BRANCH  22  34
ATOM     34  O   UNL     1      24.363  28.566  19.925  1.00  0.00    -0.385 OA
ATOM     35  H   UNL     1      25.029  28.494  19.216  1.00  0.00     0.211 HD
ENDBRANCH  22  34
ENDBRANCH  16  17
ENDBRANCH  11  16
BRANCH  13  36
ATOM     36  O   UNL     1      22.061  29.845  18.409  1.00  0.00    -0.385 OA
ATOM     37  H   UNL     1      22.982  29.488  18.499  1.00  0.00     0.211 HD
ENDBRANCH  13  36
BRANCH  14  38
ATOM     38  O   UNL     1      20.090  27.621  16.694  1.00  0.00    -0.387 OA
ATOM     39  H   UNL     1      19.227  27.626  16.202  1.00  0.00     0.211 HD
ENDBRANCH  14  38
BRANCH  15  40
ATOM     40  O   UNL     1      18.105  28.066  18.465  1.00  0.00    -0.387 OA
ATOM     41  H   UNL     1      17.255  28.398  18.827  1.00  0.00     0.211 HD
ENDBRANCH  15  40
ENDBRANCH   9  10
ENDBRANCH   8   9
ENDBRANCH   3   8
BRANCH   3  42
ATOM     42  C   UNL     1      15.695  28.634  19.973  1.00  0.00     0.364 C 
ATOM     43  O   UNL     1      16.285  27.915  20.745  1.00  0.00    -0.246 OA
BRANCH  42  44
ATOM     44  O   UNL     1      14.977  28.043  18.928  1.00  0.00    -0.477 OA
ATOM     45  H   UNL     1      15.288  28.080  17.971  1.00  0.00     0.296 HD
ENDBRANCH  42  44
ENDBRANCH   3  42
BRANCH   6  46
ATOM     46  O   UNL     1      14.798  32.837  20.272  1.00  0.00    -0.391 OA
ATOM     47  H   UNL     1      15.453  32.554  19.613  1.00  0.00     0.211 HD
ENDBRANCH   6  46
BRANCH   7  48
ATOM     48  N   UNL     1      13.309  30.552  22.647  1.00  0.00    -0.348 N 
ATOM     49  C   UNL     1      12.816  30.640  23.979  1.00  0.00     0.217 C 
ATOM     50  H   UNL     1      12.931  29.792  22.034  1.00  0.00     0.163 HD
ATOM     51  C   UNL     1      11.794  29.704  24.522  1.00  0.00     0.114 C 
ATOM     52  O   UNL     1      13.266  31.538  24.701  1.00  0.00    -0.275 OA
ENDBRANCH   7  48
ENDBRANCH   1   2
BRANCH   1  53
ATOM     53  O   UNL     1      15.879  32.986  23.687  1.00  0.00    -0.388 OA
ATOM     54  H   UNL     1      15.252  32.456  24.226  1.00  0.00     0.211 HD
ENDBRANCH   1  53
BRANCH   1  55
ATOM     55  C   UNL     1      17.885  31.843  23.327  1.00  0.00     0.165 C 
BRANCH  55  56
ATOM     56  O   UNL     1      18.775  31.246  22.443  1.00  0.00    -0.388 OA
ATOM     57  H   UNL     1      19.662  31.674  22.575  1.00  0.00     0.211 HD
ENDBRANCH  55  56
BRANCH  55  58
ATOM     58  C   UNL     1      17.836  30.997  24.557  1.00  0.00     0.154 C 
BRANCH  58  59
ATOM     59  N   UNL     1      19.031  30.981  25.344  1.00  0.00    -0.319 N 
ATOM     60  C   UNL     1      19.055  31.028  26.757  1.00  0.00     0.407 C 
ATOM     61  H   UNL     1      19.943  30.932  24.847  1.00  0.00     0.167 HD
ATOM     62  O   UNL     1      17.991  31.089  27.421  1.00  0.00    -0.225 OA
BRANCH  60  63
ATOM     63  O   UNL     1      20.266  31.007  27.407  1.00  0.00    -0.443 OA
BRANCH  63  64
ATOM     64  C   UNL     1      20.636  30.038  28.324  1.00  0.00     0.294 C 
BRANCH  64  65
ATOM     65  C   UNL     1      21.216  28.876  27.647  1.00  0.00     0.120 A 
ATOM     66  C   UNL     1      22.302  28.145  28.063  1.00  0.00     0.139 A 
ATOM     67  N   UNL     1      20.819  28.291  26.491  1.00  0.00    -0.132 NA
ATOM     68  N   UNL     1      22.541  27.150  27.173  1.00  0.00    -0.240 N 
ATOM     69  N   UNL     1      21.623  27.272  26.236  1.00  0.00    -0.066 NA
BRANCH  68  70
ATOM     70  C   UNL     1      23.609  26.139  27.245  1.00  0.00     0.198 C 
BRANCH  70  71
ATOM     71  C   UNL     1      24.858  26.872  27.561  1.00  0.00     0.042 CG0
ATOM     72  G   UNL     1      25.975  26.083  28.150  1.00  0.00     0.000 G0
ENDBRANCH  70  71
BRANCH  70  73
ATOM     73  C   UNL     1      23.160  25.156  28.236  1.00  0.00     0.249 C 
ATOM     74  N   UNL     1      23.453  25.050  29.621  1.00  0.00    -0.324 N 
ATOM     75  O   UNL     1      22.392  24.264  27.782  1.00  0.00    -0.272 OA
ATOM     76  H   UNL     1      22.784  24.540  30.237  1.00  0.00     0.170 HD
BRANCH  74  77
ATOM     77  C   UNL     1      24.630  25.613  30.238  1.00  0.00     0.044 A 
ATOM     78  C   UNL     1      25.788  26.097  29.639  1.00  0.00    -0.024 A 
ATOM     79  C   UNL     1      24.519  25.640  31.611  1.00  0.00     0.026 A 
ATOM     80  C   UNL     1      26.827  26.605  30.384  1.00  0.00     0.006 A 
ATOM     81  C   UNL     1      25.548  26.145  32.383  1.00  0.00     0.002 A 
ATOM     82  C   UNL     1      26.700  26.626  31.751  1.00  0.00     0.000 A 
BRANCH  78  83
ATOM     83  C   UNL     1      26.003  26.112  28.165  1.00  0.00     0.040 CG0
ATOM     84  G   UNL     1      24.861  26.857  27.567  1.00  0.00     0.000 G0
ENDBRANCH  78  83
ENDBRANCH  74  77
ENDBRANCH  70  73
ENDBRANCH  68  70
ENDBRANCH  64  65
ENDBRANCH  63  64
ENDBRANCH  60  63
ENDBRANCH  58  59
ENDBRANCH  55  58
ENDBRANCH   1  55
TORSDOF 30
