REMARK VINA RESULT:    -4.535      5.605     11.973
REMARK INTER + INTRA:         -20.251
REMARK INTER:                 -12.223
REMARK INTRA:                  -8.028
REMARK UNBOUND:                -8.028
REMARK SMILES CCN(CC)CCn1cc(COC(=O)NC[C@@H](O)C(O)[C@@H]2O[C@@](OC[C@H]3O[C@@H](O[C@H]4[C@H](O)[C@@H](O)[C@H](OCCN=[N+]=[N-])O[C@@H]4CO)[C@H](O)[C@@H](O)[C@H]3O)(C(=O)O)C[C@H](O)[C@H]2NC(C)=O)nn1
REMARK SMILES IDX 19 1 21 2 23 3 55 4 22 5 56 6 58 7 24 8 25 9 26 10 28 11
REMARK SMILES IDX 27 12 46 13 48 14 50 15 29 16 30 17 43 18 42 19 35 20 31 21
REMARK SMILES IDX 33 22 44 23 45 24 36 26 37 27 38 28 39 29 40 30 41 31 32 32
REMARK SMILES IDX 34 34 47 36 49 38 51 40 52 42 53 43 54 44 57 46 59 48 60 49
REMARK SMILES IDX 61 51 62 52 20 53 17 55 18 56 16 58 15 59 13 60 14 62 12 63
REMARK SMILES IDX 11 64 10 65 9 66 63 67 8 68 64 69 7 70 6 71 3 72 2 73 1 74
REMARK SMILES IDX 4 75 5 76
REMARK H PARENT 45 25 32 33 34 35 47 37 49 39 51 41 54 45 57 47 59 50 20 54
REMARK H PARENT 18 57 15 61
REMARK Flexibility Score: inf
ROOT
ATOM      1  C   UNL     1      21.717  27.746  25.948  1.00  0.00     0.176 C 
ENDROOT
BRANCH   1   2
ATOM      2  C   UNL     1      21.825  26.972  27.235  1.00  0.00     0.178 C 
ATOM      3  C   UNL     1      22.431  27.123  29.450  1.00  0.00     0.272 C 
ATOM      4  C   UNL     1      21.800  25.724  29.397  1.00  0.00     0.113 C 
ATOM      5  O   UNL     1      22.265  27.783  28.253  1.00  0.00    -0.332 OA
ATOM      6  C   UNL     1      22.340  24.867  28.298  1.00  0.00     0.145 C 
ATOM      7  C   UNL     1      22.782  25.802  27.161  1.00  0.00     0.142 C 
BRANCH   3   8
ATOM      8  O   UNL     1      23.739  26.948  29.832  1.00  0.00    -0.338 OA
BRANCH   8   9
ATOM      9  C   UNL     1      23.940  26.398  31.075  1.00  0.00     0.199 C 
BRANCH   9  10
ATOM     10  C   UNL     1      25.411  25.992  31.272  1.00  0.00     0.179 C 
ATOM     11  C   UNL     1      27.400  26.980  30.496  1.00  0.00     0.282 C 
ATOM     12  O   UNL     1      26.100  26.560  30.261  1.00  0.00    -0.341 OA
ATOM     13  C   UNL     1      28.053  26.220  31.581  1.00  0.00     0.202 C 
ATOM     14  C   UNL     1      27.290  26.224  32.877  1.00  0.00     0.179 C 
ATOM     15  C   UNL     1      25.833  26.527  32.607  1.00  0.00     0.177 C 
BRANCH  11  16
ATOM     16  O   UNL     1      27.310  28.358  30.628  1.00  0.00    -0.341 OA
BRANCH  16  17
ATOM     17  C   UNL     1      27.642  29.057  29.521  1.00  0.00     0.184 C 
ATOM     18  C   UNL     1      26.453  29.680  28.838  1.00  0.00     0.178 C 
ATOM     19  O   UNL     1      26.939  30.476  27.760  1.00  0.00    -0.341 OA
ATOM     20  C   UNL     1      27.208  29.638  26.701  1.00  0.00     0.281 C 
ATOM     21  C   UNL     1      28.359  28.220  28.467  1.00  0.00     0.180 C 
ATOM     22  C   UNL     1      27.744  28.335  27.109  1.00  0.00     0.202 C 
BRANCH  18  23
ATOM     23  C   UNL     1      25.533  30.454  29.711  1.00  0.00     0.191 C 
BRANCH  23  24
ATOM     24  O   UNL     1      24.846  29.554  30.517  1.00  0.00    -0.394 OA
ATOM     25  H   UNL     1      24.033  29.932  30.934  1.00  0.00     0.210 HD
ENDBRANCH  23  24
ENDBRANCH  18  23
BRANCH  20  26
ATOM     26  O   UNL     1      27.934  30.280  25.702  1.00  0.00    -0.350 OA
BRANCH  26  27
ATOM     27  C   UNL     1      27.418  30.157  24.447  1.00  0.00     0.169 C 
BRANCH  27  28
ATOM     28  C   UNL     1      25.921  30.397  24.395  1.00  0.00     0.119 C 
BRANCH  28  29
ATOM     29  N   UNL     1      25.184  29.197  24.741  1.00  0.00    -0.092 NA
ATOM     30  N   UNL     1      24.810  28.374  23.896  1.00  0.00     0.001 N 
ATOM     31  N   UNL     1      24.071  27.842  23.065  1.00  0.00    -0.003 NA
ENDBRANCH  28  29
ENDBRANCH  27  28
ENDBRANCH  26  27
ENDBRANCH  20  26
BRANCH  21  32
ATOM     32  O   UNL     1      29.678  28.629  28.410  1.00  0.00    -0.387 OA
ATOM     33  H   UNL     1      29.805  29.595  28.510  1.00  0.00     0.211 HD
ENDBRANCH  21  32
BRANCH  22  34
ATOM     34  O   UNL     1      26.756  27.338  26.909  1.00  0.00    -0.385 OA
ATOM     35  H   UNL     1      26.165  27.684  26.192  1.00  0.00     0.211 HD
ENDBRANCH  22  34
ENDBRANCH  16  17
ENDBRANCH  11  16
BRANCH  13  36
ATOM     36  O   UNL     1      28.148  24.857  31.174  1.00  0.00    -0.385 OA
ATOM     37  H   UNL     1      28.038  24.257  31.932  1.00  0.00     0.211 HD
ENDBRANCH  13  36
BRANCH  14  38
ATOM     38  O   UNL     1      27.821  27.063  33.843  1.00  0.00    -0.387 OA
ATOM     39  H   UNL     1      27.518  26.858  34.743  1.00  0.00     0.211 HD
ENDBRANCH  14  38
BRANCH  15  40
ATOM     40  O   UNL     1      25.679  27.907  32.604  1.00  0.00    -0.387 OA
ATOM     41  H   UNL     1      25.562  28.243  33.539  1.00  0.00     0.211 HD
ENDBRANCH  15  40
ENDBRANCH   9  10
ENDBRANCH   8   9
ENDBRANCH   3   8
BRANCH   3  42
ATOM     42  C   UNL     1      21.659  27.832  30.502  1.00  0.00     0.364 C 
ATOM     43  O   UNL     1      20.548  27.361  30.922  1.00  0.00    -0.246 OA
BRANCH  42  44
ATOM     44  O   UNL     1      22.051  29.013  31.099  1.00  0.00    -0.477 OA
ATOM     45  H   UNL     1      22.460  29.753  30.538  1.00  0.00     0.296 HD
ENDBRANCH  42  44
ENDBRANCH   3  42
BRANCH   6  46
ATOM     46  O   UNL     1      23.318  23.979  28.672  1.00  0.00    -0.391 OA
ATOM     47  H   UNL     1      24.113  24.509  28.936  1.00  0.00     0.211 HD
ENDBRANCH   6  46
BRANCH   7  48
ATOM     48  N   UNL     1      22.808  25.129  25.907  1.00  0.00    -0.348 N 
ATOM     49  C   UNL     1      24.080  24.970  25.246  1.00  0.00     0.217 C 
ATOM     50  H   UNL     1      21.989  24.730  25.415  1.00  0.00     0.163 HD
ATOM     51  C   UNL     1      24.184  24.280  23.935  1.00  0.00     0.114 C 
ATOM     52  O   UNL     1      25.144  25.411  25.755  1.00  0.00    -0.275 OA
ENDBRANCH   7  48
ENDBRANCH   1   2
BRANCH   1  53
ATOM     53  O   UNL     1      20.560  27.346  25.293  1.00  0.00    -0.388 OA
ATOM     54  H   UNL     1      20.808  26.739  24.527  1.00  0.00     0.211 HD
ENDBRANCH   1  53
BRANCH   1  55
ATOM     55  C   UNL     1      21.592  29.200  26.324  1.00  0.00     0.165 C 
BRANCH  55  56
ATOM     56  O   UNL     1      20.364  29.403  26.964  1.00  0.00    -0.388 OA
ATOM     57  H   UNL     1      19.939  28.521  27.097  1.00  0.00     0.211 HD
ENDBRANCH  55  56
BRANCH  55  58
ATOM     58  C   UNL     1      21.736  30.166  25.206  1.00  0.00     0.154 C 
BRANCH  58  59
ATOM     59  N   UNL     1      21.440  29.628  23.923  1.00  0.00    -0.319 N 
ATOM     60  C   UNL     1      20.078  29.603  23.468  1.00  0.00     0.407 C 
ATOM     61  H   UNL     1      22.168  29.251  23.315  1.00  0.00     0.167 HD
ATOM     62  O   UNL     1      19.154  30.037  24.184  1.00  0.00    -0.225 OA
BRANCH  60  63
ATOM     63  O   UNL     1      19.816  29.080  22.212  1.00  0.00    -0.443 OA
BRANCH  63  64
ATOM     64  C   UNL     1      20.927  28.803  21.343  1.00  0.00     0.294 C 
BRANCH  64  65
ATOM     65  C   UNL     1      21.179  27.357  21.394  1.00  0.00     0.120 A 
ATOM     66  C   UNL     1      21.967  26.674  20.462  1.00  0.00     0.138 A 
ATOM     67  N   UNL     1      20.767  26.426  22.251  1.00  0.00    -0.132 NA
ATOM     68  N   UNL     1      21.997  25.371  20.795  1.00  0.00    -0.251 N 
ATOM     69  N   UNL     1      21.268  25.249  21.872  1.00  0.00    -0.067 NA
BRANCH  68  70
ATOM     70  C   UNL     1      22.692  24.300  20.107  1.00  0.00     0.161 C 
BRANCH  70  71
ATOM     71  C   UNL     1      24.153  24.685  20.014  1.00  0.00     0.108 C 
BRANCH  71  72
ATOM     72  N   UNL     1      24.647  24.726  18.669  1.00  0.00    -0.302 NA
BRANCH  72  73
ATOM     73  C   UNL     1      25.570  25.809  18.460  1.00  0.00     0.081 C 
ATOM     74  C   UNL     1      25.643  26.634  19.739  1.00  0.00     0.021 C 
ENDBRANCH  72  73
BRANCH  72  75
ATOM     75  C   UNL     1      23.612  24.663  17.685  1.00  0.00     0.081 C 
ATOM     76  C   UNL     1      24.074  23.904  16.458  1.00  0.00     0.021 C 
ENDBRANCH  72  75
ENDBRANCH  71  72
ENDBRANCH  70  71
ENDBRANCH  68  70
ENDBRANCH  64  65
ENDBRANCH  63  64
ENDBRANCH  60  63
ENDBRANCH  58  59
ENDBRANCH  55  58
ENDBRANCH   1  55
TORSDOF 34
