REMARK VINA RESULT:    -6.275     12.291     18.016
REMARK INTER + INTRA:         -23.432
REMARK INTER:                 -17.895
REMARK INTRA:                  -5.538
REMARK UNBOUND:                -6.885
REMARK SMILES CCOC(=O)c1cccc(-n2cc(COC(=O)NC[C@@H](O)C(O)[C@@H]3O[C@@](OC[C@H]4O[C@@H](O[C@H]5[C@H](O)[C@@H](O)[C@H](OCCN=[N+]=[N-])O[C@@H]5CO)[C@H](O)[C@@H](O)[C@H]4O)(C(=O)O)C[C@H](O)[C@H]3NC(C)=O)nn2)c1
REMARK SMILES IDX 22 1 24 2 26 3 58 4 25 5 59 6 61 7 27 8 28 9 29 10 31 11
REMARK SMILES IDX 30 12 49 13 51 14 53 15 32 16 33 17 46 18 45 19 38 20 34 21
REMARK SMILES IDX 36 22 47 23 48 24 39 26 40 27 41 28 42 29 43 30 44 31 35 32
REMARK SMILES IDX 37 34 50 36 52 38 54 40 55 42 56 43 57 44 60 46 62 48 63 49
REMARK SMILES IDX 64 51 65 52 23 53 20 55 21 56 19 58 18 59 16 60 17 62 15 63
REMARK SMILES IDX 14 64 13 65 12 66 66 67 11 68 67 69 10 70 68 71 9 72 6 73
REMARK SMILES IDX 8 74 7 75 4 76 5 77 3 78 2 79 1 80
REMARK H PARENT 48 25 35 33 37 35 50 37 52 39 54 41 57 45 60 47 62 50 23 54
REMARK H PARENT 21 57 18 61
REMARK Flexibility Score: inf
ROOT
ATOM      1  C   UNL     1      21.193  27.596  20.270  1.00  0.00     0.176 C 
ENDROOT
BRANCH   1   2
ATOM      2  C   UNL     1      22.061  26.543  20.821  1.00  0.00     0.178 C 
ATOM      3  C   UNL     1      22.615  25.788  22.991  1.00  0.00     0.272 C 
ATOM      4  C   UNL     1      23.395  24.842  22.136  1.00  0.00     0.113 C 
ATOM      5  O   UNL     1      22.415  26.918  22.119  1.00  0.00    -0.332 OA
ATOM      6  C   UNL     1      24.269  25.539  21.105  1.00  0.00     0.145 C 
ATOM      7  C   UNL     1      23.307  26.220  20.076  1.00  0.00     0.142 C 
BRANCH   3   8
ATOM      8  O   UNL     1      23.385  26.258  24.009  1.00  0.00    -0.338 OA
BRANCH   8   9
ATOM      9  C   UNL     1      24.060  25.549  24.879  1.00  0.00     0.199 C 
BRANCH   9  10
ATOM     10  C   UNL     1      23.735  25.310  26.292  1.00  0.00     0.179 C 
ATOM     11  C   UNL     1      24.572  25.434  28.473  1.00  0.00     0.282 C 
ATOM     12  O   UNL     1      24.819  25.250  27.093  1.00  0.00    -0.341 OA
ATOM     13  C   UNL     1      23.119  25.261  28.794  1.00  0.00     0.202 C 
ATOM     14  C   UNL     1      22.221  26.148  27.995  1.00  0.00     0.179 C 
ATOM     15  C   UNL     1      22.908  26.557  26.738  1.00  0.00     0.177 C 
BRANCH  11  16
ATOM     16  O   UNL     1      25.122  26.645  28.776  1.00  0.00    -0.341 OA
BRANCH  16  17
ATOM     17  C   UNL     1      26.249  26.698  29.521  1.00  0.00     0.184 C 
ATOM     18  C   UNL     1      27.436  26.602  28.600  1.00  0.00     0.178 C 
ATOM     19  O   UNL     1      28.638  26.702  29.304  1.00  0.00    -0.341 OA
ATOM     20  C   UNL     1      28.772  25.523  30.088  1.00  0.00     0.281 C 
ATOM     21  C   UNL     1      26.363  25.521  30.506  1.00  0.00     0.180 C 
ATOM     22  C   UNL     1      27.733  25.647  31.168  1.00  0.00     0.202 C 
BRANCH  18  23
ATOM     23  C   UNL     1      27.407  27.687  27.562  1.00  0.00     0.191 C 
BRANCH  23  24
ATOM     24  O   UNL     1      26.684  27.253  26.420  1.00  0.00    -0.394 OA
ATOM     25  H   UNL     1      26.582  26.267  26.433  1.00  0.00     0.210 HD
ENDBRANCH  23  24
ENDBRANCH  18  23
BRANCH  20  26
ATOM     26  O   UNL     1      30.058  25.468  30.542  1.00  0.00    -0.350 OA
BRANCH  26  27
ATOM     27  C   UNL     1      30.947  25.034  29.569  1.00  0.00     0.169 C 
BRANCH  27  28
ATOM     28  C   UNL     1      32.084  25.981  29.327  1.00  0.00     0.119 C 
BRANCH  28  29
ATOM     29  N   UNL     1      32.150  26.291  27.893  1.00  0.00    -0.092 NA
ATOM     30  N   UNL     1      31.438  27.213  27.474  1.00  0.00     0.001 N 
ATOM     31  N   UNL     1      30.980  28.251  26.955  1.00  0.00    -0.003 NA
ENDBRANCH  28  29
ENDBRANCH  27  28
ENDBRANCH  26  27
ENDBRANCH  20  26
BRANCH  21  32
ATOM     32  O   UNL     1      25.446  25.643  31.539  1.00  0.00    -0.387 OA
ATOM     33  H   UNL     1      25.161  26.587  31.570  1.00  0.00     0.211 HD
ENDBRANCH  21  32
BRANCH  22  34
ATOM     34  O   UNL     1      27.892  24.689  32.164  1.00  0.00    -0.385 OA
ATOM     35  H   UNL     1      27.391  24.911  33.006  1.00  0.00     0.211 HD
ENDBRANCH  22  34
ENDBRANCH  16  17
ENDBRANCH  11  16
BRANCH  13  36
ATOM     36  O   UNL     1      22.782  23.899  28.667  1.00  0.00    -0.385 OA
ATOM     37  H   UNL     1      23.564  23.339  28.459  1.00  0.00     0.211 HD
ENDBRANCH  13  36
BRANCH  14  38
ATOM     38  O   UNL     1      21.657  27.169  28.726  1.00  0.00    -0.387 OA
ATOM     39  H   UNL     1      22.112  27.181  29.610  1.00  0.00     0.211 HD
ENDBRANCH  14  38
BRANCH  15  40
ATOM     40  O   UNL     1      23.689  27.660  26.887  1.00  0.00    -0.387 OA
ATOM     41  H   UNL     1      23.718  27.921  27.841  1.00  0.00     0.211 HD
ENDBRANCH  15  40
ENDBRANCH   9  10
ENDBRANCH   8   9
ENDBRANCH   3   8
BRANCH   3  42
ATOM     42  C   UNL     1      21.294  25.339  23.407  1.00  0.00     0.364 C 
ATOM     43  O   UNL     1      20.815  24.251  23.052  1.00  0.00    -0.246 OA
BRANCH  42  44
ATOM     44  O   UNL     1      20.505  26.135  24.238  1.00  0.00    -0.477 OA
ATOM     45  H   UNL     1      20.850  26.605  25.049  1.00  0.00     0.296 HD
ENDBRANCH  42  44
ENDBRANCH   3  42
BRANCH   6  46
ATOM     46  O   UNL     1      24.945  26.560  21.725  1.00  0.00    -0.391 OA
ATOM     47  H   UNL     1      25.784  26.212  22.112  1.00  0.00     0.211 HD
ENDBRANCH   6  46
BRANCH   7  48
ATOM     48  N   UNL     1      23.112  25.254  19.020  1.00  0.00    -0.348 N 
ATOM     49  C   UNL     1      23.114  25.584  17.626  1.00  0.00     0.217 C 
ATOM     50  H   UNL     1      22.954  24.222  19.225  1.00  0.00     0.163 HD
ATOM     51  C   UNL     1      22.908  24.563  16.565  1.00  0.00     0.114 C 
ATOM     52  O   UNL     1      23.293  26.767  17.271  1.00  0.00    -0.275 OA
ENDBRANCH   7  48
ENDBRANCH   1   2
BRANCH   1  53
ATOM     53  O   UNL     1      19.940  27.703  20.810  1.00  0.00    -0.388 OA
ATOM     54  H   UNL     1      19.830  27.169  21.631  1.00  0.00     0.211 HD
ENDBRANCH   1  53
BRANCH   1  55
ATOM     55  C   UNL     1      21.817  28.951  20.055  1.00  0.00     0.165 C 
BRANCH  55  56
ATOM     56  O   UNL     1      21.750  29.715  21.224  1.00  0.00    -0.388 OA
ATOM     57  H   UNL     1      20.937  30.282  21.217  1.00  0.00     0.211 HD
ENDBRANCH  55  56
BRANCH  55  58
ATOM     58  C   UNL     1      21.371  29.659  18.811  1.00  0.00     0.154 C 
BRANCH  58  59
ATOM     59  N   UNL     1      20.227  29.022  18.199  1.00  0.00    -0.319 N 
ATOM     60  C   UNL     1      19.162  29.780  17.664  1.00  0.00     0.407 C 
ATOM     61  H   UNL     1      20.169  27.959  18.139  1.00  0.00     0.167 HD
ATOM     62  O   UNL     1      19.097  31.029  17.654  1.00  0.00    -0.225 OA
BRANCH  60  63
ATOM     63  O   UNL     1      18.051  29.130  17.090  1.00  0.00    -0.443 OA
BRANCH  63  64
ATOM     64  C   UNL     1      17.426  28.002  17.619  1.00  0.00     0.294 C 
BRANCH  64  65
ATOM     65  C   UNL     1      16.618  28.220  18.827  1.00  0.00     0.121 A 
ATOM     66  C   UNL     1      15.597  29.153  18.973  1.00  0.00     0.144 A 
ATOM     67  N   UNL     1      16.705  27.583  19.988  1.00  0.00    -0.131 NA
ATOM     68  N   UNL     1      15.119  29.036  20.211  1.00  0.00    -0.220 N 
ATOM     69  N   UNL     1      15.792  28.085  20.818  1.00  0.00    -0.062 NA
BRANCH  68  70
ATOM     70  C   UNL     1      14.069  29.801  20.764  1.00  0.00     0.067 A 
ATOM     71  C   UNL     1      13.555  29.528  22.029  1.00  0.00     0.044 A 
ATOM     72  C   UNL     1      13.511  30.856  20.092  1.00  0.00     0.028 A 
ATOM     73  C   UNL     1      12.547  30.247  22.612  1.00  0.00     0.062 A 
ATOM     74  C   UNL     1      12.489  31.610  20.648  1.00  0.00     0.003 A 
ATOM     75  C   UNL     1      12.004  31.312  21.900  1.00  0.00     0.016 A 
BRANCH  73  76
ATOM     76  C   UNL     1      12.057  29.907  23.931  1.00  0.00     0.338 C 
ATOM     77  O   UNL     1      10.829  29.848  24.134  1.00  0.00    -0.246 OA
BRANCH  76  78
ATOM     78  O   UNL     1      12.940  29.649  24.948  1.00  0.00    -0.462 OA
BRANCH  78  79
ATOM     79  C   UNL     1      13.911  30.562  25.404  1.00  0.00     0.230 C 
ATOM     80  C   UNL     1      13.238  31.728  26.096  1.00  0.00     0.049 C 
ENDBRANCH  78  79
ENDBRANCH  76  78
ENDBRANCH  73  76
ENDBRANCH  68  70
ENDBRANCH  64  65
ENDBRANCH  63  64
ENDBRANCH  60  63
ENDBRANCH  58  59
ENDBRANCH  55  58
ENDBRANCH   1  55
TORSDOF 33
