REMARK VINA RESULT:    -4.041     11.372     18.290
REMARK INTER + INTRA:         -22.073
REMARK INTER:                 -15.279
REMARK INTRA:                  -6.793
REMARK UNBOUND:               -11.418
REMARK SMILES CC(=O)N[C@@H]1[C@@H](O)C[C@](OC[C@H]2O[C@@H](O[C@H]3[C@H](O)[C@@H](O)[C@H](OCCN=[N+]=[N-])O[C@@H]3CO)[C@H](O)[C@@H](O)[C@H]2O)(C(=O)O)O[C@H]1C(O)[C@H](O)CNC(=O)OCc1cn(CC(=O)NCc2cccs2)nn1
REMARK SMILES IDX 43 1 42 2 9 3 8 4 41 5 6 6 5 7 10 8 11 9 12 10 14 11 13 12
REMARK SMILES IDX 32 13 34 14 36 15 15 16 16 17 29 18 28 19 21 20 17 21 19 22
REMARK SMILES IDX 30 23 31 24 22 26 23 27 24 28 25 29 26 30 27 31 18 32 20 34
REMARK SMILES IDX 33 36 35 38 37 40 38 42 39 43 40 44 7 46 4 48 2 49 1 51 3 52
REMARK SMILES IDX 44 53 45 55 46 56 47 58 48 59 49 60 50 62 51 63 52 64 53 65
REMARK SMILES IDX 54 66 67 67 55 68 66 69 56 70 57 71 58 72 59 73 60 75 61 76
REMARK SMILES IDX 62 77 65 78 63 79 64 80
REMARK H PARENT 31 25 18 33 20 35 33 37 35 39 37 41 40 45 7 47 4 50 44 54
REMARK H PARENT 46 57 48 61 59 74
REMARK Flexibility Score: inf
ROOT
ATOM      1  C   UNL     1      13.565  29.775  14.569  1.00  0.00     0.176 C 
ENDROOT
BRANCH   1   2
ATOM      2  C   UNL     1      14.512  29.346  13.479  1.00  0.00     0.178 C 
ATOM      3  C   UNL     1      16.769  29.940  13.862  1.00  0.00     0.272 C 
ATOM      4  C   UNL     1      16.439  31.305  13.235  1.00  0.00     0.113 C 
ATOM      5  O   UNL     1      15.724  29.124  14.033  1.00  0.00    -0.332 OA
ATOM      6  C   UNL     1      15.615  31.082  12.031  1.00  0.00     0.145 C 
ATOM      7  C   UNL     1      14.462  30.134  12.228  1.00  0.00     0.142 C 
BRANCH   3   8
ATOM      8  O   UNL     1      17.357  30.261  15.062  1.00  0.00    -0.338 OA
BRANCH   8   9
ATOM      9  C   UNL     1      17.731  29.319  15.930  1.00  0.00     0.199 C 
BRANCH   9  10
ATOM     10  C   UNL     1      18.203  29.712  17.301  1.00  0.00     0.179 C 
ATOM     11  C   UNL     1      17.386  30.970  19.038  1.00  0.00     0.282 C 
ATOM     12  O   UNL     1      17.030  30.115  17.987  1.00  0.00    -0.341 OA
ATOM     13  C   UNL     1      18.557  30.451  19.803  1.00  0.00     0.202 C 
ATOM     14  C   UNL     1      18.918  29.028  19.534  1.00  0.00     0.179 C 
ATOM     15  C   UNL     1      18.732  28.560  18.127  1.00  0.00     0.177 C 
BRANCH  11  16
ATOM     16  O   UNL     1      16.340  31.243  19.875  1.00  0.00    -0.341 OA
BRANCH  16  17
ATOM     17  C   UNL     1      15.151  30.619  19.499  1.00  0.00     0.184 C 
ATOM     18  C   UNL     1      14.001  31.523  19.414  1.00  0.00     0.178 C 
ATOM     19  O   UNL     1      13.004  31.405  20.345  1.00  0.00    -0.341 OA
ATOM     20  C   UNL     1      13.226  30.616  21.426  1.00  0.00     0.281 C 
ATOM     21  C   UNL     1      15.000  29.393  20.354  1.00  0.00     0.180 C 
ATOM     22  C   UNL     1      13.603  29.221  20.895  1.00  0.00     0.202 C 
BRANCH  18  23
ATOM     23  C   UNL     1      13.292  31.350  18.055  1.00  0.00     0.191 C 
BRANCH  23  24
ATOM     24  O   UNL     1      13.810  32.180  17.085  1.00  0.00    -0.394 OA
ATOM     25  H   UNL     1      14.724  31.855  16.859  1.00  0.00     0.210 HD
ENDBRANCH  23  24
ENDBRANCH  18  23
BRANCH  20  26
ATOM     26  O   UNL     1      12.004  30.408  22.086  1.00  0.00    -0.350 OA
BRANCH  26  27
ATOM     27  C   UNL     1      11.917  31.141  23.253  1.00  0.00     0.169 C 
BRANCH  27  28
ATOM     28  C   UNL     1      12.119  30.165  24.416  1.00  0.00     0.119 C 
BRANCH  28  29
ATOM     29  N   UNL     1      13.385  30.459  25.071  1.00  0.00    -0.092 NA
ATOM     30  N   UNL     1      14.415  29.920  24.671  1.00  0.00     0.001 N 
ATOM     31  N   UNL     1      15.509  29.567  24.191  1.00  0.00    -0.003 NA
ENDBRANCH  28  29
ENDBRANCH  27  28
ENDBRANCH  26  27
ENDBRANCH  20  26
BRANCH  21  32
ATOM     32  O   UNL     1      15.440  28.227  19.720  1.00  0.00    -0.387 OA
ATOM     33  H   UNL     1      16.389  28.014  19.978  1.00  0.00     0.211 HD
ENDBRANCH  21  32
BRANCH  22  34
ATOM     34  O   UNL     1      13.645  28.299  21.921  1.00  0.00    -0.385 OA
ATOM     35  H   UNL     1      13.210  28.659  22.736  1.00  0.00     0.211 HD
ENDBRANCH  22  34
ENDBRANCH  16  17
ENDBRANCH  11  16
BRANCH  13  36
ATOM     36  O   UNL     1      19.694  31.274  19.638  1.00  0.00    -0.385 OA
ATOM     37  H   UNL     1      19.508  32.220  19.750  1.00  0.00     0.211 HD
ENDBRANCH  13  36
BRANCH  14  38
ATOM     38  O   UNL     1      18.276  28.169  20.457  1.00  0.00    -0.387 OA
ATOM     39  H   UNL     1      17.771  28.708  21.115  1.00  0.00     0.211 HD
ENDBRANCH  14  38
BRANCH  15  40
ATOM     40  O   UNL     1      17.744  27.547  18.171  1.00  0.00    -0.387 OA
ATOM     41  H   UNL     1      17.513  27.213  17.275  1.00  0.00     0.211 HD
ENDBRANCH  15  40
ENDBRANCH   9  10
ENDBRANCH   8   9
ENDBRANCH   3   8
BRANCH   3  42
ATOM     42  C   UNL     1      17.756  29.332  12.915  1.00  0.00     0.364 C 
ATOM     43  O   UNL     1      17.617  28.217  12.363  1.00  0.00    -0.246 OA
BRANCH  42  44
ATOM     44  O   UNL     1      18.915  30.034  12.605  1.00  0.00    -0.477 OA
ATOM     45  H   UNL     1      19.468  30.460  13.338  1.00  0.00     0.296 HD
ENDBRANCH  42  44
ENDBRANCH   3  42
BRANCH   6  46
ATOM     46  O   UNL     1      15.161  32.339  11.537  1.00  0.00    -0.391 OA
ATOM     47  H   UNL     1      15.672  32.616  10.746  1.00  0.00     0.211 HD
ENDBRANCH   6  46
BRANCH   7  48
ATOM     48  N   UNL     1      14.284  29.290  11.063  1.00  0.00    -0.348 N 
ATOM     49  C   UNL     1      13.459  29.714   9.999  1.00  0.00     0.217 C 
ATOM     50  H   UNL     1      14.752  28.349  10.978  1.00  0.00     0.163 HD
ATOM     51  C   UNL     1      13.287  28.831   8.808  1.00  0.00     0.114 C 
ATOM     52  O   UNL     1      12.845  30.806   9.984  1.00  0.00    -0.275 OA
ENDBRANCH   7  48
ENDBRANCH   1   2
BRANCH   1  53
ATOM     53  O   UNL     1      13.180  31.084  14.538  1.00  0.00    -0.388 OA
ATOM     54  H   UNL     1      12.340  31.305  14.993  1.00  0.00     0.211 HD
ENDBRANCH   1  53
BRANCH   1  55
ATOM     55  C   UNL     1      12.422  28.820  14.837  1.00  0.00     0.165 C 
BRANCH  55  56
ATOM     56  O   UNL     1      12.545  27.629  14.188  1.00  0.00    -0.388 OA
ATOM     57  H   UNL     1      12.478  27.675  13.209  1.00  0.00     0.211 HD
ENDBRANCH  55  56
BRANCH  55  58
ATOM     58  C   UNL     1      11.098  29.489  14.513  1.00  0.00     0.154 C 
BRANCH  58  59
ATOM     59  N   UNL     1      10.472  30.076  15.661  1.00  0.00    -0.319 N 
ATOM     60  C   UNL     1      10.158  31.443  15.855  1.00  0.00     0.407 C 
ATOM     61  H   UNL     1      10.184  29.459  16.503  1.00  0.00     0.167 HD
ATOM     62  O   UNL     1      10.402  32.298  15.004  1.00  0.00    -0.225 OA
BRANCH  60  63
ATOM     63  O   UNL     1       9.548  31.893  17.043  1.00  0.00    -0.443 OA
BRANCH  63  64
ATOM     64  C   UNL     1       8.294  32.487  17.123  1.00  0.00     0.294 C 
BRANCH  64  65
ATOM     65  C   UNL     1       7.394  31.897  18.123  1.00  0.00     0.120 A 
ATOM     66  C   UNL     1       6.934  32.489  19.279  1.00  0.00     0.138 A 
ATOM     67  N   UNL     1       6.839  30.656  18.095  1.00  0.00    -0.132 NA
ATOM     68  N   UNL     1       6.133  31.623  19.913  1.00  0.00    -0.243 N 
ATOM     69  N   UNL     1       6.098  30.538  19.176  1.00  0.00    -0.067 NA
BRANCH  68  70
ATOM     70  C   UNL     1       5.402  31.754  21.154  1.00  0.00     0.245 C 
BRANCH  70  71
ATOM     71  C   UNL     1       6.370  31.789  22.266  1.00  0.00     0.242 C 
ATOM     72  O   UNL     1       6.811  32.875  22.681  1.00  0.00    -0.273 OA
ATOM     73  N   UNL     1       6.809  30.587  22.873  1.00  0.00    -0.350 N 
ATOM     74  H   UNL     1       6.460  29.642  22.549  1.00  0.00     0.163 HD
BRANCH  73  75
ATOM     75  C   UNL     1       7.745  30.578  23.954  1.00  0.00     0.162 C 
BRANCH  75  76
ATOM     76  C   UNL     1       7.835  29.218  24.505  1.00  0.00     0.024 A 
ATOM     77  C   UNL     1       8.888  28.376  24.659  1.00  0.00     0.017 A 
ATOM     78  S   UNL     1       6.482  28.302  25.151  1.00  0.00    -0.147 S 
ATOM     79  C   UNL     1       8.690  27.167  25.208  1.00  0.00     0.012 A 
ATOM     80  C   UNL     1       7.458  26.796  25.600  1.00  0.00     0.065 A 
ENDBRANCH  75  76
ENDBRANCH  73  75
ENDBRANCH  70  71
ENDBRANCH  68  70
ENDBRANCH  64  65
ENDBRANCH  63  64
ENDBRANCH  60  63
ENDBRANCH  58  59
ENDBRANCH  55  58
ENDBRANCH   1  55
TORSDOF 33
