REMARK VINA RESULT:    -5.964      7.948     12.652
REMARK INTER + INTRA:         -22.142
REMARK INTER:                 -15.438
REMARK INTRA:                  -6.704
REMARK UNBOUND:                -6.938
REMARK SMILES CC(=O)N[C@@H]1[C@@H](O)C[C@](OC[C@H]2O[C@@H](O[C@H]3[C@H](O)[C@@H](O)[C@H](OCCN=[N+]=[N-])O[C@@H]3CO)[C@H](O)[C@@H](O)[C@H]2O)(C(=O)O)O[C@H]1C(O)[C@H](O)CNC(=O)OCc1cn(Cc2cc(Br)cc(Br)c2O)nn1
REMARK SMILES IDX 9 1 8 2 6 3 5 4 42 5 41 6 10 7 11 8 12 9 14 10 13 11 32 12
REMARK SMILES IDX 34 13 36 14 15 15 16 16 29 17 28 18 21 19 17 20 19 21 30 22
REMARK SMILES IDX 31 23 22 25 23 26 24 27 25 28 26 29 27 30 18 31 20 33 33 35
REMARK SMILES IDX 35 37 37 39 38 41 39 42 40 43 7 45 43 47 44 48 45 50 46 51
REMARK SMILES IDX 47 53 48 54 49 55 50 57 51 58 52 59 53 60 54 61 67 62 55 63
REMARK SMILES IDX 66 64 56 65 57 66 58 67 64 68 59 69 62 70 60 71 61 72 63 73
REMARK SMILES IDX 65 74 4 76 2 77 1 79 3 80
REMARK H PARENT 31 24 18 32 20 34 33 36 35 38 37 40 40 44 7 46 44 49 46 52
REMARK H PARENT 48 56 65 75 4 78
REMARK Flexibility Score: inf
ROOT
ATOM      1  C   UNL     1      33.866  17.557  26.313  1.00  0.00     0.272 C 
ATOM      2  C   UNL     1      32.342  17.360  26.771  1.00  0.00     0.113 C 
ATOM      3  C   UNL     1      32.294  16.793  28.131  1.00  0.00     0.145 C 
ATOM      4  C   UNL     1      33.070  17.660  29.087  1.00  0.00     0.142 C 
ATOM      5  C   UNL     1      34.079  18.570  28.455  1.00  0.00     0.178 C 
ATOM      6  O   UNL     1      34.434  18.416  27.185  1.00  0.00    -0.332 OA
ENDROOT
BRANCH   1   7
ATOM      7  O   UNL     1      33.663  18.144  25.111  1.00  0.00    -0.338 OA
BRANCH   7   8
ATOM      8  C   UNL     1      33.092  19.312  24.894  1.00  0.00     0.199 C 
BRANCH   8   9
ATOM      9  C   UNL     1      33.767  20.383  24.109  1.00  0.00     0.179 C 
ATOM     10  C   UNL     1      32.011  20.881  22.661  1.00  0.00     0.282 C 
ATOM     11  O   UNL     1      33.302  20.506  22.845  1.00  0.00    -0.341 OA
ATOM     12  C   UNL     1      31.595  21.988  23.574  1.00  0.00     0.202 C 
ATOM     13  C   UNL     1      32.797  22.673  24.164  1.00  0.00     0.179 C 
ATOM     14  C   UNL     1      33.742  21.726  24.842  1.00  0.00     0.177 C 
BRANCH  10  15
ATOM     15  O   UNL     1      31.151  19.772  22.697  1.00  0.00    -0.341 OA
BRANCH  15  16
ATOM     16  C   UNL     1      30.569  19.468  21.488  1.00  0.00     0.184 C 
ATOM     17  C   UNL     1      29.128  19.042  21.655  1.00  0.00     0.178 C 
ATOM     18  O   UNL     1      28.569  18.488  20.540  1.00  0.00    -0.341 OA
ATOM     19  C   UNL     1      29.261  18.663  19.355  1.00  0.00     0.281 C 
ATOM     20  C   UNL     1      31.243  18.257  20.833  1.00  0.00     0.180 C 
ATOM     21  C   UNL     1      30.688  18.194  19.431  1.00  0.00     0.202 C 
BRANCH  17  22
ATOM     22  C   UNL     1      28.248  20.155  22.185  1.00  0.00     0.191 C 
BRANCH  22  23
ATOM     23  O   UNL     1      28.654  21.386  21.718  1.00  0.00    -0.394 OA
ATOM     24  H   UNL     1      29.256  21.244  20.950  1.00  0.00     0.210 HD
ENDBRANCH  22  23
ENDBRANCH  17  22
BRANCH  19  25
ATOM     25  O   UNL     1      29.151  19.988  18.964  1.00  0.00    -0.350 OA
BRANCH  25  26
ATOM     26  C   UNL     1      28.220  20.138  17.972  1.00  0.00     0.169 C 
BRANCH  26  27
ATOM     27  C   UNL     1      27.689  21.516  17.775  1.00  0.00     0.119 C 
BRANCH  27  28
ATOM     28  N   UNL     1      28.109  22.437  18.812  1.00  0.00    -0.092 NA
ATOM     29  N   UNL     1      27.324  23.054  19.503  1.00  0.00     0.001 N 
ATOM     30  N   UNL     1      26.678  23.534  20.432  1.00  0.00    -0.003 NA
ENDBRANCH  27  28
ENDBRANCH  26  27
ENDBRANCH  25  26
ENDBRANCH  19  25
BRANCH  20  31
ATOM     31  O   UNL     1      32.610  18.301  20.876  1.00  0.00    -0.387 OA
ATOM     32  H   UNL     1      32.852  18.545  21.826  1.00  0.00     0.211 HD
ENDBRANCH  20  31
BRANCH  21  33
ATOM     33  O   UNL     1      30.781  16.913  18.900  1.00  0.00    -0.385 OA
ATOM     34  H   UNL     1      31.125  16.941  17.990  1.00  0.00     0.211 HD
ENDBRANCH  21  33
ENDBRANCH  15  16
ENDBRANCH  10  15
BRANCH  12  35
ATOM     35  O   UNL     1      30.842  22.911  22.807  1.00  0.00    -0.385 OA
ATOM     36  H   UNL     1      31.132  22.760  21.877  1.00  0.00     0.211 HD
ENDBRANCH  12  35
BRANCH  13  37
ATOM     37  O   UNL     1      32.438  23.719  25.014  1.00  0.00    -0.387 OA
ATOM     38  H   UNL     1      31.503  23.947  24.781  1.00  0.00     0.211 HD
ENDBRANCH  13  37
BRANCH  14  39
ATOM     39  O   UNL     1      33.342  21.525  26.151  1.00  0.00    -0.387 OA
ATOM     40  H   UNL     1      32.458  21.070  26.184  1.00  0.00     0.211 HD
ENDBRANCH  14  39
ENDBRANCH   8   9
ENDBRANCH   7   8
ENDBRANCH   1   7
BRANCH   1  41
ATOM     41  C   UNL     1      34.443  16.217  26.331  1.00  0.00     0.364 C 
ATOM     42  O   UNL     1      35.519  15.966  26.992  1.00  0.00    -0.246 OA
BRANCH  41  43
ATOM     43  O   UNL     1      33.918  15.131  25.680  1.00  0.00    -0.477 OA
ATOM     44  H   UNL     1      34.420  14.682  24.928  1.00  0.00     0.296 HD
ENDBRANCH  41  43
ENDBRANCH   1  41
BRANCH   3  45
ATOM     45  O   UNL     1      30.947  16.674  28.522  1.00  0.00    -0.391 OA
ATOM     46  H   UNL     1      30.360  16.841  27.750  1.00  0.00     0.211 HD
ENDBRANCH   3  45
BRANCH   5  47
ATOM     47  C   UNL     1      33.715  19.992  28.838  1.00  0.00     0.176 C 
BRANCH  47  48
ATOM     48  O   UNL     1      32.426  20.001  29.427  1.00  0.00    -0.388 OA
ATOM     49  H   UNL     1      31.785  20.465  28.854  1.00  0.00     0.211 HD
ENDBRANCH  47  48
BRANCH  47  50
ATOM     50  C   UNL     1      34.701  20.711  29.662  1.00  0.00     0.165 C 
BRANCH  50  51
ATOM     51  O   UNL     1      34.796  20.205  30.940  1.00  0.00    -0.388 OA
ATOM     52  H   UNL     1      34.464  19.276  31.024  1.00  0.00     0.211 HD
ENDBRANCH  50  51
BRANCH  50  53
ATOM     53  C   UNL     1      34.640  22.200  29.690  1.00  0.00     0.154 C 
BRANCH  53  54
ATOM     54  N   UNL     1      33.351  22.786  29.826  1.00  0.00    -0.319 N 
ATOM     55  C   UNL     1      32.890  23.628  28.757  1.00  0.00     0.407 C 
ATOM     56  H   UNL     1      32.736  22.669  30.646  1.00  0.00     0.167 HD
ATOM     57  O   UNL     1      33.648  23.808  27.743  1.00  0.00    -0.225 OA
BRANCH  55  58
ATOM     58  O   UNL     1      31.660  24.217  28.833  1.00  0.00    -0.443 OA
BRANCH  58  59
ATOM     59  C   UNL     1      31.403  25.346  29.627  1.00  0.00     0.294 C 
BRANCH  59  60
ATOM     60  C   UNL     1      29.947  25.598  29.720  1.00  0.00     0.120 A 
ATOM     61  C   UNL     1      29.216  26.713  29.330  1.00  0.00     0.138 A 
ATOM     62  N   UNL     1      29.024  24.755  30.212  1.00  0.00    -0.132 NA
ATOM     63  N   UNL     1      27.913  26.526  29.588  1.00  0.00    -0.248 N 
ATOM     64  N   UNL     1      27.830  25.308  30.131  1.00  0.00    -0.067 NA
BRANCH  63  65
ATOM     65  C   UNL     1      26.771  27.416  29.355  1.00  0.00     0.185 C 
BRANCH  65  66
ATOM     66  C   UNL     1      26.337  27.225  27.953  1.00  0.00     0.018 A 
ATOM     67  C   UNL     1      26.711  28.159  27.006  1.00  0.00     0.025 A 
ATOM     68  C   UNL     1      25.566  26.139  27.554  1.00  0.00     0.134 A 
ATOM     69  C   UNL     1      26.342  28.041  25.675  1.00  0.00     0.019 A 
ATOM     70  C   UNL     1      25.180  25.994  26.231  1.00  0.00     0.061 A 
ATOM     71  Br  UNL     1      26.881  29.353  24.405  1.00  0.00    -0.051 Br
ATOM     72  C   UNL     1      25.580  26.959  25.306  1.00  0.00     0.035 A 
ATOM     73  Br  UNL     1      24.135  24.509  25.714  1.00  0.00    -0.047 Br
BRANCH  68  74
ATOM     74  O   UNL     1      25.224  25.243  28.547  1.00  0.00    -0.506 OA
ATOM     75  H   UNL     1      24.323  24.795  28.521  1.00  0.00     0.293 HD
ENDBRANCH  68  74
ENDBRANCH  65  66
ENDBRANCH  63  65
ENDBRANCH  59  60
ENDBRANCH  58  59
ENDBRANCH  55  58
ENDBRANCH  53  54
ENDBRANCH  50  53
ENDBRANCH  47  50
ENDBRANCH   5  47
BRANCH   4  76
ATOM     76  N   UNL     1      33.594  16.849  30.166  1.00  0.00    -0.348 N 
ATOM     77  C   UNL     1      33.285  17.202  31.505  1.00  0.00     0.217 C 
ATOM     78  H   UNL     1      34.198  16.009  30.008  1.00  0.00     0.163 HD
ATOM     79  C   UNL     1      33.826  16.363  32.620  1.00  0.00     0.114 C 
ATOM     80  O   UNL     1      32.553  18.221  31.743  1.00  0.00    -0.275 OA
ENDBRANCH   4  76
TORSDOF 32
