REMARK VINA RESULT:    -5.448     12.924     18.914
REMARK INTER + INTRA:         -21.356
REMARK INTER:                 -15.419
REMARK INTRA:                  -5.937
REMARK UNBOUND:                -7.468
REMARK SMILES CC(=O)N[C@@H]1[C@@H](O)C[C@](OC[C@H]2O[C@@H](O[C@H]3[C@H](O)[C@@H](O)[C@H](OCCN=[N+]=[N-])O[C@@H]3CO)[C@H](O)[C@@H](O)[C@H]2O)(C(=O)O)O[C@H]1C(O)[C@H](O)CNC(=O)OCc1cn(CC(=O)O)nn1
REMARK SMILES IDX 9 1 8 2 6 3 5 4 42 5 41 6 10 7 11 8 12 9 14 10 13 11 32 12
REMARK SMILES IDX 34 13 36 14 15 15 16 16 29 17 28 18 21 19 17 20 19 21 30 22
REMARK SMILES IDX 31 23 22 25 23 26 24 27 25 28 26 29 27 30 18 31 20 33 33 35
REMARK SMILES IDX 35 37 37 39 38 41 39 42 40 43 7 45 43 47 44 48 45 50 46 51
REMARK SMILES IDX 47 53 48 54 49 55 50 57 51 58 52 59 53 60 54 61 61 62 55 63
REMARK SMILES IDX 60 64 56 65 57 66 58 67 59 68 4 70 2 71 1 73 3 74
REMARK H PARENT 31 24 18 32 20 34 33 36 35 38 37 40 40 44 7 46 44 49 46 52
REMARK H PARENT 48 56 59 69 4 72
REMARK Flexibility Score: inf
ROOT
ATOM      1  C   UNL     1      19.730  28.689  19.593  1.00  0.00     0.272 C 
ATOM      2  C   UNL     1      20.157  29.998  20.195  1.00  0.00     0.113 C 
ATOM      3  C   UNL     1      19.359  30.499  21.324  1.00  0.00     0.145 C 
ATOM      4  C   UNL     1      17.982  29.871  21.505  1.00  0.00     0.142 C 
ATOM      5  C   UNL     1      17.592  29.323  20.167  1.00  0.00     0.178 C 
ATOM      6  O   UNL     1      18.506  28.250  19.992  1.00  0.00    -0.332 OA
ENDROOT
BRANCH   1   7
ATOM      7  O   UNL     1      20.674  27.669  19.844  1.00  0.00    -0.338 OA
BRANCH   7   8
ATOM      8  C   UNL     1      21.966  28.090  19.913  1.00  0.00     0.199 C 
BRANCH   8   9
ATOM      9  C   UNL     1      22.559  27.700  21.277  1.00  0.00     0.179 C 
ATOM     10  C   UNL     1      21.659  26.526  23.047  1.00  0.00     0.282 C 
ATOM     11  O   UNL     1      21.631  27.737  22.286  1.00  0.00    -0.341 OA
ATOM     12  C   UNL     1      21.196  25.479  22.102  1.00  0.00     0.202 C 
ATOM     13  C   UNL     1      22.391  25.186  21.179  1.00  0.00     0.179 C 
ATOM     14  C   UNL     1      23.301  26.384  21.159  1.00  0.00     0.177 C 
BRANCH  10  15
ATOM     15  O   UNL     1      20.921  26.731  24.175  1.00  0.00    -0.341 OA
BRANCH  15  16
ATOM     16  C   UNL     1      21.667  26.695  25.354  1.00  0.00     0.184 C 
ATOM     17  C   UNL     1      22.499  27.942  25.423  1.00  0.00     0.178 C 
ATOM     18  O   UNL     1      23.662  27.725  26.112  1.00  0.00    -0.341 OA
ATOM     19  C   UNL     1      23.601  26.880  27.190  1.00  0.00     0.281 C 
ATOM     20  C   UNL     1      22.595  25.500  25.381  1.00  0.00     0.180 C 
ATOM     21  C   UNL     1      23.224  25.468  26.776  1.00  0.00     0.202 C 
BRANCH  17  22
ATOM     22  C   UNL     1      21.702  29.038  26.105  1.00  0.00     0.191 C 
BRANCH  22  23
ATOM     23  O   UNL     1      20.508  28.444  26.523  1.00  0.00    -0.394 OA
ATOM     24  H   UNL     1      19.987  29.060  27.084  1.00  0.00     0.210 HD
ENDBRANCH  22  23
ENDBRANCH  17  22
BRANCH  19  25
ATOM     25  O   UNL     1      22.778  27.381  28.162  1.00  0.00    -0.350 OA
BRANCH  25  26
ATOM     26  C   UNL     1      22.344  26.454  29.075  1.00  0.00     0.169 C 
BRANCH  26  27
ATOM     27  C   UNL     1      23.097  26.453  30.380  1.00  0.00     0.119 C 
BRANCH  27  28
ATOM     28  N   UNL     1      24.134  25.419  30.389  1.00  0.00    -0.092 NA
ATOM     29  N   UNL     1      25.251  25.776  29.963  1.00  0.00     0.001 N 
ATOM     30  N   UNL     1      26.305  25.671  29.307  1.00  0.00    -0.003 NA
ENDBRANCH  27  28
ENDBRANCH  26  27
ENDBRANCH  25  26
ENDBRANCH  19  25
BRANCH  20  31
ATOM     31  O   UNL     1      21.954  24.301  25.198  1.00  0.00    -0.387 OA
ATOM     32  H   UNL     1      22.488  23.592  24.807  1.00  0.00     0.211 HD
ENDBRANCH  20  31
BRANCH  21  33
ATOM     33  O   UNL     1      24.348  24.664  26.800  1.00  0.00    -0.385 OA
ATOM     34  H   UNL     1      24.254  23.920  27.450  1.00  0.00     0.211 HD
ENDBRANCH  21  33
ENDBRANCH  15  16
ENDBRANCH  10  15
BRANCH  12  35
ATOM     35  O   UNL     1      20.656  24.346  22.636  1.00  0.00    -0.385 OA
ATOM     36  H   UNL     1      20.976  23.559  22.166  1.00  0.00     0.211 HD
ENDBRANCH  12  35
BRANCH  13  37
ATOM     37  O   UNL     1      21.873  24.936  19.917  1.00  0.00    -0.387 OA
ATOM     38  H   UNL     1      20.911  24.670  19.940  1.00  0.00     0.211 HD
ENDBRANCH  13  37
BRANCH  14  39
ATOM     39  O   UNL     1      23.946  26.367  19.922  1.00  0.00    -0.387 OA
ATOM     40  H   UNL     1      24.891  26.094  19.993  1.00  0.00     0.211 HD
ENDBRANCH  14  39
ENDBRANCH   8   9
ENDBRANCH   7   8
ENDBRANCH   1   7
BRANCH   1  41
ATOM     41  C   UNL     1      19.719  28.843  18.121  1.00  0.00     0.364 C 
ATOM     42  O   UNL     1      19.299  27.942  17.371  1.00  0.00    -0.246 OA
BRANCH  41  43
ATOM     43  O   UNL     1      20.174  29.998  17.506  1.00  0.00    -0.477 OA
ATOM     44  H   UNL     1      21.169  30.173  17.316  1.00  0.00     0.296 HD
ENDBRANCH  41  43
ENDBRANCH   1  41
BRANCH   3  45
ATOM     45  O   UNL     1      20.056  30.573  22.535  1.00  0.00    -0.391 OA
ATOM     46  H   UNL     1      19.707  29.987  23.227  1.00  0.00     0.211 HD
ENDBRANCH   3  45
BRANCH   5  47
ATOM     47  C   UNL     1      16.205  28.798  20.017  1.00  0.00     0.176 C 
BRANCH  47  48
ATOM     48  O   UNL     1      16.304  27.419  20.400  1.00  0.00    -0.388 OA
ATOM     49  H   UNL     1      15.690  27.248  21.169  1.00  0.00     0.211 HD
ENDBRANCH  47  48
BRANCH  47  50
ATOM     50  C   UNL     1      15.669  28.846  18.603  1.00  0.00     0.165 C 
BRANCH  50  51
ATOM     51  O   UNL     1      16.470  28.007  17.785  1.00  0.00    -0.388 OA
ATOM     52  H   UNL     1      15.908  27.719  17.033  1.00  0.00     0.211 HD
ENDBRANCH  50  51
BRANCH  50  53
ATOM     53  C   UNL     1      15.642  30.207  18.027  1.00  0.00     0.154 C 
BRANCH  53  54
ATOM     54  N   UNL     1      14.790  31.101  18.756  1.00  0.00    -0.319 N 
ATOM     55  C   UNL     1      13.782  31.941  18.232  1.00  0.00     0.407 C 
ATOM     56  H   UNL     1      14.881  31.183  19.832  1.00  0.00     0.167 HD
ATOM     57  O   UNL     1      13.542  31.988  17.023  1.00  0.00    -0.225 OA
BRANCH  55  58
ATOM     58  O   UNL     1      13.003  32.768  19.050  1.00  0.00    -0.443 OA
BRANCH  58  59
ATOM     59  C   UNL     1      13.355  32.994  20.404  1.00  0.00     0.294 C 
BRANCH  59  60
ATOM     60  C   UNL     1      12.865  31.875  21.268  1.00  0.00     0.120 A 
ATOM     61  C   UNL     1      11.948  31.971  22.306  1.00  0.00     0.139 A 
ATOM     62  N   UNL     1      13.208  30.580  21.211  1.00  0.00    -0.132 NA
ATOM     63  N   UNL     1      11.778  30.743  22.828  1.00  0.00    -0.241 N 
ATOM     64  N   UNL     1      12.554  29.915  22.147  1.00  0.00    -0.066 NA
BRANCH  63  65
ATOM     65  C   UNL     1      10.904  30.356  23.940  1.00  0.00     0.268 C 
BRANCH  65  66
ATOM     66  C   UNL     1      11.621  29.361  24.758  1.00  0.00     0.325 C 
ATOM     67  O   UNL     1      12.701  29.652  25.293  1.00  0.00    -0.250 OA
BRANCH  66  68
ATOM     68  O   UNL     1      11.086  28.100  24.926  1.00  0.00    -0.480 OA
ATOM     69  H   UNL     1      11.634  27.266  24.897  1.00  0.00     0.296 HD
ENDBRANCH  66  68
ENDBRANCH  65  66
ENDBRANCH  63  65
ENDBRANCH  59  60
ENDBRANCH  58  59
ENDBRANCH  55  58
ENDBRANCH  53  54
ENDBRANCH  50  53
ENDBRANCH  47  50
ENDBRANCH   5  47
BRANCH   4  70
ATOM     70  N   UNL     1      17.083  30.769  22.142  1.00  0.00    -0.348 N 
ATOM     71  C   UNL     1      16.373  30.425  23.344  1.00  0.00     0.217 C 
ATOM     72  H   UNL     1      16.920  31.724  21.765  1.00  0.00     0.163 HD
ATOM     73  C   UNL     1      15.457  31.425  23.941  1.00  0.00     0.114 C 
ATOM     74  O   UNL     1      16.520  29.304  23.883  1.00  0.00    -0.275 OA
ENDBRANCH   4  70
TORSDOF 32
