REMARK VINA RESULT:    -3.954     20.778     25.166
REMARK INTER + INTRA:         -21.843
REMARK INTER:                 -13.827
REMARK INTRA:                  -8.016
REMARK UNBOUND:               -11.418
REMARK SMILES CC(=O)N[C@@H]1[C@@H](O)C[C@](OC[C@H]2O[C@@H](O[C@H]3[C@H](O)[C@@H](O)[C@H](OCCN=[N+]=[N-])O[C@@H]3CO)[C@H](O)[C@@H](O)[C@H]2O)(C(=O)O)O[C@H]1C(O)[C@H](O)CNC(=O)OCc1cn(CC(=O)NCc2cccs2)nn1
REMARK SMILES IDX 43 1 42 2 9 3 8 4 41 5 6 6 5 7 10 8 11 9 12 10 14 11 13 12
REMARK SMILES IDX 32 13 34 14 36 15 15 16 16 17 29 18 28 19 21 20 17 21 19 22
REMARK SMILES IDX 30 23 31 24 22 26 23 27 24 28 25 29 26 30 27 31 18 32 20 34
REMARK SMILES IDX 33 36 35 38 37 40 38 42 39 43 40 44 7 46 4 48 2 49 1 51 3 52
REMARK SMILES IDX 44 53 45 55 46 56 47 58 48 59 49 60 50 62 51 63 52 64 53 65
REMARK SMILES IDX 54 66 67 67 55 68 66 69 56 70 57 71 58 72 59 73 60 75 61 76
REMARK SMILES IDX 62 77 65 78 63 79 64 80
REMARK H PARENT 31 25 18 33 20 35 33 37 35 39 37 41 40 45 7 47 4 50 44 54
REMARK H PARENT 46 57 48 61 59 74
REMARK Flexibility Score: inf
ROOT
ATOM      1  C   UNL     1      29.720  23.124  19.470  1.00  0.00     0.176 C 
ENDROOT
BRANCH   1   2
ATOM      2  C   UNL     1      29.924  24.609  19.618  1.00  0.00     0.178 C 
ATOM      3  C   UNL     1      28.185  25.926  18.702  1.00  0.00     0.272 C 
ATOM      4  C   UNL     1      28.914  25.816  17.353  1.00  0.00     0.113 C 
ATOM      5  O   UNL     1      28.710  25.199  19.694  1.00  0.00    -0.332 OA
ATOM      6  C   UNL     1      30.357  26.018  17.580  1.00  0.00     0.145 C 
ATOM      7  C   UNL     1      30.929  25.219  18.721  1.00  0.00     0.142 C 
BRANCH   3   8
ATOM      8  O   UNL     1      26.899  25.531  18.417  1.00  0.00    -0.338 OA
BRANCH   8   9
ATOM      9  C   UNL     1      26.528  25.206  17.177  1.00  0.00     0.199 C 
BRANCH   9  10
ATOM     10  C   UNL     1      25.072  25.206  16.811  1.00  0.00     0.179 C 
ATOM     11  C   UNL     1      23.123  24.448  17.758  1.00  0.00     0.282 C 
ATOM     12  O   UNL     1      24.390  24.981  18.032  1.00  0.00    -0.341 OA
ATOM     13  C   UNL     1      22.444  25.179  16.648  1.00  0.00     0.202 C 
ATOM     14  C   UNL     1      23.061  26.483  16.267  1.00  0.00     0.179 C 
ATOM     15  C   UNL     1      24.552  26.549  16.345  1.00  0.00     0.177 C 
BRANCH  11  16
ATOM     16  O   UNL     1      22.323  24.391  18.865  1.00  0.00    -0.341 OA
BRANCH  16  17
ATOM     17  C   UNL     1      22.910  24.941  20.004  1.00  0.00     0.184 C 
ATOM     18  C   UNL     1      23.025  24.010  21.128  1.00  0.00     0.178 C 
ATOM     19  O   UNL     1      22.241  24.213  22.232  1.00  0.00    -0.341 OA
ATOM     20  C   UNL     1      21.241  25.128  22.149  1.00  0.00     0.281 C 
ATOM     21  C   UNL     1      22.230  26.255  20.266  1.00  0.00     0.180 C 
ATOM     22  C   UNL     1      21.885  26.459  21.720  1.00  0.00     0.202 C 
BRANCH  18  23
ATOM     23  C   UNL     1      24.470  24.008  21.668  1.00  0.00     0.191 C 
BRANCH  23  24
ATOM     24  O   UNL     1      25.387  24.383  20.710  1.00  0.00    -0.394 OA
ATOM     25  H   UNL     1      24.936  25.010  20.082  1.00  0.00     0.210 HD
ENDBRANCH  23  24
ENDBRANCH  18  23
BRANCH  20  26
ATOM     26  O   UNL     1      20.762  25.385  23.444  1.00  0.00    -0.350 OA
BRANCH  26  27
ATOM     27  C   UNL     1      21.344  24.556  24.382  1.00  0.00     0.169 C 
BRANCH  27  28
ATOM     28  C   UNL     1      22.238  25.430  25.266  1.00  0.00     0.119 C 
BRANCH  28  29
ATOM     29  N   UNL     1      23.436  24.684  25.619  1.00  0.00    -0.092 NA
ATOM     30  N   UNL     1      24.341  25.245  26.236  1.00  0.00     0.001 N 
ATOM     31  N   UNL     1      25.193  25.694  27.025  1.00  0.00    -0.003 NA
ENDBRANCH  28  29
ENDBRANCH  27  28
ENDBRANCH  26  27
ENDBRANCH  20  26
BRANCH  21  32
ATOM     32  O   UNL     1      22.940  27.348  19.761  1.00  0.00    -0.387 OA
ATOM     33  H   UNL     1      23.598  27.056  19.058  1.00  0.00     0.211 HD
ENDBRANCH  21  32
BRANCH  22  34
ATOM     34  O   UNL     1      20.977  27.495  21.810  1.00  0.00    -0.385 OA
ATOM     35  H   UNL     1      20.980  27.886  22.721  1.00  0.00     0.211 HD
ENDBRANCH  22  34
ENDBRANCH  16  17
ENDBRANCH  11  16
BRANCH  13  36
ATOM     36  O   UNL     1      22.296  24.363  15.503  1.00  0.00    -0.385 OA
ATOM     37  H   UNL     1      21.382  24.079  15.344  1.00  0.00     0.211 HD
ENDBRANCH  13  36
BRANCH  14  38
ATOM     38  O   UNL     1      22.454  27.546  16.977  1.00  0.00    -0.387 OA
ATOM     39  H   UNL     1      21.601  27.238  17.370  1.00  0.00     0.211 HD
ENDBRANCH  14  38
BRANCH  15  40
ATOM     40  O   UNL     1      24.856  27.516  17.333  1.00  0.00    -0.387 OA
ATOM     41  H   UNL     1      25.701  27.321  17.798  1.00  0.00     0.211 HD
ENDBRANCH  15  40
ENDBRANCH   9  10
ENDBRANCH   8   9
ENDBRANCH   3   8
BRANCH   3  42
ATOM     42  C   UNL     1      28.250  27.383  19.034  1.00  0.00     0.364 C 
ATOM     43  O   UNL     1      27.802  28.298  18.306  1.00  0.00    -0.246 OA
BRANCH  42  44
ATOM     44  O   UNL     1      28.838  27.779  20.229  1.00  0.00    -0.477 OA
ATOM     45  H   UNL     1      29.101  28.745  20.377  1.00  0.00     0.296 HD
ENDBRANCH  42  44
ENDBRANCH   3  42
BRANCH   6  46
ATOM     46  O   UNL     1      31.062  25.752  16.370  1.00  0.00    -0.391 OA
ATOM     47  H   UNL     1      31.704  25.018  16.486  1.00  0.00     0.211 HD
ENDBRANCH   6  46
BRANCH   7  48
ATOM     48  N   UNL     1      31.909  25.997  19.454  1.00  0.00    -0.348 N 
ATOM     49  C   UNL     1      33.258  26.009  19.043  1.00  0.00     0.217 C 
ATOM     50  H   UNL     1      31.649  26.563  20.305  1.00  0.00     0.163 HD
ATOM     51  C   UNL     1      34.252  26.815  19.811  1.00  0.00     0.114 C 
ATOM     52  O   UNL     1      33.692  25.373  18.054  1.00  0.00    -0.275 OA
ENDBRANCH   7  48
ENDBRANCH   1   2
BRANCH   1  53
ATOM     53  O   UNL     1      30.456  22.338  20.309  1.00  0.00    -0.388 OA
ATOM     54  H   UNL     1      29.994  21.988  21.100  1.00  0.00     0.211 HD
ENDBRANCH   1  53
BRANCH   1  55
ATOM     55  C   UNL     1      28.277  22.684  19.348  1.00  0.00     0.165 C 
BRANCH  55  56
ATOM     56  O   UNL     1      27.640  22.571  20.546  1.00  0.00    -0.388 OA
ATOM     57  H   UNL     1      28.228  22.514  21.330  1.00  0.00     0.211 HD
ENDBRANCH  55  56
BRANCH  55  58
ATOM     58  C   UNL     1      28.192  21.392  18.554  1.00  0.00     0.154 C 
BRANCH  58  59
ATOM     59  N   UNL     1      28.291  20.223  19.376  1.00  0.00    -0.319 N 
ATOM     60  C   UNL     1      29.422  19.383  19.530  1.00  0.00     0.407 C 
ATOM     61  H   UNL     1      27.446  19.895  19.967  1.00  0.00     0.167 HD
ATOM     62  O   UNL     1      30.482  19.598  18.944  1.00  0.00    -0.225 OA
BRANCH  60  63
ATOM     63  O   UNL     1      29.383  18.250  20.368  1.00  0.00    -0.443 OA
BRANCH  63  64
ATOM     64  C   UNL     1      29.161  18.278  21.740  1.00  0.00     0.294 C 
BRANCH  64  65
ATOM     65  C   UNL     1      29.502  19.548  22.395  1.00  0.00     0.120 A 
ATOM     66  C   UNL     1      30.643  19.833  23.112  1.00  0.00     0.138 A 
ATOM     67  N   UNL     1      28.758  20.686  22.413  1.00  0.00    -0.132 NA
ATOM     68  N   UNL     1      30.573  21.100  23.540  1.00  0.00    -0.243 N 
ATOM     69  N   UNL     1      29.433  21.580  23.103  1.00  0.00    -0.067 NA
BRANCH  68  70
ATOM     70  C   UNL     1      31.506  21.881  24.323  1.00  0.00     0.245 C 
BRANCH  70  71
ATOM     71  C   UNL     1      31.594  21.290  25.671  1.00  0.00     0.242 C 
ATOM     72  O   UNL     1      30.581  21.205  26.387  1.00  0.00    -0.273 OA
ATOM     73  N   UNL     1      32.832  20.813  26.165  1.00  0.00    -0.350 N 
ATOM     74  H   UNL     1      33.718  20.867  25.588  1.00  0.00     0.163 HD
BRANCH  73  75
ATOM     75  C   UNL     1      32.960  20.231  27.466  1.00  0.00     0.162 C 
BRANCH  75  76
ATOM     76  C   UNL     1      32.651  18.796  27.388  1.00  0.00     0.024 A 
ATOM     77  C   UNL     1      31.750  18.031  28.054  1.00  0.00     0.017 A 
ATOM     78  S   UNL     1      33.443  17.653  26.313  1.00  0.00    -0.147 S 
ATOM     79  C   UNL     1      31.669  16.720  27.780  1.00  0.00     0.012 A 
ATOM     80  C   UNL     1      32.475  16.172  26.853  1.00  0.00     0.065 A 
ENDBRANCH  75  76
ENDBRANCH  73  75
ENDBRANCH  70  71
ENDBRANCH  68  70
ENDBRANCH  64  65
ENDBRANCH  63  64
ENDBRANCH  60  63
ENDBRANCH  58  59
ENDBRANCH  55  58
ENDBRANCH   1  55
TORSDOF 33
