REMARK VINA RESULT:    -5.476     11.289     18.192
REMARK INTER + INTRA:         -20.249
REMARK INTER:                 -14.813
REMARK INTRA:                  -5.436
REMARK UNBOUND:                -6.769
REMARK SMILES CC(=O)N[C@@H]1[C@@H](O)C[C@](OC[C@H]2O[C@@H](O[C@H]3[C@H](O)[C@@H](O)[C@H](OCCN=[N+]=[N-])O[C@@H]3CO)[C@H](O)[C@@H](O)[C@H]2O)(C(=O)O)O[C@H]1C(O)[C@H](O)CNC(=O)OCc1cn(-c2cccnc2)nn1
REMARK SMILES IDX 9 1 8 2 6 3 5 4 42 5 41 6 10 7 11 8 12 9 14 10 13 11 32 12
REMARK SMILES IDX 34 13 36 14 15 15 16 16 29 17 28 18 21 19 17 20 19 21 30 22
REMARK SMILES IDX 31 23 22 25 23 26 24 27 25 28 26 29 27 30 18 31 20 33 33 35
REMARK SMILES IDX 35 37 37 39 38 41 39 42 40 43 7 45 43 47 44 48 45 50 46 51
REMARK SMILES IDX 47 53 48 54 49 55 50 57 51 58 52 59 53 60 54 61 63 62 55 63
REMARK SMILES IDX 62 64 56 65 57 66 61 67 58 68 60 69 59 70 4 71 2 72 1 74
REMARK SMILES IDX 3 75
REMARK H PARENT 31 24 18 32 20 34 33 36 35 38 37 40 40 44 7 46 44 49 46 52
REMARK H PARENT 48 56 4 73
REMARK Flexibility Score: inf
ROOT
ATOM      1  C   UNL     1       3.413  23.382  33.742  1.00  0.00     0.272 C 
ATOM      2  C   UNL     1       4.687  22.803  33.274  1.00  0.00     0.113 C 
ATOM      3  C   UNL     1       4.511  21.441  32.699  1.00  0.00     0.145 C 
ATOM      4  C   UNL     1       3.269  21.282  31.858  1.00  0.00     0.142 C 
ATOM      5  C   UNL     1       2.459  22.524  31.758  1.00  0.00     0.178 C 
ATOM      6  O   UNL     1       2.281  23.159  32.979  1.00  0.00    -0.332 OA
ENDROOT
BRANCH   1   7
ATOM      7  O   UNL     1       3.476  24.768  33.870  1.00  0.00    -0.338 OA
BRANCH   7   8
ATOM      8  C   UNL     1       4.710  25.321  33.993  1.00  0.00     0.199 C 
BRANCH   8   9
ATOM      9  C   UNL     1       4.520  26.850  33.994  1.00  0.00     0.179 C 
ATOM     10  C   UNL     1       6.676  27.372  34.744  1.00  0.00     0.282 C 
ATOM     11  O   UNL     1       5.310  27.419  34.916  1.00  0.00    -0.341 OA
ATOM     12  C   UNL     1       7.031  27.646  33.323  1.00  0.00     0.202 C 
ATOM     13  C   UNL     1       5.847  28.389  32.686  1.00  0.00     0.179 C 
ATOM     14  C   UNL     1       4.675  27.424  32.596  1.00  0.00     0.177 C 
BRANCH  10  15
ATOM     15  O   UNL     1       7.088  26.126  35.211  1.00  0.00    -0.341 OA
BRANCH  15  16
ATOM     16  C   UNL     1       8.393  25.838  34.978  1.00  0.00     0.184 C 
ATOM     17  C   UNL     1       8.728  24.386  34.822  1.00  0.00     0.178 C 
ATOM     18  O   UNL     1       9.892  24.309  34.056  1.00  0.00    -0.341 OA
ATOM     19  C   UNL     1      10.871  25.221  34.436  1.00  0.00     0.281 C 
ATOM     20  C   UNL     1       9.327  26.326  36.081  1.00  0.00     0.180 C 
ATOM     21  C   UNL     1      10.713  25.703  35.859  1.00  0.00     0.202 C 
BRANCH  17  22
ATOM     22  C   UNL     1       7.682  23.524  34.219  1.00  0.00     0.191 C 
BRANCH  22  23
ATOM     23  O   UNL     1       8.203  22.460  33.530  1.00  0.00    -0.394 OA
ATOM     24  H   UNL     1       8.592  22.807  32.688  1.00  0.00     0.210 HD
ENDBRANCH  22  23
ENDBRANCH  17  22
BRANCH  19  25
ATOM     25  O   UNL     1      10.964  26.301  33.606  1.00  0.00    -0.350 OA
BRANCH  25  26
ATOM     26  C   UNL     1      11.937  27.215  33.795  1.00  0.00     0.169 C 
BRANCH  26  27
ATOM     27  C   UNL     1      11.786  28.556  33.165  1.00  0.00     0.119 C 
BRANCH  27  28
ATOM     28  N   UNL     1      10.813  29.427  33.726  1.00  0.00    -0.092 NA
ATOM     29  N   UNL     1      11.044  30.145  34.721  1.00  0.00     0.001 N 
ATOM     30  N   UNL     1      11.170  30.371  35.936  1.00  0.00    -0.003 NA
ENDBRANCH  27  28
ENDBRANCH  26  27
ENDBRANCH  25  26
ENDBRANCH  19  25
BRANCH  20  31
ATOM     31  O   UNL     1       9.480  27.701  35.978  1.00  0.00    -0.387 OA
ATOM     32  H   UNL     1       9.288  28.043  35.066  1.00  0.00     0.211 HD
ENDBRANCH  20  31
BRANCH  21  33
ATOM     33  O   UNL     1      10.962  24.668  36.758  1.00  0.00    -0.385 OA
ATOM     34  H   UNL     1      10.913  25.037  37.674  1.00  0.00     0.211 HD
ENDBRANCH  21  33
ENDBRANCH  15  16
ENDBRANCH  10  15
BRANCH  12  35
ATOM     35  O   UNL     1       8.079  28.585  33.273  1.00  0.00    -0.385 OA
ATOM     36  H   UNL     1       8.921  28.127  33.579  1.00  0.00     0.211 HD
ENDBRANCH  12  35
BRANCH  13  37
ATOM     37  O   UNL     1       6.162  28.955  31.478  1.00  0.00    -0.387 OA
ATOM     38  H   UNL     1       5.907  28.344  30.743  1.00  0.00     0.211 HD
ENDBRANCH  13  37
BRANCH  14  39
ATOM     39  O   UNL     1       4.889  26.458  31.634  1.00  0.00    -0.387 OA
ATOM     40  H   UNL     1       5.840  26.175  31.700  1.00  0.00     0.211 HD
ENDBRANCH  14  39
ENDBRANCH   8   9
ENDBRANCH   7   8
ENDBRANCH   1   7
BRANCH   1  41
ATOM     41  C   UNL     1       3.164  22.830  35.131  1.00  0.00     0.364 C 
ATOM     42  O   UNL     1       4.087  22.877  35.961  1.00  0.00    -0.246 OA
BRANCH  41  43
ATOM     43  O   UNL     1       1.965  22.280  35.512  1.00  0.00    -0.477 OA
ATOM     44  H   UNL     1       1.519  22.415  36.411  1.00  0.00     0.296 HD
ENDBRANCH  41  43
ENDBRANCH   1  41
BRANCH   3  45
ATOM     45  O   UNL     1       5.663  21.189  31.919  1.00  0.00    -0.391 OA
ATOM     46  H   UNL     1       6.063  22.009  31.574  1.00  0.00     0.211 HD
ENDBRANCH   3  45
BRANCH   5  47
ATOM     47  C   UNL     1       2.860  23.476  30.681  1.00  0.00     0.176 C 
BRANCH  47  48
ATOM     48  O   UNL     1       2.501  24.781  31.107  1.00  0.00    -0.388 OA
ATOM     49  H   UNL     1       1.986  24.704  31.957  1.00  0.00     0.211 HD
ENDBRANCH  47  48
BRANCH  47  50
ATOM     50  C   UNL     1       2.218  23.292  29.342  1.00  0.00     0.165 C 
BRANCH  50  51
ATOM     51  O   UNL     1       3.238  22.530  28.626  1.00  0.00    -0.388 OA
ATOM     52  H   UNL     1       4.041  23.104  28.658  1.00  0.00     0.211 HD
ENDBRANCH  50  51
BRANCH  50  53
ATOM     53  C   UNL     1       2.100  24.523  28.503  1.00  0.00     0.154 C 
BRANCH  53  54
ATOM     54  N   UNL     1       3.234  24.882  27.714  1.00  0.00    -0.319 N 
ATOM     55  C   UNL     1       3.936  26.097  28.058  1.00  0.00     0.407 C 
ATOM     56  H   UNL     1       3.622  24.362  26.934  1.00  0.00     0.167 HD
ATOM     57  O   UNL     1       3.516  26.763  29.026  1.00  0.00    -0.225 OA
BRANCH  55  58
ATOM     58  O   UNL     1       5.033  26.520  27.351  1.00  0.00    -0.443 OA
BRANCH  58  59
ATOM     59  C   UNL     1       5.032  26.458  25.946  1.00  0.00     0.294 C 
BRANCH  59  60
ATOM     60  C   UNL     1       6.367  26.851  25.449  1.00  0.00     0.121 A 
ATOM     61  C   UNL     1       6.936  28.101  25.374  1.00  0.00     0.144 A 
ATOM     62  N   UNL     1       7.316  26.001  24.954  1.00  0.00    -0.131 NA
ATOM     63  N   UNL     1       8.171  27.995  24.857  1.00  0.00    -0.219 N 
ATOM     64  N   UNL     1       8.370  26.712  24.613  1.00  0.00    -0.062 NA
BRANCH  63  65
ATOM     65  C   UNL     1       9.156  28.986  24.584  1.00  0.00     0.085 A 
ATOM     66  C   UNL     1      10.508  28.715  24.599  1.00  0.00     0.031 A 
ATOM     67  C   UNL     1       8.793  30.287  24.293  1.00  0.00     0.139 A 
ATOM     68  C   UNL     1      11.443  29.692  24.338  1.00  0.00     0.022 A 
ATOM     69  N   UNL     1       9.723  31.241  24.039  1.00  0.00    -0.262 NA
ATOM     70  C   UNL     1      11.042  30.978  24.054  1.00  0.00     0.111 A 
ENDBRANCH  63  65
ENDBRANCH  59  60
ENDBRANCH  58  59
ENDBRANCH  55  58
ENDBRANCH  53  54
ENDBRANCH  50  53
ENDBRANCH  47  50
ENDBRANCH   5  47
BRANCH   4  71
ATOM     71  N   UNL     1       2.442  20.190  32.363  1.00  0.00    -0.348 N 
ATOM     72  C   UNL     1       2.283  18.947  31.704  1.00  0.00     0.217 C 
ATOM     73  H   UNL     1       1.916  20.299  33.273  1.00  0.00     0.163 HD
ATOM     74  C   UNL     1       1.418  17.860  32.259  1.00  0.00     0.114 C 
ATOM     75  O   UNL     1       2.878  18.728  30.614  1.00  0.00    -0.275 OA
ENDBRANCH   4  71
TORSDOF 30
