REMARK VINA RESULT:    -6.040      0.000      0.000
REMARK INTER + INTRA:         -23.289
REMARK INTER:                 -15.376
REMARK INTRA:                  -7.913
REMARK UNBOUND:                -7.010
REMARK SMILES CC(=O)N[C@@H]1[C@@H](O)C[C@](OC[C@H]2O[C@@H](O[C@H]3[C@H](O)[C@@H](O)[C@H](OCCN=[N+]=[N-])O[C@@H]3CO)[C@H](O)[C@@H](O)[C@H]2O)(C(=O)O)O[C@H]1C(O)[C@H](O)CNC(=O)OCc1cn([C@@H](CC(=O)O)C(=O)O)nn1
REMARK SMILES IDX 43 1 42 2 9 3 8 4 41 5 6 6 5 7 10 8 11 9 12 10 14 11 13 12
REMARK SMILES IDX 32 13 34 14 36 15 15 16 16 17 29 18 28 19 21 20 17 21 19 22
REMARK SMILES IDX 30 23 31 24 22 26 23 27 24 28 25 29 26 30 27 31 18 32 20 34
REMARK SMILES IDX 33 36 35 38 37 40 38 42 39 43 40 44 7 46 4 48 2 49 1 51 3 52
REMARK SMILES IDX 44 53 45 55 46 56 47 58 48 59 49 60 50 62 51 63 52 64 53 65
REMARK SMILES IDX 54 66 65 67 55 68 64 69 56 70 57 71 58 72 59 73 60 74 61 76
REMARK SMILES IDX 62 77 63 78
REMARK H PARENT 31 25 18 33 20 35 33 37 35 39 37 41 40 45 7 47 4 50 44 54
REMARK H PARENT 46 57 48 61 60 75 63 79
REMARK Flexibility Score: inf
ROOT
ATOM      1  C   UNL     1      14.646  29.173  20.678  1.00  0.00     0.176 C 
ENDROOT
BRANCH   1   2
ATOM      2  C   UNL     1      15.295  30.212  21.575  1.00  0.00     0.178 C 
ATOM      3  C   UNL     1      17.419  30.969  22.241  1.00  0.00     0.272 C 
ATOM      4  C   UNL     1      16.483  31.535  23.318  1.00  0.00     0.113 C 
ATOM      5  O   UNL     1      16.642  30.031  21.524  1.00  0.00    -0.332 OA
ATOM      6  C   UNL     1      15.793  30.324  23.929  1.00  0.00     0.145 C 
ATOM      7  C   UNL     1      14.652  30.036  22.939  1.00  0.00     0.142 C 
BRANCH   3   8
ATOM      8  O   UNL     1      18.442  30.452  22.744  1.00  0.00    -0.338 OA
BRANCH   8   9
ATOM      9  C   UNL     1      19.462  29.933  23.233  1.00  0.00     0.199 C 
BRANCH   9  10
ATOM     10  C   UNL     1      20.333  30.800  24.143  1.00  0.00     0.179 C 
ATOM     11  C   UNL     1      22.324  29.647  24.183  1.00  0.00     0.282 C 
ATOM     12  O   UNL     1      21.256  30.137  24.877  1.00  0.00    -0.341 OA
ATOM     13  C   UNL     1      23.032  30.686  23.405  1.00  0.00     0.202 C 
ATOM     14  C   UNL     1      22.422  32.030  23.834  1.00  0.00     0.179 C 
ATOM     15  C   UNL     1      20.970  31.951  23.400  1.00  0.00     0.177 C 
BRANCH  11  16
ATOM     16  O   UNL     1      22.131  28.426  23.555  1.00  0.00    -0.341 OA
BRANCH  16  17
ATOM     17  C   UNL     1      22.351  27.342  24.374  1.00  0.00     0.184 C 
ATOM     18  C   UNL     1      23.277  26.354  23.761  1.00  0.00     0.178 C 
ATOM     19  O   UNL     1      23.533  25.295  24.624  1.00  0.00    -0.341 OA
ATOM     20  C   UNL     1      22.424  24.896  25.377  1.00  0.00     0.281 C 
ATOM     21  C   UNL     1      20.985  26.696  24.590  1.00  0.00     0.180 C 
ATOM     22  C   UNL     1      21.140  25.209  24.614  1.00  0.00     0.202 C 
BRANCH  18  23
ATOM     23  C   UNL     1      24.621  27.050  23.557  1.00  0.00     0.191 C 
BRANCH  23  24
ATOM     24  O   UNL     1      24.585  27.741  22.328  1.00  0.00    -0.394 OA
ATOM     25  H   UNL     1      25.506  27.625  21.948  1.00  0.00     0.210 HD
ENDBRANCH  23  24
ENDBRANCH  18  23
BRANCH  20  26
ATOM     26  O   UNL     1      22.415  25.653  26.534  1.00  0.00    -0.350 OA
BRANCH  26  27
ATOM     27  C   UNL     1      22.730  25.010  27.691  1.00  0.00     0.169 C 
BRANCH  27  28
ATOM     28  C   UNL     1      22.256  25.786  28.882  1.00  0.00     0.119 C 
BRANCH  28  29
ATOM     29  N   UNL     1      23.426  26.377  29.535  1.00  0.00    -0.092 NA
ATOM     30  N   UNL     1      24.299  25.599  29.969  1.00  0.00     0.001 N 
ATOM     31  N   UNL     1      25.085  25.132  30.815  1.00  0.00    -0.003 NA
ENDBRANCH  28  29
ENDBRANCH  27  28
ENDBRANCH  26  27
ENDBRANCH  20  26
BRANCH  21  32
ATOM     32  O   UNL     1      20.444  27.132  25.793  1.00  0.00    -0.387 OA
ATOM     33  H   UNL     1      19.847  26.427  26.179  1.00  0.00     0.211 HD
ENDBRANCH  21  32
BRANCH  22  34
ATOM     34  O   UNL     1      21.164  24.620  23.348  1.00  0.00    -0.385 OA
ATOM     35  H   UNL     1      21.846  25.157  22.834  1.00  0.00     0.211 HD
ENDBRANCH  22  34
ENDBRANCH  16  17
ENDBRANCH  11  16
BRANCH  13  36
ATOM     36  O   UNL     1      24.393  30.785  23.705  1.00  0.00    -0.385 OA
ATOM     37  H   UNL     1      24.467  31.212  24.608  1.00  0.00     0.211 HD
ENDBRANCH  13  36
BRANCH  14  38
ATOM     38  O   UNL     1      23.064  33.110  23.280  1.00  0.00    -0.387 OA
ATOM     39  H   UNL     1      22.890  33.952  23.787  1.00  0.00     0.211 HD
ENDBRANCH  14  38
BRANCH  15  40
ATOM     40  O   UNL     1      20.912  31.793  22.034  1.00  0.00    -0.387 OA
ATOM     41  H   UNL     1      21.726  31.445  21.632  1.00  0.00     0.211 HD
ENDBRANCH  15  40
ENDBRANCH   9  10
ENDBRANCH   8   9
ENDBRANCH   3   8
BRANCH   3  42
ATOM     42  C   UNL     1      17.653  32.157  21.311  1.00  0.00     0.364 C 
ATOM     43  O   UNL     1      17.065  33.228  21.520  1.00  0.00    -0.246 OA
BRANCH  42  44
ATOM     44  O   UNL     1      18.512  32.063  20.233  1.00  0.00    -0.477 OA
ATOM     45  H   UNL     1      18.347  32.566  19.351  1.00  0.00     0.296 HD
ENDBRANCH  42  44
ENDBRANCH   3  42
BRANCH   6  46
ATOM     46  O   UNL     1      16.621  29.187  23.801  1.00  0.00    -0.391 OA
ATOM     47  H   UNL     1      16.167  28.362  24.043  1.00  0.00     0.211 HD
ENDBRANCH   6  46
BRANCH   7  48
ATOM     48  N   UNL     1      13.625  31.011  23.220  1.00  0.00    -0.348 N 
ATOM     49  C   UNL     1      12.470  30.638  23.975  1.00  0.00     0.217 C 
ATOM     50  H   UNL     1      13.677  32.002  22.893  1.00  0.00     0.163 HD
ATOM     51  C   UNL     1      11.437  31.698  24.231  1.00  0.00     0.114 C 
ATOM     52  O   UNL     1      12.311  29.469  24.415  1.00  0.00    -0.275 OA
ENDBRANCH   7  48
ENDBRANCH   1   2
BRANCH   1  53
ATOM     53  O   UNL     1      13.799  28.334  21.393  1.00  0.00    -0.388 OA
ATOM     54  H   UNL     1      12.964  28.803  21.678  1.00  0.00     0.211 HD
ENDBRANCH   1  53
BRANCH   1  55
ATOM     55  C   UNL     1      15.570  28.387  19.827  1.00  0.00     0.165 C 
BRANCH  55  56
ATOM     56  O   UNL     1      16.515  27.634  20.487  1.00  0.00    -0.388 OA
ATOM     57  H   UNL     1      16.237  27.325  21.390  1.00  0.00     0.211 HD
ENDBRANCH  55  56
BRANCH  55  58
ATOM     58  C   UNL     1      16.115  29.207  18.707  1.00  0.00     0.154 C 
BRANCH  58  59
ATOM     59  N   UNL     1      17.477  29.622  18.829  1.00  0.00    -0.319 N 
ATOM     60  C   UNL     1      18.509  28.777  18.355  1.00  0.00     0.407 C 
ATOM     61  H   UNL     1      17.727  30.527  19.251  1.00  0.00     0.167 HD
ATOM     62  O   UNL     1      18.171  27.666  17.817  1.00  0.00    -0.225 OA
BRANCH  60  63
ATOM     63  O   UNL     1      19.867  29.033  18.422  1.00  0.00    -0.443 OA
BRANCH  63  64
ATOM     64  C   UNL     1      20.503  29.159  19.704  1.00  0.00     0.294 C 
BRANCH  64  65
ATOM     65  C   UNL     1      21.171  27.877  20.028  1.00  0.00     0.120 A 
ATOM     66  C   UNL     1      22.339  27.337  19.538  1.00  0.00     0.139 A 
ATOM     67  N   UNL     1      20.700  26.937  20.914  1.00  0.00    -0.132 NA
ATOM     68  N   UNL     1      22.541  26.119  20.121  1.00  0.00    -0.237 N 
ATOM     69  N   UNL     1      21.537  25.935  20.928  1.00  0.00    -0.066 NA
BRANCH  68  70
ATOM     70  C   UNL     1      23.644  25.220  19.869  1.00  0.00     0.229 C 
BRANCH  70  71
ATOM     71  C   UNL     1      23.662  24.175  20.970  1.00  0.00     0.161 C 
BRANCH  71  72
ATOM     72  C   UNL     1      25.014  24.004  21.534  1.00  0.00     0.306 C 
ATOM     73  O   UNL     1      26.039  24.287  20.863  1.00  0.00    -0.252 OA
BRANCH  72  74
ATOM     74  O   UNL     1      25.180  23.526  22.816  1.00  0.00    -0.481 OA
ATOM     75  H   UNL     1      24.877  22.568  23.027  1.00  0.00     0.296 HD
ENDBRANCH  72  74
ENDBRANCH  71  72
ENDBRANCH  70  71
BRANCH  70  76
ATOM     76  C   UNL     1      23.440  24.561  18.568  1.00  0.00     0.329 C 
ATOM     77  O   UNL     1      24.381  24.544  17.741  1.00  0.00    -0.250 OA
BRANCH  76  78
ATOM     78  O   UNL     1      22.245  23.951  18.206  1.00  0.00    -0.480 OA
ATOM     79  H   UNL     1      22.257  22.957  17.996  1.00  0.00     0.296 HD
ENDBRANCH  76  78
ENDBRANCH  70  76
ENDBRANCH  68  70
ENDBRANCH  64  65
ENDBRANCH  63  64
ENDBRANCH  60  63
ENDBRANCH  58  59
ENDBRANCH  55  58
ENDBRANCH   1  55
TORSDOF 35
