REMARK VINA RESULT:    -5.683      7.802     12.255
REMARK INTER + INTRA:         -23.361
REMARK INTER:                 -15.485
REMARK INTRA:                  -7.877
REMARK UNBOUND:                -7.877
REMARK SMILES CC(=O)N[C@@H]1[C@@H](O)C[C@](OC[C@H]2O[C@@H](O[C@H]3[C@H](O)[C@@H](O)[C@H](OCCN=[N+]=[N-])O[C@@H]3CO)[C@H](O)[C@@H](O)[C@H]2O)(C(=O)O)O[C@H]1C(O)[C@H](O)CNC(=O)OCc1cn(CC(O)CCc2ccccc2)nn1
REMARK SMILES IDX 43 1 42 2 9 3 8 4 41 5 6 6 5 7 10 8 11 9 12 10 14 11 13 12
REMARK SMILES IDX 32 13 34 14 36 15 15 16 16 17 29 18 28 19 21 20 17 21 19 22
REMARK SMILES IDX 30 23 31 24 22 26 23 27 24 28 25 29 26 30 27 31 18 32 20 34
REMARK SMILES IDX 33 36 35 38 37 40 38 42 39 43 40 44 7 46 4 48 2 49 1 51 3 52
REMARK SMILES IDX 44 53 45 55 46 56 47 58 48 59 49 60 50 62 51 63 52 64 53 65
REMARK SMILES IDX 54 66 68 67 55 68 67 69 56 70 57 71 58 72 59 74 60 75 61 76
REMARK SMILES IDX 62 77 66 78 63 79 65 80 64 81
REMARK H PARENT 31 25 18 33 20 35 33 37 35 39 37 41 40 45 7 47 4 50 44 54
REMARK H PARENT 46 57 48 61 58 73
REMARK Flexibility Score: inf
ROOT
ATOM      1  C   UNL     1      15.074  28.780  19.346  1.00  0.00     0.176 C 
ENDROOT
BRANCH   1   2
ATOM      2  C   UNL     1      14.317  30.059  19.753  1.00  0.00     0.178 C 
ATOM      3  C   UNL     1      13.981  32.000  18.431  1.00  0.00     0.272 C 
ATOM      4  C   UNL     1      15.322  32.456  18.906  1.00  0.00     0.113 C 
ATOM      5  O   UNL     1      13.859  30.655  18.651  1.00  0.00    -0.332 OA
ATOM      6  C   UNL     1      15.500  32.188  20.357  1.00  0.00     0.145 C 
ATOM      7  C   UNL     1      15.134  30.788  20.750  1.00  0.00     0.142 C 
BRANCH   3   8
ATOM      8  O   UNL     1      13.796  32.328  17.074  1.00  0.00    -0.338 OA
BRANCH   8   9
ATOM      9  C   UNL     1      12.651  31.907  16.497  1.00  0.00     0.199 C 
BRANCH   9  10
ATOM     10  C   UNL     1      12.933  31.138  15.185  1.00  0.00     0.179 C 
ATOM     11  C   UNL     1      14.527  30.465  13.717  1.00  0.00     0.282 C 
ATOM     12  O   UNL     1      14.205  31.291  14.764  1.00  0.00    -0.341 OA
ATOM     13  C   UNL     1      14.375  29.027  14.286  1.00  0.00     0.202 C 
ATOM     14  C   UNL     1      12.854  28.842  14.286  1.00  0.00     0.179 C 
ATOM     15  C   UNL     1      12.370  29.775  15.362  1.00  0.00     0.177 C 
BRANCH  11  16
ATOM     16  O   UNL     1      15.815  30.617  13.343  1.00  0.00    -0.341 OA
BRANCH  16  17
ATOM     17  C   UNL     1      16.796  30.703  14.304  1.00  0.00     0.184 C 
ATOM     18  C   UNL     1      17.415  32.057  14.409  1.00  0.00     0.178 C 
ATOM     19  O   UNL     1      18.763  32.141  14.257  1.00  0.00    -0.341 OA
ATOM     20  C   UNL     1      19.527  31.084  14.652  1.00  0.00     0.281 C 
ATOM     21  C   UNL     1      17.737  29.555  14.077  1.00  0.00     0.180 C 
ATOM     22  C   UNL     1      19.152  29.903  13.790  1.00  0.00     0.202 C 
BRANCH  18  23
ATOM     23  C   UNL     1      17.068  32.660  15.753  1.00  0.00     0.191 C 
BRANCH  23  24
ATOM     24  O   UNL     1      18.050  33.552  16.180  1.00  0.00    -0.394 OA
ATOM     25  H   UNL     1      17.696  34.468  15.970  1.00  0.00     0.210 HD
ENDBRANCH  23  24
ENDBRANCH  18  23
BRANCH  20  26
ATOM     26  O   UNL     1      19.452  30.803  16.006  1.00  0.00    -0.350 OA
BRANCH  26  27
ATOM     27  C   UNL     1      20.734  30.563  16.504  1.00  0.00     0.169 C 
BRANCH  27  28
ATOM     28  C   UNL     1      21.006  31.640  17.553  1.00  0.00     0.119 C 
BRANCH  28  29
ATOM     29  N   UNL     1      19.783  32.132  18.126  1.00  0.00    -0.092 NA
ATOM     30  N   UNL     1      19.822  32.729  19.222  1.00  0.00     0.001 N 
ATOM     31  N   UNL     1      19.831  33.056  20.424  1.00  0.00    -0.003 NA
ENDBRANCH  28  29
ENDBRANCH  27  28
ENDBRANCH  26  27
ENDBRANCH  20  26
BRANCH  21  32
ATOM     32  O   UNL     1      17.772  28.693  15.206  1.00  0.00    -0.387 OA
ATOM     33  H   UNL     1      18.507  28.041  15.149  1.00  0.00     0.211 HD
ENDBRANCH  21  32
BRANCH  22  34
ATOM     34  O   UNL     1      19.314  30.285  12.455  1.00  0.00    -0.385 OA
ATOM     35  H   UNL     1      19.690  31.184  12.367  1.00  0.00     0.211 HD
ENDBRANCH  22  34
ENDBRANCH  16  17
ENDBRANCH  11  16
BRANCH  13  36
ATOM     36  O   UNL     1      15.041  28.086  13.574  1.00  0.00    -0.385 OA
ATOM     37  H   UNL     1      15.857  28.350  13.117  1.00  0.00     0.211 HD
ENDBRANCH  13  36
BRANCH  14  38
ATOM     38  O   UNL     1      12.511  27.517  14.540  1.00  0.00    -0.387 OA
ATOM     39  H   UNL     1      12.457  27.356  15.509  1.00  0.00     0.211 HD
ENDBRANCH  14  38
BRANCH  15  40
ATOM     40  O   UNL     1      12.802  29.232  16.576  1.00  0.00    -0.387 OA
ATOM     41  H   UNL     1      12.885  29.926  17.270  1.00  0.00     0.211 HD
ENDBRANCH  15  40
ENDBRANCH   9  10
ENDBRANCH   8   9
ENDBRANCH   3   8
BRANCH   3  42
ATOM     42  C   UNL     1      12.932  32.793  19.119  1.00  0.00     0.364 C 
ATOM     43  O   UNL     1      12.933  34.049  18.986  1.00  0.00    -0.246 OA
BRANCH  42  44
ATOM     44  O   UNL     1      11.954  32.236  19.895  1.00  0.00    -0.477 OA
ATOM     45  H   UNL     1      11.593  31.322  19.666  1.00  0.00     0.296 HD
ENDBRANCH  42  44
ENDBRANCH   3  42
BRANCH   6  46
ATOM     46  O   UNL     1      16.868  32.464  20.631  1.00  0.00    -0.391 OA
ATOM     47  H   UNL     1      17.432  31.674  20.514  1.00  0.00     0.211 HD
ENDBRANCH   6  46
BRANCH   7  48
ATOM     48  N   UNL     1      14.588  30.699  22.081  1.00  0.00    -0.348 N 
ATOM     49  C   UNL     1      15.216  30.001  23.148  1.00  0.00     0.217 C 
ATOM     50  H   UNL     1      13.660  31.164  22.314  1.00  0.00     0.163 HD
ATOM     51  C   UNL     1      14.556  29.987  24.471  1.00  0.00     0.114 C 
ATOM     52  O   UNL     1      16.292  29.418  22.977  1.00  0.00    -0.275 OA
ENDBRANCH   7  48
ENDBRANCH   1   2
BRANCH   1  53
ATOM     53  O   UNL     1      15.452  28.078  20.473  1.00  0.00    -0.388 OA
ATOM     54  H   UNL     1      15.338  28.593  21.308  1.00  0.00     0.211 HD
ENDBRANCH   1  53
BRANCH   1  55
ATOM     55  C   UNL     1      16.117  28.972  18.310  1.00  0.00     0.165 C 
BRANCH  55  56
ATOM     56  O   UNL     1      15.630  28.620  17.077  1.00  0.00    -0.388 OA
ATOM     57  H   UNL     1      15.397  29.385  16.514  1.00  0.00     0.211 HD
ENDBRANCH  55  56
BRANCH  55  58
ATOM     58  C   UNL     1      17.301  28.117  18.700  1.00  0.00     0.154 C 
BRANCH  58  59
ATOM     59  N   UNL     1      18.233  28.686  19.597  1.00  0.00    -0.319 N 
ATOM     60  C   UNL     1      19.649  28.571  19.569  1.00  0.00     0.407 C 
ATOM     61  H   UNL     1      17.882  29.292  20.418  1.00  0.00     0.167 HD
ATOM     62  O   UNL     1      20.205  27.925  18.673  1.00  0.00    -0.225 OA
BRANCH  60  63
ATOM     63  O   UNL     1      20.434  29.175  20.538  1.00  0.00    -0.443 OA
BRANCH  63  64
ATOM     64  C   UNL     1      20.025  29.749  21.723  1.00  0.00     0.294 C 
BRANCH  64  65
ATOM     65  C   UNL     1      20.443  29.090  22.971  1.00  0.00     0.120 A 
ATOM     66  C   UNL     1      21.646  28.439  23.216  1.00  0.00     0.138 A 
ATOM     67  N   UNL     1      19.707  28.972  24.096  1.00  0.00    -0.132 NA
ATOM     68  N   UNL     1      21.574  27.966  24.457  1.00  0.00    -0.250 N 
ATOM     69  N   UNL     1      20.415  28.291  24.972  1.00  0.00    -0.067 NA
BRANCH  68  70
ATOM     70  C   UNL     1      22.667  27.182  25.091  1.00  0.00     0.177 C 
BRANCH  70  71
ATOM     71  C   UNL     1      22.004  26.086  25.855  1.00  0.00     0.136 C 
BRANCH  71  72
ATOM     72  O   UNL     1      22.564  25.932  27.135  1.00  0.00    -0.391 OA
ATOM     73  H   UNL     1      22.541  26.765  27.651  1.00  0.00     0.211 HD
ENDBRANCH  71  72
BRANCH  71  74
ATOM     74  C   UNL     1      21.928  24.786  25.157  1.00  0.00     0.038 C 
BRANCH  74  75
ATOM     75  C   UNL     1      21.513  24.670  23.763  1.00  0.00     0.038 C 
BRANCH  75  76
ATOM     76  C   UNL     1      22.502  24.617  22.708  1.00  0.00    -0.048 A 
ATOM     77  C   UNL     1      22.125  24.711  21.371  1.00  0.00     0.004 A 
ATOM     78  C   UNL     1      23.851  24.392  22.980  1.00  0.00     0.004 A 
ATOM     79  C   UNL     1      23.050  24.586  20.376  1.00  0.00     0.000 A 
ATOM     80  C   UNL     1      24.757  24.270  21.955  1.00  0.00     0.000 A 
ATOM     81  C   UNL     1      24.383  24.363  20.621  1.00  0.00     0.000 A 
ENDBRANCH  75  76
ENDBRANCH  74  75
ENDBRANCH  71  74
ENDBRANCH  70  71
ENDBRANCH  68  70
ENDBRANCH  64  65
ENDBRANCH  63  64
ENDBRANCH  60  63
ENDBRANCH  58  59
ENDBRANCH  55  58
ENDBRANCH   1  55
TORSDOF 35
