REMARK VINA RESULT:    -6.528      4.252     11.197
REMARK INTER + INTRA:         -25.018
REMARK INTER:                 -14.979
REMARK INTRA:                 -10.040
REMARK UNBOUND:                -7.995
REMARK SMILES CC(=O)N[C@@H]1[C@@H](O)C[C@](OC[C@H]2O[C@@H](O[C@H]3[C@H](O)[C@@H](O)[C@H](OCCN=[N+]=[N-])O[C@@H]3CO)[C@H](O)[C@@H](O)[C@H]2O)(C(=O)O)O[C@H]1C(O)[C@H](O)CNC(=O)OCc1cn(-c2ccc(-c3c4ccc(=O)cc-4oc4cc(O)ccc34)c(C(=O)[O-])c2)nn1
REMARK SMILES IDX 9 1 8 2 6 3 5 4 42 5 41 6 10 7 11 8 12 9 14 10 13 11 32 12
REMARK SMILES IDX 34 13 36 14 15 15 16 16 29 17 28 18 21 19 17 20 19 21 30 22
REMARK SMILES IDX 31 23 22 25 23 26 24 27 25 28 26 29 27 30 18 31 20 33 33 35
REMARK SMILES IDX 35 37 37 39 38 41 39 42 40 43 7 45 43 47 44 48 45 50 46 51
REMARK SMILES IDX 47 53 48 54 49 55 50 57 51 58 52 59 53 60 54 61 82 62 55 63
REMARK SMILES IDX 81 64 56 65 80 66 57 67 76 68 58 69 59 70 77 71 78 72 79 73
REMARK SMILES IDX 60 74 75 75 61 76 74 77 69 78 67 79 62 80 73 81 70 82 68 83
REMARK SMILES IDX 66 84 63 85 71 86 64 87 65 88 72 89 4 91 2 92 1 94 3 95
REMARK H PARENT 31 24 18 32 20 34 33 36 35 38 37 40 40 44 7 46 44 49 46 52
REMARK H PARENT 48 56 72 90 4 93
REMARK Flexibility Score: inf
ROOT
ATOM      1  C   UNL     1      19.657  30.641  20.407  1.00  0.00     0.272 C 
ATOM      2  C   UNL     1      18.802  31.831  20.050  1.00  0.00     0.113 C 
ATOM      3  C   UNL     1      19.321  33.125  20.610  1.00  0.00     0.145 C 
ATOM      4  C   UNL     1      20.322  32.795  21.688  1.00  0.00     0.142 C 
ATOM      5  C   UNL     1      19.721  31.687  22.510  1.00  0.00     0.178 C 
ATOM      6  O   UNL     1      19.785  30.507  21.811  1.00  0.00    -0.332 OA
ENDROOT
BRANCH   1   7
ATOM      7  O   UNL     1      20.897  30.600  19.834  1.00  0.00    -0.338 OA
BRANCH   7   8
ATOM      8  C   UNL     1      20.902  30.678  18.487  1.00  0.00     0.199 C 
BRANCH   8   9
ATOM      9  C   UNL     1      21.833  29.629  17.859  1.00  0.00     0.179 C 
ATOM     10  C   UNL     1      22.974  27.689  18.359  1.00  0.00     0.282 C 
ATOM     11  O   UNL     1      22.494  28.898  18.777  1.00  0.00    -0.341 OA
ATOM     12  C   UNL     1      23.294  27.595  16.918  1.00  0.00     0.202 C 
ATOM     13  C   UNL     1      22.168  28.072  16.032  1.00  0.00     0.179 C 
ATOM     14  C   UNL     1      21.119  28.794  16.862  1.00  0.00     0.177 C 
BRANCH  10  15
ATOM     15  O   UNL     1      22.120  26.717  18.878  1.00  0.00    -0.341 OA
BRANCH  15  16
ATOM     16  C   UNL     1      22.413  26.353  20.151  1.00  0.00     0.184 C 
ATOM     17  C   UNL     1      22.537  24.870  20.317  1.00  0.00     0.178 C 
ATOM     18  O   UNL     1      23.244  24.571  21.491  1.00  0.00    -0.341 OA
ATOM     19  C   UNL     1      22.832  25.376  22.546  1.00  0.00     0.281 C 
ATOM     20  C   UNL     1      21.321  26.760  21.158  1.00  0.00     0.180 C 
ATOM     21  C   UNL     1      21.441  25.873  22.379  1.00  0.00     0.202 C 
BRANCH  17  22
ATOM     22  C   UNL     1      23.274  24.274  19.157  1.00  0.00     0.191 C 
BRANCH  22  23
ATOM     23  O   UNL     1      22.370  24.051  18.117  1.00  0.00    -0.394 OA
ATOM     24  H   UNL     1      22.452  24.811  17.500  1.00  0.00     0.210 HD
ENDBRANCH  22  23
ENDBRANCH  17  22
BRANCH  19  25
ATOM     25  O   UNL     1      23.723  26.403  22.772  1.00  0.00    -0.350 OA
BRANCH  25  26
ATOM     26  C   UNL     1      24.012  26.624  24.112  1.00  0.00     0.169 C 
BRANCH  26  27
ATOM     27  C   UNL     1      23.595  28.053  24.410  1.00  0.00     0.119 C 
BRANCH  27  28
ATOM     28  N   UNL     1      22.610  28.118  25.456  1.00  0.00    -0.092 NA
ATOM     29  N   UNL     1      21.447  27.782  25.198  1.00  0.00     0.001 N 
ATOM     30  N   UNL     1      20.327  27.271  25.233  1.00  0.00    -0.003 NA
ENDBRANCH  27  28
ENDBRANCH  26  27
ENDBRANCH  25  26
ENDBRANCH  19  25
BRANCH  20  31
ATOM     31  O   UNL     1      21.622  28.061  21.553  1.00  0.00    -0.387 OA
ATOM     32  H   UNL     1      22.191  28.548  20.919  1.00  0.00     0.211 HD
ENDBRANCH  20  31
BRANCH  21  33
ATOM     33  O   UNL     1      20.495  24.847  22.401  1.00  0.00    -0.385 OA
ATOM     34  H   UNL     1      20.596  24.377  21.516  1.00  0.00     0.211 HD
ENDBRANCH  21  33
ENDBRANCH  15  16
ENDBRANCH  10  15
BRANCH  12  35
ATOM     35  O   UNL     1      24.468  28.335  16.622  1.00  0.00    -0.385 OA
ATOM     36  H   UNL     1      25.086  28.271  17.411  1.00  0.00     0.211 HD
ENDBRANCH  12  35
BRANCH  13  37
ATOM     37  O   UNL     1      21.635  27.054  15.259  1.00  0.00    -0.387 OA
ATOM     38  H   UNL     1      20.866  27.421  14.764  1.00  0.00     0.211 HD
ENDBRANCH  13  37
BRANCH  14  39
ATOM     39  O   UNL     1      20.275  27.834  17.404  1.00  0.00    -0.387 OA
ATOM     40  H   UNL     1      20.276  27.076  16.749  1.00  0.00     0.211 HD
ENDBRANCH  14  39
ENDBRANCH   8   9
ENDBRANCH   7   8
ENDBRANCH   1   7
BRANCH   1  41
ATOM     41  C   UNL     1      18.809  29.438  20.040  1.00  0.00     0.364 C 
ATOM     42  O   UNL     1      18.695  28.430  20.761  1.00  0.00    -0.246 OA
BRANCH  41  43
ATOM     43  O   UNL     1      18.107  29.427  18.838  1.00  0.00    -0.477 OA
ATOM     44  H   UNL     1      17.552  30.222  18.552  1.00  0.00     0.296 HD
ENDBRANCH  41  43
ENDBRANCH   1  41
BRANCH   3  45
ATOM     45  O   UNL     1      19.825  33.901  19.584  1.00  0.00    -0.391 OA
ATOM     46  H   UNL     1      20.438  33.334  19.054  1.00  0.00     0.211 HD
ENDBRANCH   3  45
BRANCH   5  47
ATOM     47  C   UNL     1      20.532  31.466  23.790  1.00  0.00     0.176 C 
BRANCH  47  48
ATOM     48  O   UNL     1      21.495  30.463  23.519  1.00  0.00    -0.388 OA
ATOM     49  H   UNL     1      21.288  29.619  23.950  1.00  0.00     0.211 HD
ENDBRANCH  47  48
BRANCH  47  50
ATOM     50  C   UNL     1      19.672  30.920  24.882  1.00  0.00     0.165 C 
BRANCH  50  51
ATOM     51  O   UNL     1      18.815  29.943  24.370  1.00  0.00    -0.388 OA
ATOM     52  H   UNL     1      17.949  30.370  24.147  1.00  0.00     0.211 HD
ENDBRANCH  50  51
BRANCH  50  53
ATOM     53  C   UNL     1      18.921  31.928  25.678  1.00  0.00     0.154 C 
BRANCH  53  54
ATOM     54  N   UNL     1      17.506  31.636  25.736  1.00  0.00    -0.319 N 
ATOM     55  C   UNL     1      16.484  32.580  25.481  1.00  0.00     0.407 C 
ATOM     56  H   UNL     1      17.154  30.661  25.980  1.00  0.00     0.167 HD
ATOM     57  O   UNL     1      16.780  33.753  25.182  1.00  0.00    -0.225 OA
BRANCH  55  58
ATOM     58  O   UNL     1      15.133  32.263  25.549  1.00  0.00    -0.443 OA
BRANCH  58  59
ATOM     59  C   UNL     1      14.662  30.912  25.491  1.00  0.00     0.294 C 
BRANCH  59  60
ATOM     60  C   UNL     1      15.115  30.378  24.182  1.00  0.00     0.121 A 
ATOM     61  C   UNL     1      14.639  30.715  22.945  1.00  0.00     0.144 A 
ATOM     62  N   UNL     1      16.093  29.453  23.964  1.00  0.00    -0.131 NA
ATOM     63  N   UNL     1      15.309  30.012  22.007  1.00  0.00    -0.220 N 
ATOM     64  N   UNL     1      16.185  29.254  22.662  1.00  0.00    -0.062 NA
BRANCH  63  65
ATOM     65  C   UNL     1      15.100  30.090  20.605  1.00  0.00     0.067 A 
ATOM     66  C   UNL     1      15.380  31.228  19.887  1.00  0.00     0.039 A 
ATOM     67  C   UNL     1      14.608  28.990  19.949  1.00  0.00     0.029 A 
ATOM     68  C   UNL     1      15.164  31.251  18.529  1.00  0.00     0.007 A 
ATOM     69  C   UNL     1      14.393  29.016  18.587  1.00  0.00     0.012 A 
ATOM     70  C   UNL     1      14.665  30.143  17.848  1.00  0.00    -0.008 A 
BRANCH  68  71
ATOM     71  C   UNL     1      15.452  32.446  17.732  1.00  0.00     0.072 C 
ATOM     72  O   UNL     1      14.585  33.327  17.519  1.00  0.00    -0.545 OA
ATOM     73  O   UNL     1      16.707  32.612  17.201  1.00  0.00    -0.545 OA
ENDBRANCH  68  71
BRANCH  70  74
ATOM     74  C   UNL     1      14.445  30.179  16.414  1.00  0.00     0.004 A 
ATOM     75  C   UNL     1      13.225  30.593  15.939  1.00  0.00     0.026 A 
ATOM     76  C   UNL     1      15.414  29.811  15.516  1.00  0.00     0.026 A 
ATOM     77  C   UNL     1      12.195  30.980  16.764  1.00  0.00     0.016 A 
ATOM     78  C   UNL     1      13.029  30.619  14.563  1.00  0.00     0.139 A 
ATOM     79  C   UNL     1      15.158  29.856  14.061  1.00  0.00     0.139 A 
ATOM     80  C   UNL     1      16.656  29.387  15.916  1.00  0.00     0.016 A 
ATOM     81  C   UNL     1      10.970  31.396  16.275  1.00  0.00     0.047 A 
ATOM     82  C   UNL     1      11.810  31.033  14.085  1.00  0.00     0.093 A 
ATOM     83  O   UNL     1      13.967  30.263  13.707  1.00  0.00    -0.456 OA
ATOM     84  C   UNL     1      16.131  29.487  13.167  1.00  0.00     0.099 A 
ATOM     85  C   UNL     1      17.628  29.018  15.002  1.00  0.00     0.053 A 
ATOM     86  C   UNL     1      10.768  31.425  14.913  1.00  0.00     0.119 A 
ATOM     87  C   UNL     1      17.350  29.073  13.648  1.00  0.00     0.182 A 
ATOM     88  O   UNL     1      18.276  28.724  12.867  1.00  0.00    -0.290 OA
BRANCH  86  89
ATOM     89  O   UNL     1       9.537  31.843  14.431  1.00  0.00    -0.508 OA
ATOM     90  H   UNL     1       9.042  31.195  13.823  1.00  0.00     0.293 HD
ENDBRANCH  86  89
ENDBRANCH  70  74
ENDBRANCH  63  65
ENDBRANCH  59  60
ENDBRANCH  58  59
ENDBRANCH  55  58
ENDBRANCH  53  54
ENDBRANCH  50  53
ENDBRANCH  47  50
ENDBRANCH   5  47
BRANCH   4  91
ATOM     91  N   UNL     1      20.670  33.946  22.494  1.00  0.00    -0.348 N 
ATOM     92  C   UNL     1      21.823  34.682  22.158  1.00  0.00     0.217 C 
ATOM     93  H   UNL     1      20.108  34.259  23.316  1.00  0.00     0.163 HD
ATOM     94  C   UNL     1      22.274  35.876  22.915  1.00  0.00     0.114 C 
ATOM     95  O   UNL     1      22.554  34.350  21.162  1.00  0.00    -0.275 OA
ENDBRANCH   4  91
TORSDOF 33
