REMARK VINA RESULT:    -5.057     15.610     19.964
REMARK INTER + INTRA:         -21.453
REMARK INTER:                 -13.763
REMARK INTRA:                  -7.691
REMARK UNBOUND:                -8.118
REMARK SMILES CC(=O)N[C@@H]1[C@@H](O)C[C@](OC[C@H]2O[C@@H](O[C@H]3[C@H](O)[C@@H](O)[C@H](OCCN=[N+]=[N-])O[C@@H]3CO)[C@H](O)[C@@H](O)[C@H]2O)(C(=O)O)O[C@H]1C(O)[C@H](O)CNC(=O)OCc1cn(CCOC(C)=O)nn1
REMARK SMILES IDX 43 1 42 2 9 3 8 4 41 5 6 6 5 7 10 8 11 9 12 10 14 11 13 12
REMARK SMILES IDX 32 13 34 14 36 15 15 16 16 17 29 18 28 19 21 20 17 21 19 22
REMARK SMILES IDX 30 23 31 24 22 26 23 27 24 28 25 29 26 30 27 31 18 32 20 34
REMARK SMILES IDX 33 36 35 38 37 40 38 42 39 43 40 44 7 46 4 48 2 49 1 51 3 52
REMARK SMILES IDX 44 53 45 55 46 56 47 58 48 59 49 60 50 62 51 63 52 64 53 65
REMARK SMILES IDX 54 66 63 67 55 68 62 69 56 70 57 71 58 72 59 73 61 74 60 75
REMARK H PARENT 31 25 18 33 20 35 33 37 35 39 37 41 40 45 7 47 4 50 44 54
REMARK H PARENT 46 57 48 61
REMARK Flexibility Score: inf
ROOT
ATOM      1  C   UNL     1      25.486  27.022  25.347  1.00  0.00     0.176 C 
ENDROOT
BRANCH   1   2
ATOM      2  C   UNL     1      24.453  25.951  25.591  1.00  0.00     0.178 C 
ATOM      3  C   UNL     1      22.122  25.677  25.379  1.00  0.00     0.272 C 
ATOM      4  C   UNL     1      22.525  24.284  25.796  1.00  0.00     0.113 C 
ATOM      5  O   UNL     1      23.252  26.483  25.076  1.00  0.00    -0.332 OA
ATOM      6  C   UNL     1      23.438  24.265  26.970  1.00  0.00     0.145 C 
ATOM      7  C   UNL     1      24.161  25.640  27.026  1.00  0.00     0.142 C 
BRANCH   3   8
ATOM      8  O   UNL     1      21.389  26.374  26.213  1.00  0.00    -0.338 OA
BRANCH   8   9
ATOM      9  C   UNL     1      20.845  27.556  26.136  1.00  0.00     0.199 C 
BRANCH   9  10
ATOM     10  C   UNL     1      21.478  28.787  25.644  1.00  0.00     0.179 C 
ATOM     11  C   UNL     1      21.792  29.931  23.667  1.00  0.00     0.282 C 
ATOM     12  O   UNL     1      20.906  29.082  24.346  1.00  0.00    -0.341 OA
ATOM     13  C   UNL     1      22.374  30.996  24.499  1.00  0.00     0.202 C 
ATOM     14  C   UNL     1      21.842  31.165  25.879  1.00  0.00     0.179 C 
ATOM     15  C   UNL     1      21.029  30.041  26.419  1.00  0.00     0.177 C 
BRANCH  11  16
ATOM     16  O   UNL     1      21.148  30.333  22.510  1.00  0.00    -0.341 OA
BRANCH  16  17
ATOM     17  C   UNL     1      20.036  29.586  22.215  1.00  0.00     0.184 C 
ATOM     18  C   UNL     1      20.066  29.173  20.762  1.00  0.00     0.178 C 
ATOM     19  O   UNL     1      18.918  28.392  20.571  1.00  0.00    -0.341 OA
ATOM     20  C   UNL     1      17.824  29.199  20.482  1.00  0.00     0.281 C 
ATOM     21  C   UNL     1      18.749  30.340  22.509  1.00  0.00     0.180 C 
ATOM     22  C   UNL     1      17.882  30.468  21.300  1.00  0.00     0.202 C 
BRANCH  18  23
ATOM     23  C   UNL     1      21.285  28.310  20.492  1.00  0.00     0.191 C 
BRANCH  23  24
ATOM     24  O   UNL     1      20.940  27.257  19.664  1.00  0.00    -0.394 OA
ATOM     25  H   UNL     1      20.369  27.654  18.940  1.00  0.00     0.210 HD
ENDBRANCH  23  24
ENDBRANCH  18  23
BRANCH  20  26
ATOM     26  O   UNL     1      16.704  28.430  20.829  1.00  0.00    -0.350 OA
BRANCH  26  27
ATOM     27  C   UNL     1      15.928  28.135  19.714  1.00  0.00     0.169 C 
BRANCH  27  28
ATOM     28  C   UNL     1      14.546  28.728  20.007  1.00  0.00     0.119 C 
BRANCH  28  29
ATOM     29  N   UNL     1      14.300  28.611  21.434  1.00  0.00    -0.092 NA
ATOM     30  N   UNL     1      13.284  29.071  21.972  1.00  0.00     0.001 N 
ATOM     31  N   UNL     1      12.502  29.844  22.556  1.00  0.00    -0.003 NA
ENDBRANCH  28  29
ENDBRANCH  27  28
ENDBRANCH  26  27
ENDBRANCH  20  26
BRANCH  21  32
ATOM     32  O   UNL     1      18.043  29.813  23.583  1.00  0.00    -0.387 OA
ATOM     33  H   UNL     1      17.618  30.498  24.156  1.00  0.00     0.211 HD
ENDBRANCH  21  32
BRANCH  22  34
ATOM     34  O   UNL     1      18.226  31.582  20.560  1.00  0.00    -0.385 OA
ATOM     35  H   UNL     1      17.610  31.637  19.773  1.00  0.00     0.211 HD
ENDBRANCH  22  34
ENDBRANCH  16  17
ENDBRANCH  11  16
BRANCH  13  36
ATOM     36  O   UNL     1      23.793  30.947  24.501  1.00  0.00    -0.385 OA
ATOM     37  H   UNL     1      24.166  31.229  25.362  1.00  0.00     0.211 HD
ENDBRANCH  13  36
BRANCH  14  38
ATOM     38  O   UNL     1      21.082  32.339  26.000  1.00  0.00    -0.387 OA
ATOM     39  H   UNL     1      21.021  32.566  26.974  1.00  0.00     0.211 HD
ENDBRANCH  14  38
BRANCH  15  40
ATOM     40  O   UNL     1      19.680  30.298  26.052  1.00  0.00    -0.387 OA
ATOM     41  H   UNL     1      19.272  30.940  26.668  1.00  0.00     0.211 HD
ENDBRANCH  15  40
ENDBRANCH   9  10
ENDBRANCH   8   9
ENDBRANCH   3   8
BRANCH   3  42
ATOM     42  C   UNL     1      21.527  25.516  24.023  1.00  0.00     0.364 C 
ATOM     43  O   UNL     1      20.720  24.633  23.673  1.00  0.00    -0.246 OA
BRANCH  42  44
ATOM     44  O   UNL     1      21.876  26.420  22.996  1.00  0.00    -0.477 OA
ATOM     45  H   UNL     1      21.432  26.323  22.095  1.00  0.00     0.296 HD
ENDBRANCH  42  44
ENDBRANCH   3  42
BRANCH   6  46
ATOM     46  O   UNL     1      22.848  23.975  28.178  1.00  0.00    -0.391 OA
ATOM     47  H   UNL     1      22.420  23.081  28.206  1.00  0.00     0.211 HD
ENDBRANCH   6  46
BRANCH   7  48
ATOM     48  N   UNL     1      25.263  25.551  27.924  1.00  0.00    -0.348 N 
ATOM     49  C   UNL     1      25.151  25.898  29.295  1.00  0.00     0.217 C 
ATOM     50  H   UNL     1      26.171  25.201  27.579  1.00  0.00     0.163 HD
ATOM     51  C   UNL     1      26.313  25.802  30.231  1.00  0.00     0.114 C 
ATOM     52  O   UNL     1      24.057  26.306  29.792  1.00  0.00    -0.275 OA
ENDBRANCH   7  48
ENDBRANCH   1   2
BRANCH   1  53
ATOM     53  O   UNL     1      24.865  28.224  25.813  1.00  0.00    -0.388 OA
ATOM     54  H   UNL     1      24.738  28.847  25.068  1.00  0.00     0.211 HD
ENDBRANCH   1  53
BRANCH   1  55
ATOM     55  C   UNL     1      25.653  27.257  23.865  1.00  0.00     0.165 C 
BRANCH  55  56
ATOM     56  O   UNL     1      24.628  28.104  23.415  1.00  0.00    -0.388 OA
ATOM     57  H   UNL     1      23.904  27.546  23.063  1.00  0.00     0.211 HD
ENDBRANCH  55  56
BRANCH  55  58
ATOM     58  C   UNL     1      25.715  25.991  23.068  1.00  0.00     0.154 C 
BRANCH  58  59
ATOM     59  N   UNL     1      24.684  25.823  22.093  1.00  0.00    -0.319 N 
ATOM     60  C   UNL     1      24.193  24.568  21.687  1.00  0.00     0.407 C 
ATOM     61  H   UNL     1      24.224  26.660  21.615  1.00  0.00     0.167 HD
ATOM     62  O   UNL     1      24.615  23.491  22.158  1.00  0.00    -0.225 OA
BRANCH  60  63
ATOM     63  O   UNL     1      23.188  24.446  20.713  1.00  0.00    -0.443 OA
BRANCH  63  64
ATOM     64  C   UNL     1      23.472  24.322  19.349  1.00  0.00     0.294 C 
BRANCH  64  65
ATOM     65  C   UNL     1      23.500  25.644  18.665  1.00  0.00     0.120 A 
ATOM     66  C   UNL     1      22.862  25.902  17.464  1.00  0.00     0.138 A 
ATOM     67  N   UNL     1      24.083  26.786  19.016  1.00  0.00    -0.132 NA
ATOM     68  N   UNL     1      23.091  27.181  17.152  1.00  0.00    -0.249 N 
ATOM     69  N   UNL     1      23.836  27.700  18.110  1.00  0.00    -0.067 NA
BRANCH  68  70
ATOM     70  C   UNL     1      22.625  27.902  15.958  1.00  0.00     0.187 C 
BRANCH  70  71
ATOM     71  C   UNL     1      21.115  27.978  15.963  1.00  0.00     0.256 C 
BRANCH  71  72
ATOM     72  O   UNL     1      20.711  28.757  17.085  1.00  0.00    -0.464 OA
BRANCH  72  73
ATOM     73  C   UNL     1      19.450  29.345  17.118  1.00  0.00     0.302 C 
ATOM     74  O   UNL     1      19.342  30.474  17.652  1.00  0.00    -0.253 OA
ATOM     75  C   UNL     1      18.238  28.677  16.541  1.00  0.00     0.139 C 
ENDBRANCH  72  73
ENDBRANCH  71  72
ENDBRANCH  70  71
ENDBRANCH  68  70
ENDBRANCH  64  65
ENDBRANCH  63  64
ENDBRANCH  60  63
ENDBRANCH  58  59
ENDBRANCH  55  58
ENDBRANCH   1  55
TORSDOF 33
