REMARK VINA RESULT:    -5.843      5.488      8.761
REMARK INTER + INTRA:         -21.539
REMARK INTER:                 -11.593
REMARK INTRA:                  -9.946
REMARK UNBOUND:                -6.131
REMARK SMILES COCC(C(N)=O)n1cc(COC(=O)NC[C@@H](O)C(O)[C@@H]2O[C@@](OC[C@H]3O[C@@H](O[C@H]4[C@H](O)[C@@H](O)[C@H](OCCN=[N+]=[N-])O[C@@H]4CO)[C@H](O)[C@@H](O)[C@H]3O)(C(=O)O)C[C@H](O)[C@H]2NC(C)=O)nn1
REMARK SMILES IDX 23 1 55 2 56 3 58 4 21 5 22 6 24 7 25 8 26 9 28 10 27 11
REMARK SMILES IDX 46 12 48 13 50 14 29 15 30 16 43 17 42 18 35 19 31 20 33 21
REMARK SMILES IDX 44 22 45 23 36 25 37 26 38 27 39 28 40 29 41 30 32 31 34 33
REMARK SMILES IDX 47 35 49 37 51 39 52 41 53 42 54 43 57 45 19 47 20 48 17 50
REMARK SMILES IDX 18 51 16 53 15 54 13 55 14 57 12 58 11 59 10 60 9 61 63 62
REMARK SMILES IDX 8 63 64 64 4 65 3 66 2 67 1 68 5 69 7 70 6 71 59 74 60 75
REMARK SMILES IDX 61 77 62 78
REMARK H PARENT 45 24 32 32 34 34 47 36 49 38 51 40 54 44 57 46 20 49 18 52
REMARK H PARENT 15 56 6 72 6 73 59 76
REMARK Flexibility Score: inf
ROOT
ATOM      1  C   UNL     1      17.300  29.142  16.397  1.00  0.00     0.272 C 
ATOM      2  C   UNL     1      18.718  29.096  15.976  1.00  0.00     0.113 C 
ATOM      3  C   UNL     1      19.699  29.832  16.812  1.00  0.00     0.145 C 
ATOM      4  C   UNL     1      19.099  31.123  17.299  1.00  0.00     0.142 C 
ATOM      5  C   UNL     1      17.881  31.404  16.432  1.00  0.00     0.178 C 
ATOM      6  O   UNL     1      16.922  30.455  16.675  1.00  0.00    -0.332 OA
ENDROOT
BRANCH   1   7
ATOM      7  O   UNL     1      16.937  28.378  17.472  1.00  0.00    -0.338 OA
BRANCH   7   8
ATOM      8  C   UNL     1      16.649  29.009  18.637  1.00  0.00     0.199 C 
BRANCH   8   9
ATOM      9  C   UNL     1      15.586  28.267  19.458  1.00  0.00     0.179 C 
ATOM     10  C   UNL     1      15.669  29.102  21.624  1.00  0.00     0.282 C 
ATOM     11  O   UNL     1      15.986  28.072  20.750  1.00  0.00    -0.341 OA
ATOM     12  C   UNL     1      14.226  29.470  21.603  1.00  0.00     0.202 C 
ATOM     13  C   UNL     1      13.753  29.830  20.233  1.00  0.00     0.179 C 
ATOM     14  C   UNL     1      14.214  28.806  19.259  1.00  0.00     0.177 C 
BRANCH  10  15
ATOM     15  O   UNL     1      16.481  30.209  21.458  1.00  0.00    -0.341 OA
BRANCH  15  16
ATOM     16  C   UNL     1      17.571  30.161  22.326  1.00  0.00     0.184 C 
ATOM     17  C   UNL     1      17.672  31.289  23.281  1.00  0.00     0.178 C 
ATOM     18  O   UNL     1      18.657  31.083  24.215  1.00  0.00    -0.341 OA
ATOM     19  C   UNL     1      19.748  30.344  23.755  1.00  0.00     0.281 C 
ATOM     20  C   UNL     1      18.817  30.228  21.425  1.00  0.00     0.180 C 
ATOM     21  C   UNL     1      19.986  30.594  22.274  1.00  0.00     0.202 C 
BRANCH  17  22
ATOM     22  C   UNL     1      16.398  31.587  24.049  1.00  0.00     0.191 C 
BRANCH  22  23
ATOM     23  O   UNL     1      16.132  30.553  24.944  1.00  0.00    -0.394 OA
ATOM     24  H   UNL     1      16.847  29.874  24.950  1.00  0.00     0.210 HD
ENDBRANCH  22  23
ENDBRANCH  17  22
BRANCH  19  25
ATOM     25  O   UNL     1      19.578  29.040  24.061  1.00  0.00    -0.350 OA
BRANCH  25  26
ATOM     26  C   UNL     1      20.581  28.321  24.612  1.00  0.00     0.169 C 
BRANCH  26  27
ATOM     27  C   UNL     1      21.953  28.489  24.059  1.00  0.00     0.119 C 
BRANCH  27  28
ATOM     28  N   UNL     1      22.322  27.462  23.138  1.00  0.00    -0.092 NA
ATOM     29  N   UNL     1      21.475  26.953  22.409  1.00  0.00     0.001 N 
ATOM     30  N   UNL     1      20.833  26.750  21.365  1.00  0.00    -0.003 NA
ENDBRANCH  27  28
ENDBRANCH  26  27
ENDBRANCH  25  26
ENDBRANCH  19  25
BRANCH  20  31
ATOM     31  O   UNL     1      19.003  28.999  20.796  1.00  0.00    -0.387 OA
ATOM     32  H   UNL     1      18.141  28.770  20.377  1.00  0.00     0.211 HD
ENDBRANCH  20  31
BRANCH  21  33
ATOM     33  O   UNL     1      20.288  31.967  22.150  1.00  0.00    -0.385 OA
ATOM     34  H   UNL     1      20.685  32.131  21.246  1.00  0.00     0.211 HD
ENDBRANCH  21  33
ENDBRANCH  15  16
ENDBRANCH  10  15
BRANCH  12  35
ATOM     35  O   UNL     1      13.507  28.324  21.990  1.00  0.00    -0.385 OA
ATOM     36  H   UNL     1      12.840  28.084  21.312  1.00  0.00     0.211 HD
ENDBRANCH  12  35
BRANCH  13  37
ATOM     37  O   UNL     1      14.070  31.141  19.880  1.00  0.00    -0.387 OA
ATOM     38  H   UNL     1      14.678  31.081  19.094  1.00  0.00     0.211 HD
ENDBRANCH  13  37
BRANCH  14  39
ATOM     39  O   UNL     1      14.106  29.277  17.949  1.00  0.00    -0.387 OA
ATOM     40  H   UNL     1      13.177  29.577  17.760  1.00  0.00     0.211 HD
ENDBRANCH  14  39
ENDBRANCH   8   9
ENDBRANCH   7   8
ENDBRANCH   1   7
BRANCH   1  41
ATOM     41  C   UNL     1      16.472  28.767  15.195  1.00  0.00     0.364 C 
ATOM     42  O   UNL     1      16.979  28.662  14.062  1.00  0.00    -0.246 OA
BRANCH  41  43
ATOM     43  O   UNL     1      15.132  28.541  15.370  1.00  0.00    -0.477 OA
ATOM     44  H   UNL     1      14.543  29.138  15.929  1.00  0.00     0.296 HD
ENDBRANCH  41  43
ENDBRANCH   1  41
BRANCH   3  45
ATOM     45  O   UNL     1      20.243  29.079  17.848  1.00  0.00    -0.391 OA
ATOM     46  H   UNL     1      19.731  29.232  18.681  1.00  0.00     0.211 HD
ENDBRANCH   3  45
BRANCH   5  47
ATOM     47  C   UNL     1      17.328  32.777  16.761  1.00  0.00     0.176 C 
BRANCH  47  48
ATOM     48  O   UNL     1      16.161  33.058  16.118  1.00  0.00    -0.388 OA
ATOM     49  H   UNL     1      15.608  32.323  15.823  1.00  0.00     0.211 HD
ENDBRANCH  47  48
BRANCH  47  50
ATOM     50  C   UNL     1      17.158  32.925  18.248  1.00  0.00     0.165 C 
BRANCH  50  51
ATOM     51  O   UNL     1      16.334  31.849  18.662  1.00  0.00    -0.388 OA
ATOM     52  H   UNL     1      16.299  31.832  19.657  1.00  0.00     0.211 HD
ENDBRANCH  50  51
BRANCH  50  53
ATOM     53  C   UNL     1      16.459  34.172  18.675  1.00  0.00     0.154 C 
BRANCH  53  54
ATOM     54  N   UNL     1      15.043  34.080  18.813  1.00  0.00    -0.319 N 
ATOM     55  C   UNL     1      14.136  34.728  17.933  1.00  0.00     0.407 C 
ATOM     56  H   UNL     1      14.614  33.514  19.595  1.00  0.00     0.167 HD
ATOM     57  O   UNL     1      14.582  35.411  16.999  1.00  0.00    -0.225 OA
BRANCH  55  58
ATOM     58  O   UNL     1      12.750  34.620  18.090  1.00  0.00    -0.443 OA
BRANCH  58  59
ATOM     59  C   UNL     1      12.085  33.393  18.082  1.00  0.00     0.294 C 
BRANCH  59  60
ATOM     60  C   UNL     1      12.527  32.454  17.044  1.00  0.00     0.120 A 
ATOM     61  C   UNL     1      11.742  32.027  16.002  1.00  0.00     0.139 A 
ATOM     62  N   UNL     1      13.734  31.883  16.953  1.00  0.00    -0.132 NA
ATOM     63  N   UNL     1      12.503  31.192  15.290  1.00  0.00    -0.237 N 
ATOM     64  N   UNL     1      13.700  31.116  15.875  1.00  0.00    -0.066 NA
BRANCH  63  65
ATOM     65  C   UNL     1      12.084  30.495  14.088  1.00  0.00     0.223 C 
BRANCH  65  66
ATOM     66  C   UNL     1      12.940  30.950  12.952  1.00  0.00     0.197 C 
BRANCH  66  67
ATOM     67  O   UNL     1      12.263  31.783  12.098  1.00  0.00    -0.382 OA
ATOM     68  C   UNL     1      12.655  31.601  10.798  1.00  0.00     0.195 C 
ENDBRANCH  66  67
ENDBRANCH  65  66
BRANCH  65  69
ATOM     69  C   UNL     1      12.287  29.032  14.353  1.00  0.00     0.244 C 
ATOM     70  O   UNL     1      12.750  28.317  13.442  1.00  0.00    -0.273 OA
ATOM     71  N   UNL     1      11.949  28.511  15.627  1.00  0.00    -0.368 N 
ATOM     72  H   UNL     1      11.121  27.920  15.813  1.00  0.00     0.159 HD
ATOM     73  H   UNL     1      12.578  28.743  16.426  1.00  0.00     0.159 HD
ENDBRANCH  65  69
ENDBRANCH  63  65
ENDBRANCH  59  60
ENDBRANCH  58  59
ENDBRANCH  55  58
ENDBRANCH  53  54
ENDBRANCH  50  53
ENDBRANCH  47  50
ENDBRANCH   5  47
BRANCH   4  74
ATOM     74  N   UNL     1      20.069  32.213  17.238  1.00  0.00    -0.348 N 
ATOM     75  C   UNL     1      21.042  32.454  18.246  1.00  0.00     0.217 C 
ATOM     76  H   UNL     1      20.079  32.871  16.418  1.00  0.00     0.163 HD
ATOM     77  C   UNL     1      22.030  33.544  18.205  1.00  0.00     0.114 C 
ATOM     78  O   UNL     1      21.046  31.661  19.247  1.00  0.00    -0.275 OA
ENDBRANCH   4  74
TORSDOF 33
