REMARK VINA RESULT:    -5.702     10.621     17.962
REMARK INTER + INTRA:         -22.519
REMARK INTER:                 -14.601
REMARK INTRA:                  -7.917
REMARK UNBOUND:                -8.149
REMARK SMILES CC(=O)N[C@@H]1[C@@H](O)C[C@](OC[C@H]2O[C@@H](O[C@H]3[C@H](O)[C@@H](O)[C@H](OCCN=[N+]=[N-])O[C@@H]3CO)[C@H](O)[C@@H](O)[C@H]2O)(C(=O)O)O[C@H]1C(O)[C@H](O)CNC(=O)OCc1cn(Cc2ccc3c(c2)OCO3)nn1
REMARK SMILES IDX 9 1 8 2 6 3 5 4 42 5 41 6 10 7 11 8 12 9 14 10 13 11 32 12
REMARK SMILES IDX 34 13 36 14 15 15 16 16 29 17 28 18 21 19 17 20 19 21 30 22
REMARK SMILES IDX 31 23 22 25 23 26 24 27 25 28 26 29 27 30 18 31 20 33 33 35
REMARK SMILES IDX 35 37 37 39 38 41 39 42 40 43 7 45 43 47 44 48 45 50 46 51
REMARK SMILES IDX 47 53 48 54 49 55 50 57 51 58 52 59 53 60 54 61 67 62 55 63
REMARK SMILES IDX 66 64 56 65 57 66 58 67 62 68 59 69 61 70 60 71 63 72 65 73
REMARK SMILES IDX 64 74 4 75 2 76 1 78 3 79
REMARK H PARENT 31 24 18 32 20 34 33 36 35 38 37 40 40 44 7 46 44 49 46 52
REMARK H PARENT 48 56 4 77
REMARK Flexibility Score: inf
ROOT
ATOM      1  C   UNL     1      10.211  28.057  35.124  1.00  0.00     0.272 C 
ATOM      2  C   UNL     1      11.695  28.345  35.018  1.00  0.00     0.113 C 
ATOM      3  C   UNL     1      11.918  29.827  35.035  1.00  0.00     0.145 C 
ATOM      4  C   UNL     1      11.211  30.384  33.770  1.00  0.00     0.142 C 
ATOM      5  C   UNL     1       9.800  29.921  33.814  1.00  0.00     0.178 C 
ATOM      6  O   UNL     1       9.466  29.199  34.958  1.00  0.00    -0.332 OA
ENDROOT
BRANCH   1   7
ATOM      7  O   UNL     1       9.919  27.424  36.343  1.00  0.00    -0.338 OA
BRANCH   7   8
ATOM      8  C   UNL     1      10.969  27.112  37.138  1.00  0.00     0.199 C 
BRANCH   8   9
ATOM      9  C   UNL     1      10.907  25.611  37.464  1.00  0.00     0.179 C 
ATOM     10  C   UNL     1       9.899  23.643  36.834  1.00  0.00     0.282 C 
ATOM     11  O   UNL     1       9.880  25.036  36.766  1.00  0.00    -0.341 OA
ATOM     12  C   UNL     1      11.145  23.145  36.097  1.00  0.00     0.202 C 
ATOM     13  C   UNL     1      12.288  24.093  36.136  1.00  0.00     0.179 C 
ATOM     14  C   UNL     1      12.236  24.956  37.351  1.00  0.00     0.177 C 
BRANCH  10  15
ATOM     15  O   UNL     1       8.837  23.152  36.183  1.00  0.00    -0.341 OA
BRANCH  15  16
ATOM     16  C   UNL     1       7.890  23.973  35.650  1.00  0.00     0.184 C 
ATOM     17  C   UNL     1       6.610  24.038  36.436  1.00  0.00     0.178 C 
ATOM     18  O   UNL     1       5.547  23.522  35.772  1.00  0.00    -0.341 OA
ATOM     19  C   UNL     1       5.209  24.158  34.560  1.00  0.00     0.281 C 
ATOM     20  C   UNL     1       7.614  23.550  34.231  1.00  0.00     0.180 C 
ATOM     21  C   UNL     1       6.446  24.368  33.717  1.00  0.00     0.202 C 
BRANCH  17  22
ATOM     22  C   UNL     1       6.339  25.472  36.816  1.00  0.00     0.191 C 
BRANCH  22  23
ATOM     23  O   UNL     1       7.377  26.314  36.338  1.00  0.00    -0.394 OA
ATOM     24  H   UNL     1       7.302  26.488  35.372  1.00  0.00     0.210 HD
ENDBRANCH  22  23
ENDBRANCH  17  22
BRANCH  19  25
ATOM     25  O   UNL     1       4.464  25.275  34.771  1.00  0.00    -0.350 OA
BRANCH  25  26
ATOM     26  C   UNL     1       3.935  26.006  33.793  1.00  0.00     0.169 C 
BRANCH  26  27
ATOM     27  C   UNL     1       4.140  27.486  33.872  1.00  0.00     0.119 C 
BRANCH  27  28
ATOM     28  N   UNL     1       5.026  27.947  34.881  1.00  0.00    -0.092 NA
ATOM     29  N   UNL     1       4.816  28.920  35.599  1.00  0.00     0.001 N 
ATOM     30  N   UNL     1       4.646  30.108  35.927  1.00  0.00    -0.003 NA
ENDBRANCH  27  28
ENDBRANCH  26  27
ENDBRANCH  25  26
ENDBRANCH  19  25
BRANCH  20  31
ATOM     31  O   UNL     1       8.739  23.846  33.467  1.00  0.00    -0.387 OA
ATOM     32  H   UNL     1       8.508  23.968  32.509  1.00  0.00     0.211 HD
ENDBRANCH  20  31
BRANCH  21  33
ATOM     33  O   UNL     1       6.224  23.943  32.410  1.00  0.00    -0.385 OA
ATOM     34  H   UNL     1       6.651  24.572  31.769  1.00  0.00     0.211 HD
ENDBRANCH  21  33
ENDBRANCH  15  16
ENDBRANCH  10  15
BRANCH  12  35
ATOM     35  O   UNL     1      11.520  21.892  36.580  1.00  0.00    -0.385 OA
ATOM     36  H   UNL     1      12.118  21.447  35.958  1.00  0.00     0.211 HD
ENDBRANCH  12  35
BRANCH  13  37
ATOM     37  O   UNL     1      12.434  24.836  34.975  1.00  0.00    -0.387 OA
ATOM     38  H   UNL     1      12.406  25.799  35.208  1.00  0.00     0.211 HD
ENDBRANCH  13  37
BRANCH  14  39
ATOM     39  O   UNL     1      13.267  25.902  37.246  1.00  0.00    -0.387 OA
ATOM     40  H   UNL     1      14.121  25.430  37.296  1.00  0.00     0.211 HD
ENDBRANCH  14  39
ENDBRANCH   8   9
ENDBRANCH   7   8
ENDBRANCH   1   7
BRANCH   1  41
ATOM     41  C   UNL     1       9.837  27.069  34.096  1.00  0.00     0.364 C 
ATOM     42  O   UNL     1      10.656  26.332  33.533  1.00  0.00    -0.246 OA
BRANCH  41  43
ATOM     43  O   UNL     1       8.507  26.911  33.697  1.00  0.00    -0.477 OA
ATOM     44  H   UNL     1       8.060  25.979  33.739  1.00  0.00     0.296 HD
ENDBRANCH  41  43
ENDBRANCH   1  41
BRANCH   3  45
ATOM     45  O   UNL     1      11.388  30.515  36.086  1.00  0.00    -0.391 OA
ATOM     46  H   UNL     1      10.643  30.049  36.543  1.00  0.00     0.211 HD
ENDBRANCH   3  45
BRANCH   5  47
ATOM     47  C   UNL     1       8.841  31.135  33.879  1.00  0.00     0.176 C 
BRANCH  47  48
ATOM     48  O   UNL     1       9.312  32.216  33.196  1.00  0.00    -0.388 OA
ATOM     49  H   UNL     1       9.324  33.008  33.782  1.00  0.00     0.211 HD
ENDBRANCH  47  48
BRANCH  47  50
ATOM     50  C   UNL     1       7.425  30.839  33.652  1.00  0.00     0.165 C 
BRANCH  50  51
ATOM     51  O   UNL     1       7.140  29.520  33.274  1.00  0.00    -0.388 OA
ATOM     52  H   UNL     1       7.810  28.895  33.656  1.00  0.00     0.211 HD
ENDBRANCH  50  51
BRANCH  50  53
ATOM     53  C   UNL     1       6.685  31.744  32.704  1.00  0.00     0.154 C 
BRANCH  53  54
ATOM     54  N   UNL     1       5.874  30.885  31.824  1.00  0.00    -0.319 N 
ATOM     55  C   UNL     1       5.490  31.300  30.517  1.00  0.00     0.407 C 
ATOM     56  H   UNL     1       5.588  29.967  32.181  1.00  0.00     0.167 HD
ATOM     57  O   UNL     1       5.875  32.439  30.141  1.00  0.00    -0.225 OA
BRANCH  55  58
ATOM     58  O   UNL     1       4.734  30.522  29.674  1.00  0.00    -0.443 OA
BRANCH  58  59
ATOM     59  C   UNL     1       4.342  29.221  30.042  1.00  0.00     0.294 C 
BRANCH  59  60
ATOM     60  C   UNL     1       4.512  28.328  28.872  1.00  0.00     0.120 A 
ATOM     61  C   UNL     1       5.021  28.643  27.617  1.00  0.00     0.138 A 
ATOM     62  N   UNL     1       4.193  27.020  28.790  1.00  0.00    -0.132 NA
ATOM     63  N   UNL     1       4.993  27.541  26.844  1.00  0.00    -0.248 N 
ATOM     64  N   UNL     1       4.489  26.579  27.574  1.00  0.00    -0.067 NA
BRANCH  63  65
ATOM     65  C   UNL     1       5.440  27.463  25.485  1.00  0.00     0.181 C 
BRANCH  65  66
ATOM     66  C   UNL     1       6.908  27.575  25.319  1.00  0.00    -0.023 A 
ATOM     67  C   UNL     1       7.705  26.495  25.535  1.00  0.00     0.010 A 
ATOM     68  C   UNL     1       7.480  28.796  24.942  1.00  0.00     0.056 A 
ATOM     69  C   UNL     1       9.062  26.622  25.378  1.00  0.00     0.051 A 
ATOM     70  C   UNL     1       8.832  28.936  24.784  1.00  0.00     0.166 A 
ATOM     71  C   UNL     1       9.615  27.818  25.011  1.00  0.00     0.165 A 
ATOM     72  O   UNL     1       9.696  29.955  24.434  1.00  0.00    -0.454 OA
ATOM     73  O   UNL     1      10.958  28.155  24.800  1.00  0.00    -0.454 OA
ATOM     74  C   UNL     1      10.952  29.375  24.089  1.00  0.00     0.468 C 
ENDBRANCH  65  66
ENDBRANCH  63  65
ENDBRANCH  59  60
ENDBRANCH  58  59
ENDBRANCH  55  58
ENDBRANCH  53  54
ENDBRANCH  50  53
ENDBRANCH  47  50
ENDBRANCH   5  47
BRANCH   4  75
ATOM     75  N   UNL     1      11.999  29.891  32.677  1.00  0.00    -0.348 N 
ATOM     76  C   UNL     1      12.425  30.824  31.672  1.00  0.00     0.217 C 
ATOM     77  H   UNL     1      12.311  28.916  32.518  1.00  0.00     0.163 HD
ATOM     78  C   UNL     1      13.248  30.334  30.514  1.00  0.00     0.114 C 
ATOM     79  O   UNL     1      12.113  32.035  31.760  1.00  0.00    -0.275 OA
ENDBRANCH   4  75
TORSDOF 31
