REMARK VINA RESULT:    -5.322     13.942     19.418
REMARK INTER + INTRA:         -20.932
REMARK INTER:                 -13.568
REMARK INTRA:                  -7.364
REMARK UNBOUND:                -7.364
REMARK SMILES CC(=O)N[C@@H]1[C@@H](O)C[C@](OC[C@H]2O[C@@H](O[C@H]3[C@H](O)[C@@H](O)[C@H](OCCN=[N+]=[N-])O[C@@H]3CO)[C@H](O)[C@@H](O)[C@H]2O)(C(=O)O)O[C@H]1C(O)[C@H](O)CNC(=O)OCc1cn([C@@H](C)C(=O)O)nn1
REMARK SMILES IDX 9 1 8 2 6 3 5 4 42 5 41 6 10 7 11 8 12 9 14 10 13 11 32 12
REMARK SMILES IDX 34 13 36 14 15 15 16 16 29 17 28 18 21 19 17 20 19 21 30 22
REMARK SMILES IDX 31 23 22 25 23 26 24 27 25 28 26 29 27 30 18 31 20 33 33 35
REMARK SMILES IDX 35 37 37 39 38 41 39 42 40 43 7 45 43 47 44 48 45 50 46 51
REMARK SMILES IDX 47 53 48 54 49 55 50 57 51 58 52 59 53 60 54 61 62 62 55 63
REMARK SMILES IDX 61 64 56 65 57 66 58 67 59 68 60 69 4 71 2 72 1 74 3 75
REMARK H PARENT 31 24 18 32 20 34 33 36 35 38 37 40 40 44 7 46 44 49 46 52
REMARK H PARENT 48 56 60 70 4 73
REMARK Flexibility Score: inf
ROOT
ATOM      1  C   UNL     1      20.049  28.751  20.371  1.00  0.00     0.272 C 
ATOM      2  C   UNL     1      21.085  29.806  20.427  1.00  0.00     0.113 C 
ATOM      3  C   UNL     1      21.047  30.393  21.819  1.00  0.00     0.145 C 
ATOM      4  C   UNL     1      19.721  31.235  21.799  1.00  0.00     0.142 C 
ATOM      5  C   UNL     1      18.651  30.493  21.156  1.00  0.00     0.178 C 
ATOM      6  O   UNL     1      18.837  29.153  20.941  1.00  0.00    -0.332 OA
ENDROOT
BRANCH   1   7
ATOM      7  O   UNL     1      20.469  27.569  20.898  1.00  0.00    -0.338 OA
BRANCH   7   8
ATOM      8  C   UNL     1      21.556  26.963  20.386  1.00  0.00     0.199 C 
BRANCH   8   9
ATOM      9  C   UNL     1      22.397  26.295  21.503  1.00  0.00     0.179 C 
ATOM     10  C   UNL     1      23.357  26.822  23.534  1.00  0.00     0.282 C 
ATOM     11  O   UNL     1      22.487  27.207  22.521  1.00  0.00    -0.341 OA
ATOM     12  C   UNL     1      23.820  25.401  23.393  1.00  0.00     0.202 C 
ATOM     13  C   UNL     1      22.653  24.483  23.084  1.00  0.00     0.179 C 
ATOM     14  C   UNL     1      21.777  25.023  21.966  1.00  0.00     0.177 C 
BRANCH  10  15
ATOM     15  O   UNL     1      22.793  26.946  24.812  1.00  0.00    -0.341 OA
BRANCH  15  16
ATOM     16  C   UNL     1      23.744  26.793  25.811  1.00  0.00     0.184 C 
ATOM     17  C   UNL     1      23.101  26.284  27.061  1.00  0.00     0.178 C 
ATOM     18  O   UNL     1      23.079  27.243  28.075  1.00  0.00    -0.341 OA
ATOM     19  C   UNL     1      22.531  28.446  27.620  1.00  0.00     0.281 C 
ATOM     20  C   UNL     1      24.381  28.141  26.051  1.00  0.00     0.180 C 
ATOM     21  C   UNL     1      23.447  29.150  26.658  1.00  0.00     0.202 C 
BRANCH  17  22
ATOM     22  C   UNL     1      23.802  25.059  27.602  1.00  0.00     0.191 C 
BRANCH  22  23
ATOM     23  O   UNL     1      24.060  24.122  26.604  1.00  0.00    -0.394 OA
ATOM     24  H   UNL     1      24.559  24.542  25.875  1.00  0.00     0.210 HD
ENDBRANCH  22  23
ENDBRANCH  17  22
BRANCH  19  25
ATOM     25  O   UNL     1      22.362  29.243  28.739  1.00  0.00    -0.350 OA
BRANCH  25  26
ATOM     26  C   UNL     1      21.259  28.811  29.445  1.00  0.00     0.169 C 
BRANCH  26  27
ATOM     27  C   UNL     1      20.047  29.657  29.112  1.00  0.00     0.119 C 
BRANCH  27  28
ATOM     28  N   UNL     1      20.434  30.632  28.095  1.00  0.00    -0.092 NA
ATOM     29  N   UNL     1      19.782  30.798  27.063  1.00  0.00     0.001 N 
ATOM     30  N   UNL     1      18.953  31.058  26.209  1.00  0.00    -0.003 NA
ENDBRANCH  27  28
ENDBRANCH  26  27
ENDBRANCH  25  26
ENDBRANCH  19  25
BRANCH  20  31
ATOM     31  O   UNL     1      25.530  28.045  26.835  1.00  0.00    -0.387 OA
ATOM     32  H   UNL     1      25.952  28.910  27.027  1.00  0.00     0.211 HD
ENDBRANCH  20  31
BRANCH  21  33
ATOM     33  O   UNL     1      22.668  29.742  25.666  1.00  0.00    -0.385 OA
ATOM     34  H   UNL     1      23.213  29.994  24.885  1.00  0.00     0.211 HD
ENDBRANCH  21  33
ENDBRANCH  15  16
ENDBRANCH  10  15
BRANCH  12  35
ATOM     35  O   UNL     1      24.885  25.232  22.541  1.00  0.00    -0.385 OA
ATOM     36  H   UNL     1      25.695  25.708  22.903  1.00  0.00     0.211 HD
ENDBRANCH  12  35
BRANCH  13  37
ATOM     37  O   UNL     1      21.881  24.402  24.264  1.00  0.00    -0.387 OA
ATOM     38  H   UNL     1      21.823  25.287  24.710  1.00  0.00     0.211 HD
ENDBRANCH  13  37
BRANCH  14  39
ATOM     39  O   UNL     1      20.470  25.223  22.410  1.00  0.00    -0.387 OA
ATOM     40  H   UNL     1      20.128  24.388  22.822  1.00  0.00     0.211 HD
ENDBRANCH  14  39
ENDBRANCH   8   9
ENDBRANCH   7   8
ENDBRANCH   1   7
BRANCH   1  41
ATOM     41  C   UNL     1      19.692  28.551  18.941  1.00  0.00     0.364 C 
ATOM     42  O   UNL     1      18.708  27.862  18.636  1.00  0.00    -0.246 OA
BRANCH  41  43
ATOM     43  O   UNL     1      20.443  29.123  17.925  1.00  0.00    -0.477 OA
ATOM     44  H   UNL     1      20.616  30.139  17.904  1.00  0.00     0.296 HD
ENDBRANCH  41  43
ENDBRANCH   1  41
BRANCH   3  45
ATOM     45  O   UNL     1      20.795  29.359  22.711  1.00  0.00    -0.391 OA
ATOM     46  H   UNL     1      20.617  28.506  22.280  1.00  0.00     0.211 HD
ENDBRANCH   3  45
BRANCH   5  47
ATOM     47  C   UNL     1      17.262  30.649  21.753  1.00  0.00     0.176 C 
BRANCH  47  48
ATOM     48  O   UNL     1      16.785  31.945  21.341  1.00  0.00    -0.388 OA
ATOM     49  H   UNL     1      17.540  32.489  21.061  1.00  0.00     0.211 HD
ENDBRANCH  47  48
BRANCH  47  50
ATOM     50  C   UNL     1      17.251  30.757  23.265  1.00  0.00     0.165 C 
BRANCH  50  51
ATOM     51  O   UNL     1      17.171  29.581  23.944  1.00  0.00    -0.388 OA
ATOM     52  H   UNL     1      17.072  29.629  24.921  1.00  0.00     0.211 HD
ENDBRANCH  50  51
BRANCH  50  53
ATOM     53  C   UNL     1      16.367  31.856  23.749  1.00  0.00     0.154 C 
BRANCH  53  54
ATOM     54  N   UNL     1      14.979  31.733  23.504  1.00  0.00    -0.319 N 
ATOM     55  C   UNL     1      14.043  30.947  24.227  1.00  0.00     0.407 C 
ATOM     56  H   UNL     1      14.594  32.294  22.682  1.00  0.00     0.167 HD
ATOM     57  O   UNL     1      14.432  30.284  25.195  1.00  0.00    -0.225 OA
BRANCH  55  58
ATOM     58  O   UNL     1      12.694  30.933  23.834  1.00  0.00    -0.443 OA
BRANCH  58  59
ATOM     59  C   UNL     1      12.184  29.881  23.059  1.00  0.00     0.294 C 
BRANCH  59  60
ATOM     60  C   UNL     1      12.963  29.619  21.844  1.00  0.00     0.120 A 
ATOM     61  C   UNL     1      13.130  30.407  20.726  1.00  0.00     0.139 A 
ATOM     62  N   UNL     1      13.677  28.479  21.648  1.00  0.00    -0.132 NA
ATOM     63  N   UNL     1      13.930  29.735  19.897  1.00  0.00    -0.238 N 
ATOM     64  N   UNL     1      14.262  28.574  20.446  1.00  0.00    -0.066 NA
BRANCH  63  65
ATOM     65  C   UNL     1      14.371  30.192  18.594  1.00  0.00     0.215 C 
ATOM     66  C   UNL     1      14.358  31.687  18.551  1.00  0.00     0.046 C 
BRANCH  65  67
ATOM     67  C   UNL     1      15.726  29.682  18.275  1.00  0.00     0.328 C 
ATOM     68  O   UNL     1      16.678  30.498  18.234  1.00  0.00    -0.250 OA
BRANCH  67  69
ATOM     69  O   UNL     1      15.976  28.342  18.023  1.00  0.00    -0.480 OA
ATOM     70  H   UNL     1      16.405  28.032  17.159  1.00  0.00     0.296 HD
ENDBRANCH  67  69
ENDBRANCH  65  67
ENDBRANCH  63  65
ENDBRANCH  59  60
ENDBRANCH  58  59
ENDBRANCH  55  58
ENDBRANCH  53  54
ENDBRANCH  50  53
ENDBRANCH  47  50
ENDBRANCH   5  47
BRANCH   4  71
ATOM     71  N   UNL     1      20.045  32.528  21.225  1.00  0.00    -0.348 N 
ATOM     72  C   UNL     1      19.632  33.778  21.684  1.00  0.00     0.217 C 
ATOM     73  H   UNL     1      20.662  32.503  20.363  1.00  0.00     0.163 HD
ATOM     74  C   UNL     1      20.029  35.034  21.004  1.00  0.00     0.114 C 
ATOM     75  O   UNL     1      18.907  33.843  22.694  1.00  0.00    -0.275 OA
ENDBRANCH   4  71
TORSDOF 32
