REMARK VINA RESULT:    -6.162      4.461     11.503
REMARK INTER + INTRA:         -23.433
REMARK INTER:                 -15.647
REMARK INTRA:                  -7.786
REMARK UNBOUND:                -6.283
REMARK SMILES CC(=O)N[C@@H]1[C@@H](O)C[C@](OC[C@H]2O[C@@H](O[C@H]3[C@H](O)[C@@H](O)[C@H](OCCN=[N+]=[N-])O[C@@H]3CO)[C@H](O)[C@@H](O)[C@H]2O)(C(=O)O)O[C@H]1C(O)[C@H](O)CNC(=O)OCc1cn(C[C@H](CC(=O)O)CC(C)C)nn1
REMARK SMILES IDX 43 1 42 2 9 3 8 4 41 5 6 6 5 7 10 8 11 9 12 10 14 11 13 12
REMARK SMILES IDX 32 13 34 14 36 15 15 16 16 17 29 18 28 19 21 20 17 21 19 22
REMARK SMILES IDX 30 23 31 24 22 26 23 27 24 28 25 29 26 30 27 31 18 32 20 34
REMARK SMILES IDX 33 36 35 38 37 40 38 42 39 43 40 44 7 46 4 48 2 49 1 51 3 52
REMARK SMILES IDX 44 53 45 55 46 56 47 58 48 59 49 60 50 62 51 63 52 64 53 65
REMARK SMILES IDX 54 66 67 67 55 68 66 69 56 70 57 71 58 72 59 73 60 74 61 75
REMARK SMILES IDX 62 77 63 78 64 79 65 80
REMARK H PARENT 31 25 18 33 20 35 33 37 35 39 37 41 40 45 7 47 4 50 44 54
REMARK H PARENT 46 57 48 61 61 76
REMARK Flexibility Score: inf
ROOT
ATOM      1  C   UNL     1       9.237  23.155  37.993  1.00  0.00     0.176 C 
ENDROOT
BRANCH   1   2
ATOM      2  C   UNL     1      10.045  24.346  37.560  1.00  0.00     0.178 C 
ATOM      3  C   UNL     1      10.306  24.805  35.208  1.00  0.00     0.272 C 
ATOM      4  C   UNL     1      11.646  24.164  35.208  1.00  0.00     0.113 C 
ATOM      5  O   UNL     1       9.605  24.658  36.313  1.00  0.00    -0.332 OA
ATOM      6  C   UNL     1      12.036  23.392  36.403  1.00  0.00     0.145 C 
ATOM      7  C   UNL     1      11.485  23.993  37.697  1.00  0.00     0.142 C 
BRANCH   3   8
ATOM      8  O   UNL     1       9.545  24.301  34.117  1.00  0.00    -0.338 OA
BRANCH   8   9
ATOM      9  C   UNL     1       8.672  23.310  34.441  1.00  0.00     0.199 C 
BRANCH   9  10
ATOM     10  C   UNL     1       7.309  23.558  33.758  1.00  0.00     0.179 C 
ATOM     11  C   UNL     1       5.443  22.437  32.954  1.00  0.00     0.282 C 
ATOM     12  O   UNL     1       6.506  22.439  33.844  1.00  0.00    -0.341 OA
ATOM     13  C   UNL     1       4.985  23.898  32.816  1.00  0.00     0.202 C 
ATOM     14  C   UNL     1       5.145  24.621  34.137  1.00  0.00     0.179 C 
ATOM     15  C   UNL     1       6.587  24.684  34.512  1.00  0.00     0.177 C 
BRANCH  11  16
ATOM     16  O   UNL     1       4.383  21.785  33.534  1.00  0.00    -0.341 OA
BRANCH  16  17
ATOM     17  C   UNL     1       3.777  20.812  32.784  1.00  0.00     0.184 C 
ATOM     18  C   UNL     1       2.694  21.308  31.871  1.00  0.00     0.178 C 
ATOM     19  O   UNL     1       1.439  20.855  32.151  1.00  0.00    -0.341 OA
ATOM     20  C   UNL     1       1.299  19.481  32.197  1.00  0.00     0.281 C 
ATOM     21  C   UNL     1       3.148  19.827  33.747  1.00  0.00     0.180 C 
ATOM     22  C   UNL     1       2.397  18.778  32.915  1.00  0.00     0.202 C 
BRANCH  18  23
ATOM     23  C   UNL     1       3.127  21.026  30.444  1.00  0.00     0.191 C 
BRANCH  23  24
ATOM     24  O   UNL     1       4.311  20.294  30.409  1.00  0.00    -0.394 OA
ATOM     25  H   UNL     1       4.147  19.312  30.407  1.00  0.00     0.210 HD
ENDBRANCH  23  24
ENDBRANCH  18  23
BRANCH  20  26
ATOM     26  O   UNL     1       1.081  19.036  30.901  1.00  0.00    -0.350 OA
BRANCH  26  27
ATOM     27  C   UNL     1      -0.230  18.657  30.668  1.00  0.00     0.169 C 
BRANCH  27  28
ATOM     28  C   UNL     1      -0.557  19.056  29.235  1.00  0.00     0.119 C 
BRANCH  28  29
ATOM     29  N   UNL     1      -0.098  20.430  29.092  1.00  0.00    -0.092 NA
ATOM     30  N   UNL     1       0.315  20.795  28.016  1.00  0.00     0.001 N 
ATOM     31  N   UNL     1       0.913  21.378  27.103  1.00  0.00    -0.003 NA
ENDBRANCH  28  29
ENDBRANCH  27  28
ENDBRANCH  26  27
ENDBRANCH  20  26
BRANCH  21  32
ATOM     32  O   UNL     1       4.119  19.249  34.543  1.00  0.00    -0.387 OA
ATOM     33  H   UNL     1       4.535  18.507  34.002  1.00  0.00     0.211 HD
ENDBRANCH  21  32
BRANCH  22  34
ATOM     34  O   UNL     1       1.922  17.845  33.860  1.00  0.00    -0.385 OA
ATOM     35  H   UNL     1       2.702  17.365  34.210  1.00  0.00     0.211 HD
ENDBRANCH  22  34
ENDBRANCH  16  17
ENDBRANCH  11  16
BRANCH  13  36
ATOM     36  O   UNL     1       5.565  24.541  31.751  1.00  0.00    -0.385 OA
ATOM     37  H   UNL     1       5.201  24.302  30.881  1.00  0.00     0.211 HD
ENDBRANCH  13  36
BRANCH  14  38
ATOM     38  O   UNL     1       4.462  23.831  35.083  1.00  0.00    -0.387 OA
ATOM     39  H   UNL     1       3.604  24.209  35.331  1.00  0.00     0.211 HD
ENDBRANCH  14  38
BRANCH  15  40
ATOM     40  O   UNL     1       6.672  24.450  35.900  1.00  0.00    -0.387 OA
ATOM     41  H   UNL     1       7.262  25.092  36.327  1.00  0.00     0.211 HD
ENDBRANCH  15  40
ENDBRANCH   9  10
ENDBRANCH   8   9
ENDBRANCH   3   8
BRANCH   3  42
ATOM     42  C   UNL     1      10.448  26.272  34.847  1.00  0.00     0.364 C 
ATOM     43  O   UNL     1       9.739  26.773  33.965  1.00  0.00    -0.246 OA
BRANCH  42  44
ATOM     44  O   UNL     1      11.361  27.057  35.491  1.00  0.00    -0.477 OA
ATOM     45  H   UNL     1      11.465  28.055  35.310  1.00  0.00     0.296 HD
ENDBRANCH  42  44
ENDBRANCH   3  42
BRANCH   6  46
ATOM     46  O   UNL     1      11.781  22.038  36.383  1.00  0.00    -0.391 OA
ATOM     47  H   UNL     1      11.234  21.839  37.183  1.00  0.00     0.211 HD
ENDBRANCH   6  46
BRANCH   7  48
ATOM     48  N   UNL     1      12.374  25.076  38.025  1.00  0.00    -0.348 N 
ATOM     49  C   UNL     1      13.380  24.847  39.037  1.00  0.00     0.217 C 
ATOM     50  H   UNL     1      12.363  26.029  37.601  1.00  0.00     0.163 HD
ATOM     51  C   UNL     1      14.313  25.979  39.374  1.00  0.00     0.114 C 
ATOM     52  O   UNL     1      13.495  23.749  39.634  1.00  0.00    -0.275 OA
ENDBRANCH   7  48
ENDBRANCH   1   2
BRANCH   1  53
ATOM     53  O   UNL     1       7.905  23.592  38.262  1.00  0.00    -0.388 OA
ATOM     54  H   UNL     1       7.269  23.013  37.767  1.00  0.00     0.211 HD
ENDBRANCH   1  53
BRANCH   1  55
ATOM     55  C   UNL     1       9.650  22.474  39.279  1.00  0.00     0.165 C 
BRANCH  55  56
ATOM     56  O   UNL     1       9.893  21.114  38.799  1.00  0.00    -0.388 OA
ATOM     57  H   UNL     1       9.760  20.581  39.648  1.00  0.00     0.211 HD
ENDBRANCH  55  56
BRANCH  55  58
ATOM     58  C   UNL     1       8.515  22.282  40.224  1.00  0.00     0.154 C 
BRANCH  58  59
ATOM     59  N   UNL     1       8.124  20.922  40.341  1.00  0.00    -0.319 N 
ATOM     60  C   UNL     1       7.558  20.526  41.609  1.00  0.00     0.407 C 
ATOM     61  H   UNL     1       8.196  20.168  39.634  1.00  0.00     0.167 HD
ATOM     62  O   UNL     1       7.433  21.381  42.531  1.00  0.00    -0.225 OA
BRANCH  60  63
ATOM     63  O   UNL     1       7.140  19.244  41.887  1.00  0.00    -0.443 OA
BRANCH  63  64
ATOM     64  C   UNL     1       5.798  18.829  42.037  1.00  0.00     0.294 C 
BRANCH  64  65
ATOM     65  C   UNL     1       4.954  19.141  40.849  1.00  0.00     0.120 A 
ATOM     66  C   UNL     1       3.789  19.870  40.789  1.00  0.00     0.138 A 
ATOM     67  N   UNL     1       5.222  18.739  39.603  1.00  0.00    -0.132 NA
ATOM     68  N   UNL     1       3.367  19.894  39.488  1.00  0.00    -0.252 N 
ATOM     69  N   UNL     1       4.262  19.202  38.822  1.00  0.00    -0.067 NA
BRANCH  68  70
ATOM     70  C   UNL     1       2.199  20.511  38.975  1.00  0.00     0.150 C 
BRANCH  70  71
ATOM     71  C   UNL     1       2.405  21.775  38.254  1.00  0.00     0.022 C 
BRANCH  71  72
ATOM     72  C   UNL     1       3.036  22.889  39.002  1.00  0.00     0.128 C 
BRANCH  72  73
ATOM     73  C   UNL     1       4.488  23.057  38.854  1.00  0.00     0.303 C 
ATOM     74  O   UNL     1       5.174  23.388  39.856  1.00  0.00    -0.252 OA
BRANCH  73  75
ATOM     75  O   UNL     1       5.166  22.869  37.657  1.00  0.00    -0.481 OA
ATOM     76  H   UNL     1       5.876  23.525  37.366  1.00  0.00     0.296 HD
ENDBRANCH  73  75
ENDBRANCH  72  73
ENDBRANCH  71  72
BRANCH  71  77
ATOM     77  C   UNL     1       1.241  22.217  37.413  1.00  0.00     0.009 C 
BRANCH  77  78
ATOM     78  C   UNL     1       1.143  21.771  36.024  1.00  0.00    -0.017 C 
ATOM     79  C   UNL     1       0.103  20.775  35.658  1.00  0.00     0.007 C 
ATOM     80  C   UNL     1       1.096  22.895  35.006  1.00  0.00     0.007 C 
ENDBRANCH  77  78
ENDBRANCH  71  77
ENDBRANCH  70  71
ENDBRANCH  68  70
ENDBRANCH  64  65
ENDBRANCH  63  64
ENDBRANCH  60  63
ENDBRANCH  58  59
ENDBRANCH  55  58
ENDBRANCH   1  55
TORSDOF 36
