REMARK VINA RESULT:    -6.085      3.185     10.203
REMARK INTER + INTRA:         -22.808
REMARK INTER:                 -14.801
REMARK INTRA:                  -8.007
REMARK UNBOUND:                -6.761
REMARK SMILES CC(=O)N[C@@H]1[C@@H](O)C[C@](OC[C@H]2O[C@@H](O[C@H]3[C@H](O)[C@@H](O)[C@H](OCCN=[N+]=[N-])O[C@@H]3CO)[C@H](O)[C@@H](O)[C@H]2O)(C(=O)O)O[C@H]1C(O)[C@H](O)CNC(=O)OCc1cn(CCNS(C)(=O)=O)nn1
REMARK SMILES IDX 43 1 42 2 9 3 8 4 41 5 6 6 5 7 10 8 11 9 12 10 14 11 13 12
REMARK SMILES IDX 32 13 34 14 36 15 15 16 16 17 29 18 28 19 21 20 17 21 19 22
REMARK SMILES IDX 30 23 31 24 22 26 23 27 24 28 25 29 26 30 27 31 18 32 20 34
REMARK SMILES IDX 33 36 35 38 37 40 38 42 39 43 40 44 7 46 4 48 2 49 1 51 3 52
REMARK SMILES IDX 44 53 45 55 46 56 47 58 48 59 49 60 50 62 51 63 52 64 53 65
REMARK SMILES IDX 54 66 64 67 55 68 63 69 56 70 57 71 58 72 59 74 61 75 62 76
REMARK SMILES IDX 60 77
REMARK H PARENT 31 25 18 33 20 35 33 37 35 39 37 41 40 45 7 47 4 50 44 54
REMARK H PARENT 46 57 48 61 58 73
REMARK Flexibility Score: inf
ROOT
ATOM      1  C   UNL     1      14.230  33.161  21.800  1.00  0.00     0.176 C 
ENDROOT
BRANCH   1   2
ATOM      2  C   UNL     1      14.411  32.073  22.876  1.00  0.00     0.178 C 
ATOM      3  C   UNL     1      14.463  29.734  22.956  1.00  0.00     0.272 C 
ATOM      4  C   UNL     1      13.270  29.608  23.817  1.00  0.00     0.113 C 
ATOM      5  O   UNL     1      14.444  30.900  22.201  1.00  0.00    -0.332 OA
ATOM      6  C   UNL     1      12.578  30.898  24.160  1.00  0.00     0.145 C 
ATOM      7  C   UNL     1      13.322  32.156  23.871  1.00  0.00     0.142 C 
BRANCH   3   8
ATOM      8  O   UNL     1      14.647  28.722  22.009  1.00  0.00    -0.338 OA
BRANCH   8   9
ATOM      9  C   UNL     1      13.802  28.848  20.919  1.00  0.00     0.199 C 
BRANCH   9  10
ATOM     10  C   UNL     1      14.560  28.661  19.652  1.00  0.00     0.179 C 
ATOM     11  C   UNL     1      14.862  29.382  17.482  1.00  0.00     0.282 C 
ATOM     12  O   UNL     1      14.328  29.682  18.746  1.00  0.00    -0.341 OA
ATOM     13  C   UNL     1      16.345  29.250  17.528  1.00  0.00     0.202 C 
ATOM     14  C   UNL     1      16.664  28.089  18.445  1.00  0.00     0.179 C 
ATOM     15  C   UNL     1      15.998  28.280  19.765  1.00  0.00     0.177 C 
BRANCH  11  16
ATOM     16  O   UNL     1      14.457  30.371  16.637  1.00  0.00    -0.341 OA
BRANCH  16  17
ATOM     17  C   UNL     1      13.579  30.021  15.669  1.00  0.00     0.184 C 
ATOM     18  C   UNL     1      13.796  30.437  14.269  1.00  0.00     0.178 C 
ATOM     19  O   UNL     1      12.559  30.475  13.625  1.00  0.00    -0.341 OA
ATOM     20  C   UNL     1      11.819  31.565  13.981  1.00  0.00     0.281 C 
ATOM     21  C   UNL     1      12.126  30.399  16.068  1.00  0.00     0.180 C 
ATOM     22  C   UNL     1      11.938  31.780  15.476  1.00  0.00     0.202 C 
BRANCH  18  23
ATOM     23  C   UNL     1      14.584  29.374  13.511  1.00  0.00     0.191 C 
BRANCH  23  24
ATOM     24  O   UNL     1      14.624  28.182  14.270  1.00  0.00    -0.394 OA
ATOM     25  H   UNL     1      14.974  28.338  15.174  1.00  0.00     0.210 HD
ENDBRANCH  23  24
ENDBRANCH  18  23
BRANCH  20  26
ATOM     26  O   UNL     1      10.477  31.428  13.595  1.00  0.00    -0.350 OA
BRANCH  26  27
ATOM     27  C   UNL     1      10.261  31.532  12.245  1.00  0.00     0.169 C 
BRANCH  27  28
ATOM     28  C   UNL     1       9.378  30.403  11.817  1.00  0.00     0.119 C 
BRANCH  28  29
ATOM     29  N   UNL     1       9.567  29.215  12.641  1.00  0.00    -0.092 NA
ATOM     30  N   UNL     1      10.370  28.384  12.182  1.00  0.00     0.001 N 
ATOM     31  N   UNL     1      11.037  27.378  11.966  1.00  0.00    -0.003 NA
ENDBRANCH  28  29
ENDBRANCH  27  28
ENDBRANCH  26  27
ENDBRANCH  20  26
BRANCH  21  32
ATOM     32  O   UNL     1      11.225  29.539  15.433  1.00  0.00    -0.387 OA
ATOM     33  H   UNL     1      10.897  29.974  14.602  1.00  0.00     0.211 HD
ENDBRANCH  21  32
BRANCH  22  34
ATOM     34  O   UNL     1      12.931  32.673  15.809  1.00  0.00    -0.385 OA
ATOM     35  H   UNL     1      13.730  32.257  16.222  1.00  0.00     0.211 HD
ENDBRANCH  22  34
ENDBRANCH  16  17
ENDBRANCH  11  16
BRANCH  13  36
ATOM     36  O   UNL     1      16.857  28.879  16.276  1.00  0.00    -0.385 OA
ATOM     37  H   UNL     1      17.568  28.193  16.353  1.00  0.00     0.211 HD
ENDBRANCH  13  36
BRANCH  14  38
ATOM     38  O   UNL     1      18.010  27.828  18.509  1.00  0.00    -0.387 OA
ATOM     39  H   UNL     1      18.380  27.959  19.438  1.00  0.00     0.211 HD
ENDBRANCH  14  38
BRANCH  15  40
ATOM     40  O   UNL     1      16.666  29.283  20.460  1.00  0.00    -0.387 OA
ATOM     41  H   UNL     1      17.414  29.680  19.944  1.00  0.00     0.211 HD
ENDBRANCH  15  40
ENDBRANCH   9  10
ENDBRANCH   8   9
ENDBRANCH   3   8
BRANCH   3  42
ATOM     42  C   UNL     1      15.708  29.710  23.759  1.00  0.00     0.364 C 
ATOM     43  O   UNL     1      15.700  29.900  25.020  1.00  0.00    -0.246 OA
BRANCH  42  44
ATOM     44  O   UNL     1      16.966  29.487  23.235  1.00  0.00    -0.477 OA
ATOM     45  H   UNL     1      17.265  29.835  22.328  1.00  0.00     0.296 HD
ENDBRANCH  42  44
ENDBRANCH   3  42
BRANCH   6  46
ATOM     46  O   UNL     1      11.317  30.958  23.585  1.00  0.00    -0.391 OA
ATOM     47  H   UNL     1      11.009  31.851  23.332  1.00  0.00     0.211 HD
ENDBRANCH   6  46
BRANCH   7  48
ATOM     48  N   UNL     1      13.856  32.663  25.146  1.00  0.00    -0.348 N 
ATOM     49  C   UNL     1      13.145  33.387  26.109  1.00  0.00     0.217 C 
ATOM     50  H   UNL     1      14.883  32.438  25.396  1.00  0.00     0.163 HD
ATOM     51  C   UNL     1      13.808  33.866  27.373  1.00  0.00     0.114 C 
ATOM     52  O   UNL     1      11.926  33.673  25.963  1.00  0.00    -0.275 OA
ENDBRANCH   7  48
ENDBRANCH   1   2
BRANCH   1  53
ATOM     53  O   UNL     1      14.115  34.406  22.442  1.00  0.00    -0.388 OA
ATOM     54  H   UNL     1      14.993  34.625  22.802  1.00  0.00     0.211 HD
ENDBRANCH   1  53
BRANCH   1  55
ATOM     55  C   UNL     1      15.415  33.202  20.907  1.00  0.00     0.165 C 
BRANCH  55  56
ATOM     56  O   UNL     1      15.585  32.120  20.078  1.00  0.00    -0.388 OA
ATOM     57  H   UNL     1      15.066  31.321  20.357  1.00  0.00     0.211 HD
ENDBRANCH  55  56
BRANCH  55  58
ATOM     58  C   UNL     1      16.703  33.601  21.557  1.00  0.00     0.154 C 
BRANCH  58  59
ATOM     59  N   UNL     1      17.777  32.698  21.239  1.00  0.00    -0.319 N 
ATOM     60  C   UNL     1      19.042  32.897  21.913  1.00  0.00     0.407 C 
ATOM     61  H   UNL     1      17.705  31.920  20.564  1.00  0.00     0.167 HD
ATOM     62  O   UNL     1      19.094  33.837  22.747  1.00  0.00    -0.225 OA
BRANCH  60  63
ATOM     63  O   UNL     1      20.118  32.093  21.642  1.00  0.00    -0.443 OA
BRANCH  63  64
ATOM     64  C   UNL     1      20.428  31.010  22.487  1.00  0.00     0.294 C 
BRANCH  64  65
ATOM     65  C   UNL     1      20.384  29.734  21.749  1.00  0.00     0.120 A 
ATOM     66  C   UNL     1      21.458  28.960  21.343  1.00  0.00     0.138 A 
ATOM     67  N   UNL     1      19.305  29.067  21.365  1.00  0.00    -0.132 NA
ATOM     68  N   UNL     1      21.011  27.861  20.735  1.00  0.00    -0.251 N 
ATOM     69  N   UNL     1      19.680  27.937  20.752  1.00  0.00    -0.067 NA
BRANCH  68  70
ATOM     70  C   UNL     1      21.819  26.799  20.158  1.00  0.00     0.162 C 
BRANCH  70  71
ATOM     71  C   UNL     1      21.993  25.674  21.177  1.00  0.00     0.122 C 
BRANCH  71  72
ATOM     72  N   UNL     1      20.880  25.628  22.081  1.00  0.00    -0.214 NA
ATOM     73  H   UNL     1      20.391  24.698  21.975  1.00  0.00     0.141 HD
BRANCH  72  74
ATOM     74  S   UNL     1      21.348  25.759  23.731  1.00  0.00     0.208 S 
ATOM     75  O   UNL     1      20.356  26.630  24.484  1.00  0.00    -0.213 OA
ATOM     76  O   UNL     1      21.283  24.356  24.303  1.00  0.00    -0.213 OA
ATOM     77  C   UNL     1      22.987  26.402  23.878  1.00  0.00     0.176 C 
ENDBRANCH  72  74
ENDBRANCH  71  72
ENDBRANCH  70  71
ENDBRANCH  68  70
ENDBRANCH  64  65
ENDBRANCH  63  64
ENDBRANCH  60  63
ENDBRANCH  58  59
ENDBRANCH  55  58
ENDBRANCH   1  55
TORSDOF 33
