REMARK VINA RESULT:    -6.343      1.862      2.642
REMARK INTER + INTRA:         -22.188
REMARK INTER:                 -15.187
REMARK INTRA:                  -7.001
REMARK UNBOUND:                -5.463
REMARK SMILES CC(=O)N[C@@H]1[C@@H](O)C[C@](OC[C@H]2O[C@@H](O[C@H]3[C@H](O)[C@@H](O)[C@H](OCCN=[N+]=[N-])O[C@@H]3CO)[C@H](O)[C@@H](O)[C@H]2O)(C(=O)O)O[C@H]1C(O)[C@H](O)CNC(=O)OCc1cn(COCc2ccccc2)nn1
REMARK SMILES IDX 43 1 42 2 9 3 8 4 41 5 6 6 5 7 10 8 11 9 12 10 14 11 13 12
REMARK SMILES IDX 32 13 34 14 36 15 15 16 16 17 29 18 28 19 21 20 17 21 19 22
REMARK SMILES IDX 30 23 31 24 22 26 23 27 24 28 25 29 26 30 27 31 18 32 20 34
REMARK SMILES IDX 33 36 35 38 37 40 38 42 39 43 40 44 7 46 4 48 2 49 1 51 3 52
REMARK SMILES IDX 44 53 45 55 46 56 47 58 48 59 49 60 50 62 51 63 52 64 53 65
REMARK SMILES IDX 54 66 66 67 55 68 65 69 56 70 57 71 58 72 59 73 60 74 64 75
REMARK SMILES IDX 61 76 63 77 62 78
REMARK H PARENT 31 25 18 33 20 35 33 37 35 39 37 41 40 45 7 47 4 50 44 54
REMARK H PARENT 46 57 48 61
REMARK Flexibility Score: inf
ROOT
ATOM      1  C   UNL     1      16.132  32.457  21.413  1.00  0.00     0.176 C 
ENDROOT
BRANCH   1   2
ATOM      2  C   UNL     1      15.532  31.040  21.269  1.00  0.00     0.178 C 
ATOM      3  C   UNL     1      15.476  29.392  19.631  1.00  0.00     0.272 C 
ATOM      4  C   UNL     1      14.014  29.121  19.970  1.00  0.00     0.113 C 
ATOM      5  O   UNL     1      15.686  30.704  19.923  1.00  0.00    -0.332 OA
ATOM      6  C   UNL     1      13.338  30.411  20.368  1.00  0.00     0.145 C 
ATOM      7  C   UNL     1      14.075  31.006  21.606  1.00  0.00     0.142 C 
BRANCH   3   8
ATOM      8  O   UNL     1      15.703  29.135  18.264  1.00  0.00    -0.338 OA
BRANCH   8   9
ATOM      9  C   UNL     1      16.958  29.273  17.810  1.00  0.00     0.199 C 
BRANCH   9  10
ATOM     10  C   UNL     1      17.005  30.264  16.671  1.00  0.00     0.179 C 
ATOM     11  C   UNL     1      15.868  31.327  15.025  1.00  0.00     0.282 C 
ATOM     12  O   UNL     1      15.725  30.422  16.101  1.00  0.00    -0.341 OA
ATOM     13  C   UNL     1      16.030  32.750  15.549  1.00  0.00     0.202 C 
ATOM     14  C   UNL     1      16.410  32.602  17.030  1.00  0.00     0.179 C 
ATOM     15  C   UNL     1      17.542  31.595  17.053  1.00  0.00     0.177 C 
BRANCH  11  16
ATOM     16  O   UNL     1      14.718  31.281  14.286  1.00  0.00    -0.341 OA
BRANCH  16  17
ATOM     17  C   UNL     1      14.706  30.284  13.321  1.00  0.00     0.184 C 
ATOM     18  C   UNL     1      13.864  30.609  12.140  1.00  0.00     0.178 C 
ATOM     19  O   UNL     1      12.546  30.535  12.476  1.00  0.00    -0.341 OA
ATOM     20  C   UNL     1      12.085  29.271  12.760  1.00  0.00     0.281 C 
ATOM     21  C   UNL     1      14.303  28.998  13.955  1.00  0.00     0.180 C 
ATOM     22  C   UNL     1      13.006  28.414  13.534  1.00  0.00     0.202 C 
BRANCH  18  23
ATOM     23  C   UNL     1      14.256  29.731  10.974  1.00  0.00     0.191 C 
BRANCH  23  24
ATOM     24  O   UNL     1      15.632  29.475  10.972  1.00  0.00    -0.394 OA
ATOM     25  H   UNL     1      16.069  30.031  10.279  1.00  0.00     0.210 HD
ENDBRANCH  23  24
ENDBRANCH  18  23
BRANCH  20  26
ATOM     26  O   UNL     1      11.810  28.655  11.534  1.00  0.00    -0.350 OA
BRANCH  26  27
ATOM     27  C   UNL     1      10.794  27.736  11.580  1.00  0.00     0.169 C 
BRANCH  27  28
ATOM     28  C   UNL     1       9.495  28.512  11.445  1.00  0.00     0.119 C 
BRANCH  28  29
ATOM     29  N   UNL     1       8.470  28.019  12.337  1.00  0.00    -0.092 NA
ATOM     30  N   UNL     1       7.585  28.786  12.759  1.00  0.00     0.001 N 
ATOM     31  N   UNL     1       7.109  29.627  13.546  1.00  0.00    -0.003 NA
ENDBRANCH  28  29
ENDBRANCH  27  28
ENDBRANCH  26  27
ENDBRANCH  20  26
BRANCH  21  32
ATOM     32  O   UNL     1      15.294  28.009  13.703  1.00  0.00    -0.387 OA
ATOM     33  H   UNL     1      14.962  27.112  13.864  1.00  0.00     0.211 HD
ENDBRANCH  21  32
BRANCH  22  34
ATOM     34  O   UNL     1      12.306  28.030  14.708  1.00  0.00    -0.385 OA
ATOM     35  H   UNL     1      11.582  27.424  14.402  1.00  0.00     0.211 HD
ENDBRANCH  22  34
ENDBRANCH  16  17
ENDBRANCH  11  16
BRANCH  13  36
ATOM     36  O   UNL     1      17.106  33.406  14.951  1.00  0.00    -0.385 OA
ATOM     37  H   UNL     1      17.352  34.162  15.540  1.00  0.00     0.211 HD
ENDBRANCH  13  36
BRANCH  14  38
ATOM     38  O   UNL     1      15.299  32.030  17.634  1.00  0.00    -0.387 OA
ATOM     39  H   UNL     1      15.073  32.430  18.511  1.00  0.00     0.211 HD
ENDBRANCH  14  38
BRANCH  15  40
ATOM     40  O   UNL     1      18.230  31.606  18.256  1.00  0.00    -0.387 OA
ATOM     41  H   UNL     1      18.209  30.735  18.728  1.00  0.00     0.211 HD
ENDBRANCH  15  40
ENDBRANCH   9  10
ENDBRANCH   8   9
ENDBRANCH   3   8
BRANCH   3  42
ATOM     42  C   UNL     1      16.402  28.518  20.350  1.00  0.00     0.364 C 
ATOM     43  O   UNL     1      16.384  27.260  20.402  1.00  0.00    -0.246 OA
BRANCH  42  44
ATOM     44  O   UNL     1      17.458  29.106  21.088  1.00  0.00    -0.477 OA
ATOM     45  H   UNL     1      17.971  28.563  21.780  1.00  0.00     0.296 HD
ENDBRANCH  42  44
ENDBRANCH   3  42
BRANCH   6  46
ATOM     46  O   UNL     1      13.273  31.389  19.439  1.00  0.00    -0.391 OA
ATOM     47  H   UNL     1      12.389  31.872  19.437  1.00  0.00     0.211 HD
ENDBRANCH   6  46
BRANCH   7  48
ATOM     48  N   UNL     1      13.764  30.080  22.668  1.00  0.00    -0.348 N 
ATOM     49  C   UNL     1      13.065  30.553  23.798  1.00  0.00     0.217 C 
ATOM     50  H   UNL     1      14.047  29.100  22.609  1.00  0.00     0.163 HD
ATOM     51  C   UNL     1      12.720  29.615  24.900  1.00  0.00     0.114 C 
ATOM     52  O   UNL     1      12.717  31.773  23.889  1.00  0.00    -0.275 OA
ENDBRANCH   7  48
ENDBRANCH   1   2
BRANCH   1  53
ATOM     53  O   UNL     1      17.548  32.296  21.162  1.00  0.00    -0.388 OA
ATOM     54  H   UNL     1      17.713  32.755  20.286  1.00  0.00     0.211 HD
ENDBRANCH   1  53
BRANCH   1  55
ATOM     55  C   UNL     1      16.029  33.048  22.775  1.00  0.00     0.165 C 
BRANCH  55  56
ATOM     56  O   UNL     1      16.261  34.388  22.902  1.00  0.00    -0.388 OA
ATOM     57  H   UNL     1      16.429  34.862  22.059  1.00  0.00     0.211 HD
ENDBRANCH  55  56
BRANCH  55  58
ATOM     58  C   UNL     1      16.494  32.279  23.950  1.00  0.00     0.154 C 
BRANCH  58  59
ATOM     59  N   UNL     1      17.887  31.938  24.027  1.00  0.00    -0.319 N 
ATOM     60  C   UNL     1      18.400  30.617  23.941  1.00  0.00     0.407 C 
ATOM     61  H   UNL     1      18.601  32.691  24.141  1.00  0.00     0.167 HD
ATOM     62  O   UNL     1      17.632  29.662  23.779  1.00  0.00    -0.225 OA
BRANCH  60  63
ATOM     63  O   UNL     1      19.761  30.303  24.027  1.00  0.00    -0.443 OA
BRANCH  63  64
ATOM     64  C   UNL     1      20.674  30.839  23.067  1.00  0.00     0.294 C 
BRANCH  64  65
ATOM     65  C   UNL     1      20.631  30.112  21.778  1.00  0.00     0.120 A 
ATOM     66  C   UNL     1      21.325  28.945  21.535  1.00  0.00     0.141 A 
ATOM     67  N   UNL     1      19.973  30.401  20.649  1.00  0.00    -0.132 NA
ATOM     68  N   UNL     1      21.063  28.567  20.260  1.00  0.00    -0.226 N 
ATOM     69  N   UNL     1      20.240  29.472  19.752  1.00  0.00    -0.065 NA
BRANCH  68  70
ATOM     70  C   UNL     1      21.556  27.408  19.551  1.00  0.00     0.307 C 
BRANCH  70  71
ATOM     71  O   UNL     1      22.562  26.776  20.228  1.00  0.00    -0.355 OA
BRANCH  71  72
ATOM     72  C   UNL     1      22.252  25.436  20.396  1.00  0.00     0.198 C 
BRANCH  72  73
ATOM     73  C   UNL     1      22.242  25.121  21.869  1.00  0.00    -0.022 A 
ATOM     74  C   UNL     1      21.022  24.898  22.472  1.00  0.00     0.006 A 
ATOM     75  C   UNL     1      23.412  25.060  22.582  1.00  0.00     0.006 A 
ATOM     76  C   UNL     1      20.970  24.609  23.819  1.00  0.00     0.000 A 
ATOM     77  C   UNL     1      23.337  24.772  23.914  1.00  0.00     0.000 A 
ATOM     78  C   UNL     1      22.132  24.542  24.559  1.00  0.00     0.000 A 
ENDBRANCH  72  73
ENDBRANCH  71  72
ENDBRANCH  70  71
ENDBRANCH  68  70
ENDBRANCH  64  65
ENDBRANCH  63  64
ENDBRANCH  60  63
ENDBRANCH  58  59
ENDBRANCH  55  58
ENDBRANCH   1  55
TORSDOF 33
