REMARK VINA RESULT:    -5.450     11.649     17.656
REMARK INTER + INTRA:         -23.927
REMARK INTER:                 -14.739
REMARK INTRA:                  -9.188
REMARK UNBOUND:                -7.166
REMARK SMILES CC(=O)N[C@@H]1[C@@H](O)C[C@](OC[C@H]2O[C@@H](O[C@H]3[C@H](O)[C@@H](O)[C@H](OCCN=[N+]=[N-])O[C@@H]3CO)[C@H](O)[C@@H](O)[C@H]2O)(C(=O)O)O[C@H]1C(O)[C@H](O)CNC(=O)OCc1cn(CCCCCCCCCCC(=O)O)nn1
REMARK SMILES IDX 51 1 49 2 48 3 50 5 47 6 45 7 43 8 42 9 9 10 8 11 41 12 6 13
REMARK SMILES IDX 5 14 10 15 11 16 12 17 14 18 13 19 32 20 34 21 36 22 15 23
REMARK SMILES IDX 16 24 29 25 28 26 21 27 17 28 19 29 30 30 31 31 22 33 23 34
REMARK SMILES IDX 24 35 25 36 26 37 27 38 18 39 20 41 33 43 35 45 37 47 38 49
REMARK SMILES IDX 39 50 40 51 7 53 4 55 2 56 1 58 3 59 44 60 46 62 52 64 53 65
REMARK SMILES IDX 54 66 70 67 55 68 69 69 56 70 57 71 58 72 59 73 60 74 61 75
REMARK SMILES IDX 62 76 63 77 64 78 65 79 66 80 67 81 68 82
REMARK H PARENT 48 4 31 32 18 40 20 42 33 44 35 46 37 48 40 52 7 54 4 57 44 61
REMARK H PARENT 46 63 68 83
REMARK Flexibility Score: inf
ROOT
ATOM      1  O   UNL     1       2.515  21.374  30.909  1.00  0.00    -0.443 OA
ENDROOT
BRANCH   1   2
ATOM      2  C   UNL     1       3.882  21.179  31.204  1.00  0.00     0.407 C 
ATOM      3  N   UNL     1       4.477  21.797  32.333  1.00  0.00    -0.319 N 
ATOM      4  H   UNL     1       3.876  22.412  32.942  1.00  0.00     0.167 HD
ATOM      5  O   UNL     1       4.602  20.455  30.480  1.00  0.00    -0.225 OA
BRANCH   3   6
ATOM      6  C   UNL     1       5.856  21.620  32.674  1.00  0.00     0.154 C 
BRANCH   6   7
ATOM      7  C   UNL     1       6.686  22.898  32.623  1.00  0.00     0.165 C 
BRANCH   7   8
ATOM      8  C   UNL     1       7.452  22.941  33.899  1.00  0.00     0.176 C 
BRANCH   8   9
ATOM      9  C   UNL     1       7.044  24.012  34.884  1.00  0.00     0.178 C 
ATOM     10  C   UNL     1       5.119  24.917  35.824  1.00  0.00     0.272 C 
ATOM     11  C   UNL     1       5.833  26.251  35.783  1.00  0.00     0.113 C 
ATOM     12  O   UNL     1       5.682  24.117  34.847  1.00  0.00    -0.332 OA
ATOM     13  C   UNL     1       6.772  26.398  34.628  1.00  0.00     0.145 C 
ATOM     14  C   UNL     1       7.802  25.289  34.699  1.00  0.00     0.142 C 
BRANCH  10  15
ATOM     15  O   UNL     1       3.745  25.082  35.587  1.00  0.00    -0.338 OA
BRANCH  15  16
ATOM     16  C   UNL     1       3.200  24.329  34.604  1.00  0.00     0.199 C 
BRANCH  16  17
ATOM     17  C   UNL     1       1.872  25.014  34.217  1.00  0.00     0.179 C 
ATOM     18  C   UNL     1       2.329  26.521  32.451  1.00  0.00     0.282 C 
ATOM     19  O   UNL     1       2.030  26.257  33.745  1.00  0.00    -0.341 OA
ATOM     20  C   UNL     1       2.121  25.377  31.534  1.00  0.00     0.202 C 
ATOM     21  C   UNL     1       0.871  24.619  31.967  1.00  0.00     0.179 C 
ATOM     22  C   UNL     1       1.037  24.078  33.372  1.00  0.00     0.177 C 
BRANCH  18  23
ATOM     23  O   UNL     1       3.654  27.028  32.438  1.00  0.00    -0.341 OA
BRANCH  23  24
ATOM     24  C   UNL     1       3.676  28.102  31.559  1.00  0.00     0.184 C 
ATOM     25  C   UNL     1       4.909  28.217  30.725  1.00  0.00     0.178 C 
ATOM     26  O   UNL     1       4.914  29.388  30.026  1.00  0.00    -0.341 OA
ATOM     27  C   UNL     1       3.829  30.181  29.991  1.00  0.00     0.281 C 
ATOM     28  C   UNL     1       3.572  29.417  32.349  1.00  0.00     0.180 C 
ATOM     29  C   UNL     1       3.215  30.482  31.338  1.00  0.00     0.202 C 
BRANCH  25  30
ATOM     30  C   UNL     1       5.112  27.050  29.775  1.00  0.00     0.191 C 
BRANCH  30  31
ATOM     31  O   UNL     1       5.439  25.877  30.402  1.00  0.00    -0.394 OA
ATOM     32  H   UNL     1       4.600  25.420  30.672  1.00  0.00     0.210 HD
ENDBRANCH  30  31
ENDBRANCH  25  30
BRANCH  27  33
ATOM     33  O   UNL     1       2.848  29.620  29.186  1.00  0.00    -0.350 OA
BRANCH  33  34
ATOM     34  C   UNL     1       1.678  30.378  29.176  1.00  0.00     0.169 C 
BRANCH  34  35
ATOM     35  C   UNL     1       0.465  29.543  28.877  1.00  0.00     0.119 C 
BRANCH  35  36
ATOM     36  N   UNL     1       0.414  28.436  29.834  1.00  0.00    -0.092 NA
ATOM     37  N   UNL     1       0.099  28.638  31.027  1.00  0.00     0.001 N 
ATOM     38  N   UNL     1      -0.221  29.127  32.133  1.00  0.00    -0.003 NA
ENDBRANCH  35  36
ENDBRANCH  34  35
ENDBRANCH  33  34
ENDBRANCH  27  33
BRANCH  28  39
ATOM     39  O   UNL     1       2.611  29.368  33.336  1.00  0.00    -0.387 OA
ATOM     40  H   UNL     1       1.744  29.763  33.066  1.00  0.00     0.211 HD
ENDBRANCH  28  39
BRANCH  29  41
ATOM     41  O   UNL     1       3.757  31.682  31.789  1.00  0.00    -0.385 OA
ATOM     42  H   UNL     1       3.732  31.661  32.795  1.00  0.00     0.211 HD
ENDBRANCH  29  41
ENDBRANCH  23  24
ENDBRANCH  18  23
BRANCH  20  43
ATOM     43  O   UNL     1       1.855  25.779  30.217  1.00  0.00    -0.385 OA
ATOM     44  H   UNL     1       1.022  26.336  30.271  1.00  0.00     0.211 HD
ENDBRANCH  20  43
BRANCH  21  45
ATOM     45  O   UNL     1       0.606  23.568  31.092  1.00  0.00    -0.387 OA
ATOM     46  H   UNL     1       1.166  22.807  31.391  1.00  0.00     0.211 HD
ENDBRANCH  21  45
BRANCH  22  47
ATOM     47  O   UNL     1       1.640  22.848  33.282  1.00  0.00    -0.387 OA
ATOM     48  H   UNL     1       0.964  22.151  33.482  1.00  0.00     0.211 HD
ENDBRANCH  22  47
ENDBRANCH  16  17
ENDBRANCH  15  16
ENDBRANCH  10  15
BRANCH  10  49
ATOM     49  C   UNL     1       5.199  24.289  37.146  1.00  0.00     0.364 C 
ATOM     50  O   UNL     1       4.765  23.149  37.379  1.00  0.00    -0.246 OA
BRANCH  49  51
ATOM     51  O   UNL     1       5.777  24.962  38.209  1.00  0.00    -0.477 OA
ATOM     52  H   UNL     1       6.790  25.068  38.304  1.00  0.00     0.296 HD
ENDBRANCH  49  51
ENDBRANCH  10  49
BRANCH  13  53
ATOM     53  O   UNL     1       6.182  26.494  33.387  1.00  0.00    -0.391 OA
ATOM     54  H   UNL     1       5.467  27.191  33.333  1.00  0.00     0.211 HD
ENDBRANCH  13  53
BRANCH  14  55
ATOM     55  N   UNL     1       8.709  25.616  35.750  1.00  0.00    -0.348 N 
ATOM     56  C   UNL     1      10.117  25.416  35.687  1.00  0.00     0.217 C 
ATOM     57  H   UNL     1       8.356  26.032  36.645  1.00  0.00     0.163 HD
ATOM     58  C   UNL     1      10.991  25.779  36.817  1.00  0.00     0.114 C 
ATOM     59  O   UNL     1      10.585  24.923  34.645  1.00  0.00    -0.275 OA
ENDBRANCH  14  55
ENDBRANCH   8   9
BRANCH   8  60
ATOM     60  O   UNL     1       8.791  22.909  33.618  1.00  0.00    -0.388 OA
ATOM     61  H   UNL     1       9.105  22.107  33.171  1.00  0.00     0.211 HD
ENDBRANCH   8  60
ENDBRANCH   7   8
BRANCH   7  62
ATOM     62  O   UNL     1       5.797  23.951  32.442  1.00  0.00    -0.388 OA
ATOM     63  H   UNL     1       4.986  23.673  31.951  1.00  0.00     0.211 HD
ENDBRANCH   7  62
ENDBRANCH   6   7
ENDBRANCH   3   6
ENDBRANCH   1   2
BRANCH   1  64
ATOM     64  C   UNL     1       1.928  20.459  29.974  1.00  0.00     0.294 C 
BRANCH  64  65
ATOM     65  C   UNL     1       1.744  21.193  28.705  1.00  0.00     0.120 A 
ATOM     66  C   UNL     1       2.303  22.424  28.413  1.00  0.00     0.138 A 
ATOM     67  N   UNL     1       1.037  20.821  27.629  1.00  0.00    -0.132 NA
ATOM     68  N   UNL     1       1.902  22.737  27.166  1.00  0.00    -0.252 N 
ATOM     69  N   UNL     1       1.126  21.737  26.705  1.00  0.00    -0.067 NA
BRANCH  68  70
ATOM     70  C   UNL     1       2.205  23.901  26.392  1.00  0.00     0.146 C 
BRANCH  70  71
ATOM     71  C   UNL     1       3.634  24.315  26.369  1.00  0.00     0.024 C 
BRANCH  71  72
ATOM     72  C   UNL     1       3.944  25.644  26.963  1.00  0.00     0.002 C 
BRANCH  72  73
ATOM     73  C   UNL     1       4.744  26.566  26.109  1.00  0.00     0.000 C 
BRANCH  73  74
ATOM     74  C   UNL     1       4.030  27.780  25.624  1.00  0.00     0.000 C 
BRANCH  74  75
ATOM     75  C   UNL     1       4.640  29.016  26.226  1.00  0.00     0.000 C 
BRANCH  75  76
ATOM     76  C   UNL     1       6.118  28.870  26.515  1.00  0.00     0.000 C 
BRANCH  76  77
ATOM     77  C   UNL     1       6.991  29.495  25.477  1.00  0.00     0.001 C 
BRANCH  77  78
ATOM     78  C   UNL     1       7.556  28.538  24.473  1.00  0.00     0.012 C 
BRANCH  78  79
ATOM     79  C   UNL     1       8.834  27.948  25.043  1.00  0.00     0.122 C 
BRANCH  79  80
ATOM     80  C   UNL     1       8.637  26.506  25.270  1.00  0.00     0.303 C 
ATOM     81  O   UNL     1       8.127  25.787  24.386  1.00  0.00    -0.252 OA
BRANCH  80  82
ATOM     82  O   UNL     1       9.006  25.905  26.464  1.00  0.00    -0.481 OA
ATOM     83  H   UNL     1       8.392  25.291  26.968  1.00  0.00     0.296 HD
ENDBRANCH  80  82
ENDBRANCH  79  80
ENDBRANCH  78  79
ENDBRANCH  77  78
ENDBRANCH  76  77
ENDBRANCH  75  76
ENDBRANCH  74  75
ENDBRANCH  73  74
ENDBRANCH  72  73
ENDBRANCH  71  72
ENDBRANCH  70  71
ENDBRANCH  68  70
ENDBRANCH  64  65
ENDBRANCH   1  64
TORSDOF 41
