REMARK VINA RESULT:    -8.574      2.898      8.101
REMARK INTER + INTRA:         -20.377
REMARK INTER:                 -12.757
REMARK INTRA:                  -7.620
REMARK UNBOUND:                 2.731
REMARK SMILES CC(=O)N[C@@H]1[C@@H](O)C[C@](OC[C@H]2O[C@@H](O[C@H]3[C@H](O)[C@@H](O)[C@H](OCCN=[N+]=[N-])O[C@@H]3CO)[C@H](O)[C@@H](O)[C@H]2O)(C(=O)O)O[C@H]1C(O)[C@H](O)CNC(=O)OCc1cn(C2CCc3ccccc3NC2=O)nn1
REMARK SMILES IDX 43 1 42 2 9 3 8 4 41 5 6 6 5 7 10 8 11 9 12 10 14 11 13 12
REMARK SMILES IDX 32 13 34 14 36 15 15 16 16 17 29 18 28 19 21 20 17 21 19 22
REMARK SMILES IDX 30 23 31 24 22 26 23 27 24 28 25 29 26 30 27 31 18 32 20 34
REMARK SMILES IDX 33 36 35 38 37 40 38 42 39 43 40 44 7 46 4 48 2 49 1 51 3 52
REMARK SMILES IDX 44 53 45 55 46 56 47 58 48 59 49 60 50 62 51 63 52 64 53 65
REMARK SMILES IDX 54 66 69 67 55 68 68 69 56 70 57 71 66 73 65 74 67 75 64 77
REMARK SMILES IDX 59 78 63 79 60 80 62 81 61 82 58 83
REMARK H PARENT 31 25 18 33 20 35 33 37 35 39 37 41 40 45 7 47 4 50 44 54
REMARK H PARENT 46 57 48 61 65 76
REMARK Flexibility Score: 90.00
ROOT
ATOM      1  C   UNL     1      23.252  29.487  19.880  1.00  0.00     0.176 C 
ENDROOT
BRANCH   1   2
ATOM      2  C   UNL     1      22.699  29.778  21.290  1.00  0.00     0.178 C 
ATOM      3  C   UNL     1      20.618  30.886  21.656  1.00  0.00     0.272 C 
ATOM      4  C   UNL     1      21.319  32.055  22.219  1.00  0.00     0.113 C 
ATOM      5  O   UNL     1      21.381  29.752  21.370  1.00  0.00    -0.332 OA
ATOM      6  C   UNL     1      22.685  32.242  21.651  1.00  0.00     0.145 C 
ATOM      7  C   UNL     1      23.450  30.944  21.871  1.00  0.00     0.142 C 
BRANCH   3   8
ATOM      8  O   UNL     1      19.891  31.110  20.540  1.00  0.00    -0.338 OA
BRANCH   8   9
ATOM      9  C   UNL     1      19.606  30.208  19.616  1.00  0.00     0.199 C 
BRANCH   9  10
ATOM     10  C   UNL     1      18.321  29.522  19.446  1.00  0.00     0.179 C 
ATOM     11  C   UNL     1      16.199  29.530  20.367  1.00  0.00     0.282 C 
ATOM     12  O   UNL     1      17.379  30.260  20.239  1.00  0.00    -0.341 OA
ATOM     13  C   UNL     1      15.994  28.444  19.387  1.00  0.00     0.202 C 
ATOM     14  C   UNL     1      16.591  28.618  18.033  1.00  0.00     0.179 C 
ATOM     15  C   UNL     1      17.698  29.642  18.056  1.00  0.00     0.177 C 
BRANCH  11  16
ATOM     16  O   UNL     1      15.125  30.441  20.454  1.00  0.00    -0.341 OA
BRANCH  16  17
ATOM     17  C   UNL     1      14.796  30.741  21.749  1.00  0.00     0.184 C 
ATOM     18  C   UNL     1      15.713  31.714  22.443  1.00  0.00     0.178 C 
ATOM     19  O   UNL     1      15.118  31.986  23.677  1.00  0.00    -0.341 OA
ATOM     20  C   UNL     1      15.309  30.948  24.578  1.00  0.00     0.281 C 
ATOM     21  C   UNL     1      14.759  29.489  22.613  1.00  0.00     0.180 C 
ATOM     22  C   UNL     1      15.477  29.617  23.907  1.00  0.00     0.202 C 
BRANCH  18  23
ATOM     23  C   UNL     1      15.801  33.035  21.706  1.00  0.00     0.191 C 
BRANCH  23  24
ATOM     24  O   UNL     1      16.552  32.927  20.537  1.00  0.00    -0.394 OA
ATOM     25  H   UNL     1      17.327  32.332  20.630  1.00  0.00     0.210 HD
ENDBRANCH  23  24
ENDBRANCH  18  23
BRANCH  20  26
ATOM     26  O   UNL     1      14.266  30.956  25.485  1.00  0.00    -0.350 OA
BRANCH  26  27
ATOM     27  C   UNL     1      14.444  31.916  26.466  1.00  0.00     0.169 C 
BRANCH  27  28
ATOM     28  C   UNL     1      14.717  31.378  27.834  1.00  0.00     0.119 C 
BRANCH  28  29
ATOM     29  N   UNL     1      13.554  31.605  28.675  1.00  0.00    -0.092 NA
ATOM     30  N   UNL     1      13.318  30.901  29.674  1.00  0.00     0.001 N 
ATOM     31  N   UNL     1      13.482  30.481  30.828  1.00  0.00    -0.003 NA
ENDBRANCH  28  29
ENDBRANCH  27  28
ENDBRANCH  26  27
ENDBRANCH  20  26
BRANCH  21  32
ATOM     32  O   UNL     1      13.448  29.013  22.767  1.00  0.00    -0.387 OA
ATOM     33  H   UNL     1      13.489  28.095  23.140  1.00  0.00     0.211 HD
ENDBRANCH  21  32
BRANCH  22  34
ATOM     34  O   UNL     1      16.857  29.326  23.793  1.00  0.00    -0.385 OA
ATOM     35  H   UNL     1      17.331  29.991  23.260  1.00  0.00     0.211 HD
ENDBRANCH  22  34
ENDBRANCH  16  17
ENDBRANCH  11  16
BRANCH  13  36
ATOM     36  O   UNL     1      16.318  27.213  19.967  1.00  0.00    -0.385 OA
ATOM     37  H   UNL     1      16.633  27.356  20.897  1.00  0.00     0.211 HD
ENDBRANCH  13  36
BRANCH  14  38
ATOM     38  O   UNL     1      15.643  28.879  17.045  1.00  0.00    -0.387 OA
ATOM     39  H   UNL     1      15.873  28.289  16.281  1.00  0.00     0.211 HD
ENDBRANCH  14  38
BRANCH  15  40
ATOM     40  O   UNL     1      17.150  30.941  17.912  1.00  0.00    -0.387 OA
ATOM     41  H   UNL     1      16.583  31.077  18.701  1.00  0.00     0.211 HD
ENDBRANCH  15  40
ENDBRANCH   9  10
ENDBRANCH   8   9
ENDBRANCH   3   8
BRANCH   3  42
ATOM     42  C   UNL     1      19.750  30.346  22.771  1.00  0.00     0.364 C 
ATOM     43  O   UNL     1      19.594  29.160  22.945  1.00  0.00    -0.246 OA
BRANCH  42  44
ATOM     44  O   UNL     1      19.103  31.237  23.634  1.00  0.00    -0.477 OA
ATOM     45  H   UNL     1      19.417  31.400  24.576  1.00  0.00     0.296 HD
ENDBRANCH  42  44
ENDBRANCH   3  42
BRANCH   6  46
ATOM     46  O   UNL     1      22.537  32.480  20.274  1.00  0.00    -0.391 OA
ATOM     47  H   UNL     1      23.250  32.090  19.741  1.00  0.00     0.211 HD
ENDBRANCH   6  46
BRANCH   7  48
ATOM     48  N   UNL     1      23.755  30.839  23.259  1.00  0.00    -0.348 N 
ATOM     49  C   UNL     1      24.824  30.013  23.706  1.00  0.00     0.217 C 
ATOM     50  H   UNL     1      23.203  31.361  23.980  1.00  0.00     0.163 HD
ATOM     51  C   UNL     1      25.181  29.869  25.144  1.00  0.00     0.114 C 
ATOM     52  O   UNL     1      25.473  29.398  22.852  1.00  0.00    -0.275 OA
ENDBRANCH   7  48
ENDBRANCH   1   2
BRANCH   1  53
ATOM     53  O   UNL     1      24.529  28.928  19.991  1.00  0.00    -0.388 OA
ATOM     54  H   UNL     1      24.639  28.101  19.472  1.00  0.00     0.211 HD
ENDBRANCH   1  53
BRANCH   1  55
ATOM     55  C   UNL     1      22.402  28.553  19.099  1.00  0.00     0.165 C 
BRANCH  55  56
ATOM     56  O   UNL     1      22.006  27.408  19.779  1.00  0.00    -0.388 OA
ATOM     57  H   UNL     1      21.104  27.157  19.444  1.00  0.00     0.211 HD
ENDBRANCH  55  56
BRANCH  55  58
ATOM     58  C   UNL     1      22.936  28.125  17.771  1.00  0.00     0.154 C 
BRANCH  58  59
ATOM     59  N   UNL     1      23.893  27.061  17.803  1.00  0.00    -0.319 N 
ATOM     60  C   UNL     1      23.566  25.691  17.676  1.00  0.00     0.407 C 
ATOM     61  H   UNL     1      24.896  27.309  17.928  1.00  0.00     0.167 HD
ATOM     62  O   UNL     1      22.377  25.321  17.522  1.00  0.00    -0.225 OA
BRANCH  60  63
ATOM     63  O   UNL     1      24.574  24.757  17.722  1.00  0.00    -0.443 OA
BRANCH  63  64
ATOM     64  C   UNL     1      25.337  24.497  18.848  1.00  0.00     0.294 C 
BRANCH  64  65
ATOM     65  C   UNL     1      24.680  25.011  20.052  1.00  0.00     0.120 A 
ATOM     66  C   UNL     1      23.731  24.365  20.805  1.00  0.00     0.139 A 
ATOM     67  N   UNL     1      24.860  26.208  20.661  1.00  0.00    -0.132 NA
ATOM     68  N   UNL     1      23.359  25.162  21.838  1.00  0.00    -0.240 N 
ATOM     69  N   UNL     1      24.064  26.268  21.716  1.00  0.00    -0.066 NA
BRANCH  68  70
ATOM     70  C   UNL     1      22.369  24.849  22.883  1.00  0.00     0.198 C 
BRANCH  70  71
ATOM     71  C   UNL     1      23.136  24.635  24.134  1.00  0.00     0.042 CG0
ATOM     72  G   UNL     1      22.363  24.625  25.406  1.00  0.00     0.000 G0
ENDBRANCH  70  71
BRANCH  70  73
ATOM     73  C   UNL     1      21.421  25.967  22.880  1.00  0.00     0.249 C 
ATOM     74  N   UNL     1      21.315  27.081  23.754  1.00  0.00    -0.324 N 
ATOM     75  O   UNL     1      20.566  25.931  21.954  1.00  0.00    -0.272 OA
ATOM     76  H   UNL     1      20.846  27.947  23.408  1.00  0.00     0.170 HD
BRANCH  74  77
ATOM     77  C   UNL     1      21.821  27.093  25.105  1.00  0.00     0.044 A 
ATOM     78  C   UNL     1      22.291  26.035  25.875  1.00  0.00    -0.024 A 
ATOM     79  C   UNL     1      21.805  28.362  25.642  1.00  0.00     0.026 A 
ATOM     80  C   UNL     1      22.743  26.223  27.161  1.00  0.00     0.006 A 
ATOM     81  C   UNL     1      22.253  28.579  26.931  1.00  0.00     0.002 A 
ATOM     82  C   UNL     1      22.721  27.494  27.680  1.00  0.00     0.000 A 
BRANCH  78  83
ATOM     83  C   UNL     1      22.349  24.628  25.387  1.00  0.00     0.040 CG0
ATOM     84  G   UNL     1      23.137  24.640  24.124  1.00  0.00     0.000 G0
ENDBRANCH  78  83
ENDBRANCH  74  77
ENDBRANCH  70  73
ENDBRANCH  68  70
ENDBRANCH  64  65
ENDBRANCH  63  64
ENDBRANCH  60  63
ENDBRANCH  58  59
ENDBRANCH  55  58
ENDBRANCH   1  55
TORSDOF 30
