REMARK VINA RESULT:    -5.357      2.884      7.326
REMARK INTER + INTRA:         -22.212
REMARK INTER:                 -14.908
REMARK INTRA:                  -7.304
REMARK UNBOUND:                -7.304
REMARK SMILES CC(=O)N[C@@H]1[C@@H](O)C[C@](OC[C@H]2O[C@@H](O[C@H]3[C@H](O)[C@@H](O)[C@H](OCCN=[N+]=[N-])O[C@@H]3CO)[C@H](O)[C@@H](O)[C@H]2O)(C(=O)O)O[C@H]1C(O)[C@H](O)CNC(=O)OCc1cn(CCCCCC(=O)O)nn1
REMARK SMILES IDX 47 1 45 2 43 3 42 4 9 5 8 6 41 7 6 8 5 9 10 10 11 11 12 12
REMARK SMILES IDX 14 13 13 14 32 15 34 16 36 17 15 18 16 19 29 20 28 21 21 22
REMARK SMILES IDX 17 23 19 24 30 25 31 26 22 28 23 29 24 30 25 31 26 32 27 33
REMARK SMILES IDX 18 34 20 36 33 38 35 40 37 42 38 44 39 45 40 46 7 48 4 50
REMARK SMILES IDX 2 51 1 53 3 54 44 55 46 57 48 59 49 60 50 62 51 63 52 64
REMARK SMILES IDX 53 65 54 66 65 67 55 68 64 69 56 70 57 71 58 72 59 73 60 74
REMARK SMILES IDX 61 75 62 76 63 77
REMARK H PARENT 31 27 18 35 20 37 33 39 35 41 37 43 40 47 7 49 4 52 44 56
REMARK H PARENT 46 58 48 61 63 78
REMARK Flexibility Score: inf
ROOT
ATOM      1  C   UNL     1      23.130  30.191  29.910  1.00  0.00     0.154 C 
ENDROOT
BRANCH   1   2
ATOM      2  C   UNL     1      24.021  29.496  28.909  1.00  0.00     0.165 C 
BRANCH   2   3
ATOM      3  C   UNL     1      23.323  29.560  27.590  1.00  0.00     0.176 C 
BRANCH   3   4
ATOM      4  C   UNL     1      22.737  28.284  27.095  1.00  0.00     0.178 C 
ATOM      5  C   UNL     1      23.111  26.098  26.696  1.00  0.00     0.272 C 
ATOM      6  C   UNL     1      21.619  26.030  26.721  1.00  0.00     0.113 C 
ATOM      7  O   UNL     1      23.651  27.373  26.593  1.00  0.00    -0.332 OA
ATOM      8  C   UNL     1      20.866  27.149  26.108  1.00  0.00     0.145 C 
ATOM      9  C   UNL     1      21.691  28.439  26.012  1.00  0.00     0.142 C 
BRANCH   5  10
ATOM     10  O   UNL     1      23.674  25.223  25.769  1.00  0.00    -0.338 OA
BRANCH  10  11
ATOM     11  C   UNL     1      24.320  25.770  24.707  1.00  0.00     0.199 C 
BRANCH  11  12
ATOM     12  C   UNL     1      23.343  25.753  23.546  1.00  0.00     0.179 C 
ATOM     13  C   UNL     1      22.214  26.898  21.992  1.00  0.00     0.282 C 
ATOM     14  O   UNL     1      23.449  26.847  22.703  1.00  0.00    -0.341 OA
ATOM     15  C   UNL     1      21.642  25.594  21.660  1.00  0.00     0.202 C 
ATOM     16  C   UNL     1      22.562  24.406  21.700  1.00  0.00     0.179 C 
ATOM     17  C   UNL     1      23.690  24.551  22.686  1.00  0.00     0.177 C 
BRANCH  13  18
ATOM     18  O   UNL     1      22.291  27.867  20.996  1.00  0.00    -0.341 OA
BRANCH  18  19
ATOM     19  C   UNL     1      21.272  27.888  20.118  1.00  0.00     0.184 C 
ATOM     20  C   UNL     1      21.717  28.055  18.697  1.00  0.00     0.178 C 
ATOM     21  O   UNL     1      20.614  27.658  17.913  1.00  0.00    -0.341 OA
ATOM     22  C   UNL     1      19.598  28.546  18.016  1.00  0.00     0.281 C 
ATOM     23  C   UNL     1      20.390  29.164  20.344  1.00  0.00     0.180 C 
ATOM     24  C   UNL     1      19.822  29.611  19.020  1.00  0.00     0.202 C 
BRANCH  20  25
ATOM     25  C   UNL     1      22.872  27.168  18.310  1.00  0.00     0.191 C 
BRANCH  25  26
ATOM     26  O   UNL     1      22.466  25.857  18.183  1.00  0.00    -0.394 OA
ATOM     27  H   UNL     1      21.614  25.855  17.671  1.00  0.00     0.210 HD
ENDBRANCH  25  26
ENDBRANCH  20  25
BRANCH  22  28
ATOM     28  O   UNL     1      18.347  27.944  18.204  1.00  0.00    -0.350 OA
BRANCH  28  29
ATOM     29  C   UNL     1      17.324  28.855  18.273  1.00  0.00     0.169 C 
BRANCH  29  30
ATOM     30  C   UNL     1      16.098  28.201  18.894  1.00  0.00     0.119 C 
BRANCH  30  31
ATOM     31  N   UNL     1      16.356  27.826  20.275  1.00  0.00    -0.092 NA
ATOM     32  N   UNL     1      16.166  28.657  21.182  1.00  0.00     0.001 N 
ATOM     33  N   UNL     1      16.442  29.500  22.038  1.00  0.00    -0.003 NA
ENDBRANCH  30  31
ENDBRANCH  29  30
ENDBRANCH  28  29
ENDBRANCH  22  28
BRANCH  23  34
ATOM     34  O   UNL     1      19.319  28.816  21.165  1.00  0.00    -0.387 OA
ATOM     35  H   UNL     1      19.232  27.819  21.175  1.00  0.00     0.211 HD
ENDBRANCH  23  34
BRANCH  24  36
ATOM     36  O   UNL     1      20.461  30.750  18.514  1.00  0.00    -0.385 OA
ATOM     37  H   UNL     1      21.033  30.546  17.732  1.00  0.00     0.211 HD
ENDBRANCH  24  36
ENDBRANCH  18  19
ENDBRANCH  13  18
BRANCH  15  38
ATOM     38  O   UNL     1      20.563  25.254  22.527  1.00  0.00    -0.385 OA
ATOM     39  H   UNL     1      20.462  25.929  23.222  1.00  0.00     0.211 HD
ENDBRANCH  15  38
BRANCH  16  40
ATOM     40  O   UNL     1      23.146  24.134  20.450  1.00  0.00    -0.387 OA
ATOM     41  H   UNL     1      23.678  24.876  20.109  1.00  0.00     0.211 HD
ENDBRANCH  16  40
BRANCH  17  42
ATOM     42  O   UNL     1      24.872  24.906  21.987  1.00  0.00    -0.387 OA
ATOM     43  H   UNL     1      24.724  24.571  21.047  1.00  0.00     0.211 HD
ENDBRANCH  17  42
ENDBRANCH  11  12
ENDBRANCH  10  11
ENDBRANCH   5  10
BRANCH   5  44
ATOM     44  C   UNL     1      23.577  25.595  28.018  1.00  0.00     0.364 C 
ATOM     45  O   UNL     1      22.762  25.373  28.941  1.00  0.00    -0.246 OA
BRANCH  44  46
ATOM     46  O   UNL     1      24.913  25.368  28.239  1.00  0.00    -0.477 OA
ATOM     47  H   UNL     1      25.378  24.471  28.020  1.00  0.00     0.296 HD
ENDBRANCH  44  46
ENDBRANCH   5  44
BRANCH   8  48
ATOM     48  O   UNL     1      20.222  26.852  24.911  1.00  0.00    -0.391 OA
ATOM     49  H   UNL     1      19.281  26.653  25.117  1.00  0.00     0.211 HD
ENDBRANCH   8  48
BRANCH   9  50
ATOM     50  N   UNL     1      20.875  29.597  26.126  1.00  0.00    -0.348 N 
ATOM     51  C   UNL     1      20.334  30.191  24.961  1.00  0.00     0.217 C 
ATOM     52  H   UNL     1      20.665  30.013  27.044  1.00  0.00     0.163 HD
ATOM     53  C   UNL     1      19.474  31.399  25.052  1.00  0.00     0.114 C 
ATOM     54  O   UNL     1      20.554  29.727  23.804  1.00  0.00    -0.275 OA
ENDBRANCH   9  50
ENDBRANCH   3   4
BRANCH   3  55
ATOM     55  O   UNL     1      24.172  30.087  26.590  1.00  0.00    -0.388 OA
ATOM     56  H   UNL     1      24.356  29.398  25.912  1.00  0.00     0.211 HD
ENDBRANCH   3  55
ENDBRANCH   2   3
BRANCH   2  57
ATOM     57  O   UNL     1      24.180  28.177  29.319  1.00  0.00    -0.388 OA
ATOM     58  H   UNL     1      24.879  27.778  28.742  1.00  0.00     0.211 HD
ENDBRANCH   2  57
ENDBRANCH   1   2
BRANCH   1  59
ATOM     59  N   UNL     1      21.742  29.884  29.774  1.00  0.00    -0.319 N 
ATOM     60  C   UNL     1      21.182  28.884  30.633  1.00  0.00     0.407 C 
ATOM     61  H   UNL     1      21.126  30.347  29.088  1.00  0.00     0.167 HD
ATOM     62  O   UNL     1      21.900  28.298  31.482  1.00  0.00    -0.225 OA
BRANCH  60  63
ATOM     63  O   UNL     1      19.856  28.525  30.566  1.00  0.00    -0.443 OA
BRANCH  63  64
ATOM     64  C   UNL     1      18.876  28.952  31.445  1.00  0.00     0.294 C 
BRANCH  64  65
ATOM     65  C   UNL     1      17.584  29.336  30.862  1.00  0.00     0.120 A 
ATOM     66  C   UNL     1      17.357  30.226  29.844  1.00  0.00     0.138 A 
ATOM     67  N   UNL     1      16.377  28.873  31.257  1.00  0.00    -0.132 NA
ATOM     68  N   UNL     1      16.039  30.284  29.645  1.00  0.00    -0.252 N 
ATOM     69  N   UNL     1      15.482  29.460  30.509  1.00  0.00    -0.067 NA
BRANCH  68  70
ATOM     70  C   UNL     1      15.362  31.102  28.649  1.00  0.00     0.146 C 
BRANCH  70  71
ATOM     71  C   UNL     1      16.402  31.557  27.625  1.00  0.00     0.024 C 
BRANCH  71  72
ATOM     72  C   UNL     1      15.935  31.303  26.222  1.00  0.00     0.002 C 
BRANCH  72  73
ATOM     73  C   UNL     1      14.500  30.863  26.233  1.00  0.00     0.012 C 
BRANCH  73  74
ATOM     74  C   UNL     1      13.697  31.429  25.109  1.00  0.00     0.122 C 
BRANCH  74  75
ATOM     75  C   UNL     1      13.683  30.466  23.973  1.00  0.00     0.303 C 
ATOM     76  O   UNL     1      13.278  30.832  22.848  1.00  0.00    -0.252 OA
BRANCH  75  77
ATOM     77  O   UNL     1      14.116  29.154  24.139  1.00  0.00    -0.481 OA
ATOM     78  H   UNL     1      13.563  28.509  24.707  1.00  0.00     0.296 HD
ENDBRANCH  75  77
ENDBRANCH  74  75
ENDBRANCH  73  74
ENDBRANCH  72  73
ENDBRANCH  71  72
ENDBRANCH  70  71
ENDBRANCH  68  70
ENDBRANCH  64  65
ENDBRANCH  63  64
ENDBRANCH  60  63
ENDBRANCH   1  59
TORSDOF 36
