REMARK VINA RESULT:    -6.846      0.000      0.000
REMARK INTER + INTRA:         -24.686
REMARK INTER:                 -17.450
REMARK INTRA:                  -7.236
REMARK UNBOUND:                -7.033
REMARK SMILES CC(=O)N[C@@H]1[C@@H](O)C[C@](OC[C@H]2O[C@@H](O[C@H]3[C@H](O)[C@@H](O)[C@H](OCCN=[N+]=[N-])O[C@@H]3CO)[C@H](O)[C@@H](O)[C@H]2O)(C(=O)O)O[C@H]1C(O)[C@H](O)CNC(=O)OCc1cn(C(C)(C)C(=O)c2c[nH]c3ccccc23)nn1
REMARK SMILES IDX 9 1 8 2 6 3 5 4 42 5 41 6 10 7 11 8 12 9 14 10 13 11 32 12
REMARK SMILES IDX 34 13 36 14 15 15 16 16 29 17 28 18 21 19 17 20 19 21 30 22
REMARK SMILES IDX 31 23 22 25 23 26 24 27 25 28 26 29 27 30 18 31 20 33 33 35
REMARK SMILES IDX 35 37 37 39 38 41 39 42 40 43 7 45 43 47 44 48 45 50 46 51
REMARK SMILES IDX 47 53 48 54 49 55 50 57 51 58 52 59 53 60 54 61 71 62 55 63
REMARK SMILES IDX 70 64 56 65 57 66 58 67 59 68 60 69 61 70 62 71 69 72 63 73
REMARK SMILES IDX 64 74 68 75 65 77 67 78 66 79 4 80 2 81 1 83 3 84
REMARK H PARENT 31 24 18 32 20 34 33 36 35 38 37 40 40 44 7 46 44 49 46 52
REMARK H PARENT 48 56 63 76 4 82
REMARK Flexibility Score: inf
ROOT
ATOM      1  C   UNL     1      15.738  29.016  18.661  1.00  0.00     0.272 C 
ATOM      2  C   UNL     1      14.576  28.912  19.633  1.00  0.00     0.113 C 
ATOM      3  C   UNL     1      14.062  30.271  20.039  1.00  0.00     0.145 C 
ATOM      4  C   UNL     1      15.164  30.974  20.906  1.00  0.00     0.142 C 
ATOM      5  C   UNL     1      16.461  30.554  20.294  1.00  0.00     0.178 C 
ATOM      6  O   UNL     1      16.304  30.258  18.957  1.00  0.00    -0.332 OA
ENDROOT
BRANCH   1   7
ATOM      7  O   UNL     1      15.465  28.877  17.361  1.00  0.00    -0.338 OA
BRANCH   7   8
ATOM      8  C   UNL     1      15.687  29.567  16.293  1.00  0.00     0.199 C 
BRANCH   8   9
ATOM      9  C   UNL     1      16.815  29.040  15.403  1.00  0.00     0.179 C 
ATOM     10  C   UNL     1      16.054  29.753  13.272  1.00  0.00     0.282 C 
ATOM     11  O   UNL     1      16.371  28.778  14.151  1.00  0.00    -0.341 OA
ATOM     12  C   UNL     1      17.040  30.888  13.228  1.00  0.00     0.202 C 
ATOM     13  C   UNL     1      18.277  30.530  14.044  1.00  0.00     0.179 C 
ATOM     14  C   UNL     1      17.935  30.043  15.401  1.00  0.00     0.177 C 
BRANCH  10  15
ATOM     15  O   UNL     1      14.797  30.264  13.542  1.00  0.00    -0.341 OA
BRANCH  15  16
ATOM     16  C   UNL     1      13.832  29.838  12.677  1.00  0.00     0.184 C 
ATOM     17  C   UNL     1      12.979  30.869  12.032  1.00  0.00     0.178 C 
ATOM     18  O   UNL     1      12.405  30.261  10.897  1.00  0.00    -0.341 OA
ATOM     19  C   UNL     1      11.590  29.205  11.190  1.00  0.00     0.281 C 
ATOM     20  C   UNL     1      12.905  28.801  13.280  1.00  0.00     0.180 C 
ATOM     21  C   UNL     1      12.194  28.163  12.106  1.00  0.00     0.202 C 
BRANCH  17  22
ATOM     22  C   UNL     1      13.734  32.071  11.503  1.00  0.00     0.191 C 
BRANCH  22  23
ATOM     23  O   UNL     1      14.733  31.589  10.649  1.00  0.00    -0.394 OA
ATOM     24  H   UNL     1      15.457  32.240  10.504  1.00  0.00     0.210 HD
ENDBRANCH  22  23
ENDBRANCH  17  22
BRANCH  19  25
ATOM     25  O   UNL     1      11.309  28.541   9.992  1.00  0.00    -0.350 OA
BRANCH  25  26
ATOM     26  C   UNL     1      12.501  28.108   9.441  1.00  0.00     0.169 C 
BRANCH  26  27
ATOM     27  C   UNL     1      12.366  26.785   8.737  1.00  0.00     0.119 C 
BRANCH  27  28
ATOM     28  N   UNL     1      11.070  26.589   8.125  1.00  0.00    -0.092 NA
ATOM     29  N   UNL     1      10.853  26.949   6.951  1.00  0.00     0.001 N 
ATOM     30  N   UNL     1      10.847  26.865   5.720  1.00  0.00    -0.003 NA
ENDBRANCH  27  28
ENDBRANCH  26  27
ENDBRANCH  25  26
ENDBRANCH  19  25
BRANCH  20  31
ATOM     31  O   UNL     1      13.570  27.838  14.002  1.00  0.00    -0.387 OA
ATOM     32  H   UNL     1      14.275  27.460  13.435  1.00  0.00     0.211 HD
ENDBRANCH  20  31
BRANCH  21  33
ATOM     33  O   UNL     1      11.141  27.401  12.611  1.00  0.00    -0.385 OA
ATOM     34  H   UNL     1      10.623  27.893  13.304  1.00  0.00     0.211 HD
ENDBRANCH  21  33
ENDBRANCH  15  16
ENDBRANCH  10  15
BRANCH  12  35
ATOM     35  O   UNL     1      17.403  31.269  11.936  1.00  0.00    -0.385 OA
ATOM     36  H   UNL     1      17.284  30.509  11.328  1.00  0.00     0.211 HD
ENDBRANCH  12  35
BRANCH  13  37
ATOM     37  O   UNL     1      19.029  31.727  14.103  1.00  0.00    -0.387 OA
ATOM     38  H   UNL     1      18.637  32.418  13.515  1.00  0.00     0.211 HD
ENDBRANCH  13  37
BRANCH  14  39
ATOM     39  O   UNL     1      17.524  31.120  16.226  1.00  0.00    -0.387 OA
ATOM     40  H   UNL     1      17.711  30.893  17.175  1.00  0.00     0.211 HD
ENDBRANCH  14  39
ENDBRANCH   8   9
ENDBRANCH   7   8
ENDBRANCH   1   7
BRANCH   1  41
ATOM     41  C   UNL     1      16.703  27.949  19.006  1.00  0.00     0.364 C 
ATOM     42  O   UNL     1      16.437  27.179  19.964  1.00  0.00    -0.246 OA
BRANCH  41  43
ATOM     43  O   UNL     1      17.877  27.747  18.352  1.00  0.00    -0.477 OA
ATOM     44  H   UNL     1      18.306  28.359  17.661  1.00  0.00     0.296 HD
ENDBRANCH  41  43
ENDBRANCH   1  41
BRANCH   3  45
ATOM     45  O   UNL     1      13.852  31.159  19.010  1.00  0.00    -0.391 OA
ATOM     46  H   UNL     1      13.350  30.765  18.241  1.00  0.00     0.211 HD
ENDBRANCH   3  45
BRANCH   5  47
ATOM     47  C   UNL     1      17.602  31.497  20.391  1.00  0.00     0.176 C 
BRANCH  47  48
ATOM     48  O   UNL     1      17.595  32.258  21.538  1.00  0.00    -0.388 OA
ATOM     49  H   UNL     1      16.771  32.805  21.673  1.00  0.00     0.211 HD
ENDBRANCH  47  48
BRANCH  47  50
ATOM     50  C   UNL     1      18.965  30.962  20.012  1.00  0.00     0.165 C 
BRANCH  50  51
ATOM     51  O   UNL     1      19.093  30.691  18.689  1.00  0.00    -0.388 OA
ATOM     52  H   UNL     1      19.969  30.352  18.451  1.00  0.00     0.211 HD
ENDBRANCH  50  51
BRANCH  50  53
ATOM     53  C   UNL     1      19.328  29.876  20.972  1.00  0.00     0.154 C 
BRANCH  53  54
ATOM     54  N   UNL     1      20.069  30.237  22.120  1.00  0.00    -0.319 N 
ATOM     55  C   UNL     1      19.522  30.268  23.450  1.00  0.00     0.407 C 
ATOM     56  H   UNL     1      21.095  30.509  22.035  1.00  0.00     0.167 HD
ATOM     57  O   UNL     1      18.326  29.990  23.671  1.00  0.00    -0.225 OA
BRANCH  55  58
ATOM     58  O   UNL     1      20.312  30.609  24.532  1.00  0.00    -0.443 OA
BRANCH  58  59
ATOM     59  C   UNL     1      21.594  30.081  24.715  1.00  0.00     0.294 C 
BRANCH  59  60
ATOM     60  C   UNL     1      21.494  28.938  25.675  1.00  0.00     0.120 A 
ATOM     61  C   UNL     1      22.587  28.223  26.199  1.00  0.00     0.139 A 
ATOM     62  N   UNL     1      20.424  28.338  26.213  1.00  0.00    -0.132 NA
ATOM     63  N   UNL     1      22.142  27.250  27.005  1.00  0.00    -0.239 N 
ATOM     64  N   UNL     1      20.833  27.330  27.005  1.00  0.00    -0.066 NA
BRANCH  63  65
ATOM     65  C   UNL     1      22.983  26.314  27.721  1.00  0.00     0.122 C 
ATOM     66  C   UNL     1      22.225  25.976  29.051  1.00  0.00     0.046 C 
ATOM     67  C   UNL     1      24.281  26.915  28.204  1.00  0.00     0.046 C 
BRANCH  65  68
ATOM     68  C   UNL     1      23.144  25.060  27.010  1.00  0.00     0.192 C 
ATOM     69  O   UNL     1      22.870  24.001  27.726  1.00  0.00    -0.291 OA
BRANCH  68  70
ATOM     70  C   UNL     1      23.551  24.787  25.666  1.00  0.00     0.045 A 
ATOM     71  C   UNL     1      24.885  24.585  25.287  1.00  0.00     0.095 A 
ATOM     72  C   UNL     1      22.799  24.689  24.513  1.00  0.00     0.010 A 
ATOM     73  N   UNL     1      24.909  24.383  23.984  1.00  0.00    -0.360 N 
ATOM     74  C   UNL     1      23.684  24.434  23.461  1.00  0.00     0.046 A 
ATOM     75  C   UNL     1      21.468  24.787  24.216  1.00  0.00     0.011 A 
ATOM     76  H   UNL     1      25.805  24.205  23.447  1.00  0.00     0.166 HD
ATOM     77  C   UNL     1      23.230  24.284  22.162  1.00  0.00     0.027 A 
ATOM     78  C   UNL     1      21.016  24.636  22.906  1.00  0.00     0.001 A 
ATOM     79  C   UNL     1      21.896  24.388  21.895  1.00  0.00     0.002 A 
ENDBRANCH  68  70
ENDBRANCH  65  68
ENDBRANCH  63  65
ENDBRANCH  59  60
ENDBRANCH  58  59
ENDBRANCH  55  58
ENDBRANCH  53  54
ENDBRANCH  50  53
ENDBRANCH  47  50
ENDBRANCH   5  47
BRANCH   4  80
ATOM     80  N   UNL     1      14.980  30.351  22.213  1.00  0.00    -0.348 N 
ATOM     81  C   UNL     1      14.999  31.062  23.440  1.00  0.00     0.217 C 
ATOM     82  H   UNL     1      14.826  29.307  22.260  1.00  0.00     0.163 HD
ATOM     83  C   UNL     1      14.815  30.423  24.769  1.00  0.00     0.114 C 
ATOM     84  O   UNL     1      15.188  32.324  23.358  1.00  0.00    -0.275 OA
ENDBRANCH   4  80
TORSDOF 32
