REMARK VINA RESULT:    -5.733      9.908     18.334
REMARK INTER + INTRA:         -21.645
REMARK INTER:                 -16.844
REMARK INTRA:                  -4.801
REMARK UNBOUND:                -6.864
REMARK SMILES CC(=O)N[C@@H]1[C@@H](O)C[C@](OC[C@H]2O[C@@H](O[C@H]3[C@H](O)[C@@H](O)[C@H](OCCN=[N+]=[N-])O[C@@H]3CO)[C@H](O)[C@@H](O)[C@H]2O)(C(=O)O)O[C@H]1C(O)[C@H](O)CNC(=O)OCc1cn(CCC2OCCO2)nn1
REMARK SMILES IDX 9 1 8 2 6 3 5 4 42 5 41 6 10 7 11 8 12 9 14 10 13 11 32 12
REMARK SMILES IDX 34 13 36 14 15 15 16 16 29 17 28 18 21 19 17 20 19 21 30 22
REMARK SMILES IDX 31 23 22 25 23 26 24 27 25 28 26 29 27 30 18 31 20 33 33 35
REMARK SMILES IDX 35 37 37 39 38 41 39 42 40 43 7 45 43 47 44 48 45 50 46 51
REMARK SMILES IDX 47 53 48 54 49 55 50 57 51 58 52 59 53 60 54 61 64 62 55 63
REMARK SMILES IDX 63 64 56 65 57 66 58 67 59 68 62 69 60 70 61 71 4 72 2 73
REMARK SMILES IDX 1 75 3 76
REMARK H PARENT 31 24 18 32 20 34 33 36 35 38 37 40 40 44 7 46 44 49 46 52
REMARK H PARENT 48 56 4 74
REMARK Flexibility Score: inf
ROOT
ATOM      1  C   UNL     1      29.451  20.399  22.531  1.00  0.00     0.272 C 
ATOM      2  C   UNL     1      30.615  20.905  21.602  1.00  0.00     0.113 C 
ATOM      3  C   UNL     1      30.231  20.840  20.185  1.00  0.00     0.145 C 
ATOM      4  C   UNL     1      28.993  21.682  19.951  1.00  0.00     0.142 C 
ATOM      5  C   UNL     1      28.203  21.888  21.199  1.00  0.00     0.178 C 
ATOM      6  O   UNL     1      28.243  20.915  22.134  1.00  0.00    -0.332 OA
ENDROOT
BRANCH   1   7
ATOM      7  O   UNL     1      29.803  20.885  23.722  1.00  0.00    -0.338 OA
BRANCH   7   8
ATOM      8  C   UNL     1      30.717  21.780  24.020  1.00  0.00     0.199 C 
BRANCH   8   9
ATOM      9  C   UNL     1      31.390  21.815  25.355  1.00  0.00     0.179 C 
ATOM     10  C   UNL     1      31.835  20.442  27.197  1.00  0.00     0.282 C 
ATOM     11  O   UNL     1      31.042  20.713  26.101  1.00  0.00    -0.341 OA
ATOM     12  C   UNL     1      32.768  21.522  27.605  1.00  0.00     0.202 C 
ATOM     13  C   UNL     1      33.535  22.129  26.463  1.00  0.00     0.179 C 
ATOM     14  C   UNL     1      32.924  21.699  25.172  1.00  0.00     0.177 C 
BRANCH  10  15
ATOM     15  O   UNL     1      32.409  19.183  27.022  1.00  0.00    -0.341 OA
BRANCH  15  16
ATOM     16  C   UNL     1      33.123  18.737  28.125  1.00  0.00     0.184 C 
ATOM     17  C   UNL     1      34.090  17.631  27.830  1.00  0.00     0.178 C 
ATOM     18  O   UNL     1      34.787  17.349  29.007  1.00  0.00    -0.341 OA
ATOM     19  C   UNL     1      33.993  16.788  29.996  1.00  0.00     0.281 C 
ATOM     20  C   UNL     1      32.128  18.130  29.155  1.00  0.00     0.180 C 
ATOM     21  C   UNL     1      32.979  17.858  30.390  1.00  0.00     0.202 C 
BRANCH  17  22
ATOM     22  C   UNL     1      35.135  18.126  26.846  1.00  0.00     0.191 C 
BRANCH  22  23
ATOM     23  O   UNL     1      35.581  19.365  27.369  1.00  0.00    -0.394 OA
ATOM     24  H   UNL     1      36.544  19.502  27.243  1.00  0.00     0.210 HD
ENDBRANCH  22  23
ENDBRANCH  17  22
BRANCH  19  25
ATOM     25  O   UNL     1      34.784  16.445  31.056  1.00  0.00    -0.350 OA
BRANCH  25  26
ATOM     26  C   UNL     1      36.100  16.796  30.966  1.00  0.00     0.169 C 
BRANCH  26  27
ATOM     27  C   UNL     1      36.570  17.781  32.014  1.00  0.00     0.119 C 
BRANCH  27  28
ATOM     28  N   UNL     1      36.967  19.029  31.388  1.00  0.00    -0.092 NA
ATOM     29  N   UNL     1      36.188  19.732  30.749  1.00  0.00     0.001 N 
ATOM     30  N   UNL     1      35.447  20.567  30.237  1.00  0.00    -0.003 NA
ENDBRANCH  27  28
ENDBRANCH  26  27
ENDBRANCH  25  26
ENDBRANCH  19  25
BRANCH  20  31
ATOM     31  O   UNL     1      31.166  19.068  29.437  1.00  0.00    -0.387 OA
ATOM     32  H   UNL     1      31.483  19.957  29.116  1.00  0.00     0.211 HD
ENDBRANCH  20  31
BRANCH  21  33
ATOM     33  O   UNL     1      32.131  17.429  31.388  1.00  0.00    -0.385 OA
ATOM     34  H   UNL     1      32.487  17.746  32.256  1.00  0.00     0.211 HD
ENDBRANCH  21  33
ENDBRANCH  15  16
ENDBRANCH  10  15
BRANCH  12  35
ATOM     35  O   UNL     1      32.047  22.516  28.313  1.00  0.00    -0.385 OA
ATOM     36  H   UNL     1      31.111  22.183  28.338  1.00  0.00     0.211 HD
ENDBRANCH  12  35
BRANCH  13  37
ATOM     37  O   UNL     1      34.898  21.844  26.540  1.00  0.00    -0.387 OA
ATOM     38  H   UNL     1      35.192  22.030  27.471  1.00  0.00     0.211 HD
ENDBRANCH  13  37
BRANCH  14  39
ATOM     39  O   UNL     1      33.228  20.405  24.803  1.00  0.00    -0.387 OA
ATOM     40  H   UNL     1      33.530  20.313  23.865  1.00  0.00     0.211 HD
ENDBRANCH  14  39
ENDBRANCH   8   9
ENDBRANCH   7   8
ENDBRANCH   1   7
BRANCH   1  41
ATOM     41  C   UNL     1      29.432  18.959  22.275  1.00  0.00     0.364 C 
ATOM     42  O   UNL     1      30.394  18.221  22.741  1.00  0.00    -0.246 OA
BRANCH  41  43
ATOM     43  O   UNL     1      28.496  18.225  21.582  1.00  0.00    -0.477 OA
ATOM     44  H   UNL     1      27.946  17.527  22.062  1.00  0.00     0.296 HD
ENDBRANCH  41  43
ENDBRANCH   1  41
BRANCH   3  45
ATOM     45  O   UNL     1      31.324  21.383  19.449  1.00  0.00    -0.391 OA
ATOM     46  H   UNL     1      30.923  22.066  18.829  1.00  0.00     0.211 HD
ENDBRANCH   3  45
BRANCH   5  47
ATOM     47  C   UNL     1      28.415  23.278  21.720  1.00  0.00     0.176 C 
BRANCH  47  48
ATOM     48  O   UNL     1      29.161  24.083  20.847  1.00  0.00    -0.388 OA
ATOM     49  H   UNL     1      28.739  24.987  20.750  1.00  0.00     0.211 HD
ENDBRANCH  47  48
BRANCH  47  50
ATOM     50  C   UNL     1      27.051  24.021  21.798  1.00  0.00     0.165 C 
BRANCH  50  51
ATOM     51  O   UNL     1      26.108  23.148  22.286  1.00  0.00    -0.388 OA
ATOM     52  H   UNL     1      25.382  23.575  22.776  1.00  0.00     0.211 HD
ENDBRANCH  50  51
BRANCH  50  53
ATOM     53  C   UNL     1      26.794  24.647  20.488  1.00  0.00     0.154 C 
BRANCH  53  54
ATOM     54  N   UNL     1      25.401  24.689  20.170  1.00  0.00    -0.319 N 
ATOM     55  C   UNL     1      24.594  25.819  20.289  1.00  0.00     0.407 C 
ATOM     56  H   UNL     1      24.971  23.796  19.821  1.00  0.00     0.167 HD
ATOM     57  O   UNL     1      25.048  26.897  20.707  1.00  0.00    -0.225 OA
BRANCH  55  58
ATOM     58  O   UNL     1      23.232  25.829  19.957  1.00  0.00    -0.443 OA
BRANCH  58  59
ATOM     59  C   UNL     1      22.371  24.785  20.376  1.00  0.00     0.294 C 
BRANCH  59  60
ATOM     60  C   UNL     1      21.923  24.941  21.780  1.00  0.00     0.120 A 
ATOM     61  C   UNL     1      22.670  24.577  22.904  1.00  0.00     0.138 A 
ATOM     62  N   UNL     1      20.776  25.432  22.276  1.00  0.00    -0.132 NA
ATOM     63  N   UNL     1      21.953  24.859  24.025  1.00  0.00    -0.252 N 
ATOM     64  N   UNL     1      20.816  25.373  23.614  1.00  0.00    -0.067 NA
BRANCH  63  65
ATOM     65  C   UNL     1      22.458  24.603  25.366  1.00  0.00     0.151 C 
BRANCH  65  66
ATOM     66  C   UNL     1      22.082  25.744  26.303  1.00  0.00     0.086 C 
BRANCH  66  67
ATOM     67  C   UNL     1      23.267  26.216  27.095  1.00  0.00     0.251 C 
ATOM     68  O   UNL     1      24.190  25.176  27.209  1.00  0.00    -0.350 OA
ATOM     69  O   UNL     1      23.951  27.256  26.498  1.00  0.00    -0.350 OA
ATOM     70  C   UNL     1      25.382  25.800  27.559  1.00  0.00     0.192 C 
ATOM     71  C   UNL     1      25.127  27.272  27.284  1.00  0.00     0.192 C 
ENDBRANCH  66  67
ENDBRANCH  65  66
ENDBRANCH  63  65
ENDBRANCH  59  60
ENDBRANCH  58  59
ENDBRANCH  55  58
ENDBRANCH  53  54
ENDBRANCH  50  53
ENDBRANCH  47  50
ENDBRANCH   5  47
BRANCH   4  72
ATOM     72  N   UNL     1      28.197  21.133  18.855  1.00  0.00    -0.348 N 
ATOM     73  C   UNL     1      28.406  21.459  17.512  1.00  0.00     0.217 C 
ATOM     74  H   UNL     1      27.428  20.454  19.128  1.00  0.00     0.163 HD
ATOM     75  C   UNL     1      27.546  20.853  16.443  1.00  0.00     0.114 C 
ATOM     76  O   UNL     1      29.333  22.271  17.243  1.00  0.00    -0.275 OA
ENDBRANCH   4  72
TORSDOF 32
