REMARK VINA RESULT:    -5.948     13.940     17.072
REMARK INTER + INTRA:         -22.568
REMARK INTER:                 -14.230
REMARK INTRA:                  -8.338
REMARK UNBOUND:                -6.885
REMARK SMILES CCOC(=O)c1cccc(-n2cc(COC(=O)NC[C@@H](O)C(O)[C@@H]3O[C@@](OC[C@H]4O[C@@H](O[C@H]5[C@H](O)[C@@H](O)[C@H](OCCN=[N+]=[N-])O[C@@H]5CO)[C@H](O)[C@@H](O)[C@H]4O)(C(=O)O)C[C@H](O)[C@H]3NC(C)=O)nn2)c1
REMARK SMILES IDX 22 1 24 2 26 3 58 4 25 5 59 6 61 7 27 8 28 9 29 10 31 11
REMARK SMILES IDX 30 12 49 13 51 14 53 15 32 16 33 17 46 18 45 19 38 20 34 21
REMARK SMILES IDX 36 22 47 23 48 24 39 26 40 27 41 28 42 29 43 30 44 31 35 32
REMARK SMILES IDX 37 34 50 36 52 38 54 40 55 42 56 43 57 44 60 46 62 48 63 49
REMARK SMILES IDX 64 51 65 52 23 53 20 55 21 56 19 58 18 59 16 60 17 62 15 63
REMARK SMILES IDX 14 64 13 65 12 66 66 67 11 68 67 69 10 70 68 71 9 72 6 73
REMARK SMILES IDX 8 74 7 75 4 76 5 77 3 78 2 79 1 80
REMARK H PARENT 48 25 35 33 37 35 50 37 52 39 54 41 57 45 60 47 62 50 23 54
REMARK H PARENT 21 57 18 61
REMARK Flexibility Score: inf
ROOT
ATOM      1  C   UNL     1      15.783  29.558  23.301  1.00  0.00     0.176 C 
ENDROOT
BRANCH   1   2
ATOM      2  C   UNL     1      16.978  30.389  23.517  1.00  0.00     0.178 C 
ATOM      3  C   UNL     1      19.303  30.101  23.206  1.00  0.00     0.272 C 
ATOM      4  C   UNL     1      19.240  31.507  23.709  1.00  0.00     0.113 C 
ATOM      5  O   UNL     1      18.069  29.533  23.687  1.00  0.00    -0.332 OA
ATOM      6  C   UNL     1      18.450  31.653  25.000  1.00  0.00     0.145 C 
ATOM      7  C   UNL     1      16.955  31.341  24.660  1.00  0.00     0.142 C 
BRANCH   3   8
ATOM      8  O   UNL     1      20.283  29.409  23.846  1.00  0.00    -0.338 OA
BRANCH   8   9
ATOM      9  C   UNL     1      21.407  28.975  23.332  1.00  0.00     0.199 C 
BRANCH   9  10
ATOM     10  C   UNL     1      21.983  27.627  23.431  1.00  0.00     0.179 C 
ATOM     11  C   UNL     1      22.922  26.075  24.907  1.00  0.00     0.282 C 
ATOM     12  O   UNL     1      22.698  27.426  24.556  1.00  0.00    -0.341 OA
ATOM     13  C   UNL     1      22.662  25.161  23.749  1.00  0.00     0.202 C 
ATOM     14  C   UNL     1      21.295  25.313  23.164  1.00  0.00     0.179 C 
ATOM     15  C   UNL     1      20.756  26.663  23.493  1.00  0.00     0.177 C 
BRANCH  11  16
ATOM     16  O   UNL     1      22.173  25.867  26.027  1.00  0.00    -0.341 OA
BRANCH  16  17
ATOM     17  C   UNL     1      22.768  25.884  27.241  1.00  0.00     0.184 C 
ATOM     18  C   UNL     1      22.609  27.259  27.833  1.00  0.00     0.178 C 
ATOM     19  O   UNL     1      23.159  27.330  29.114  1.00  0.00    -0.341 OA
ATOM     20  C   UNL     1      24.571  27.226  28.978  1.00  0.00     0.281 C 
ATOM     21  C   UNL     1      24.281  25.614  27.161  1.00  0.00     0.180 C 
ATOM     22  C   UNL     1      24.824  25.799  28.576  1.00  0.00     0.202 C 
BRANCH  18  23
ATOM     23  C   UNL     1      21.160  27.647  27.921  1.00  0.00     0.191 C 
BRANCH  23  24
ATOM     24  O   UNL     1      20.790  28.419  26.788  1.00  0.00    -0.394 OA
ATOM     25  H   UNL     1      20.486  27.827  26.055  1.00  0.00     0.210 HD
ENDBRANCH  23  24
ENDBRANCH  18  23
BRANCH  20  26
ATOM     26  O   UNL     1      25.133  27.589  30.167  1.00  0.00    -0.350 OA
BRANCH  26  27
ATOM     27  C   UNL     1      24.676  26.820  31.228  1.00  0.00     0.169 C 
BRANCH  27  28
ATOM     28  C   UNL     1      25.748  26.452  32.210  1.00  0.00     0.119 C 
BRANCH  28  29
ATOM     29  N   UNL     1      26.478  25.283  31.704  1.00  0.00    -0.092 NA
ATOM     30  N   UNL     1      27.693  25.412  31.502  1.00  0.00     0.001 N 
ATOM     31  N   UNL     1      28.937  25.312  31.485  1.00  0.00    -0.003 NA
ENDBRANCH  28  29
ENDBRANCH  27  28
ENDBRANCH  26  27
ENDBRANCH  20  26
BRANCH  21  32
ATOM     32  O   UNL     1      24.537  24.289  26.842  1.00  0.00    -0.387 OA
ATOM     33  H   UNL     1      25.505  24.212  26.663  1.00  0.00     0.211 HD
ENDBRANCH  21  32
BRANCH  22  34
ATOM     34  O   UNL     1      26.174  25.467  28.637  1.00  0.00    -0.385 OA
ATOM     35  H   UNL     1      26.409  24.923  29.448  1.00  0.00     0.211 HD
ENDBRANCH  22  34
ENDBRANCH  16  17
ENDBRANCH  11  16
BRANCH  13  36
ATOM     36  O   UNL     1      23.679  25.335  22.790  1.00  0.00    -0.385 OA
ATOM     37  H   UNL     1      23.723  26.260  22.457  1.00  0.00     0.211 HD
ENDBRANCH  13  36
BRANCH  14  38
ATOM     38  O   UNL     1      20.457  24.255  23.431  1.00  0.00    -0.387 OA
ATOM     39  H   UNL     1      19.529  24.613  23.441  1.00  0.00     0.211 HD
ENDBRANCH  14  38
BRANCH  15  40
ATOM     40  O   UNL     1      20.130  26.712  24.699  1.00  0.00    -0.387 OA
ATOM     41  H   UNL     1      19.218  27.081  24.586  1.00  0.00     0.211 HD
ENDBRANCH  15  40
ENDBRANCH   9  10
ENDBRANCH   8   9
ENDBRANCH   3   8
BRANCH   3  42
ATOM     42  C   UNL     1      19.309  29.935  21.760  1.00  0.00     0.364 C 
ATOM     43  O   UNL     1      19.628  30.849  20.984  1.00  0.00    -0.246 OA
BRANCH  42  44
ATOM     44  O   UNL     1      18.948  28.715  21.186  1.00  0.00    -0.477 OA
ATOM     45  H   UNL     1      18.389  28.028  21.648  1.00  0.00     0.296 HD
ENDBRANCH  42  44
ENDBRANCH   3  42
BRANCH   6  46
ATOM     46  O   UNL     1      18.853  30.671  25.871  1.00  0.00    -0.391 OA
ATOM     47  H   UNL     1      18.360  29.837  25.677  1.00  0.00     0.211 HD
ENDBRANCH   6  46
BRANCH   7  48
ATOM     48  N   UNL     1      16.351  32.613  24.337  1.00  0.00    -0.348 N 
ATOM     49  C   UNL     1      15.673  33.440  25.291  1.00  0.00     0.217 C 
ATOM     50  H   UNL     1      16.380  33.015  23.352  1.00  0.00     0.163 HD
ATOM     51  C   UNL     1      15.062  34.744  24.921  1.00  0.00     0.114 C 
ATOM     52  O   UNL     1      15.582  33.066  26.478  1.00  0.00    -0.275 OA
ENDBRANCH   7  48
ENDBRANCH   1   2
BRANCH   1  53
ATOM     53  O   UNL     1      14.708  29.807  24.112  1.00  0.00    -0.388 OA
ATOM     54  H   UNL     1      14.964  29.952  25.052  1.00  0.00     0.211 HD
ENDBRANCH   1  53
BRANCH   1  55
ATOM     55  C   UNL     1      15.355  29.337  21.873  1.00  0.00     0.165 C 
BRANCH  55  56
ATOM     56  O   UNL     1      16.209  28.428  21.239  1.00  0.00    -0.388 OA
ATOM     57  H   UNL     1      16.734  28.887  20.534  1.00  0.00     0.211 HD
ENDBRANCH  55  56
BRANCH  55  58
ATOM     58  C   UNL     1      15.076  30.588  21.098  1.00  0.00     0.154 C 
BRANCH  58  59
ATOM     59  N   UNL     1      14.894  30.330  19.688  1.00  0.00    -0.319 N 
ATOM     60  C   UNL     1      15.388  31.218  18.707  1.00  0.00     0.407 C 
ATOM     61  H   UNL     1      14.381  29.454  19.361  1.00  0.00     0.167 HD
ATOM     62  O   UNL     1      16.015  32.275  18.939  1.00  0.00    -0.225 OA
BRANCH  60  63
ATOM     63  O   UNL     1      15.179  30.948  17.339  1.00  0.00    -0.443 OA
BRANCH  63  64
ATOM     64  C   UNL     1      15.773  29.904  16.633  1.00  0.00     0.294 C 
BRANCH  64  65
ATOM     65  C   UNL     1      16.914  29.250  17.288  1.00  0.00     0.121 A 
ATOM     66  C   UNL     1      18.255  29.573  17.115  1.00  0.00     0.144 A 
ATOM     67  N   UNL     1      16.884  28.244  18.153  1.00  0.00    -0.131 NA
ATOM     68  N   UNL     1      18.970  28.749  17.880  1.00  0.00    -0.220 N 
ATOM     69  N   UNL     1      18.135  27.949  18.505  1.00  0.00    -0.062 NA
BRANCH  68  70
ATOM     70  C   UNL     1      20.376  28.745  17.997  1.00  0.00     0.067 A 
ATOM     71  C   UNL     1      21.037  27.849  18.834  1.00  0.00     0.044 A 
ATOM     72  C   UNL     1      21.163  29.612  17.287  1.00  0.00     0.028 A 
ATOM     73  C   UNL     1      22.398  27.800  18.971  1.00  0.00     0.062 A 
ATOM     74  C   UNL     1      22.545  29.594  17.397  1.00  0.00     0.003 A 
ATOM     75  C   UNL     1      23.165  28.696  18.234  1.00  0.00     0.016 A 
BRANCH  73  76
ATOM     76  C   UNL     1      23.021  26.844  19.862  1.00  0.00     0.338 C 
ATOM     77  O   UNL     1      24.093  27.138  20.425  1.00  0.00    -0.246 OA
BRANCH  76  78
ATOM     78  O   UNL     1      22.433  25.626  20.086  1.00  0.00    -0.462 OA
BRANCH  78  79
ATOM     79  C   UNL     1      22.955  24.399  19.632  1.00  0.00     0.230 C 
ATOM     80  C   UNL     1      23.054  24.408  18.122  1.00  0.00     0.049 C 
ENDBRANCH  78  79
ENDBRANCH  76  78
ENDBRANCH  73  76
ENDBRANCH  68  70
ENDBRANCH  64  65
ENDBRANCH  63  64
ENDBRANCH  60  63
ENDBRANCH  58  59
ENDBRANCH  55  58
ENDBRANCH   1  55
TORSDOF 33
