REMARK VINA RESULT:    -5.321      6.956     13.601
REMARK INTER + INTRA:         -21.749
REMARK INTER:                 -16.850
REMARK INTRA:                  -4.899
REMARK UNBOUND:                -8.339
REMARK SMILES CC(=O)N[C@@H]1[C@@H](O)C[C@](OC[C@H]2O[C@@H](O[C@H]3[C@H](O)[C@@H](O)[C@H](OCCN=[N+]=[N-])O[C@@H]3CO)[C@H](O)[C@@H](O)[C@H]2O)(C(=O)O)O[C@H]1C(O)[C@H](O)CNC(=O)OCc1cn(Cc2ccccc2)nn1
REMARK SMILES IDX 9 1 8 2 6 3 5 4 42 5 41 6 10 7 11 8 12 9 14 10 13 11 32 12
REMARK SMILES IDX 34 13 36 14 15 15 16 16 29 17 28 18 21 19 17 20 19 21 30 22
REMARK SMILES IDX 31 23 22 25 23 26 24 27 25 28 26 29 27 30 18 31 20 33 33 35
REMARK SMILES IDX 35 37 37 39 38 41 39 42 40 43 7 45 43 47 44 48 45 50 46 51
REMARK SMILES IDX 47 53 48 54 49 55 50 57 51 58 52 59 53 60 54 61 64 62 55 63
REMARK SMILES IDX 63 64 56 65 57 66 58 67 62 68 59 69 61 70 60 71 4 72 2 73
REMARK SMILES IDX 1 75 3 76
REMARK H PARENT 31 24 18 32 20 34 33 36 35 38 37 40 40 44 7 46 44 49 46 52
REMARK H PARENT 48 56 4 74
REMARK Flexibility Score: inf
ROOT
ATOM      1  C   UNL     1      22.918  26.200  28.014  1.00  0.00     0.272 C 
ATOM      2  C   UNL     1      22.942  24.719  27.924  1.00  0.00     0.113 C 
ATOM      3  C   UNL     1      23.242  24.313  26.533  1.00  0.00     0.145 C 
ATOM      4  C   UNL     1      23.328  25.485  25.541  1.00  0.00     0.142 C 
ATOM      5  C   UNL     1      22.263  26.468  25.785  1.00  0.00     0.178 C 
ATOM      6  O   UNL     1      21.912  26.644  27.136  1.00  0.00    -0.332 OA
ENDROOT
BRANCH   1   7
ATOM      7  O   UNL     1      24.114  26.846  27.780  1.00  0.00    -0.338 OA
BRANCH   7   8
ATOM      8  C   UNL     1      24.445  27.645  28.862  1.00  0.00     0.199 C 
BRANCH   8   9
ATOM      9  C   UNL     1      25.918  27.583  29.194  1.00  0.00     0.179 C 
ATOM     10  C   UNL     1      27.324  27.709  31.052  1.00  0.00     0.282 C 
ATOM     11  O   UNL     1      26.225  28.233  30.368  1.00  0.00    -0.341 OA
ATOM     12  C   UNL     1      28.423  27.284  30.151  1.00  0.00     0.202 C 
ATOM     13  C   UNL     1      27.964  26.185  29.247  1.00  0.00     0.179 C 
ATOM     14  C   UNL     1      26.457  26.178  29.144  1.00  0.00     0.177 C 
BRANCH  10  15
ATOM     15  O   UNL     1      26.945  26.675  31.892  1.00  0.00    -0.341 OA
BRANCH  15  16
ATOM     16  C   UNL     1      26.594  27.091  33.170  1.00  0.00     0.184 C 
ATOM     17  C   UNL     1      27.530  26.532  34.176  1.00  0.00     0.178 C 
ATOM     18  O   UNL     1      27.083  26.956  35.445  1.00  0.00    -0.341 OA
ATOM     19  C   UNL     1      25.990  26.118  35.746  1.00  0.00     0.281 C 
ATOM     20  C   UNL     1      25.209  26.471  33.416  1.00  0.00     0.180 C 
ATOM     21  C   UNL     1      24.814  26.491  34.855  1.00  0.00     0.202 C 
BRANCH  17  22
ATOM     22  C   UNL     1      28.964  27.007  33.964  1.00  0.00     0.191 C 
BRANCH  22  23
ATOM     23  O   UNL     1      29.605  26.021  33.183  1.00  0.00    -0.394 OA
ATOM     24  H   UNL     1      30.514  25.881  33.540  1.00  0.00     0.210 HD
ENDBRANCH  22  23
ENDBRANCH  17  22
BRANCH  19  25
ATOM     25  O   UNL     1      25.651  26.276  37.066  1.00  0.00    -0.350 OA
BRANCH  25  26
ATOM     26  C   UNL     1      25.913  25.114  37.764  1.00  0.00     0.169 C 
BRANCH  26  27
ATOM     27  C   UNL     1      24.710  24.443  38.355  1.00  0.00     0.119 C 
BRANCH  27  28
ATOM     28  N   UNL     1      24.191  23.537  37.319  1.00  0.00    -0.092 NA
ATOM     29  N   UNL     1      23.027  23.161  37.445  1.00  0.00     0.001 N 
ATOM     30  N   UNL     1      21.887  22.746  37.193  1.00  0.00    -0.003 NA
ENDBRANCH  27  28
ENDBRANCH  26  27
ENDBRANCH  25  26
ENDBRANCH  19  25
BRANCH  20  31
ATOM     31  O   UNL     1      24.319  27.294  32.695  1.00  0.00    -0.387 OA
ATOM     32  H   UNL     1      23.623  26.766  32.221  1.00  0.00     0.211 HD
ENDBRANCH  20  31
BRANCH  21  33
ATOM     33  O   UNL     1      23.811  25.548  35.073  1.00  0.00    -0.385 OA
ATOM     34  H   UNL     1      23.301  25.717  35.910  1.00  0.00     0.211 HD
ENDBRANCH  21  33
ENDBRANCH  15  16
ENDBRANCH  10  15
BRANCH  12  35
ATOM     35  O   UNL     1      28.966  28.359  29.426  1.00  0.00    -0.385 OA
ATOM     36  H   UNL     1      29.940  28.191  29.379  1.00  0.00     0.211 HD
ENDBRANCH  12  35
BRANCH  13  37
ATOM     37  O   UNL     1      28.422  24.971  29.746  1.00  0.00    -0.387 OA
ATOM     38  H   UNL     1      29.197  24.618  29.232  1.00  0.00     0.211 HD
ENDBRANCH  13  37
BRANCH  14  39
ATOM     39  O   UNL     1      25.844  25.287  29.980  1.00  0.00    -0.387 OA
ATOM     40  H   UNL     1      25.731  24.371  29.655  1.00  0.00     0.211 HD
ENDBRANCH  14  39
ENDBRANCH   8   9
ENDBRANCH   7   8
ENDBRANCH   1   7
BRANCH   1  41
ATOM     41  C   UNL     1      22.410  26.679  29.346  1.00  0.00     0.364 C 
ATOM     42  O   UNL     1      21.562  27.571  29.387  1.00  0.00    -0.246 OA
BRANCH  41  43
ATOM     43  O   UNL     1      22.894  26.120  30.507  1.00  0.00    -0.477 OA
ATOM     44  H   UNL     1      23.864  25.814  30.607  1.00  0.00     0.296 HD
ENDBRANCH  41  43
ENDBRANCH   1  41
BRANCH   3  45
ATOM     45  O   UNL     1      24.453  23.610  26.385  1.00  0.00    -0.391 OA
ATOM     46  H   UNL     1      24.907  23.797  25.551  1.00  0.00     0.211 HD
ENDBRANCH   3  45
BRANCH   5  47
ATOM     47  C   UNL     1      22.374  27.825  25.227  1.00  0.00     0.176 C 
BRANCH  47  48
ATOM     48  O   UNL     1      23.293  27.980  24.213  1.00  0.00    -0.388 OA
ATOM     49  H   UNL     1      23.441  28.906  23.922  1.00  0.00     0.211 HD
ENDBRANCH  47  48
BRANCH  47  50
ATOM     50  C   UNL     1      21.110  28.551  24.866  1.00  0.00     0.165 C 
BRANCH  50  51
ATOM     51  O   UNL     1      19.984  27.791  24.951  1.00  0.00    -0.388 OA
ATOM     52  H   UNL     1      19.325  27.957  24.250  1.00  0.00     0.211 HD
ENDBRANCH  50  51
BRANCH  50  53
ATOM     53  C   UNL     1      21.270  29.427  23.659  1.00  0.00     0.154 C 
BRANCH  53  54
ATOM     54  N   UNL     1      20.381  29.113  22.570  1.00  0.00    -0.319 N 
ATOM     55  C   UNL     1      20.631  28.115  21.574  1.00  0.00     0.407 C 
ATOM     56  H   UNL     1      19.455  29.619  22.435  1.00  0.00     0.167 HD
ATOM     57  O   UNL     1      21.693  27.453  21.620  1.00  0.00    -0.225 OA
BRANCH  55  58
ATOM     58  O   UNL     1      19.728  27.865  20.557  1.00  0.00    -0.443 OA
BRANCH  58  59
ATOM     59  C   UNL     1      19.046  28.941  19.959  1.00  0.00     0.294 C 
BRANCH  59  60
ATOM     60  C   UNL     1      17.594  28.872  20.227  1.00  0.00     0.120 A 
ATOM     61  C   UNL     1      16.774  29.998  20.385  1.00  0.00     0.138 A 
ATOM     62  N   UNL     1      16.773  27.825  20.370  1.00  0.00    -0.132 NA
ATOM     63  N   UNL     1      15.518  29.580  20.611  1.00  0.00    -0.248 N 
ATOM     64  N   UNL     1      15.533  28.280  20.599  1.00  0.00    -0.067 NA
BRANCH  63  65
ATOM     65  C   UNL     1      14.377  30.443  20.819  1.00  0.00     0.181 C 
BRANCH  65  66
ATOM     66  C   UNL     1      13.833  30.220  22.181  1.00  0.00    -0.026 A 
ATOM     67  C   UNL     1      12.511  29.874  22.395  1.00  0.00     0.005 A 
ATOM     68  C   UNL     1      14.682  30.364  23.268  1.00  0.00     0.005 A 
ATOM     69  C   UNL     1      12.051  29.677  23.686  1.00  0.00     0.000 A 
ATOM     70  C   UNL     1      14.211  30.164  24.552  1.00  0.00     0.000 A 
ATOM     71  C   UNL     1      12.899  29.822  24.754  1.00  0.00     0.000 A 
ENDBRANCH  65  66
ENDBRANCH  63  65
ENDBRANCH  59  60
ENDBRANCH  58  59
ENDBRANCH  55  58
ENDBRANCH  53  54
ENDBRANCH  50  53
ENDBRANCH  47  50
ENDBRANCH   5  47
BRANCH   4  72
ATOM     72  N   UNL     1      23.091  24.784  24.263  1.00  0.00    -0.348 N 
ATOM     73  C   UNL     1      23.950  24.899  23.148  1.00  0.00     0.217 C 
ATOM     74  H   UNL     1      22.249  24.175  24.171  1.00  0.00     0.163 HD
ATOM     75  C   UNL     1      23.681  24.182  21.865  1.00  0.00     0.114 C 
ATOM     76  O   UNL     1      24.968  25.627  23.248  1.00  0.00    -0.275 OA
ENDBRANCH   4  72
TORSDOF 31
