REMARK VINA RESULT:    -5.663      4.633      9.116
REMARK INTER + INTRA:         -22.500
REMARK INTER:                 -17.043
REMARK INTRA:                  -5.457
REMARK UNBOUND:                -8.561
REMARK SMILES CC(=O)N[C@@H]1[C@@H](O)C[C@](OC[C@H]2O[C@@H](O[C@H]3[C@H](O)[C@@H](O)[C@H](OCCN=[N+]=[N-])O[C@@H]3CO)[C@H](O)[C@@H](O)[C@H]2O)(C(=O)O)O[C@H]1C(O)[C@H](O)CNC(=O)OCc1cn(-c2cnc3ccccc3c2)nn1
REMARK SMILES IDX 9 1 8 2 6 3 5 4 42 5 41 6 10 7 11 8 12 9 14 10 13 11 32 12
REMARK SMILES IDX 34 13 36 14 15 15 16 16 29 17 28 18 21 19 17 20 19 21 30 22
REMARK SMILES IDX 31 23 22 25 23 26 24 27 25 28 26 29 27 30 18 31 20 33 33 35
REMARK SMILES IDX 35 37 37 39 38 41 39 42 40 43 7 45 43 47 44 48 45 50 46 51
REMARK SMILES IDX 47 53 48 54 49 55 50 57 51 58 52 59 53 60 54 61 67 62 55 63
REMARK SMILES IDX 66 64 56 65 57 66 65 67 58 68 64 69 59 70 63 71 60 72 62 73
REMARK SMILES IDX 61 74 4 75 2 76 1 78 3 79
REMARK H PARENT 31 24 18 32 20 34 33 36 35 38 37 40 40 44 7 46 44 49 46 52
REMARK H PARENT 48 56 4 77
REMARK Flexibility Score: inf
ROOT
ATOM      1  C   UNL     1      28.370  19.936  16.025  1.00  0.00     0.272 C 
ATOM      2  C   UNL     1      29.709  20.490  15.695  1.00  0.00     0.113 C 
ATOM      3  C   UNL     1      29.657  21.477  14.545  1.00  0.00     0.145 C 
ATOM      4  C   UNL     1      28.521  22.440  14.894  1.00  0.00     0.142 C 
ATOM      5  C   UNL     1      27.231  21.609  14.814  1.00  0.00     0.178 C 
ATOM      6  O   UNL     1      27.315  20.799  15.967  1.00  0.00    -0.332 OA
ENDROOT
BRANCH   1   7
ATOM      7  O   UNL     1      28.342  19.419  17.338  1.00  0.00    -0.338 OA
BRANCH   7   8
ATOM      8  C   UNL     1      29.531  19.507  18.006  1.00  0.00     0.199 C 
BRANCH   8   9
ATOM      9  C   UNL     1      29.258  20.007  19.409  1.00  0.00     0.179 C 
ATOM     10  C   UNL     1      30.165  20.382  21.484  1.00  0.00     0.282 C 
ATOM     11  O   UNL     1      30.400  20.312  20.120  1.00  0.00    -0.341 OA
ATOM     12  C   UNL     1      28.745  20.747  21.807  1.00  0.00     0.202 C 
ATOM     13  C   UNL     1      28.098  21.627  20.796  1.00  0.00     0.179 C 
ATOM     14  C   UNL     1      28.157  20.981  19.442  1.00  0.00     0.177 C 
BRANCH  10  15
ATOM     15  O   UNL     1      31.085  21.227  22.063  1.00  0.00    -0.341 OA
BRANCH  15  16
ATOM     16  C   UNL     1      31.693  20.677  23.193  1.00  0.00     0.184 C 
ATOM     17  C   UNL     1      31.919  19.190  23.074  1.00  0.00     0.178 C 
ATOM     18  O   UNL     1      31.521  18.445  24.141  1.00  0.00    -0.341 OA
ATOM     19  C   UNL     1      31.832  18.901  25.392  1.00  0.00     0.281 C 
ATOM     20  C   UNL     1      31.009  21.087  24.466  1.00  0.00     0.180 C 
ATOM     21  C   UNL     1      31.622  20.365  25.624  1.00  0.00     0.202 C 
BRANCH  17  22
ATOM     22  C   UNL     1      33.346  18.896  22.608  1.00  0.00     0.191 C 
BRANCH  22  23
ATOM     23  O   UNL     1      34.225  19.925  22.931  1.00  0.00    -0.394 OA
ATOM     24  H   UNL     1      34.947  19.638  23.525  1.00  0.00     0.210 HD
ENDBRANCH  22  23
ENDBRANCH  17  22
BRANCH  19  25
ATOM     25  O   UNL     1      33.090  18.483  25.832  1.00  0.00    -0.350 OA
BRANCH  25  26
ATOM     26  C   UNL     1      33.724  19.431  26.607  1.00  0.00     0.169 C 
BRANCH  26  27
ATOM     27  C   UNL     1      33.948  18.949  28.021  1.00  0.00     0.119 C 
BRANCH  27  28
ATOM     28  N   UNL     1      32.701  18.915  28.758  1.00  0.00    -0.092 NA
ATOM     29  N   UNL     1      32.083  17.870  28.959  1.00  0.00     0.001 N 
ATOM     30  N   UNL     1      31.698  16.829  29.492  1.00  0.00    -0.003 NA
ENDBRANCH  27  28
ENDBRANCH  26  27
ENDBRANCH  25  26
ENDBRANCH  19  25
BRANCH  20  31
ATOM     31  O   UNL     1      31.241  22.468  24.656  1.00  0.00    -0.387 OA
ATOM     32  H   UNL     1      30.400  22.918  24.940  1.00  0.00     0.211 HD
ENDBRANCH  20  31
BRANCH  21  33
ATOM     33  O   UNL     1      30.794  20.613  26.745  1.00  0.00    -0.385 OA
ATOM     34  H   UNL     1      30.258  19.791  26.949  1.00  0.00     0.211 HD
ENDBRANCH  21  33
ENDBRANCH  15  16
ENDBRANCH  10  15
BRANCH  12  35
ATOM     35  O   UNL     1      27.925  19.647  22.035  1.00  0.00    -0.385 OA
ATOM     36  H   UNL     1      27.995  19.321  22.964  1.00  0.00     0.211 HD
ENDBRANCH  12  35
BRANCH  13  37
ATOM     37  O   UNL     1      28.684  22.895  20.791  1.00  0.00    -0.387 OA
ATOM     38  H   UNL     1      29.640  22.816  20.637  1.00  0.00     0.211 HD
ENDBRANCH  13  37
BRANCH  14  39
ATOM     39  O   UNL     1      28.261  22.004  18.506  1.00  0.00    -0.387 OA
ATOM     40  H   UNL     1      28.469  21.688  17.607  1.00  0.00     0.211 HD
ENDBRANCH  14  39
ENDBRANCH   8   9
ENDBRANCH   7   8
ENDBRANCH   1   7
BRANCH   1  41
ATOM     41  C   UNL     1      28.071  18.821  15.059  1.00  0.00     0.364 C 
ATOM     42  O   UNL     1      26.881  18.614  14.655  1.00  0.00    -0.246 OA
BRANCH  41  43
ATOM     43  O   UNL     1      29.017  17.963  14.550  1.00  0.00    -0.477 OA
ATOM     44  H   UNL     1      30.008  18.224  14.431  1.00  0.00     0.296 HD
ENDBRANCH  41  43
ENDBRANCH   1  41
BRANCH   3  45
ATOM     45  O   UNL     1      30.848  22.136  14.361  1.00  0.00    -0.391 OA
ATOM     46  H   UNL     1      31.560  21.603  14.772  1.00  0.00     0.211 HD
ENDBRANCH   3  45
BRANCH   5  47
ATOM     47  C   UNL     1      26.011  22.465  15.017  1.00  0.00     0.176 C 
BRANCH  47  48
ATOM     48  O   UNL     1      26.151  23.092  16.284  1.00  0.00    -0.388 OA
ATOM     49  H   UNL     1      26.593  23.974  16.195  1.00  0.00     0.211 HD
ENDBRANCH  47  48
BRANCH  47  50
ATOM     50  C   UNL     1      24.700  21.695  15.088  1.00  0.00     0.165 C 
BRANCH  50  51
ATOM     51  O   UNL     1      24.834  20.767  13.995  1.00  0.00    -0.388 OA
ATOM     52  H   UNL     1      24.194  20.037  14.162  1.00  0.00     0.211 HD
ENDBRANCH  50  51
BRANCH  50  53
ATOM     53  C   UNL     1      23.551  22.570  14.634  1.00  0.00     0.154 C 
BRANCH  53  54
ATOM     54  N   UNL     1      23.068  23.515  15.569  1.00  0.00    -0.319 N 
ATOM     55  C   UNL     1      22.641  24.820  15.247  1.00  0.00     0.407 C 
ATOM     56  H   UNL     1      23.029  23.207  16.592  1.00  0.00     0.167 HD
ATOM     57  O   UNL     1      22.694  25.200  14.061  1.00  0.00    -0.225 OA
BRANCH  55  58
ATOM     58  O   UNL     1      22.183  25.624  16.265  1.00  0.00    -0.443 OA
BRANCH  58  59
ATOM     59  C   UNL     1      23.014  26.094  17.292  1.00  0.00     0.294 C 
BRANCH  59  60
ATOM     60  C   UNL     1      22.782  25.296  18.539  1.00  0.00     0.121 A 
ATOM     61  C   UNL     1      22.777  25.723  19.824  1.00  0.00     0.144 A 
ATOM     62  N   UNL     1      22.540  23.965  18.547  1.00  0.00    -0.131 NA
ATOM     63  N   UNL     1      22.532  24.637  20.583  1.00  0.00    -0.219 N 
ATOM     64  N   UNL     1      22.388  23.570  19.794  1.00  0.00    -0.062 NA
BRANCH  63  65
ATOM     65  C   UNL     1      22.446  24.653  22.005  1.00  0.00     0.085 A 
ATOM     66  C   UNL     1      21.230  24.636  22.610  1.00  0.00     0.140 A 
ATOM     67  C   UNL     1      23.619  24.679  22.742  1.00  0.00     0.040 A 
ATOM     68  N   UNL     1      21.166  24.645  23.956  1.00  0.00    -0.254 NA
ATOM     69  C   UNL     1      23.534  24.687  24.104  1.00  0.00     0.002 A 
ATOM     70  C   UNL     1      22.294  24.670  24.675  1.00  0.00     0.070 A 
ATOM     71  C   UNL     1      24.688  24.712  24.860  1.00  0.00     0.010 A 
ATOM     72  C   UNL     1      22.216  24.677  26.069  1.00  0.00     0.029 A 
ATOM     73  C   UNL     1      24.586  24.720  26.241  1.00  0.00     0.001 A 
ATOM     74  C   UNL     1      23.332  24.702  26.855  1.00  0.00     0.002 A 
ENDBRANCH  63  65
ENDBRANCH  59  60
ENDBRANCH  58  59
ENDBRANCH  55  58
ENDBRANCH  53  54
ENDBRANCH  50  53
ENDBRANCH  47  50
ENDBRANCH   5  47
BRANCH   4  75
ATOM     75  N   UNL     1      28.546  23.605  14.095  1.00  0.00    -0.348 N 
ATOM     76  C   UNL     1      28.621  24.913  14.704  1.00  0.00     0.217 C 
ATOM     77  H   UNL     1      28.530  23.611  13.055  1.00  0.00     0.163 HD
ATOM     78  C   UNL     1      28.647  26.130  13.891  1.00  0.00     0.114 C 
ATOM     79  O   UNL     1      28.661  24.948  15.971  1.00  0.00    -0.275 OA
ENDBRANCH   4  75
TORSDOF 30
