REMARK VINA RESULT:    -8.025      3.777     12.017
REMARK INTER + INTRA:         -19.491
REMARK INTER:                 -13.038
REMARK INTRA:                  -6.453
REMARK UNBOUND:                 3.076
REMARK SMILES CC(=O)N[C@@H]1[C@@H](O)C[C@](OC[C@H]2O[C@@H](O[C@H]3[C@H](O)[C@@H](O)[C@H](OCCN=[N+]=[N-])O[C@@H]3CO)[C@H](O)[C@@H](O)[C@H]2O)(C(=O)O)O[C@H]1C(O)[C@H](O)CNC(=O)OCc1cn(C2CC(O)C=C[C@@H](O)C2)nn1
REMARK SMILES IDX 43 1 42 2 9 3 8 4 41 5 6 6 5 7 10 8 11 9 12 10 14 11 13 12
REMARK SMILES IDX 32 13 34 14 36 15 15 16 16 17 29 18 28 19 21 20 17 21 19 22
REMARK SMILES IDX 30 23 31 24 22 26 23 27 24 28 25 29 26 30 27 31 18 32 20 34
REMARK SMILES IDX 33 36 35 38 37 40 38 42 39 43 40 44 7 46 4 48 2 49 1 51 3 52
REMARK SMILES IDX 44 53 45 55 46 56 47 58 48 59 49 60 50 62 51 63 52 64 53 65
REMARK SMILES IDX 54 66 66 67 55 68 65 69 56 70 57 71 58 72 59 74 64 76 62 77
REMARK SMILES IDX 61 78 60 79 63 81
REMARK H PARENT 31 25 18 33 20 35 33 37 35 39 37 41 40 45 7 47 4 50 44 54
REMARK H PARENT 46 57 48 61 59 75 63 82
REMARK Flexibility Score: 90.00
ROOT
ATOM      1  C   UNL     1      23.692  24.717  26.398  1.00  0.00     0.176 C 
ENDROOT
BRANCH   1   2
ATOM      2  C   UNL     1      24.699  25.522  27.202  1.00  0.00     0.178 C 
ATOM      3  C   UNL     1      24.742  26.586  29.299  1.00  0.00     0.272 C 
ATOM      4  C   UNL     1      25.913  27.409  28.905  1.00  0.00     0.113 C 
ATOM      5  O   UNL     1      24.000  25.994  28.349  1.00  0.00    -0.332 OA
ATOM      6  C   UNL     1      26.441  27.134  27.545  1.00  0.00     0.145 C 
ATOM      7  C   UNL     1      25.280  26.720  26.587  1.00  0.00     0.142 C 
BRANCH   3   8
ATOM      8  O   UNL     1      23.947  27.355  30.175  1.00  0.00    -0.338 OA
BRANCH   8   9
ATOM      9  C   UNL     1      22.664  27.557  29.758  1.00  0.00     0.199 C 
BRANCH   9  10
ATOM     10  C   UNL     1      22.495  28.958  29.169  1.00  0.00     0.179 C 
ATOM     11  C   UNL     1      20.757  29.960  28.025  1.00  0.00     0.282 C 
ATOM     12  O   UNL     1      21.624  28.871  28.129  1.00  0.00    -0.341 OA
ATOM     13  C   UNL     1      19.895  29.878  29.271  1.00  0.00     0.202 C 
ATOM     14  C   UNL     1      20.777  30.319  30.417  1.00  0.00     0.179 C 
ATOM     15  C   UNL     1      22.219  29.980  30.216  1.00  0.00     0.177 C 
BRANCH  11  16
ATOM     16  O   UNL     1      20.050  29.859  26.851  1.00  0.00    -0.341 OA
BRANCH  16  17
ATOM     17  C   UNL     1      20.934  29.845  25.769  1.00  0.00     0.184 C 
ATOM     18  C   UNL     1      21.388  31.247  25.449  1.00  0.00     0.178 C 
ATOM     19  O   UNL     1      20.459  32.015  24.795  1.00  0.00    -0.341 OA
ATOM     20  C   UNL     1      19.314  31.321  24.410  1.00  0.00     0.281 C 
ATOM     21  C   UNL     1      20.375  29.131  24.569  1.00  0.00     0.180 C 
ATOM     22  C   UNL     1      19.707  30.082  23.613  1.00  0.00     0.202 C 
BRANCH  18  23
ATOM     23  C   UNL     1      22.691  31.225  24.661  1.00  0.00     0.191 C 
BRANCH  23  24
ATOM     24  O   UNL     1      23.798  31.145  25.485  1.00  0.00    -0.394 OA
ATOM     25  H   UNL     1      24.544  31.686  25.178  1.00  0.00     0.210 HD
ENDBRANCH  23  24
ENDBRANCH  18  23
BRANCH  20  26
ATOM     26  O   UNL     1      18.584  32.195  23.611  1.00  0.00    -0.350 OA
BRANCH  26  27
ATOM     27  C   UNL     1      17.558  32.740  24.373  1.00  0.00     0.169 C 
BRANCH  27  28
ATOM     28  C   UNL     1      17.589  32.215  25.798  1.00  0.00     0.119 C 
BRANCH  28  29
ATOM     29  N   UNL     1      16.616  31.158  25.979  1.00  0.00    -0.092 NA
ATOM     30  N   UNL     1      16.099  31.003  27.098  1.00  0.00     0.001 N 
ATOM     31  N   UNL     1      15.738  30.889  28.277  1.00  0.00    -0.003 NA
ENDBRANCH  28  29
ENDBRANCH  27  28
ENDBRANCH  26  27
ENDBRANCH  20  26
BRANCH  21  32
ATOM     32  O   UNL     1      21.384  28.430  23.909  1.00  0.00    -0.387 OA
ATOM     33  H   UNL     1      22.233  28.440  24.414  1.00  0.00     0.211 HD
ENDBRANCH  21  32
BRANCH  22  34
ATOM     34  O   UNL     1      18.570  29.512  23.052  1.00  0.00    -0.385 OA
ATOM     35  H   UNL     1      17.892  30.207  22.846  1.00  0.00     0.211 HD
ENDBRANCH  22  34
ENDBRANCH  16  17
ENDBRANCH  11  16
BRANCH  13  36
ATOM     36  O   UNL     1      18.758  30.638  29.223  1.00  0.00    -0.385 OA
ATOM     37  H   UNL     1      17.929  30.142  29.129  1.00  0.00     0.211 HD
ENDBRANCH  13  36
BRANCH  14  38
ATOM     38  O   UNL     1      20.242  29.753  31.574  1.00  0.00    -0.387 OA
ATOM     39  H   UNL     1      19.741  30.433  32.104  1.00  0.00     0.211 HD
ENDBRANCH  14  38
BRANCH  15  40
ATOM     40  O   UNL     1      22.770  29.495  31.419  1.00  0.00    -0.387 OA
ATOM     41  H   UNL     1      22.292  29.783  32.209  1.00  0.00     0.211 HD
ENDBRANCH  15  40
ENDBRANCH   9  10
ENDBRANCH   8   9
ENDBRANCH   3   8
BRANCH   3  42
ATOM     42  C   UNL     1      25.295  25.471  30.160  1.00  0.00     0.364 C 
ATOM     43  O   UNL     1      24.568  24.788  30.929  1.00  0.00    -0.246 OA
BRANCH  42  44
ATOM     44  O   UNL     1      26.653  25.214  30.079  1.00  0.00    -0.477 OA
ATOM     45  H   UNL     1      27.307  25.929  29.760  1.00  0.00     0.296 HD
ENDBRANCH  42  44
ENDBRANCH   3  42
BRANCH   6  46
ATOM     46  O   UNL     1      27.114  28.214  27.029  1.00  0.00    -0.391 OA
ATOM     47  H   UNL     1      26.494  28.959  26.878  1.00  0.00     0.211 HD
ENDBRANCH   6  46
BRANCH   7  48
ATOM     48  N   UNL     1      25.769  26.711  25.263  1.00  0.00    -0.348 N 
ATOM     49  C   UNL     1      25.213  27.581  24.291  1.00  0.00     0.217 C 
ATOM     50  H   UNL     1      26.556  26.098  24.985  1.00  0.00     0.163 HD
ATOM     51  C   UNL     1      25.711  27.589  22.891  1.00  0.00     0.114 C 
ATOM     52  O   UNL     1      24.283  28.358  24.614  1.00  0.00    -0.275 OA
ENDBRANCH   7  48
ENDBRANCH   1   2
BRANCH   1  53
ATOM     53  O   UNL     1      24.562  24.185  25.347  1.00  0.00    -0.388 OA
ATOM     54  H   UNL     1      24.983  23.345  25.710  1.00  0.00     0.211 HD
ENDBRANCH   1  53
BRANCH   1  55
ATOM     55  C   UNL     1      22.738  25.552  25.593  1.00  0.00     0.165 C 
BRANCH  55  56
ATOM     56  O   UNL     1      21.915  26.315  26.386  1.00  0.00    -0.388 OA
ATOM     57  H   UNL     1      20.962  26.244  26.159  1.00  0.00     0.211 HD
ENDBRANCH  55  56
BRANCH  55  58
ATOM     58  C   UNL     1      21.828  24.668  24.748  1.00  0.00     0.154 C 
BRANCH  58  59
ATOM     59  N   UNL     1      21.566  25.179  23.440  1.00  0.00    -0.319 N 
ATOM     60  C   UNL     1      22.540  25.193  22.405  1.00  0.00     0.407 C 
ATOM     61  H   UNL     1      20.604  25.573  23.212  1.00  0.00     0.167 HD
ATOM     62  O   UNL     1      23.681  24.726  22.689  1.00  0.00    -0.225 OA
BRANCH  60  63
ATOM     63  O   UNL     1      22.230  25.696  21.162  1.00  0.00    -0.443 OA
BRANCH  63  64
ATOM     64  C   UNL     1      22.429  27.076  20.868  1.00  0.00     0.294 C 
BRANCH  64  65
ATOM     65  C   UNL     1      21.151  27.619  20.356  1.00  0.00     0.120 A 
ATOM     66  C   UNL     1      20.817  27.936  19.065  1.00  0.00     0.138 A 
ATOM     67  N   UNL     1      20.072  27.905  21.106  1.00  0.00    -0.132 NA
ATOM     68  N   UNL     1      19.545  28.408  19.076  1.00  0.00    -0.249 N 
ATOM     69  N   UNL     1      19.124  28.375  20.324  1.00  0.00    -0.067 NA
BRANCH  68  70
ATOM     70  C   UNL     1      18.775  28.874  17.915  1.00  0.00     0.115 C 
BRANCH  70  71
ATOM     71  C   UNL     1      19.462  28.415  16.673  1.00  0.00     0.063 C 
BRANCH  71  72
ATOM     72  C   UNL     1      19.108  29.369  15.528  1.00  0.00     0.139 CG0
ATOM     73  G   UNL     1      17.726  29.107  15.094  1.00  0.00     0.000 G0
BRANCH  72  74
ATOM     74  O   UNL     1      20.010  29.205  14.478  1.00  0.00    -0.389 OA
ATOM     75  H   UNL     1      20.932  29.308  14.850  1.00  0.00     0.211 HD
ENDBRANCH  72  74
ENDBRANCH  71  72
ENDBRANCH  70  71
BRANCH  70  76
ATOM     76  C   UNL     1      17.389  28.317  18.010  1.00  0.00     0.063 C 
BRANCH  76  77
ATOM     77  C   UNL     1      16.472  29.296  17.268  1.00  0.00     0.139 C 
BRANCH  77  78
ATOM     78  C   UNL     1      16.589  29.074  15.802  1.00  0.00     0.002 C 
ATOM     79  C   UNL     1      17.707  29.123  15.091  1.00  0.00     0.002 CG0
ATOM     80  G   UNL     1      19.086  29.396  15.525  1.00  0.00     0.000 G0
ENDBRANCH  77  78
BRANCH  77  81
ATOM     81  O   UNL     1      15.157  29.190  17.694  1.00  0.00    -0.389 OA
ATOM     82  H   UNL     1      14.753  28.409  17.222  1.00  0.00     0.211 HD
ENDBRANCH  77  81
ENDBRANCH  76  77
ENDBRANCH  70  76
ENDBRANCH  68  70
ENDBRANCH  64  65
ENDBRANCH  63  64
ENDBRANCH  60  63
ENDBRANCH  58  59
ENDBRANCH  55  58
ENDBRANCH   1  55
TORSDOF 32
