REMARK VINA RESULT:    -6.171     13.554     17.679
REMARK INTER + INTRA:         -23.158
REMARK INTER:                 -17.706
REMARK INTRA:                  -5.452
REMARK UNBOUND:                -6.885
REMARK SMILES CCOC(=O)c1cccc(-n2cc(COC(=O)NC[C@@H](O)C(O)[C@@H]3O[C@@](OC[C@H]4O[C@@H](O[C@H]5[C@H](O)[C@@H](O)[C@H](OCCN=[N+]=[N-])O[C@@H]5CO)[C@H](O)[C@@H](O)[C@H]4O)(C(=O)O)C[C@H](O)[C@H]3NC(C)=O)nn2)c1
REMARK SMILES IDX 22 1 24 2 26 3 58 4 25 5 59 6 61 7 27 8 28 9 29 10 31 11
REMARK SMILES IDX 30 12 49 13 51 14 53 15 32 16 33 17 46 18 45 19 38 20 34 21
REMARK SMILES IDX 36 22 47 23 48 24 39 26 40 27 41 28 42 29 43 30 44 31 35 32
REMARK SMILES IDX 37 34 50 36 52 38 54 40 55 42 56 43 57 44 60 46 62 48 63 49
REMARK SMILES IDX 64 51 65 52 23 53 20 55 21 56 19 58 18 59 16 60 17 62 15 63
REMARK SMILES IDX 14 64 13 65 12 66 66 67 11 68 67 69 10 70 68 71 9 72 6 73
REMARK SMILES IDX 8 74 7 75 4 76 5 77 3 78 2 79 1 80
REMARK H PARENT 48 25 35 33 37 35 50 37 52 39 54 41 57 45 60 47 62 50 23 54
REMARK H PARENT 21 57 18 61
REMARK Flexibility Score: inf
ROOT
ATOM      1  C   UNL     1      22.300  28.040  21.217  1.00  0.00     0.176 C 
ENDROOT
BRANCH   1   2
ATOM      2  C   UNL     1      22.609  26.606  21.109  1.00  0.00     0.178 C 
ATOM      3  C   UNL     1      22.890  24.829  22.642  1.00  0.00     0.272 C 
ATOM      4  C   UNL     1      23.078  24.130  21.334  1.00  0.00     0.113 C 
ATOM      5  O   UNL     1      23.184  26.202  22.317  1.00  0.00    -0.332 OA
ATOM      6  C   UNL     1      24.105  24.798  20.433  1.00  0.00     0.145 C 
ATOM      7  C   UNL     1      23.507  26.178  20.003  1.00  0.00     0.142 C 
BRANCH   3   8
ATOM      8  O   UNL     1      23.857  24.460  23.524  1.00  0.00    -0.338 OA
BRANCH   8   9
ATOM      9  C   UNL     1      24.795  25.222  24.031  1.00  0.00     0.199 C 
BRANCH   9  10
ATOM     10  C   UNL     1      24.763  25.970  25.295  1.00  0.00     0.179 C 
ATOM     11  C   UNL     1      23.433  27.331  26.655  1.00  0.00     0.282 C 
ATOM     12  O   UNL     1      23.773  26.884  25.357  1.00  0.00    -0.341 OA
ATOM     13  C   UNL     1      24.505  26.995  27.646  1.00  0.00     0.202 C 
ATOM     14  C   UNL     1      24.848  25.541  27.684  1.00  0.00     0.179 C 
ATOM     15  C   UNL     1      24.465  24.901  26.394  1.00  0.00     0.177 C 
BRANCH  11  16
ATOM     16  O   UNL     1      22.195  26.813  26.899  1.00  0.00    -0.341 OA
BRANCH  16  17
ATOM     17  C   UNL     1      21.228  27.608  27.411  1.00  0.00     0.184 C 
ATOM     18  C   UNL     1      21.187  28.885  26.615  1.00  0.00     0.178 C 
ATOM     19  O   UNL     1      20.171  29.732  27.061  1.00  0.00    -0.341 OA
ATOM     20  C   UNL     1      20.541  30.198  28.354  1.00  0.00     0.281 C 
ATOM     21  C   UNL     1      21.505  28.010  28.870  1.00  0.00     0.180 C 
ATOM     22  C   UNL     1      20.410  29.002  29.256  1.00  0.00     0.202 C 
BRANCH  18  23
ATOM     23  C   UNL     1      20.962  28.608  25.156  1.00  0.00     0.191 C 
BRANCH  23  24
ATOM     24  O   UNL     1      20.104  27.488  24.997  1.00  0.00    -0.394 OA
ATOM     25  H   UNL     1      19.171  27.789  24.852  1.00  0.00     0.210 HD
ENDBRANCH  23  24
ENDBRANCH  18  23
BRANCH  20  26
ATOM     26  O   UNL     1      19.722  31.242  28.672  1.00  0.00    -0.350 OA
BRANCH  26  27
ATOM     27  C   UNL     1      18.645  31.355  27.805  1.00  0.00     0.169 C 
BRANCH  27  28
ATOM     28  C   UNL     1      17.342  31.624  28.497  1.00  0.00     0.119 C 
BRANCH  28  29
ATOM     29  N   UNL     1      16.341  30.660  28.024  1.00  0.00    -0.092 NA
ATOM     30  N   UNL     1      15.298  31.113  27.532  1.00  0.00     0.001 N 
ATOM     31  N   UNL     1      14.329  31.404  26.802  1.00  0.00    -0.003 NA
ENDBRANCH  28  29
ENDBRANCH  27  28
ENDBRANCH  26  27
ENDBRANCH  20  26
BRANCH  21  32
ATOM     32  O   UNL     1      21.339  26.932  29.726  1.00  0.00    -0.387 OA
ATOM     33  H   UNL     1      21.961  27.058  30.482  1.00  0.00     0.211 HD
ENDBRANCH  21  32
BRANCH  22  34
ATOM     34  O   UNL     1      20.503  29.345  30.601  1.00  0.00    -0.385 OA
ATOM     35  H   UNL     1      20.232  28.599  31.216  1.00  0.00     0.211 HD
ENDBRANCH  22  34
ENDBRANCH  16  17
ENDBRANCH  11  16
BRANCH  13  36
ATOM     36  O   UNL     1      25.629  27.806  27.397  1.00  0.00    -0.385 OA
ATOM     37  H   UNL     1      25.606  28.211  26.500  1.00  0.00     0.211 HD
ENDBRANCH  13  36
BRANCH  14  38
ATOM     38  O   UNL     1      24.414  24.898  28.821  1.00  0.00    -0.387 OA
ATOM     39  H   UNL     1      23.662  24.305  28.551  1.00  0.00     0.211 HD
ENDBRANCH  14  38
BRANCH  15  40
ATOM     40  O   UNL     1      23.170  24.486  26.364  1.00  0.00    -0.387 OA
ATOM     41  H   UNL     1      22.671  25.003  25.684  1.00  0.00     0.211 HD
ENDBRANCH  15  40
ENDBRANCH   9  10
ENDBRANCH   8   9
ENDBRANCH   3   8
BRANCH   3  42
ATOM     42  C   UNL     1      21.544  24.805  23.195  1.00  0.00     0.364 C 
ATOM     43  O   UNL     1      21.321  24.658  24.407  1.00  0.00    -0.246 OA
BRANCH  42  44
ATOM     44  O   UNL     1      20.434  24.952  22.362  1.00  0.00    -0.477 OA
ATOM     45  H   UNL     1      19.491  24.837  22.668  1.00  0.00     0.296 HD
ENDBRANCH  42  44
ENDBRANCH   3  42
BRANCH   6  46
ATOM     46  O   UNL     1      25.220  25.085  21.181  1.00  0.00    -0.391 OA
ATOM     47  H   UNL     1      25.994  25.211  20.581  1.00  0.00     0.211 HD
ENDBRANCH   6  46
BRANCH   7  48
ATOM     48  N   UNL     1      22.812  25.936  18.760  1.00  0.00    -0.348 N 
ATOM     49  C   UNL     1      22.985  26.732  17.581  1.00  0.00     0.217 C 
ATOM     50  H   UNL     1      22.121  25.134  18.649  1.00  0.00     0.163 HD
ATOM     51  C   UNL     1      22.251  26.454  16.318  1.00  0.00     0.114 C 
ATOM     52  O   UNL     1      23.775  27.698  17.598  1.00  0.00    -0.275 OA
ENDBRANCH   7  48
ENDBRANCH   1   2
BRANCH   1  53
ATOM     53  O   UNL     1      22.768  28.846  20.214  1.00  0.00    -0.388 OA
ATOM     54  H   UNL     1      22.266  28.739  19.372  1.00  0.00     0.211 HD
ENDBRANCH   1  53
BRANCH   1  55
ATOM     55  C   UNL     1      20.890  28.407  21.603  1.00  0.00     0.165 C 
BRANCH  55  56
ATOM     56  O   UNL     1      19.967  27.704  20.823  1.00  0.00    -0.388 OA
ATOM     57  H   UNL     1      19.561  26.969  21.351  1.00  0.00     0.211 HD
ENDBRANCH  55  56
BRANCH  55  58
ATOM     58  C   UNL     1      20.631  29.879  21.716  1.00  0.00     0.154 C 
BRANCH  58  59
ATOM     59  N   UNL     1      19.251  30.214  21.449  1.00  0.00    -0.319 N 
ATOM     60  C   UNL     1      18.266  30.141  22.459  1.00  0.00     0.407 C 
ATOM     61  H   UNL     1      18.950  30.527  20.475  1.00  0.00     0.167 HD
ATOM     62  O   UNL     1      18.472  29.801  23.646  1.00  0.00    -0.225 OA
BRANCH  60  63
ATOM     63  O   UNL     1      16.925  30.456  22.163  1.00  0.00    -0.443 OA
BRANCH  63  64
ATOM     64  C   UNL     1      15.966  29.540  21.734  1.00  0.00     0.294 C 
BRANCH  64  65
ATOM     65  C   UNL     1      16.249  28.859  20.464  1.00  0.00     0.121 A 
ATOM     66  C   UNL     1      16.410  29.468  19.224  1.00  0.00     0.144 A 
ATOM     67  N   UNL     1      16.401  27.556  20.257  1.00  0.00    -0.131 NA
ATOM     68  N   UNL     1      16.650  28.509  18.331  1.00  0.00    -0.220 N 
ATOM     69  N   UNL     1      16.643  27.357  18.963  1.00  0.00    -0.062 NA
BRANCH  68  70
ATOM     70  C   UNL     1      16.874  28.705  16.952  1.00  0.00     0.067 A 
ATOM     71  C   UNL     1      15.820  28.801  16.047  1.00  0.00     0.044 A 
ATOM     72  C   UNL     1      18.137  28.822  16.434  1.00  0.00     0.028 A 
ATOM     73  C   UNL     1      15.988  29.003  14.703  1.00  0.00     0.062 A 
ATOM     74  C   UNL     1      18.349  29.027  15.080  1.00  0.00     0.003 A 
ATOM     75  C   UNL     1      17.284  29.117  14.214  1.00  0.00     0.016 A 
BRANCH  73  76
ATOM     76  C   UNL     1      14.846  29.091  13.817  1.00  0.00     0.338 C 
ATOM     77  O   UNL     1      14.833  29.952  12.917  1.00  0.00    -0.246 OA
BRANCH  76  78
ATOM     78  O   UNL     1      13.790  28.229  13.967  1.00  0.00    -0.462 OA
BRANCH  78  79
ATOM     79  C   UNL     1      12.452  28.560  13.676  1.00  0.00     0.230 C 
ATOM     80  C   UNL     1      12.058  27.980  12.334  1.00  0.00     0.049 C 
ENDBRANCH  78  79
ENDBRANCH  76  78
ENDBRANCH  73  76
ENDBRANCH  68  70
ENDBRANCH  64  65
ENDBRANCH  63  64
ENDBRANCH  60  63
ENDBRANCH  58  59
ENDBRANCH  55  58
ENDBRANCH   1  55
TORSDOF 33
