REMARK VINA RESULT:    -4.198     12.295     18.428
REMARK INTER + INTRA:         -21.418
REMARK INTER:                 -10.579
REMARK INTRA:                 -10.839
REMARK UNBOUND:               -10.839
REMARK SMILES CC(=O)N[C@@H]1[C@@H](O)C[C@](OC[C@H]2O[C@@H](O[C@H]3[C@H](O)[C@@H](O)[C@H](OCCN=[N+]=[N-])O[C@@H]3CO)[C@H](O)[C@@H](O)[C@H]2O)(C(=O)O)O[C@H]1C(O)[C@H](O)CNC(=O)OCc1cn(-c2ccccc2C(C)C)nn1
REMARK SMILES IDX 9 1 8 2 6 3 5 4 42 5 41 6 10 7 11 8 12 9 14 10 13 11 32 12
REMARK SMILES IDX 34 13 36 14 15 15 16 16 29 17 28 18 21 19 17 20 19 21 30 22
REMARK SMILES IDX 31 23 22 25 23 26 24 27 25 28 26 29 27 30 18 31 20 33 33 35
REMARK SMILES IDX 35 37 37 39 38 41 39 42 40 43 7 45 43 47 44 48 45 50 46 51
REMARK SMILES IDX 47 53 48 54 49 55 50 57 51 58 52 59 53 60 54 61 66 62 55 63
REMARK SMILES IDX 65 64 56 65 61 66 57 67 60 68 58 69 59 70 62 71 63 72 64 73
REMARK SMILES IDX 4 74 2 75 1 77 3 78
REMARK H PARENT 31 24 18 32 20 34 33 36 35 38 37 40 40 44 7 46 44 49 46 52
REMARK H PARENT 48 56 4 76
REMARK Flexibility Score: inf
ROOT
ATOM      1  C   UNL     1      16.438  29.372  19.338  1.00  0.00     0.272 C 
ATOM      2  C   UNL     1      15.182  28.616  19.707  1.00  0.00     0.113 C 
ATOM      3  C   UNL     1      14.030  29.237  18.934  1.00  0.00     0.145 C 
ATOM      4  C   UNL     1      13.809  30.643  19.521  1.00  0.00     0.142 C 
ATOM      5  C   UNL     1      15.125  31.323  19.550  1.00  0.00     0.178 C 
ATOM      6  O   UNL     1      16.033  30.618  18.773  1.00  0.00    -0.332 OA
ENDROOT
BRANCH   1   7
ATOM      7  O   UNL     1      17.119  28.782  18.338  1.00  0.00    -0.338 OA
BRANCH   7   8
ATOM      8  C   UNL     1      17.879  29.259  17.414  1.00  0.00     0.199 C 
BRANCH   8   9
ATOM      9  C   UNL     1      17.528  29.310  15.963  1.00  0.00     0.179 C 
ATOM     10  C   UNL     1      15.928  28.827  14.422  1.00  0.00     0.282 C 
ATOM     11  O   UNL     1      16.430  28.555  15.634  1.00  0.00    -0.341 OA
ATOM     12  C   UNL     1      16.831  29.598  13.469  1.00  0.00     0.202 C 
ATOM     13  C   UNL     1      17.333  30.874  14.089  1.00  0.00     0.179 C 
ATOM     14  C   UNL     1      17.199  30.772  15.581  1.00  0.00     0.177 C 
BRANCH  10  15
ATOM     15  O   UNL     1      14.684  29.376  14.348  1.00  0.00    -0.341 OA
BRANCH  15  16
ATOM     16  C   UNL     1      13.886  29.099  13.267  1.00  0.00     0.184 C 
ATOM     17  C   UNL     1      13.792  30.221  12.287  1.00  0.00     0.178 C 
ATOM     18  O   UNL     1      12.532  30.656  12.071  1.00  0.00    -0.341 OA
ATOM     19  C   UNL     1      11.560  29.783  11.692  1.00  0.00     0.281 C 
ATOM     20  C   UNL     1      12.559  28.538  13.582  1.00  0.00     0.180 C 
ATOM     21  C   UNL     1      11.790  28.390  12.280  1.00  0.00     0.202 C 
BRANCH  17  22
ATOM     22  C   UNL     1      14.422  29.894  10.923  1.00  0.00     0.191 C 
BRANCH  22  23
ATOM     23  O   UNL     1      14.268  31.041  10.111  1.00  0.00    -0.394 OA
ATOM     24  H   UNL     1      13.798  30.722   9.278  1.00  0.00     0.210 HD
ENDBRANCH  22  23
ENDBRANCH  17  22
BRANCH  19  25
ATOM     25  O   UNL     1      11.524  29.658  10.329  1.00  0.00    -0.350 OA
BRANCH  25  26
ATOM     26  C   UNL     1      10.323  29.767   9.702  1.00  0.00     0.169 C 
BRANCH  26  27
ATOM     27  C   UNL     1       9.137  30.138  10.513  1.00  0.00     0.119 C 
BRANCH  27  28
ATOM     28  N   UNL     1       8.263  29.034  10.722  1.00  0.00    -0.092 NA
ATOM     29  N   UNL     1       7.277  29.001  11.431  1.00  0.00     0.001 N 
ATOM     30  N   UNL     1       6.240  29.176  12.060  1.00  0.00    -0.003 NA
ENDBRANCH  27  28
ENDBRANCH  26  27
ENDBRANCH  25  26
ENDBRANCH  19  25
BRANCH  20  31
ATOM     31  O   UNL     1      12.589  27.271  14.159  1.00  0.00    -0.387 OA
ATOM     32  H   UNL     1      12.124  27.317  15.024  1.00  0.00     0.211 HD
ENDBRANCH  20  31
BRANCH  21  33
ATOM     33  O   UNL     1      10.540  27.811  12.509  1.00  0.00    -0.385 OA
ATOM     34  H   UNL     1       9.861  28.472  12.220  1.00  0.00     0.211 HD
ENDBRANCH  21  33
ENDBRANCH  15  16
ENDBRANCH  10  15
BRANCH  12  35
ATOM     35  O   UNL     1      17.882  28.770  13.116  1.00  0.00    -0.385 OA
ATOM     36  H   UNL     1      18.587  29.303  12.628  1.00  0.00     0.211 HD
ENDBRANCH  12  35
BRANCH  13  37
ATOM     37  O   UNL     1      16.595  31.953  13.582  1.00  0.00    -0.387 OA
ATOM     38  H   UNL     1      15.718  31.931  14.040  1.00  0.00     0.211 HD
ENDBRANCH  13  37
BRANCH  14  39
ATOM     39  O   UNL     1      15.891  31.004  15.951  1.00  0.00    -0.387 OA
ATOM     40  H   UNL     1      15.367  30.191  15.741  1.00  0.00     0.211 HD
ENDBRANCH  14  39
ENDBRANCH   8   9
ENDBRANCH   7   8
ENDBRANCH   1   7
BRANCH   1  41
ATOM     41  C   UNL     1      17.266  29.662  20.514  1.00  0.00     0.364 C 
ATOM     42  O   UNL     1      16.904  29.110  21.614  1.00  0.00    -0.246 OA
BRANCH  41  43
ATOM     43  O   UNL     1      18.382  30.450  20.606  1.00  0.00    -0.477 OA
ATOM     44  H   UNL     1      19.143  30.495  19.953  1.00  0.00     0.296 HD
ENDBRANCH  41  43
ENDBRANCH   1  41
BRANCH   3  45
ATOM     45  O   UNL     1      14.418  29.460  17.608  1.00  0.00    -0.391 OA
ATOM     46  H   UNL     1      14.804  28.614  17.272  1.00  0.00     0.211 HD
ENDBRANCH   3  45
BRANCH   5  47
ATOM     47  C   UNL     1      15.184  32.732  19.043  1.00  0.00     0.176 C 
BRANCH  47  48
ATOM     48  O   UNL     1      14.336  32.700  17.881  1.00  0.00    -0.388 OA
ATOM     49  H   UNL     1      14.064  31.728  17.861  1.00  0.00     0.211 HD
ENDBRANCH  47  48
BRANCH  47  50
ATOM     50  C   UNL     1      16.509  33.217  18.549  1.00  0.00     0.165 C 
BRANCH  50  51
ATOM     51  O   UNL     1      17.492  33.235  19.502  1.00  0.00    -0.388 OA
ATOM     52  H   UNL     1      18.329  33.504  19.044  1.00  0.00     0.211 HD
ENDBRANCH  50  51
BRANCH  50  53
ATOM     53  C   UNL     1      16.421  34.367  17.618  1.00  0.00     0.154 C 
BRANCH  53  54
ATOM     54  N   UNL     1      16.176  34.028  16.230  1.00  0.00    -0.319 N 
ATOM     55  C   UNL     1      15.726  34.995  15.298  1.00  0.00     0.407 C 
ATOM     56  H   UNL     1      16.320  33.065  15.858  1.00  0.00     0.167 HD
ATOM     57  O   UNL     1      15.503  36.191  15.590  1.00  0.00    -0.225 OA
BRANCH  55  58
ATOM     58  O   UNL     1      15.487  34.689  13.936  1.00  0.00    -0.443 OA
BRANCH  58  59
ATOM     59  C   UNL     1      14.179  34.626  13.455  1.00  0.00     0.294 C 
BRANCH  59  60
ATOM     60  C   UNL     1      13.386  33.742  14.355  1.00  0.00     0.121 A 
ATOM     61  C   UNL     1      12.154  33.933  14.939  1.00  0.00     0.144 A 
ATOM     62  N   UNL     1      13.765  32.497  14.786  1.00  0.00    -0.131 NA
ATOM     63  N   UNL     1      11.801  32.871  15.682  1.00  0.00    -0.220 N 
ATOM     64  N   UNL     1      12.820  32.009  15.562  1.00  0.00    -0.062 NA
BRANCH  63  65
ATOM     65  C   UNL     1      10.618  32.649  16.443  1.00  0.00     0.070 A 
ATOM     66  C   UNL     1       9.556  31.992  15.863  1.00  0.00    -0.020 A 
ATOM     67  C   UNL     1      10.466  33.068  17.746  1.00  0.00     0.029 A 
ATOM     68  C   UNL     1       8.387  31.768  16.563  1.00  0.00     0.006 A 
ATOM     69  C   UNL     1       9.303  32.852  18.461  1.00  0.00     0.002 A 
ATOM     70  C   UNL     1       8.247  32.193  17.863  1.00  0.00     0.000 A 
BRANCH  66  71
ATOM     71  C   UNL     1       9.682  31.515  14.471  1.00  0.00     0.015 C 
ATOM     72  C   UNL     1       8.949  32.497  13.568  1.00  0.00     0.012 C 
ATOM     73  C   UNL     1       8.988  30.150  14.335  1.00  0.00     0.012 C 
ENDBRANCH  66  71
ENDBRANCH  63  65
ENDBRANCH  59  60
ENDBRANCH  58  59
ENDBRANCH  55  58
ENDBRANCH  53  54
ENDBRANCH  50  53
ENDBRANCH  47  50
ENDBRANCH   5  47
BRANCH   4  74
ATOM     74  N   UNL     1      13.234  30.463  20.834  1.00  0.00    -0.348 N 
ATOM     75  C   UNL     1      12.348  31.356  21.458  1.00  0.00     0.217 C 
ATOM     76  H   UNL     1      13.507  29.589  21.376  1.00  0.00     0.163 HD
ATOM     77  C   UNL     1      11.842  31.027  22.833  1.00  0.00     0.114 C 
ATOM     78  O   UNL     1      11.988  32.396  20.892  1.00  0.00    -0.275 OA
ENDBRANCH   4  74
TORSDOF 31
