REMARK VINA RESULT:    -6.926      2.144      2.362
REMARK INTER + INTRA:         -23.689
REMARK INTER:                 -14.927
REMARK INTRA:                  -8.762
REMARK UNBOUND:                -6.033
REMARK SMILES CC(=O)N[C@@H]1[C@@H](O)C[C@](OC[C@H]2O[C@@H](O[C@H]3[C@H](O)[C@@H](O)[C@H](OCCN=[N+]=[N-])O[C@@H]3CO)[C@H](O)[C@@H](O)[C@H]2O)(C(=O)O)O[C@H]1C(O)[C@H](O)CNC(=O)OCc1cn(-c2cccc(S(N)(=O)=O)c2)nn1
REMARK SMILES IDX 9 1 8 2 6 3 5 4 42 5 41 6 10 7 11 8 12 9 14 10 13 11 32 12
REMARK SMILES IDX 34 13 36 14 15 15 16 16 29 17 28 18 21 19 17 20 19 21 30 22
REMARK SMILES IDX 31 23 22 25 23 26 24 27 25 28 26 29 27 30 18 31 20 33 33 35
REMARK SMILES IDX 35 37 37 39 38 41 39 42 40 43 7 45 43 47 44 48 45 50 46 51
REMARK SMILES IDX 47 53 48 54 49 55 50 57 51 58 52 59 53 60 54 61 67 62 55 63
REMARK SMILES IDX 66 64 56 65 65 66 57 67 60 68 58 69 59 70 61 71 63 72 64 73
REMARK SMILES IDX 62 74 4 77 2 78 1 80 3 81
REMARK H PARENT 31 24 18 32 20 34 33 36 35 38 37 40 40 44 7 46 44 49 46 52
REMARK H PARENT 48 56 62 75 62 76 4 79
REMARK Flexibility Score: inf
ROOT
ATOM      1  C   UNL     1       0.787  23.040  32.494  1.00  0.00     0.272 C 
ATOM      2  C   UNL     1       0.443  22.851  33.984  1.00  0.00     0.113 C 
ATOM      3  C   UNL     1       0.170  21.406  34.213  1.00  0.00     0.145 C 
ATOM      4  C   UNL     1       1.347  20.575  33.843  1.00  0.00     0.142 C 
ATOM      5  C   UNL     1       2.131  21.140  32.711  1.00  0.00     0.178 C 
ATOM      6  O   UNL     1       1.901  22.364  32.225  1.00  0.00    -0.332 OA
ENDROOT
BRANCH   1   7
ATOM      7  O   UNL     1       0.989  24.443  32.397  1.00  0.00    -0.338 OA
BRANCH   7   8
ATOM      8  C   UNL     1       1.826  24.834  33.396  1.00  0.00     0.199 C 
BRANCH   8   9
ATOM      9  C   UNL     1       3.037  25.588  32.891  1.00  0.00     0.179 C 
ATOM     10  C   UNL     1       5.129  26.089  33.503  1.00  0.00     0.282 C 
ATOM     11  O   UNL     1       4.226  25.010  33.330  1.00  0.00    -0.341 OA
ATOM     12  C   UNL     1       5.128  27.005  32.334  1.00  0.00     0.202 C 
ATOM     13  C   UNL     1       4.421  26.479  31.111  1.00  0.00     0.179 C 
ATOM     14  C   UNL     1       3.114  25.775  31.426  1.00  0.00     0.177 C 
BRANCH  10  15
ATOM     15  O   UNL     1       6.354  25.650  33.938  1.00  0.00    -0.341 OA
BRANCH  15  16
ATOM     16  C   UNL     1       6.374  24.376  34.453  1.00  0.00     0.184 C 
ATOM     17  C   UNL     1       6.724  24.439  35.920  1.00  0.00     0.178 C 
ATOM     18  O   UNL     1       7.629  23.427  36.261  1.00  0.00    -0.341 OA
ATOM     19  C   UNL     1       8.860  23.771  35.756  1.00  0.00     0.281 C 
ATOM     20  C   UNL     1       7.418  23.605  33.676  1.00  0.00     0.180 C 
ATOM     21  C   UNL     1       8.790  23.709  34.264  1.00  0.00     0.202 C 
BRANCH  17  22
ATOM     22  C   UNL     1       5.548  24.290  36.831  1.00  0.00     0.191 C 
BRANCH  22  23
ATOM     23  O   UNL     1       4.472  23.660  36.175  1.00  0.00    -0.394 OA
ATOM     24  H   UNL     1       4.606  22.684  36.129  1.00  0.00     0.210 HD
ENDBRANCH  22  23
ENDBRANCH  17  22
BRANCH  19  25
ATOM     25  O   UNL     1       9.875  22.919  36.189  1.00  0.00    -0.350 OA
BRANCH  25  26
ATOM     26  C   UNL     1      10.944  23.542  36.775  1.00  0.00     0.169 C 
BRANCH  26  27
ATOM     27  C   UNL     1      12.275  23.270  36.108  1.00  0.00     0.119 C 
BRANCH  27  28
ATOM     28  N   UNL     1      12.960  24.503  35.770  1.00  0.00    -0.092 NA
ATOM     29  N   UNL     1      12.411  25.418  35.163  1.00  0.00     0.001 N 
ATOM     30  N   UNL     1      11.965  26.377  34.557  1.00  0.00    -0.003 NA
ENDBRANCH  27  28
ENDBRANCH  26  27
ENDBRANCH  25  26
ENDBRANCH  19  25
BRANCH  20  31
ATOM     31  O   UNL     1       7.060  22.245  33.678  1.00  0.00    -0.387 OA
ATOM     32  H   UNL     1       6.106  22.111  33.904  1.00  0.00     0.211 HD
ENDBRANCH  20  31
BRANCH  21  33
ATOM     33  O   UNL     1       9.446  24.858  33.762  1.00  0.00    -0.385 OA
ATOM     34  H   UNL     1       9.628  24.692  32.808  1.00  0.00     0.211 HD
ENDBRANCH  21  33
ENDBRANCH  15  16
ENDBRANCH  10  15
BRANCH  12  35
ATOM     35  O   UNL     1       4.671  28.308  32.648  1.00  0.00    -0.385 OA
ATOM     36  H   UNL     1       5.448  28.712  33.152  1.00  0.00     0.211 HD
ENDBRANCH  12  35
BRANCH  13  37
ATOM     37  O   UNL     1       5.265  25.742  30.301  1.00  0.00    -0.387 OA
ATOM     38  H   UNL     1       4.667  25.163  29.729  1.00  0.00     0.211 HD
ENDBRANCH  13  37
BRANCH  14  39
ATOM     39  O   UNL     1       3.168  24.519  30.810  1.00  0.00    -0.387 OA
ATOM     40  H   UNL     1       4.063  24.329  30.434  1.00  0.00     0.211 HD
ENDBRANCH  14  39
ENDBRANCH   8   9
ENDBRANCH   7   8
ENDBRANCH   1   7
BRANCH   1  41
ATOM     41  C   UNL     1      -0.440  22.664  31.750  1.00  0.00     0.364 C 
ATOM     42  O   UNL     1      -1.527  23.295  32.023  1.00  0.00    -0.246 OA
BRANCH  41  43
ATOM     43  O   UNL     1      -0.553  21.706  30.786  1.00  0.00    -0.477 OA
ATOM     44  H   UNL     1      -1.422  21.537  30.263  1.00  0.00     0.296 HD
ENDBRANCH  41  43
ENDBRANCH   1  41
BRANCH   3  45
ATOM     45  O   UNL     1      -0.116  21.287  35.603  1.00  0.00    -0.391 OA
ATOM     46  H   UNL     1      -0.307  22.235  35.888  1.00  0.00     0.211 HD
ENDBRANCH   3  45
BRANCH   5  47
ATOM     47  C   UNL     1       3.629  20.999  33.074  1.00  0.00     0.176 C 
BRANCH  47  48
ATOM     48  O   UNL     1       3.916  21.874  34.104  1.00  0.00    -0.388 OA
ATOM     49  H   UNL     1       3.165  22.389  34.446  1.00  0.00     0.211 HD
ENDBRANCH  47  48
BRANCH  47  50
ATOM     50  C   UNL     1       4.470  21.115  31.862  1.00  0.00     0.165 C 
BRANCH  50  51
ATOM     51  O   UNL     1       4.724  22.461  31.609  1.00  0.00    -0.388 OA
ATOM     52  H   UNL     1       5.606  22.639  32.044  1.00  0.00     0.211 HD
ENDBRANCH  50  51
BRANCH  50  53
ATOM     53  C   UNL     1       3.795  20.542  30.627  1.00  0.00     0.154 C 
BRANCH  53  54
ATOM     54  N   UNL     1       3.595  21.619  29.687  1.00  0.00    -0.319 N 
ATOM     55  C   UNL     1       2.460  21.580  28.792  1.00  0.00     0.407 C 
ATOM     56  H   UNL     1       4.243  22.436  29.618  1.00  0.00     0.167 HD
ATOM     57  O   UNL     1       1.645  20.621  28.820  1.00  0.00    -0.225 OA
BRANCH  55  58
ATOM     58  O   UNL     1       2.327  22.643  27.924  1.00  0.00    -0.443 OA
BRANCH  58  59
ATOM     59  C   UNL     1       1.276  23.554  28.045  1.00  0.00     0.294 C 
BRANCH  59  60
ATOM     60  C   UNL     1       1.738  24.946  27.936  1.00  0.00     0.121 A 
ATOM     61  C   UNL     1       3.036  25.308  27.547  1.00  0.00     0.144 A 
ATOM     62  N   UNL     1       1.084  26.078  28.161  1.00  0.00    -0.131 NA
ATOM     63  N   UNL     1       3.092  26.635  27.560  1.00  0.00    -0.220 N 
ATOM     64  N   UNL     1       1.921  27.072  27.927  1.00  0.00    -0.062 NA
BRANCH  63  65
ATOM     65  C   UNL     1       4.262  27.387  27.208  1.00  0.00     0.068 A 
ATOM     66  C   UNL     1       5.274  26.755  26.481  1.00  0.00     0.050 A 
ATOM     67  C   UNL     1       4.393  28.693  27.570  1.00  0.00     0.028 A 
ATOM     68  C   UNL     1       6.413  27.430  26.118  1.00  0.00     0.084 A 
ATOM     69  C   UNL     1       5.514  29.372  27.217  1.00  0.00     0.004 A 
ATOM     70  C   UNL     1       6.539  28.761  26.490  1.00  0.00     0.022 A 
BRANCH  68  71
ATOM     71  S   UNL     1       7.711  26.706  25.212  1.00  0.00     0.238 S 
ATOM     72  O   UNL     1       8.950  26.706  26.063  1.00  0.00    -0.207 OA
ATOM     73  O   UNL     1       7.981  27.492  23.970  1.00  0.00    -0.207 OA
BRANCH  71  74
ATOM     74  N   UNL     1       7.263  25.074  24.809  1.00  0.00    -0.225 NA
ATOM     75  H   UNL     1       7.926  24.722  24.083  1.00  0.00     0.137 HD
ATOM     76  H   UNL     1       6.260  25.003  24.542  1.00  0.00     0.137 HD
ENDBRANCH  71  74
ENDBRANCH  68  71
ENDBRANCH  63  65
ENDBRANCH  59  60
ENDBRANCH  58  59
ENDBRANCH  55  58
ENDBRANCH  53  54
ENDBRANCH  50  53
ENDBRANCH  47  50
ENDBRANCH   5  47
BRANCH   4  77
ATOM     77  N   UNL     1       0.831  19.257  33.441  1.00  0.00    -0.348 N 
ATOM     78  C   UNL     1       0.718  18.168  34.346  1.00  0.00     0.217 C 
ATOM     79  H   UNL     1       0.534  19.109  32.455  1.00  0.00     0.163 HD
ATOM     80  C   UNL     1       0.186  16.862  33.881  1.00  0.00     0.114 C 
ATOM     81  O   UNL     1       1.082  18.352  35.544  1.00  0.00    -0.275 OA
ENDBRANCH   4  77
TORSDOF 32
