REMARK VINA RESULT:    -6.049     13.942     20.102
REMARK INTER + INTRA:         -24.357
REMARK INTER:                 -15.312
REMARK INTRA:                  -9.046
REMARK UNBOUND:                -7.877
REMARK SMILES CC(=O)N[C@@H]1[C@@H](O)C[C@](OC[C@H]2O[C@@H](O[C@H]3[C@H](O)[C@@H](O)[C@H](OCCN=[N+]=[N-])O[C@@H]3CO)[C@H](O)[C@@H](O)[C@H]2O)(C(=O)O)O[C@H]1C(O)[C@H](O)CNC(=O)OCc1cn(CC(O)CCc2ccccc2)nn1
REMARK SMILES IDX 43 1 42 2 9 3 8 4 41 5 6 6 5 7 10 8 11 9 12 10 14 11 13 12
REMARK SMILES IDX 32 13 34 14 36 15 15 16 16 17 29 18 28 19 21 20 17 21 19 22
REMARK SMILES IDX 30 23 31 24 22 26 23 27 24 28 25 29 26 30 27 31 18 32 20 34
REMARK SMILES IDX 33 36 35 38 37 40 38 42 39 43 40 44 7 46 4 48 2 49 1 51 3 52
REMARK SMILES IDX 44 53 45 55 46 56 47 58 48 59 49 60 50 62 51 63 52 64 53 65
REMARK SMILES IDX 54 66 68 67 55 68 67 69 56 70 57 71 58 72 59 74 60 75 61 76
REMARK SMILES IDX 62 77 66 78 63 79 65 80 64 81
REMARK H PARENT 31 25 18 33 20 35 33 37 35 39 37 41 40 45 7 47 4 50 44 54
REMARK H PARENT 46 57 48 61 58 73
REMARK Flexibility Score: inf
ROOT
ATOM      1  C   UNL     1      20.809  26.507  37.927  1.00  0.00     0.176 C 
ENDROOT
BRANCH   1   2
ATOM      2  C   UNL     1      21.549  25.319  38.571  1.00  0.00     0.178 C 
ATOM      3  C   UNL     1      23.534  24.281  37.791  1.00  0.00     0.272 C 
ATOM      4  C   UNL     1      22.659  23.457  36.907  1.00  0.00     0.113 C 
ATOM      5  O   UNL     1      22.836  25.376  38.223  1.00  0.00    -0.332 OA
ATOM      6  C   UNL     1      21.443  22.996  37.628  1.00  0.00     0.145 C 
ATOM      7  C   UNL     1      20.740  24.096  38.365  1.00  0.00     0.142 C 
BRANCH   3   8
ATOM      8  O   UNL     1      24.717  24.648  37.119  1.00  0.00    -0.338 OA
BRANCH   8   9
ATOM      9  C   UNL     1      25.290  25.812  37.487  1.00  0.00     0.199 C 
BRANCH   9  10
ATOM     10  C   UNL     1      25.656  26.672  36.255  1.00  0.00     0.179 C 
ATOM     11  C   UNL     1      25.503  26.869  33.999  1.00  0.00     0.282 C 
ATOM     12  O   UNL     1      25.370  26.051  35.092  1.00  0.00    -0.341 OA
ATOM     13  C   UNL     1      24.454  27.995  34.217  1.00  0.00     0.202 C 
ATOM     14  C   UNL     1      25.142  28.874  35.267  1.00  0.00     0.179 C 
ATOM     15  C   UNL     1      25.127  28.035  36.515  1.00  0.00     0.177 C 
BRANCH  11  16
ATOM     16  O   UNL     1      25.176  26.228  32.857  1.00  0.00    -0.341 OA
BRANCH  16  17
ATOM     17  C   UNL     1      26.084  26.170  31.826  1.00  0.00     0.184 C 
ATOM     18  C   UNL     1      27.293  27.018  32.044  1.00  0.00     0.178 C 
ATOM     19  O   UNL     1      27.582  27.950  31.098  1.00  0.00    -0.341 OA
ATOM     20  C   UNL     1      27.240  27.689  29.805  1.00  0.00     0.281 C 
ATOM     21  C   UNL     1      25.323  26.408  30.554  1.00  0.00     0.180 C 
ATOM     22  C   UNL     1      25.735  27.583  29.743  1.00  0.00     0.202 C 
BRANCH  18  23
ATOM     23  C   UNL     1      28.507  26.126  32.191  1.00  0.00     0.191 C 
BRANCH  23  24
ATOM     24  O   UNL     1      28.295  24.877  31.610  1.00  0.00    -0.394 OA
ATOM     25  H   UNL     1      29.206  24.530  31.369  1.00  0.00     0.210 HD
ENDBRANCH  23  24
ENDBRANCH  18  23
BRANCH  20  26
ATOM     26  O   UNL     1      27.875  26.585  29.261  1.00  0.00    -0.350 OA
BRANCH  26  27
ATOM     27  C   UNL     1      28.817  27.006  28.320  1.00  0.00     0.169 C 
BRANCH  27  28
ATOM     28  C   UNL     1      30.184  26.559  28.836  1.00  0.00     0.119 C 
BRANCH  28  29
ATOM     29  N   UNL     1      30.158  25.185  29.261  1.00  0.00    -0.092 NA
ATOM     30  N   UNL     1      31.161  24.469  29.063  1.00  0.00     0.001 N 
ATOM     31  N   UNL     1      32.033  23.702  28.610  1.00  0.00    -0.003 NA
ENDBRANCH  28  29
ENDBRANCH  27  28
ENDBRANCH  26  27
ENDBRANCH  20  26
BRANCH  21  32
ATOM     32  O   UNL     1      25.416  25.287  29.686  1.00  0.00    -0.387 OA
ATOM     33  H   UNL     1      24.624  24.706  29.749  1.00  0.00     0.211 HD
ENDBRANCH  21  32
BRANCH  22  34
ATOM     34  O   UNL     1      25.206  28.766  30.268  1.00  0.00    -0.385 OA
ATOM     35  H   UNL     1      25.605  29.003  31.130  1.00  0.00     0.211 HD
ENDBRANCH  22  34
ENDBRANCH  16  17
ENDBRANCH  11  16
BRANCH  13  36
ATOM     36  O   UNL     1      24.121  28.656  33.082  1.00  0.00    -0.385 OA
ATOM     37  H   UNL     1      24.787  28.721  32.378  1.00  0.00     0.211 HD
ENDBRANCH  13  36
BRANCH  14  38
ATOM     38  O   UNL     1      24.466  30.080  35.430  1.00  0.00    -0.387 OA
ATOM     39  H   UNL     1      24.048  30.121  36.319  1.00  0.00     0.211 HD
ENDBRANCH  14  38
BRANCH  15  40
ATOM     40  O   UNL     1      23.791  27.961  36.922  1.00  0.00    -0.387 OA
ATOM     41  H   UNL     1      23.415  27.066  36.759  1.00  0.00     0.211 HD
ENDBRANCH  15  40
ENDBRANCH   9  10
ENDBRANCH   8   9
ENDBRANCH   3   8
BRANCH   3  42
ATOM     42  C   UNL     1      24.025  23.436  38.907  1.00  0.00     0.364 C 
ATOM     43  O   UNL     1      24.564  22.324  38.637  1.00  0.00    -0.246 OA
BRANCH  42  44
ATOM     44  O   UNL     1      23.929  23.792  40.223  1.00  0.00    -0.477 OA
ATOM     45  H   UNL     1      23.020  23.862  40.657  1.00  0.00     0.296 HD
ENDBRANCH  42  44
ENDBRANCH   3  42
BRANCH   6  46
ATOM     46  O   UNL     1      20.606  22.416  36.636  1.00  0.00    -0.391 OA
ATOM     47  H   UNL     1      20.391  23.050  35.922  1.00  0.00     0.211 HD
ENDBRANCH   6  46
BRANCH   7  48
ATOM     48  N   UNL     1      20.101  23.647  39.576  1.00  0.00    -0.348 N 
ATOM     49  C   UNL     1      18.711  23.795  39.838  1.00  0.00     0.217 C 
ATOM     50  H   UNL     1      20.670  23.180  40.343  1.00  0.00     0.163 HD
ATOM     51  C   UNL     1      18.174  23.287  41.119  1.00  0.00     0.114 C 
ATOM     52  O   UNL     1      17.965  24.334  39.014  1.00  0.00    -0.275 OA
ENDBRANCH   7  48
ENDBRANCH   1   2
BRANCH   1  53
ATOM     53  O   UNL     1      19.693  26.827  38.674  1.00  0.00    -0.388 OA
ATOM     54  H   UNL     1      19.838  26.740  39.647  1.00  0.00     0.211 HD
ENDBRANCH   1  53
BRANCH   1  55
ATOM     55  C   UNL     1      20.612  26.402  36.462  1.00  0.00     0.165 C 
BRANCH  55  56
ATOM     56  O   UNL     1      21.818  26.496  35.814  1.00  0.00    -0.388 OA
ATOM     57  H   UNL     1      21.736  26.681  34.857  1.00  0.00     0.211 HD
ENDBRANCH  55  56
BRANCH  55  58
ATOM     58  C   UNL     1      19.677  27.517  36.053  1.00  0.00     0.154 C 
BRANCH  58  59
ATOM     59  N   UNL     1      20.009  28.232  34.879  1.00  0.00    -0.319 N 
ATOM     60  C   UNL     1      20.974  29.264  34.734  1.00  0.00     0.407 C 
ATOM     61  H   UNL     1      19.500  28.005  33.955  1.00  0.00     0.167 HD
ATOM     62  O   UNL     1      21.656  29.624  35.701  1.00  0.00    -0.225 OA
BRANCH  60  63
ATOM     63  O   UNL     1      21.173  29.889  33.512  1.00  0.00    -0.443 OA
BRANCH  63  64
ATOM     64  C   UNL     1      20.471  29.700  32.340  1.00  0.00     0.294 C 
BRANCH  64  65
ATOM     65  C   UNL     1      21.112  28.887  31.295  1.00  0.00     0.120 A 
ATOM     66  C   UNL     1      20.847  27.559  30.981  1.00  0.00     0.138 A 
ATOM     67  N   UNL     1      22.105  29.283  30.471  1.00  0.00    -0.132 NA
ATOM     68  N   UNL     1      21.683  27.227  30.002  1.00  0.00    -0.250 N 
ATOM     69  N   UNL     1      22.426  28.263  29.705  1.00  0.00    -0.067 NA
BRANCH  68  70
ATOM     70  C   UNL     1      21.727  25.869  29.398  1.00  0.00     0.177 C 
BRANCH  70  71
ATOM     71  C   UNL     1      22.362  26.028  28.058  1.00  0.00     0.136 C 
BRANCH  71  72
ATOM     72  O   UNL     1      21.629  26.900  27.235  1.00  0.00    -0.391 OA
ATOM     73  H   UNL     1      22.205  27.542  26.769  1.00  0.00     0.211 HD
ENDBRANCH  71  72
BRANCH  71  74
ATOM     74  C   UNL     1      22.665  24.768  27.349  1.00  0.00     0.038 C 
BRANCH  74  75
ATOM     75  C   UNL     1      23.498  24.726  26.152  1.00  0.00     0.038 C 
BRANCH  75  76
ATOM     76  C   UNL     1      22.891  24.622  24.842  1.00  0.00    -0.048 A 
ATOM     77  C   UNL     1      23.672  24.629  23.690  1.00  0.00     0.004 A 
ATOM     78  C   UNL     1      21.505  24.591  24.679  1.00  0.00     0.004 A 
ATOM     79  C   UNL     1      23.093  24.606  22.455  1.00  0.00     0.000 A 
ATOM     80  C   UNL     1      20.954  24.569  23.421  1.00  0.00     0.000 A 
ATOM     81  C   UNL     1      21.732  24.576  22.271  1.00  0.00     0.000 A 
ENDBRANCH  75  76
ENDBRANCH  74  75
ENDBRANCH  71  74
ENDBRANCH  70  71
ENDBRANCH  68  70
ENDBRANCH  64  65
ENDBRANCH  63  64
ENDBRANCH  60  63
ENDBRANCH  58  59
ENDBRANCH  55  58
ENDBRANCH   1  55
TORSDOF 35
