REMARK VINA RESULT:    -6.112      3.451     10.921
REMARK INTER + INTRA:         -21.822
REMARK INTER:                 -14.724
REMARK INTRA:                  -7.098
REMARK UNBOUND:                -6.778
REMARK SMILES CC(=O)N[C@@H]1[C@@H](O)C[C@](OC[C@H]2O[C@@H](O[C@H]3[C@H](O)[C@@H](O)[C@H](OCCN=[N+]=[N-])O[C@@H]3CO)[C@H](O)[C@@H](O)[C@H]2O)(C(=O)O)O[C@H]1C(O)[C@H](O)CNC(=O)OCc1cn(-c2ccc3c(c2)OCO3)nn1
REMARK SMILES IDX 9 1 8 2 6 3 5 4 42 5 41 6 10 7 11 8 12 9 14 10 13 11 32 12
REMARK SMILES IDX 34 13 36 14 15 15 16 16 29 17 28 18 21 19 17 20 19 21 30 22
REMARK SMILES IDX 31 23 22 25 23 26 24 27 25 28 26 29 27 30 18 31 20 33 33 35
REMARK SMILES IDX 35 37 37 39 38 41 39 42 40 43 7 45 43 47 44 48 45 50 46 51
REMARK SMILES IDX 47 53 48 54 49 55 50 57 51 58 52 59 53 60 54 61 66 62 55 63
REMARK SMILES IDX 65 64 56 65 57 66 61 67 58 68 60 69 59 70 62 71 64 72 63 73
REMARK SMILES IDX 4 74 2 75 1 77 3 78
REMARK H PARENT 31 24 18 32 20 34 33 36 35 38 37 40 40 44 7 46 44 49 46 52
REMARK H PARENT 48 56 4 76
REMARK Flexibility Score: inf
ROOT
ATOM      1  C   UNL     1      15.749  31.972  18.460  1.00  0.00     0.272 C 
ATOM      2  C   UNL     1      14.710  31.604  17.438  1.00  0.00     0.113 C 
ATOM      3  C   UNL     1      14.056  30.244  17.744  1.00  0.00     0.145 C 
ATOM      4  C   UNL     1      15.155  29.222  17.537  1.00  0.00     0.142 C 
ATOM      5  C   UNL     1      16.310  29.683  18.401  1.00  0.00     0.178 C 
ATOM      6  O   UNL     1      16.067  30.775  19.162  1.00  0.00    -0.332 OA
ENDROOT
BRANCH   1   7
ATOM      7  O   UNL     1      15.332  32.817  19.388  1.00  0.00    -0.338 OA
BRANCH   7   8
ATOM      8  C   UNL     1      14.580  33.875  19.371  1.00  0.00     0.199 C 
BRANCH   8   9
ATOM      9  C   UNL     1      13.215  33.902  20.005  1.00  0.00     0.179 C 
ATOM     10  C   UNL     1      11.800  32.455  21.157  1.00  0.00     0.282 C 
ATOM     11  O   UNL     1      12.846  32.612  20.285  1.00  0.00    -0.341 OA
ATOM     12  C   UNL     1      11.059  33.715  21.456  1.00  0.00     0.202 C 
ATOM     13  C   UNL     1      11.984  34.806  21.967  1.00  0.00     0.179 C 
ATOM     14  C   UNL     1      13.332  34.703  21.328  1.00  0.00     0.177 C 
BRANCH  10  15
ATOM     15  O   UNL     1      12.348  32.010  22.377  1.00  0.00    -0.341 OA
BRANCH  15  16
ATOM     16  C   UNL     1      12.037  30.707  22.665  1.00  0.00     0.184 C 
ATOM     17  C   UNL     1      11.942  30.531  24.158  1.00  0.00     0.178 C 
ATOM     18  O   UNL     1      13.147  30.273  24.767  1.00  0.00    -0.341 OA
ATOM     19  C   UNL     1      14.232  30.826  24.084  1.00  0.00     0.281 C 
ATOM     20  C   UNL     1      13.117  29.843  22.056  1.00  0.00     0.180 C 
ATOM     21  C   UNL     1      14.426  30.188  22.731  1.00  0.00     0.202 C 
BRANCH  17  22
ATOM     22  C   UNL     1      10.996  29.398  24.528  1.00  0.00     0.191 C 
BRANCH  22  23
ATOM     23  O   UNL     1      11.679  28.341  25.116  1.00  0.00    -0.394 OA
ATOM     24  H   UNL     1      12.371  27.944  24.503  1.00  0.00     0.210 HD
ENDBRANCH  22  23
ENDBRANCH  17  22
BRANCH  19  25
ATOM     25  O   UNL     1      15.349  30.539  24.857  1.00  0.00    -0.350 OA
BRANCH  25  26
ATOM     26  C   UNL     1      15.980  31.732  25.193  1.00  0.00     0.169 C 
BRANCH  26  27
ATOM     27  C   UNL     1      17.496  31.598  25.095  1.00  0.00     0.119 C 
BRANCH  27  28
ATOM     28  N   UNL     1      17.820  31.563  23.661  1.00  0.00    -0.092 NA
ATOM     29  N   UNL     1      17.528  32.552  22.955  1.00  0.00     0.001 N 
ATOM     30  N   UNL     1      17.116  33.599  22.425  1.00  0.00    -0.003 NA
ENDBRANCH  27  28
ENDBRANCH  26  27
ENDBRANCH  25  26
ENDBRANCH  19  25
BRANCH  20  31
ATOM     31  O   UNL     1      12.834  28.493  22.107  1.00  0.00    -0.387 OA
ATOM     32  H   UNL     1      13.602  27.908  21.840  1.00  0.00     0.211 HD
ENDBRANCH  20  31
BRANCH  21  33
ATOM     33  O   UNL     1      15.084  31.114  21.920  1.00  0.00    -0.385 OA
ATOM     34  H   UNL     1      14.950  32.050  22.217  1.00  0.00     0.211 HD
ENDBRANCH  21  33
ENDBRANCH  15  16
ENDBRANCH  10  15
BRANCH  12  35
ATOM     35  O   UNL     1      10.325  34.220  20.387  1.00  0.00    -0.385 OA
ATOM     36  H   UNL     1      10.520  35.207  20.318  1.00  0.00     0.211 HD
ENDBRANCH  12  35
BRANCH  13  37
ATOM     37  O   UNL     1      12.083  34.670  23.354  1.00  0.00    -0.387 OA
ATOM     38  H   UNL     1      12.919  34.269  23.654  1.00  0.00     0.211 HD
ENDBRANCH  13  37
BRANCH  14  39
ATOM     39  O   UNL     1      14.187  34.040  22.203  1.00  0.00    -0.387 OA
ATOM     40  H   UNL     1      13.851  33.974  23.112  1.00  0.00     0.211 HD
ENDBRANCH  14  39
ENDBRANCH   8   9
ENDBRANCH   7   8
ENDBRANCH   1   7
BRANCH   1  41
ATOM     41  C   UNL     1      17.026  32.390  17.796  1.00  0.00     0.364 C 
ATOM     42  O   UNL     1      17.943  32.820  18.581  1.00  0.00    -0.246 OA
BRANCH  41  43
ATOM     43  O   UNL     1      17.289  32.357  16.465  1.00  0.00    -0.477 OA
ATOM     44  H   UNL     1      16.844  31.728  15.816  1.00  0.00     0.296 HD
ENDBRANCH  41  43
ENDBRANCH   1  41
BRANCH   3  45
ATOM     45  O   UNL     1      13.678  30.312  19.092  1.00  0.00    -0.391 OA
ATOM     46  H   UNL     1      12.885  29.754  19.255  1.00  0.00     0.211 HD
ENDBRANCH   3  45
BRANCH   5  47
ATOM     47  C   UNL     1      16.526  28.528  19.402  1.00  0.00     0.176 C 
BRANCH  47  48
ATOM     48  O   UNL     1      16.639  27.309  18.799  1.00  0.00    -0.388 OA
ATOM     49  H   UNL     1      17.547  27.096  18.469  1.00  0.00     0.211 HD
ENDBRANCH  47  48
BRANCH  47  50
ATOM     50  C   UNL     1      17.745  28.787  20.280  1.00  0.00     0.165 C 
BRANCH  50  51
ATOM     51  O   UNL     1      17.487  29.635  21.305  1.00  0.00    -0.388 OA
ATOM     52  H   UNL     1      16.664  29.482  21.814  1.00  0.00     0.211 HD
ENDBRANCH  50  51
BRANCH  50  53
ATOM     53  C   UNL     1      18.811  29.311  19.370  1.00  0.00     0.154 C 
BRANCH  53  54
ATOM     54  N   UNL     1      19.518  28.268  18.695  1.00  0.00    -0.319 N 
ATOM     55  C   UNL     1      20.732  28.419  17.976  1.00  0.00     0.407 C 
ATOM     56  H   UNL     1      19.142  27.255  18.701  1.00  0.00     0.167 HD
ATOM     57  O   UNL     1      21.295  29.529  17.896  1.00  0.00    -0.225 OA
BRANCH  55  58
ATOM     58  O   UNL     1      21.337  27.334  17.335  1.00  0.00    -0.443 OA
BRANCH  58  59
ATOM     59  C   UNL     1      22.639  26.896  17.612  1.00  0.00     0.294 C 
BRANCH  59  60
ATOM     60  C   UNL     1      22.578  25.902  18.737  1.00  0.00     0.121 A 
ATOM     61  C   UNL     1      22.484  26.215  20.094  1.00  0.00     0.144 A 
ATOM     62  N   UNL     1      22.592  24.565  18.679  1.00  0.00    -0.131 NA
ATOM     63  N   UNL     1      22.446  25.062  20.799  1.00  0.00    -0.220 N 
ATOM     64  N   UNL     1      22.514  24.094  19.899  1.00  0.00    -0.062 NA
BRANCH  63  65
ATOM     65  C   UNL     1      22.347  24.898  22.192  1.00  0.00     0.070 A 
ATOM     66  C   UNL     1      21.127  24.882  22.807  1.00  0.00     0.032 A 
ATOM     67  C   UNL     1      23.479  24.747  22.956  1.00  0.00     0.079 A 
ATOM     68  C   UNL     1      21.044  24.713  24.197  1.00  0.00     0.053 A 
ATOM     69  C   UNL     1      23.416  24.580  24.323  1.00  0.00     0.167 A 
ATOM     70  C   UNL     1      22.191  24.564  24.937  1.00  0.00     0.165 A 
ATOM     71  O   UNL     1      24.403  24.413  25.271  1.00  0.00    -0.454 OA
ATOM     72  O   UNL     1      22.397  24.384  26.299  1.00  0.00    -0.454 OA
ATOM     73  C   UNL     1      23.763  24.583  26.542  1.00  0.00     0.468 C 
ENDBRANCH  63  65
ENDBRANCH  59  60
ENDBRANCH  58  59
ENDBRANCH  55  58
ENDBRANCH  53  54
ENDBRANCH  50  53
ENDBRANCH  47  50
ENDBRANCH   5  47
BRANCH   4  74
ATOM     74  N   UNL     1      15.461  29.133  16.142  1.00  0.00    -0.348 N 
ATOM     75  C   UNL     1      16.824  29.113  15.667  1.00  0.00     0.217 C 
ATOM     76  H   UNL     1      14.755  29.079  15.378  1.00  0.00     0.163 HD
ATOM     77  C   UNL     1      17.130  29.020  14.214  1.00  0.00     0.114 C 
ATOM     78  O   UNL     1      17.748  29.175  16.485  1.00  0.00    -0.275 OA
ENDBRANCH   4  74
TORSDOF 30
