REMARK VINA RESULT:    -5.379      4.418     11.700
REMARK INTER + INTRA:         -21.318
REMARK INTER:                 -16.196
REMARK INTRA:                  -5.122
REMARK UNBOUND:                -7.606
REMARK SMILES CC(=O)N[C@@H]1[C@@H](O)C[C@](OC[C@H]2O[C@@H](O[C@H]3[C@H](O)[C@@H](O)[C@H](OCCN=[N+]=[N-])O[C@@H]3CO)[C@H](O)[C@@H](O)[C@H]2O)(C(=O)O)O[C@H]1C(O)[C@H](O)CNC(=O)OCc1cn(-c2ccc(CO)cn2)nn1
REMARK SMILES IDX 9 1 8 2 6 3 5 4 42 5 41 6 10 7 11 8 12 9 14 10 13 11 32 12
REMARK SMILES IDX 34 13 36 14 15 15 16 16 29 17 28 18 21 19 17 20 19 21 30 22
REMARK SMILES IDX 31 23 22 25 23 26 24 27 25 28 26 29 27 30 18 31 20 33 33 35
REMARK SMILES IDX 35 37 37 39 38 41 39 42 40 43 7 45 43 47 44 48 45 50 46 51
REMARK SMILES IDX 47 53 48 54 49 55 50 57 51 58 52 59 53 60 54 61 65 62 55 63
REMARK SMILES IDX 64 64 56 65 57 66 63 67 58 68 62 69 59 70 60 71 61 72 4 74
REMARK SMILES IDX 2 75 1 77 3 78
REMARK H PARENT 31 24 18 32 20 34 33 36 35 38 37 40 40 44 7 46 44 49 46 52
REMARK H PARENT 48 56 61 73 4 76
REMARK Flexibility Score: inf
ROOT
ATOM      1  C   UNL     1      22.829  25.873  23.131  1.00  0.00     0.272 C 
ATOM      2  C   UNL     1      23.973  24.958  22.899  1.00  0.00     0.113 C 
ATOM      3  C   UNL     1      23.895  24.266  21.567  1.00  0.00     0.145 C 
ATOM      4  C   UNL     1      23.594  25.274  20.475  1.00  0.00     0.142 C 
ATOM      5  C   UNL     1      22.432  26.102  20.840  1.00  0.00     0.178 C 
ATOM      6  O   UNL     1      22.526  26.675  22.061  1.00  0.00    -0.332 OA
ENDROOT
BRANCH   1   7
ATOM      7  O   UNL     1      22.990  26.704  24.227  1.00  0.00    -0.338 OA
BRANCH   7   8
ATOM      8  C   UNL     1      24.148  26.453  24.934  1.00  0.00     0.199 C 
BRANCH   8   9
ATOM      9  C   UNL     1      23.888  26.619  26.401  1.00  0.00     0.179 C 
ATOM     10  C   UNL     1      22.658  27.805  27.881  1.00  0.00     0.282 C 
ATOM     11  O   UNL     1      22.589  27.102  26.651  1.00  0.00    -0.341 OA
ATOM     12  C   UNL     1      23.298  26.966  28.909  1.00  0.00     0.202 C 
ATOM     13  C   UNL     1      23.451  25.495  28.563  1.00  0.00     0.179 C 
ATOM     14  C   UNL     1      24.013  25.335  27.153  1.00  0.00     0.177 C 
BRANCH  10  15
ATOM     15  O   UNL     1      21.385  28.281  28.211  1.00  0.00    -0.341 OA
BRANCH  15  16
ATOM     16  C   UNL     1      21.370  28.989  29.393  1.00  0.00     0.184 C 
ATOM     17  C   UNL     1      20.158  28.797  30.250  1.00  0.00     0.178 C 
ATOM     18  O   UNL     1      19.354  29.930  30.339  1.00  0.00    -0.341 OA
ATOM     19  C   UNL     1      18.930  30.394  29.120  1.00  0.00     0.281 C 
ATOM     20  C   UNL     1      21.405  30.477  28.997  1.00  0.00     0.180 C 
ATOM     21  C   UNL     1      20.117  30.676  28.186  1.00  0.00     0.202 C 
BRANCH  17  22
ATOM     22  C   UNL     1      20.662  28.561  31.686  1.00  0.00     0.191 C 
BRANCH  22  23
ATOM     23  O   UNL     1      20.575  29.756  32.418  1.00  0.00    -0.394 OA
ATOM     24  H   UNL     1      20.240  29.575  33.347  1.00  0.00     0.210 HD
ENDBRANCH  22  23
ENDBRANCH  17  22
BRANCH  19  25
ATOM     25  O   UNL     1      18.228  31.579  29.321  1.00  0.00    -0.350 OA
BRANCH  25  26
ATOM     26  C   UNL     1      18.184  32.382  28.211  1.00  0.00     0.169 C 
BRANCH  26  27
ATOM     27  C   UNL     1      16.755  32.376  27.681  1.00  0.00     0.119 C 
BRANCH  27  28
ATOM     28  N   UNL     1      16.619  31.405  26.605  1.00  0.00    -0.092 NA
ATOM     29  N   UNL     1      17.408  31.302  25.681  1.00  0.00     0.001 N 
ATOM     30  N   UNL     1      18.314  30.873  24.965  1.00  0.00    -0.003 NA
ENDBRANCH  27  28
ENDBRANCH  26  27
ENDBRANCH  25  26
ENDBRANCH  19  25
BRANCH  20  31
ATOM     31  O   UNL     1      21.500  31.314  30.075  1.00  0.00    -0.387 OA
ATOM     32  H   UNL     1      22.426  31.558  30.218  1.00  0.00     0.211 HD
ENDBRANCH  20  31
BRANCH  21  33
ATOM     33  O   UNL     1      20.153  29.730  27.165  1.00  0.00    -0.385 OA
ATOM     34  H   UNL     1      19.221  29.583  26.864  1.00  0.00     0.211 HD
ENDBRANCH  21  33
ENDBRANCH  15  16
ENDBRANCH  10  15
BRANCH  12  35
ATOM     35  O   UNL     1      24.589  27.479  29.181  1.00  0.00    -0.385 OA
ATOM     36  H   UNL     1      24.619  27.936  30.061  1.00  0.00     0.211 HD
ENDBRANCH  12  35
BRANCH  13  37
ATOM     37  O   UNL     1      22.277  24.787  28.757  1.00  0.00    -0.387 OA
ATOM     38  H   UNL     1      21.604  25.263  29.267  1.00  0.00     0.211 HD
ENDBRANCH  13  37
BRANCH  14  39
ATOM     39  O   UNL     1      23.318  24.312  26.545  1.00  0.00    -0.387 OA
ATOM     40  H   UNL     1      22.380  24.567  26.446  1.00  0.00     0.211 HD
ENDBRANCH  14  39
ENDBRANCH   8   9
ENDBRANCH   7   8
ENDBRANCH   1   7
BRANCH   1  41
ATOM     41  C   UNL     1      21.555  25.104  23.413  1.00  0.00     0.364 C 
ATOM     42  O   UNL     1      21.421  24.343  24.401  1.00  0.00    -0.246 OA
BRANCH  41  43
ATOM     43  O   UNL     1      20.471  25.216  22.566  1.00  0.00    -0.477 OA
ATOM     44  H   UNL     1      19.959  26.105  22.511  1.00  0.00     0.296 HD
ENDBRANCH  41  43
ENDBRANCH   1  41
BRANCH   3  45
ATOM     45  O   UNL     1      25.190  23.783  21.296  1.00  0.00    -0.391 OA
ATOM     46  H   UNL     1      25.197  22.898  20.889  1.00  0.00     0.211 HD
ENDBRANCH   3  45
BRANCH   5  47
ATOM     47  C   UNL     1      22.075  27.142  19.794  1.00  0.00     0.176 C 
BRANCH  47  48
ATOM     48  O   UNL     1      23.234  27.782  19.357  1.00  0.00    -0.388 OA
ATOM     49  H   UNL     1      23.737  28.148  20.121  1.00  0.00     0.211 HD
ENDBRANCH  47  48
BRANCH  47  50
ATOM     50  C   UNL     1      21.105  28.175  20.224  1.00  0.00     0.165 C 
BRANCH  50  51
ATOM     51  O   UNL     1      19.923  27.634  20.749  1.00  0.00    -0.388 OA
ATOM     52  H   UNL     1      19.199  27.585  20.107  1.00  0.00     0.211 HD
ENDBRANCH  50  51
BRANCH  50  53
ATOM     53  C   UNL     1      20.800  29.256  19.226  1.00  0.00     0.154 C 
BRANCH  53  54
ATOM     54  N   UNL     1      19.580  28.974  18.517  1.00  0.00    -0.319 N 
ATOM     55  C   UNL     1      19.609  28.730  17.124  1.00  0.00     0.407 C 
ATOM     56  H   UNL     1      18.649  28.951  19.048  1.00  0.00     0.167 HD
ATOM     57  O   UNL     1      20.664  28.742  16.453  1.00  0.00    -0.225 OA
BRANCH  55  58
ATOM     58  O   UNL     1      18.434  28.457  16.416  1.00  0.00    -0.443 OA
BRANCH  58  59
ATOM     59  C   UNL     1      17.229  29.025  16.843  1.00  0.00     0.294 C 
BRANCH  59  60
ATOM     60  C   UNL     1      16.711  28.543  18.117  1.00  0.00     0.121 A 
ATOM     61  C   UNL     1      16.022  29.270  19.056  1.00  0.00     0.146 A 
ATOM     62  N   UNL     1      16.814  27.300  18.615  1.00  0.00    -0.131 NA
ATOM     63  N   UNL     1      15.727  28.459  20.092  1.00  0.00    -0.202 N 
ATOM     64  N   UNL     1      16.224  27.275  19.784  1.00  0.00    -0.061 NA
BRANCH  63  65
ATOM     65  C   UNL     1      15.022  28.858  21.257  1.00  0.00     0.155 A 
ATOM     66  C   UNL     1      13.633  28.916  21.287  1.00  0.00     0.049 A 
ATOM     67  N   UNL     1      15.675  29.205  22.379  1.00  0.00    -0.237 NA
ATOM     68  C   UNL     1      12.961  29.317  22.434  1.00  0.00     0.011 A 
ATOM     69  C   UNL     1      15.039  29.599  23.508  1.00  0.00     0.119 A 
ATOM     70  C   UNL     1      13.657  29.667  23.569  1.00  0.00    -0.004 A 
BRANCH  70  71
ATOM     71  C   UNL     1      12.931  30.098  24.794  1.00  0.00     0.193 C 
BRANCH  71  72
ATOM     72  O   UNL     1      11.971  29.155  25.160  1.00  0.00    -0.392 OA
ATOM     73  H   UNL     1      12.151  28.271  24.780  1.00  0.00     0.211 HD
ENDBRANCH  71  72
ENDBRANCH  70  71
ENDBRANCH  63  65
ENDBRANCH  59  60
ENDBRANCH  58  59
ENDBRANCH  55  58
ENDBRANCH  53  54
ENDBRANCH  50  53
ENDBRANCH  47  50
ENDBRANCH   5  47
BRANCH   4  74
ATOM     74  N   UNL     1      23.400  24.568  19.207  1.00  0.00    -0.348 N 
ATOM     75  C   UNL     1      24.199  24.800  18.090  1.00  0.00     0.217 C 
ATOM     76  H   UNL     1      22.638  23.864  19.158  1.00  0.00     0.163 HD
ATOM     77  C   UNL     1      23.885  24.007  16.842  1.00  0.00     0.114 C 
ATOM     78  O   UNL     1      25.138  25.608  18.060  1.00  0.00    -0.275 OA
ENDBRANCH   4  74
TORSDOF 32
