REMARK VINA RESULT:    -6.546      3.830      6.548
REMARK INTER + INTRA:         -23.074
REMARK INTER:                 -13.520
REMARK INTRA:                  -9.554
REMARK UNBOUND:                -6.197
REMARK SMILES CC(=O)N[C@@H]1[C@@H](O)C[C@](OC[C@H]2O[C@@H](O[C@H]3[C@H](O)[C@@H](O)[C@H](OCCN=[N+]=[N-])O[C@@H]3CO)[C@H](O)[C@@H](O)[C@H]2O)(C(=O)O)O[C@H]1C(O)[C@H](O)CNC(=O)OCc1cn(Cc2cccc(C#N)c2)nn1
REMARK SMILES IDX 9 1 8 2 6 3 5 4 42 5 41 6 10 7 11 8 12 9 14 10 13 11 32 12
REMARK SMILES IDX 34 13 36 14 15 15 16 16 29 17 28 18 21 19 17 20 19 21 30 22
REMARK SMILES IDX 31 23 22 25 23 26 24 27 25 28 26 29 27 30 18 31 20 33 33 35
REMARK SMILES IDX 35 37 37 39 38 41 39 42 40 43 7 45 43 47 44 48 45 50 46 51
REMARK SMILES IDX 47 53 48 54 49 55 50 57 51 58 52 59 53 60 54 61 66 62 55 63
REMARK SMILES IDX 65 64 56 65 57 66 58 67 64 68 59 69 61 70 60 71 62 72 63 73
REMARK SMILES IDX 4 74 2 75 1 77 3 78
REMARK H PARENT 31 24 18 32 20 34 33 36 35 38 37 40 40 44 7 46 44 49 46 52
REMARK H PARENT 48 56 4 76
REMARK Flexibility Score: inf
ROOT
ATOM      1  C   UNL     1      18.896  32.346  21.820  1.00  0.00     0.272 C 
ATOM      2  C   UNL     1      17.608  31.607  21.544  1.00  0.00     0.113 C 
ATOM      3  C   UNL     1      17.685  30.147  21.388  1.00  0.00     0.145 C 
ATOM      4  C   UNL     1      19.020  29.703  20.781  1.00  0.00     0.142 C 
ATOM      5  C   UNL     1      20.176  30.352  21.399  1.00  0.00     0.178 C 
ATOM      6  O   UNL     1      20.025  31.598  21.914  1.00  0.00    -0.332 OA
ENDROOT
BRANCH   1   7
ATOM      7  O   UNL     1      18.757  33.034  22.939  1.00  0.00    -0.338 OA
BRANCH   7   8
ATOM      8  C   UNL     1      18.023  33.643  23.739  1.00  0.00     0.199 C 
BRANCH   8   9
ATOM      9  C   UNL     1      17.410  33.129  25.012  1.00  0.00     0.179 C 
ATOM     10  C   UNL     1      15.610  32.019  25.790  1.00  0.00     0.282 C 
ATOM     11  O   UNL     1      16.415  32.144  24.650  1.00  0.00    -0.341 OA
ATOM     12  C   UNL     1      16.332  31.341  26.905  1.00  0.00     0.202 C 
ATOM     13  C   UNL     1      17.762  31.829  27.052  1.00  0.00     0.179 C 
ATOM     14  C   UNL     1      18.403  32.223  25.766  1.00  0.00     0.177 C 
BRANCH  10  15
ATOM     15  O   UNL     1      14.466  31.297  25.459  1.00  0.00    -0.341 OA
BRANCH  15  16
ATOM     16  C   UNL     1      14.245  31.242  24.108  1.00  0.00     0.184 C 
ATOM     17  C   UNL     1      12.902  31.742  23.719  1.00  0.00     0.178 C 
ATOM     18  O   UNL     1      12.628  31.618  22.376  1.00  0.00    -0.341 OA
ATOM     19  C   UNL     1      12.842  30.372  21.829  1.00  0.00     0.281 C 
ATOM     20  C   UNL     1      14.198  29.716  23.771  1.00  0.00     0.180 C 
ATOM     21  C   UNL     1      14.100  29.687  22.259  1.00  0.00     0.202 C 
BRANCH  17  22
ATOM     22  C   UNL     1      12.760  33.208  24.059  1.00  0.00     0.191 C 
BRANCH  22  23
ATOM     23  O   UNL     1      11.708  33.764  23.325  1.00  0.00    -0.394 OA
ATOM     24  H   UNL     1      10.948  33.167  23.230  1.00  0.00     0.210 HD
ENDBRANCH  22  23
ENDBRANCH  17  22
BRANCH  19  25
ATOM     25  O   UNL     1      12.959  30.563  20.436  1.00  0.00    -0.350 OA
BRANCH  25  26
ATOM     26  C   UNL     1      14.279  30.528  20.069  1.00  0.00     0.169 C 
BRANCH  26  27
ATOM     27  C   UNL     1      14.477  30.056  18.656  1.00  0.00     0.119 C 
BRANCH  27  28
ATOM     28  N   UNL     1      15.730  29.366  18.458  1.00  0.00    -0.092 NA
ATOM     29  N   UNL     1      15.927  28.307  19.070  1.00  0.00     0.001 N 
ATOM     30  N   UNL     1      16.285  27.282  19.694  1.00  0.00    -0.003 NA
ENDBRANCH  27  28
ENDBRANCH  26  27
ENDBRANCH  25  26
ENDBRANCH  19  25
BRANCH  20  31
ATOM     31  O   UNL     1      15.340  29.148  24.268  1.00  0.00    -0.387 OA
ATOM     32  H   UNL     1      15.192  28.205  24.565  1.00  0.00     0.211 HD
ENDBRANCH  20  31
BRANCH  21  33
ATOM     33  O   UNL     1      14.037  28.351  21.872  1.00  0.00    -0.385 OA
ATOM     34  H   UNL     1      14.953  27.970  22.010  1.00  0.00     0.211 HD
ENDBRANCH  21  33
ENDBRANCH  15  16
ENDBRANCH  10  15
BRANCH  12  35
ATOM     35  O   UNL     1      15.702  31.709  28.115  1.00  0.00    -0.385 OA
ATOM     36  H   UNL     1      15.773  30.920  28.707  1.00  0.00     0.211 HD
ENDBRANCH  12  35
BRANCH  13  37
ATOM     37  O   UNL     1      18.486  30.741  27.563  1.00  0.00    -0.387 OA
ATOM     38  H   UNL     1      19.070  30.981  28.308  1.00  0.00     0.211 HD
ENDBRANCH  13  37
BRANCH  14  39
ATOM     39  O   UNL     1      18.555  31.052  25.008  1.00  0.00    -0.387 OA
ATOM     40  H   UNL     1      19.022  30.349  25.500  1.00  0.00     0.211 HD
ENDBRANCH  14  39
ENDBRANCH   8   9
ENDBRANCH   7   8
ENDBRANCH   1   7
BRANCH   1  41
ATOM     41  C   UNL     1      19.118  33.239  20.628  1.00  0.00     0.364 C 
ATOM     42  O   UNL     1      18.686  32.904  19.473  1.00  0.00    -0.246 OA
BRANCH  41  43
ATOM     43  O   UNL     1      19.784  34.430  20.731  1.00  0.00    -0.477 OA
ATOM     44  H   UNL     1      19.343  35.254  20.290  1.00  0.00     0.296 HD
ENDBRANCH  41  43
ENDBRANCH   1  41
BRANCH   3  45
ATOM     45  O   UNL     1      17.524  29.524  22.617  1.00  0.00    -0.391 OA
ATOM     46  H   UNL     1      16.699  29.792  23.086  1.00  0.00     0.211 HD
ENDBRANCH   3  45
BRANCH   5  47
ATOM     47  C   UNL     1      20.810  29.588  22.543  1.00  0.00     0.176 C 
BRANCH  47  48
ATOM     48  O   UNL     1      20.442  28.224  22.290  1.00  0.00    -0.388 OA
ATOM     49  H   UNL     1      20.773  28.004  21.389  1.00  0.00     0.211 HD
ENDBRANCH  47  48
BRANCH  47  50
ATOM     50  C   UNL     1      22.277  29.571  22.661  1.00  0.00     0.165 C 
BRANCH  50  51
ATOM     51  O   UNL     1      22.549  30.860  23.297  1.00  0.00    -0.388 OA
ATOM     52  H   UNL     1      22.239  30.781  24.249  1.00  0.00     0.211 HD
ENDBRANCH  50  51
BRANCH  50  53
ATOM     53  C   UNL     1      23.093  29.631  21.422  1.00  0.00     0.154 C 
BRANCH  53  54
ATOM     54  N   UNL     1      23.019  28.512  20.539  1.00  0.00    -0.319 N 
ATOM     55  C   UNL     1      24.108  27.579  20.479  1.00  0.00     0.407 C 
ATOM     56  H   UNL     1      22.214  28.322  19.931  1.00  0.00     0.167 HD
ATOM     57  O   UNL     1      25.090  27.800  21.224  1.00  0.00    -0.225 OA
BRANCH  55  58
ATOM     58  O   UNL     1      24.113  26.485  19.663  1.00  0.00    -0.443 OA
BRANCH  58  59
ATOM     59  C   UNL     1      23.951  25.149  20.182  1.00  0.00     0.294 C 
BRANCH  59  60
ATOM     60  C   UNL     1      22.790  25.133  21.117  1.00  0.00     0.120 A 
ATOM     61  C   UNL     1      22.771  24.650  22.406  1.00  0.00     0.138 A 
ATOM     62  N   UNL     1      21.552  25.579  20.877  1.00  0.00    -0.132 NA
ATOM     63  N   UNL     1      21.523  24.811  22.928  1.00  0.00    -0.248 N 
ATOM     64  N   UNL     1      20.805  25.379  21.971  1.00  0.00    -0.067 NA
BRANCH  63  65
ATOM     65  C   UNL     1      21.096  24.425  24.242  1.00  0.00     0.181 C 
BRANCH  65  66
ATOM     66  C   UNL     1      21.703  25.333  25.242  1.00  0.00    -0.025 A 
ATOM     67  C   UNL     1      22.618  24.919  26.175  1.00  0.00     0.006 A 
ATOM     68  C   UNL     1      21.336  26.674  25.251  1.00  0.00     0.025 A 
ATOM     69  C   UNL     1      23.171  25.765  27.100  1.00  0.00     0.002 A 
ATOM     70  C   UNL     1      21.890  27.521  26.178  1.00  0.00     0.052 A 
ATOM     71  C   UNL     1      22.821  27.108  27.131  1.00  0.00     0.019 A 
BRANCH  70  72
ATOM     72  C   UNL     1      21.508  28.909  26.177  1.00  0.00     0.099 C 
ATOM     73  N   UNL     1      21.199  30.037  26.192  1.00  0.00    -0.192 NA
ENDBRANCH  70  72
ENDBRANCH  65  66
ENDBRANCH  63  65
ENDBRANCH  59  60
ENDBRANCH  58  59
ENDBRANCH  55  58
ENDBRANCH  53  54
ENDBRANCH  50  53
ENDBRANCH  47  50
ENDBRANCH   5  47
BRANCH   4  74
ATOM     74  N   UNL     1      18.923  29.805  19.326  1.00  0.00    -0.348 N 
ATOM     75  C   UNL     1      19.525  28.815  18.522  1.00  0.00     0.217 C 
ATOM     76  H   UNL     1      18.430  30.568  18.823  1.00  0.00     0.163 HD
ATOM     77  C   UNL     1      19.476  28.838  17.033  1.00  0.00     0.114 C 
ATOM     78  O   UNL     1      20.124  27.879  19.078  1.00  0.00    -0.275 OA
ENDBRANCH   4  74
TORSDOF 32
