REMARK VINA RESULT:    -5.303     10.824     14.779
REMARK INTER + INTRA:         -21.407
REMARK INTER:                 -13.585
REMARK INTRA:                  -7.822
REMARK UNBOUND:                -8.354
REMARK SMILES CC(=O)N[C@@H]1[C@@H](O)C[C@](OC[C@H]2O[C@@H](O[C@H]3[C@H](O)[C@@H](O)[C@H](OCCN=[N+]=[N-])O[C@@H]3CO)[C@H](O)[C@@H](O)[C@H]2O)(C(=O)O)O[C@H]1C(O)[C@H](O)CNC(=O)OCc1cn(-c2cccc(Cl)c2)nn1
REMARK SMILES IDX 9 1 8 2 6 3 5 4 42 5 41 6 10 7 11 8 12 9 14 10 13 11 32 12
REMARK SMILES IDX 34 13 36 14 15 15 16 16 29 17 28 18 21 19 17 20 19 21 30 22
REMARK SMILES IDX 31 23 22 25 23 26 24 27 25 28 26 29 27 30 18 31 20 33 33 35
REMARK SMILES IDX 35 37 37 39 38 41 39 42 40 43 7 45 43 47 44 48 45 50 46 51
REMARK SMILES IDX 47 53 48 54 49 55 50 57 51 58 52 59 53 60 54 61 64 62 55 63
REMARK SMILES IDX 63 64 56 65 57 66 62 67 58 68 60 69 59 70 61 71 4 72 2 73
REMARK SMILES IDX 1 75 3 76
REMARK H PARENT 31 24 18 32 20 34 33 36 35 38 37 40 40 44 7 46 44 49 46 52
REMARK H PARENT 48 56 4 74
REMARK Flexibility Score: inf
ROOT
ATOM      1  C   UNL     1      20.096  18.670   9.567  1.00  0.00     0.272 C 
ATOM      2  C   UNL     1      19.293  19.003   8.390  1.00  0.00     0.113 C 
ATOM      3  C   UNL     1      19.562  20.285   7.674  1.00  0.00     0.145 C 
ATOM      4  C   UNL     1      20.634  21.122   8.326  1.00  0.00     0.142 C 
ATOM      5  C   UNL     1      20.452  20.890   9.835  1.00  0.00     0.178 C 
ATOM      6  O   UNL     1      20.966  19.647  10.054  1.00  0.00    -0.332 OA
ENDROOT
BRANCH   1   7
ATOM      7  O   UNL     1      20.793  17.501   9.613  1.00  0.00    -0.338 OA
BRANCH   7   8
ATOM      8  C   UNL     1      21.509  17.011   8.603  1.00  0.00     0.199 C 
BRANCH   8   9
ATOM      9  C   UNL     1      22.932  16.610   8.810  1.00  0.00     0.179 C 
ATOM     10  C   UNL     1      24.829  17.157  10.007  1.00  0.00     0.282 C 
ATOM     11  O   UNL     1      23.447  17.380   9.874  1.00  0.00    -0.341 OA
ATOM     12  C   UNL     1      25.065  15.714  10.329  1.00  0.00     0.202 C 
ATOM     13  C   UNL     1      24.370  14.706   9.469  1.00  0.00     0.179 C 
ATOM     14  C   UNL     1      22.932  15.141   9.293  1.00  0.00     0.177 C 
BRANCH  10  15
ATOM     15  O   UNL     1      25.192  17.884  11.111  1.00  0.00    -0.341 OA
BRANCH  15  16
ATOM     16  C   UNL     1      24.420  18.997  11.438  1.00  0.00     0.184 C 
ATOM     17  C   UNL     1      25.113  20.276  11.354  1.00  0.00     0.178 C 
ATOM     18  O   UNL     1      24.920  21.101  12.435  1.00  0.00    -0.341 OA
ATOM     19  C   UNL     1      24.804  20.451  13.660  1.00  0.00     0.281 C 
ATOM     20  C   UNL     1      23.656  18.614  12.658  1.00  0.00     0.180 C 
ATOM     21  C   UNL     1      23.440  19.774  13.580  1.00  0.00     0.202 C 
BRANCH  17  22
ATOM     22  C   UNL     1      24.611  21.090  10.149  1.00  0.00     0.191 C 
BRANCH  22  23
ATOM     23  O   UNL     1      23.817  20.214   9.367  1.00  0.00    -0.394 OA
ATOM     24  H   UNL     1      24.395  19.543   8.960  1.00  0.00     0.210 HD
ENDBRANCH  22  23
ENDBRANCH  17  22
BRANCH  19  25
ATOM     25  O   UNL     1      24.805  21.389  14.652  1.00  0.00    -0.350 OA
BRANCH  25  26
ATOM     26  C   UNL     1      26.028  21.741  15.162  1.00  0.00     0.169 C 
BRANCH  26  27
ATOM     27  C   UNL     1      27.121  20.724  14.967  1.00  0.00     0.119 C 
BRANCH  27  28
ATOM     28  N   UNL     1      27.515  20.256  16.304  1.00  0.00    -0.092 NA
ATOM     29  N   UNL     1      27.728  21.144  17.156  1.00  0.00     0.001 N 
ATOM     30  N   UNL     1      27.553  21.898  18.131  1.00  0.00    -0.003 NA
ENDBRANCH  27  28
ENDBRANCH  26  27
ENDBRANCH  25  26
ENDBRANCH  19  25
BRANCH  20  31
ATOM     31  O   UNL     1      22.434  18.012  12.302  1.00  0.00    -0.387 OA
ATOM     32  H   UNL     1      21.835  18.145  13.079  1.00  0.00     0.211 HD
ENDBRANCH  20  31
BRANCH  21  33
ATOM     33  O   UNL     1      23.096  19.268  14.838  1.00  0.00    -0.385 OA
ATOM     34  H   UNL     1      22.651  19.930  15.391  1.00  0.00     0.211 HD
ENDBRANCH  21  33
ENDBRANCH  15  16
ENDBRANCH  10  15
BRANCH  12  35
ATOM     35  O   UNL     1      26.429  15.390  10.256  1.00  0.00    -0.385 OA
ATOM     36  H   UNL     1      26.842  15.730   9.431  1.00  0.00     0.211 HD
ENDBRANCH  12  35
BRANCH  13  37
ATOM     37  O   UNL     1      24.353  13.486  10.147  1.00  0.00    -0.387 OA
ATOM     38  H   UNL     1      23.646  13.404  10.809  1.00  0.00     0.211 HD
ENDBRANCH  13  37
BRANCH  14  39
ATOM     39  O   UNL     1      22.400  15.230  10.601  1.00  0.00    -0.387 OA
ATOM     40  H   UNL     1      22.720  14.529  11.189  1.00  0.00     0.211 HD
ENDBRANCH  14  39
ENDBRANCH   8   9
ENDBRANCH   7   8
ENDBRANCH   1   7
BRANCH   1  41
ATOM     41  C   UNL     1      19.098  18.523  10.726  1.00  0.00     0.364 C 
ATOM     42  O   UNL     1      19.423  18.664  11.918  1.00  0.00    -0.246 OA
BRANCH  41  43
ATOM     43  O   UNL     1      17.763  18.217  10.433  1.00  0.00    -0.477 OA
ATOM     44  H   UNL     1      17.559  17.291  10.038  1.00  0.00     0.296 HD
ENDBRANCH  41  43
ENDBRANCH   1  41
BRANCH   3  45
ATOM     45  O   UNL     1      19.880  20.123   6.338  1.00  0.00    -0.391 OA
ATOM     46  H   UNL     1      20.284  20.932   5.948  1.00  0.00     0.211 HD
ENDBRANCH   3  45
BRANCH   5  47
ATOM     47  C   UNL     1      21.085  22.007  10.647  1.00  0.00     0.176 C 
BRANCH  47  48
ATOM     48  O   UNL     1      20.172  23.084  10.499  1.00  0.00    -0.388 OA
ATOM     49  H   UNL     1      19.250  22.690  10.546  1.00  0.00     0.211 HD
ENDBRANCH  47  48
BRANCH  47  50
ATOM     50  C   UNL     1      21.038  21.631  12.113  1.00  0.00     0.165 C 
BRANCH  50  51
ATOM     51  O   UNL     1      19.722  21.578  12.540  1.00  0.00    -0.388 OA
ATOM     52  H   UNL     1      19.451  22.357  13.076  1.00  0.00     0.211 HD
ENDBRANCH  50  51
BRANCH  50  53
ATOM     53  C   UNL     1      21.734  22.726  12.927  1.00  0.00     0.154 C 
BRANCH  53  54
ATOM     54  N   UNL     1      22.799  23.349  12.191  1.00  0.00    -0.319 N 
ATOM     55  C   UNL     1      23.413  24.572  12.502  1.00  0.00     0.407 C 
ATOM     56  H   UNL     1      23.161  22.839  11.323  1.00  0.00     0.167 HD
ATOM     57  O   UNL     1      23.055  25.212  13.519  1.00  0.00    -0.225 OA
BRANCH  55  58
ATOM     58  O   UNL     1      24.447  25.119  11.691  1.00  0.00    -0.443 OA
BRANCH  58  59
ATOM     59  C   UNL     1      24.221  26.312  10.989  1.00  0.00     0.294 C 
BRANCH  59  60
ATOM     60  C   UNL     1      22.865  26.416  10.391  1.00  0.00     0.121 A 
ATOM     61  C   UNL     1      22.182  27.583  10.034  1.00  0.00     0.144 A 
ATOM     62  N   UNL     1      22.001  25.436  10.077  1.00  0.00    -0.131 NA
ATOM     63  N   UNL     1      20.973  27.267   9.537  1.00  0.00    -0.220 N 
ATOM     64  N   UNL     1      20.875  25.964   9.568  1.00  0.00    -0.062 NA
BRANCH  63  65
ATOM     65  C   UNL     1      20.037  28.242   9.096  1.00  0.00     0.068 A 
ATOM     66  C   UNL     1      20.224  29.033   7.985  1.00  0.00     0.028 A 
ATOM     67  C   UNL     1      18.840  28.445   9.803  1.00  0.00     0.049 A 
ATOM     68  C   UNL     1      19.277  29.974   7.593  1.00  0.00     0.004 A 
ATOM     69  C   UNL     1      17.907  29.376   9.414  1.00  0.00     0.043 A 
ATOM     70  C   UNL     1      18.109  30.158   8.300  1.00  0.00     0.020 A 
ATOM     71  Cl  UNL     1      16.414  29.615  10.310  1.00  0.00    -0.084 Cl
ENDBRANCH  63  65
ENDBRANCH  59  60
ENDBRANCH  58  59
ENDBRANCH  55  58
ENDBRANCH  53  54
ENDBRANCH  50  53
ENDBRANCH  47  50
ENDBRANCH   5  47
BRANCH   4  72
ATOM     72  N   UNL     1      20.580  22.497   7.952  1.00  0.00    -0.348 N 
ATOM     73  C   UNL     1      21.405  23.020   6.895  1.00  0.00     0.217 C 
ATOM     74  H   UNL     1      19.958  23.215   8.394  1.00  0.00     0.163 HD
ATOM     75  C   UNL     1      21.368  24.432   6.490  1.00  0.00     0.114 C 
ATOM     76  O   UNL     1      22.178  22.233   6.307  1.00  0.00    -0.275 OA
ENDBRANCH   4  72
TORSDOF 30
