REMARK VINA RESULT:    -5.982      2.653      4.290
REMARK INTER + INTRA:         -22.659
REMARK INTER:                 -15.422
REMARK INTRA:                  -7.237
REMARK UNBOUND:                -6.885
REMARK SMILES CCOC(=O)c1cccc(-n2cc(COC(=O)NC[C@@H](O)C(O)[C@@H]3O[C@@](OC[C@H]4O[C@@H](O[C@H]5[C@H](O)[C@@H](O)[C@H](OCCN=[N+]=[N-])O[C@@H]5CO)[C@H](O)[C@@H](O)[C@H]4O)(C(=O)O)C[C@H](O)[C@H]3NC(C)=O)nn2)c1
REMARK SMILES IDX 22 1 24 2 26 3 58 4 25 5 59 6 61 7 27 8 28 9 29 10 31 11
REMARK SMILES IDX 30 12 49 13 51 14 53 15 32 16 33 17 46 18 45 19 38 20 34 21
REMARK SMILES IDX 36 22 47 23 48 24 39 26 40 27 41 28 42 29 43 30 44 31 35 32
REMARK SMILES IDX 37 34 50 36 52 38 54 40 55 42 56 43 57 44 60 46 62 48 63 49
REMARK SMILES IDX 64 51 65 52 23 53 20 55 21 56 19 58 18 59 16 60 17 62 15 63
REMARK SMILES IDX 14 64 13 65 12 66 66 67 11 68 67 69 10 70 68 71 9 72 6 73
REMARK SMILES IDX 8 74 7 75 4 76 5 77 3 78 2 79 1 80
REMARK H PARENT 48 25 35 33 37 35 50 37 52 39 54 41 57 45 60 47 62 50 23 54
REMARK H PARENT 21 57 18 61
REMARK Flexibility Score: inf
ROOT
ATOM      1  C   UNL     1       4.316  22.366  32.408  1.00  0.00     0.176 C 
ENDROOT
BRANCH   1   2
ATOM      2  C   UNL     1       3.366  21.884  33.422  1.00  0.00     0.178 C 
ATOM      3  C   UNL     1       2.995  22.314  35.717  1.00  0.00     0.272 C 
ATOM      4  C   UNL     1       1.906  21.337  35.415  1.00  0.00     0.113 C 
ATOM      5  O   UNL     1       3.958  22.051  34.676  1.00  0.00    -0.332 OA
ATOM      6  C   UNL     1       2.400  20.068  34.739  1.00  0.00     0.145 C 
ATOM      7  C   UNL     1       2.903  20.474  33.314  1.00  0.00     0.142 C 
BRANCH   3   8
ATOM      8  O   UNL     1       3.627  21.982  36.875  1.00  0.00    -0.338 OA
BRANCH   8   9
ATOM      9  C   UNL     1       3.504  22.573  38.037  1.00  0.00     0.199 C 
BRANCH   9  10
ATOM     10  C   UNL     1       4.569  22.929  38.984  1.00  0.00     0.179 C 
ATOM     11  C   UNL     1       6.853  23.398  39.175  1.00  0.00     0.282 C 
ATOM     12  O   UNL     1       5.812  22.712  38.507  1.00  0.00    -0.341 OA
ATOM     13  C   UNL     1       6.404  23.902  40.511  1.00  0.00     0.202 C 
ATOM     14  C   UNL     1       5.188  24.769  40.444  1.00  0.00     0.179 C 
ATOM     15  C   UNL     1       4.426  24.470  39.199  1.00  0.00     0.177 C 
BRANCH  11  16
ATOM     16  O   UNL     1       7.292  24.335  38.286  1.00  0.00    -0.341 OA
BRANCH  16  17
ATOM     17  C   UNL     1       7.966  23.942  37.182  1.00  0.00     0.184 C 
ATOM     18  C   UNL     1       9.292  24.655  37.151  1.00  0.00     0.178 C 
ATOM     19  O   UNL     1      10.062  24.254  36.058  1.00  0.00    -0.341 OA
ATOM     20  C   UNL     1       9.429  24.751  34.885  1.00  0.00     0.281 C 
ATOM     21  C   UNL     1       7.237  24.317  35.880  1.00  0.00     0.180 C 
ATOM     22  C   UNL     1       8.175  23.933  34.737  1.00  0.00     0.202 C 
BRANCH  18  23
ATOM     23  C   UNL     1      10.078  24.392  38.403  1.00  0.00     0.191 C 
BRANCH  23  24
ATOM     24  O   UNL     1      10.281  22.997  38.569  1.00  0.00    -0.394 OA
ATOM     25  H   UNL     1       9.458  22.500  38.333  1.00  0.00     0.210 HD
ENDBRANCH  23  24
ENDBRANCH  18  23
BRANCH  20  26
ATOM     26  O   UNL     1      10.311  24.629  33.851  1.00  0.00    -0.350 OA
BRANCH  26  27
ATOM     27  C   UNL     1      10.855  25.847  33.470  1.00  0.00     0.169 C 
BRANCH  27  28
ATOM     28  C   UNL     1      10.035  27.029  33.892  1.00  0.00     0.119 C 
BRANCH  28  29
ATOM     29  N   UNL     1      10.495  28.216  33.160  1.00  0.00    -0.092 NA
ATOM     30  N   UNL     1      11.668  28.574  33.331  1.00  0.00     0.001 N 
ATOM     31  N   UNL     1      12.864  28.906  33.209  1.00  0.00    -0.003 NA
ENDBRANCH  28  29
ENDBRANCH  27  28
ENDBRANCH  26  27
ENDBRANCH  20  26
BRANCH  21  32
ATOM     32  O   UNL     1       6.104  23.539  35.698  1.00  0.00    -0.387 OA
ATOM     33  H   UNL     1       6.035  22.935  36.476  1.00  0.00     0.211 HD
ENDBRANCH  21  32
BRANCH  22  34
ATOM     34  O   UNL     1       7.561  24.129  33.504  1.00  0.00    -0.385 OA
ATOM     35  H   UNL     1       6.731  24.691  33.563  1.00  0.00     0.211 HD
ENDBRANCH  22  34
ENDBRANCH  16  17
ENDBRANCH  11  16
BRANCH  13  36
ATOM     36  O   UNL     1       6.236  22.808  41.382  1.00  0.00    -0.385 OA
ATOM     37  H   UNL     1       5.764  22.059  40.952  1.00  0.00     0.211 HD
ENDBRANCH  13  36
BRANCH  14  38
ATOM     38  O   UNL     1       5.442  26.100  40.682  1.00  0.00    -0.387 OA
ATOM     39  H   UNL     1       5.455  26.557  39.799  1.00  0.00     0.211 HD
ENDBRANCH  14  38
BRANCH  15  40
ATOM     40  O   UNL     1       4.860  25.176  38.121  1.00  0.00    -0.387 OA
ATOM     41  H   UNL     1       4.410  26.057  38.098  1.00  0.00     0.211 HD
ENDBRANCH  15  40
ENDBRANCH   9  10
ENDBRANCH   8   9
ENDBRANCH   3   8
BRANCH   3  42
ATOM     42  C   UNL     1       2.641  23.722  35.619  1.00  0.00     0.364 C 
ATOM     43  O   UNL     1       3.489  24.628  35.641  1.00  0.00    -0.246 OA
BRANCH  42  44
ATOM     44  O   UNL     1       1.306  24.109  35.493  1.00  0.00    -0.477 OA
ATOM     45  H   UNL     1       0.533  23.501  35.666  1.00  0.00     0.296 HD
ENDBRANCH  42  44
ENDBRANCH   3  42
BRANCH   6  46
ATOM     46  O   UNL     1       3.506  19.616  35.416  1.00  0.00    -0.391 OA
ATOM     47  H   UNL     1       4.051  20.386  35.707  1.00  0.00     0.211 HD
ENDBRANCH   6  46
BRANCH   7  48
ATOM     48  N   UNL     1       1.770  20.308  32.435  1.00  0.00    -0.348 N 
ATOM     49  C   UNL     1       1.814  19.571  31.206  1.00  0.00     0.217 C 
ATOM     50  H   UNL     1       0.818  20.730  32.657  1.00  0.00     0.163 HD
ATOM     51  C   UNL     1       0.627  19.421  30.324  1.00  0.00     0.114 C 
ATOM     52  O   UNL     1       2.880  19.030  30.848  1.00  0.00    -0.275 OA
ENDBRANCH   7  48
ENDBRANCH   1   2
BRANCH   1  53
ATOM     53  O   UNL     1       4.406  21.635  31.254  1.00  0.00    -0.388 OA
ATOM     54  H   UNL     1       4.419  20.663  31.417  1.00  0.00     0.211 HD
ENDBRANCH   1  53
BRANCH   1  55
ATOM     55  C   UNL     1       4.317  23.846  32.123  1.00  0.00     0.165 C 
BRANCH  55  56
ATOM     56  O   UNL     1       4.743  24.564  33.245  1.00  0.00    -0.388 OA
ATOM     57  H   UNL     1       5.284  25.347  32.966  1.00  0.00     0.211 HD
ENDBRANCH  55  56
BRANCH  55  58
ATOM     58  C   UNL     1       3.066  24.364  31.480  1.00  0.00     0.154 C 
BRANCH  58  59
ATOM     59  N   UNL     1       3.204  24.501  30.048  1.00  0.00    -0.319 N 
ATOM     60  C   UNL     1       2.479  23.680  29.156  1.00  0.00     0.407 C 
ATOM     61  H   UNL     1       3.860  25.234  29.636  1.00  0.00     0.167 HD
ATOM     62  O   UNL     1       1.668  22.788  29.492  1.00  0.00    -0.225 OA
BRANCH  60  63
ATOM     63  O   UNL     1       2.648  23.826  27.765  1.00  0.00    -0.443 OA
BRANCH  63  64
ATOM     64  C   UNL     1       2.526  25.027  27.068  1.00  0.00     0.294 C 
BRANCH  64  65
ATOM     65  C   UNL     1       3.678  25.935  27.143  1.00  0.00     0.121 A 
ATOM     66  C   UNL     1       4.696  26.049  26.202  1.00  0.00     0.144 A 
ATOM     67  N   UNL     1       3.966  26.804  28.104  1.00  0.00    -0.131 NA
ATOM     68  N   UNL     1       5.547  26.976  26.638  1.00  0.00    -0.220 N 
ATOM     69  N   UNL     1       5.099  27.429  27.787  1.00  0.00    -0.062 NA
BRANCH  68  70
ATOM     70  C   UNL     1       6.719  27.396  25.974  1.00  0.00     0.067 A 
ATOM     71  C   UNL     1       6.798  28.637  25.346  1.00  0.00     0.044 A 
ATOM     72  C   UNL     1       7.842  26.613  25.923  1.00  0.00     0.028 A 
ATOM     73  C   UNL     1       7.915  29.092  24.700  1.00  0.00     0.062 A 
ATOM     74  C   UNL     1       8.993  27.039  25.279  1.00  0.00     0.003 A 
ATOM     75  C   UNL     1       9.036  28.270  24.668  1.00  0.00     0.016 A 
BRANCH  73  76
ATOM     76  C   UNL     1       7.928  30.393  24.064  1.00  0.00     0.338 C 
ATOM     77  O   UNL     1       7.041  30.681  23.238  1.00  0.00    -0.246 OA
BRANCH  76  78
ATOM     78  O   UNL     1       8.907  31.301  24.373  1.00  0.00    -0.462 OA
BRANCH  78  79
ATOM     79  C   UNL     1       9.841  31.804  23.446  1.00  0.00     0.230 C 
ATOM     80  C   UNL     1      11.175  31.112  23.631  1.00  0.00     0.049 C 
ENDBRANCH  78  79
ENDBRANCH  76  78
ENDBRANCH  73  76
ENDBRANCH  68  70
ENDBRANCH  64  65
ENDBRANCH  63  64
ENDBRANCH  60  63
ENDBRANCH  58  59
ENDBRANCH  55  58
ENDBRANCH   1  55
TORSDOF 33
