REMARK VINA RESULT:    -4.436     19.381     23.445
REMARK INTER + INTRA:         -20.309
REMARK INTER:                 -13.061
REMARK INTRA:                  -7.248
REMARK UNBOUND:                -9.390
REMARK SMILES CC(=O)N[C@@H]1[C@@H](O)C[C@](OC[C@H]2O[C@@H](O[C@H]3[C@H](O)[C@@H](O)[C@H](OCCN=[N+]=[N-])O[C@@H]3CO)[C@H](O)[C@@H](O)[C@H]2O)(C(=O)O)O[C@H]1C(O)[C@H](O)CNC(=O)OCc1cn(-c2ccncc2)nn1
REMARK SMILES IDX 9 1 8 2 6 3 5 4 42 5 41 6 10 7 11 8 12 9 14 10 13 11 32 12
REMARK SMILES IDX 34 13 36 14 15 15 16 16 29 17 28 18 21 19 17 20 19 21 30 22
REMARK SMILES IDX 31 23 22 25 23 26 24 27 25 28 26 29 27 30 18 31 20 33 33 35
REMARK SMILES IDX 35 37 37 39 38 41 39 42 40 43 7 45 43 47 44 48 45 50 46 51
REMARK SMILES IDX 47 53 48 54 49 55 50 57 51 58 52 59 53 60 54 61 63 62 55 63
REMARK SMILES IDX 62 64 56 65 57 66 61 67 58 68 60 69 59 70 4 71 2 72 1 74
REMARK SMILES IDX 3 75
REMARK H PARENT 31 24 18 32 20 34 33 36 35 38 37 40 40 44 7 46 44 49 46 52
REMARK H PARENT 48 56 4 73
REMARK Flexibility Score: inf
ROOT
ATOM      1  C   UNL     1       1.221  24.335  28.808  1.00  0.00     0.272 C 
ATOM      2  C   UNL     1       2.311  23.790  29.754  1.00  0.00     0.113 C 
ATOM      3  C   UNL     1       2.944  22.528  29.157  1.00  0.00     0.145 C 
ATOM      4  C   UNL     1       1.829  21.429  29.208  1.00  0.00     0.142 C 
ATOM      5  C   UNL     1       0.628  22.040  28.548  1.00  0.00     0.178 C 
ATOM      6  O   UNL     1       1.005  23.237  27.953  1.00  0.00    -0.332 OA
ENDROOT
BRANCH   1   7
ATOM      7  O   UNL     1       1.708  25.286  28.035  1.00  0.00    -0.338 OA
BRANCH   7   8
ATOM      8  C   UNL     1       1.728  25.723  26.855  1.00  0.00     0.199 C 
BRANCH   8   9
ATOM      9  C   UNL     1       2.780  26.684  26.390  1.00  0.00     0.179 C 
ATOM     10  C   UNL     1       4.271  28.187  27.409  1.00  0.00     0.282 C 
ATOM     11  O   UNL     1       3.280  27.254  27.604  1.00  0.00    -0.341 OA
ATOM     12  C   UNL     1       5.483  27.563  26.790  1.00  0.00     0.202 C 
ATOM     13  C   UNL     1       5.083  26.835  25.504  1.00  0.00     0.179 C 
ATOM     14  C   UNL     1       3.967  25.890  25.835  1.00  0.00     0.177 C 
BRANCH  10  15
ATOM     15  O   UNL     1       4.578  28.625  28.723  1.00  0.00    -0.341 OA
BRANCH  15  16
ATOM     16  C   UNL     1       3.965  27.902  29.690  1.00  0.00     0.184 C 
ATOM     17  C   UNL     1       3.242  28.708  30.692  1.00  0.00     0.178 C 
ATOM     18  O   UNL     1       2.544  27.867  31.586  1.00  0.00    -0.341 OA
ATOM     19  C   UNL     1       3.604  27.430  32.468  1.00  0.00     0.281 C 
ATOM     20  C   UNL     1       5.063  27.080  30.433  1.00  0.00     0.180 C 
ATOM     21  C   UNL     1       4.439  26.489  31.684  1.00  0.00     0.202 C 
BRANCH  17  22
ATOM     22  C   UNL     1       2.303  29.691  30.105  1.00  0.00     0.191 C 
BRANCH  22  23
ATOM     23  O   UNL     1       1.493  29.131  29.105  1.00  0.00    -0.394 OA
ATOM     24  H   UNL     1       0.679  28.773  29.568  1.00  0.00     0.210 HD
ENDBRANCH  22  23
ENDBRANCH  17  22
BRANCH  19  25
ATOM     25  O   UNL     1       2.958  26.803  33.497  1.00  0.00    -0.350 OA
BRANCH  25  26
ATOM     26  C   UNL     1       1.908  26.039  33.086  1.00  0.00     0.169 C 
BRANCH  26  27
ATOM     27  C   UNL     1       1.655  24.782  33.852  1.00  0.00     0.119 C 
BRANCH  27  28
ATOM     28  N   UNL     1       2.097  23.594  33.150  1.00  0.00    -0.092 NA
ATOM     29  N   UNL     1       3.258  23.212  33.106  1.00  0.00     0.001 N 
ATOM     30  N   UNL     1       4.466  23.060  32.899  1.00  0.00    -0.003 NA
ENDBRANCH  27  28
ENDBRANCH  26  27
ENDBRANCH  25  26
ENDBRANCH  19  25
BRANCH  20  31
ATOM     31  O   UNL     1       5.409  26.052  29.590  1.00  0.00    -0.387 OA
ATOM     32  H   UNL     1       5.131  26.246  28.639  1.00  0.00     0.211 HD
ENDBRANCH  20  31
BRANCH  21  33
ATOM     33  O   UNL     1       5.421  25.934  32.491  1.00  0.00    -0.385 OA
ATOM     34  H   UNL     1       5.937  25.273  31.961  1.00  0.00     0.211 HD
ENDBRANCH  21  33
ENDBRANCH  15  16
ENDBRANCH  10  15
BRANCH  12  35
ATOM     35  O   UNL     1       6.424  28.551  26.415  1.00  0.00    -0.385 OA
ATOM     36  H   UNL     1       6.445  29.191  27.166  1.00  0.00     0.211 HD
ENDBRANCH  12  35
BRANCH  13  37
ATOM     37  O   UNL     1       6.128  26.148  24.934  1.00  0.00    -0.387 OA
ATOM     38  H   UNL     1       7.011  26.554  25.204  1.00  0.00     0.211 HD
ENDBRANCH  13  37
BRANCH  14  39
ATOM     39  O   UNL     1       4.340  25.005  26.859  1.00  0.00    -0.387 OA
ATOM     40  H   UNL     1       3.796  25.204  27.681  1.00  0.00     0.211 HD
ENDBRANCH  14  39
ENDBRANCH   8   9
ENDBRANCH   7   8
ENDBRANCH   1   7
BRANCH   1  41
ATOM     41  C   UNL     1       0.014  24.700  29.556  1.00  0.00     0.364 C 
ATOM     42  O   UNL     1      -1.009  25.197  28.981  1.00  0.00    -0.246 OA
BRANCH  41  43
ATOM     43  O   UNL     1      -0.108  24.540  30.915  1.00  0.00    -0.477 OA
ATOM     44  H   UNL     1       0.492  24.010  31.510  1.00  0.00     0.296 HD
ENDBRANCH  41  43
ENDBRANCH   1  41
BRANCH   3  45
ATOM     45  O   UNL     1       3.243  22.741  27.839  1.00  0.00    -0.391 OA
ATOM     46  H   UNL     1       3.190  21.923  27.308  1.00  0.00     0.211 HD
ENDBRANCH   3  45
BRANCH   5  47
ATOM     47  C   UNL     1       0.115  21.232  27.349  1.00  0.00     0.176 C 
BRANCH  47  48
ATOM     48  O   UNL     1       1.305  21.243  26.497  1.00  0.00    -0.388 OA
ATOM     49  H   UNL     1       1.994  21.785  26.985  1.00  0.00     0.211 HD
ENDBRANCH  47  48
BRANCH  47  50
ATOM     50  C   UNL     1      -0.976  21.814  26.562  1.00  0.00     0.165 C 
BRANCH  50  51
ATOM     51  O   UNL     1      -1.797  22.737  27.165  1.00  0.00    -0.388 OA
ATOM     52  H   UNL     1      -2.295  22.338  27.926  1.00  0.00     0.211 HD
ENDBRANCH  50  51
BRANCH  50  53
ATOM     53  C   UNL     1      -1.589  20.933  25.544  1.00  0.00     0.154 C 
BRANCH  53  54
ATOM     54  N   UNL     1      -1.163  21.146  24.186  1.00  0.00    -0.319 N 
ATOM     55  C   UNL     1      -0.161  20.336  23.599  1.00  0.00     0.407 C 
ATOM     56  H   UNL     1      -1.606  21.922  23.663  1.00  0.00     0.167 HD
ATOM     57  O   UNL     1       0.330  19.431  24.310  1.00  0.00    -0.225 OA
BRANCH  55  58
ATOM     58  O   UNL     1       0.295  20.482  22.319  1.00  0.00    -0.443 OA
BRANCH  58  59
ATOM     59  C   UNL     1      -0.498  20.556  21.154  1.00  0.00     0.294 C 
BRANCH  59  60
ATOM     60  C   UNL     1       0.073  21.514  20.151  1.00  0.00     0.121 A 
ATOM     61  C   UNL     1      -0.113  21.571  18.788  1.00  0.00     0.144 A 
ATOM     62  N   UNL     1       0.916  22.534  20.439  1.00  0.00    -0.131 NA
ATOM     63  N   UNL     1       0.602  22.598  18.295  1.00  0.00    -0.220 N 
ATOM     64  N   UNL     1       1.224  23.173  19.325  1.00  0.00    -0.062 NA
BRANCH  63  65
ATOM     65  C   UNL     1       0.664  22.974  16.926  1.00  0.00     0.069 A 
ATOM     66  C   UNL     1       1.636  22.545  16.048  1.00  0.00     0.048 A 
ATOM     67  C   UNL     1      -0.312  23.817  16.443  1.00  0.00     0.048 A 
ATOM     68  C   UNL     1       1.655  22.933  14.719  1.00  0.00     0.113 A 
ATOM     69  C   UNL     1      -0.285  24.201  15.112  1.00  0.00     0.113 A 
ATOM     70  N   UNL     1       0.676  23.763  14.289  1.00  0.00    -0.265 NA
ENDBRANCH  63  65
ENDBRANCH  59  60
ENDBRANCH  58  59
ENDBRANCH  55  58
ENDBRANCH  53  54
ENDBRANCH  50  53
ENDBRANCH  47  50
ENDBRANCH   5  47
BRANCH   4  71
ATOM     71  N   UNL     1       1.670  21.208  30.625  1.00  0.00    -0.348 N 
ATOM     72  C   UNL     1       2.217  20.118  31.337  1.00  0.00     0.217 C 
ATOM     73  H   UNL     1       1.115  21.888  31.176  1.00  0.00     0.163 HD
ATOM     74  C   UNL     1       1.987  19.996  32.784  1.00  0.00     0.114 C 
ATOM     75  O   UNL     1       2.897  19.259  30.742  1.00  0.00    -0.275 OA
ENDBRANCH   4  71
TORSDOF 30
