REMARK VINA RESULT:    -4.804      4.331     13.090
REMARK INTER + INTRA:         -20.948
REMARK INTER:                 -12.403
REMARK INTRA:                  -8.545
REMARK UNBOUND:                -8.562
REMARK SMILES CC(=O)N[C@@H]1[C@@H](O)C[C@](OC[C@H]2O[C@@H](O[C@H]3[C@H](O)[C@@H](O)[C@H](OCCN=[N+]=[N-])O[C@@H]3CO)[C@H](O)[C@@H](O)[C@H]2O)(C(=O)O)O[C@H]1C(O)[C@H](O)CNC(=O)OCc1cn(Cc2ccc(C#N)cc2)nn1
REMARK SMILES IDX 9 1 8 2 6 3 5 4 42 5 41 6 10 7 11 8 12 9 14 10 13 11 32 12
REMARK SMILES IDX 34 13 36 14 15 15 16 16 29 17 28 18 21 19 17 20 19 21 30 22
REMARK SMILES IDX 31 23 22 25 23 26 24 27 25 28 26 29 27 30 18 31 20 33 33 35
REMARK SMILES IDX 35 37 37 39 38 41 39 42 40 43 7 45 43 47 44 48 45 50 46 51
REMARK SMILES IDX 47 53 48 54 49 55 50 57 51 58 52 59 53 60 54 61 66 62 55 63
REMARK SMILES IDX 65 64 56 65 57 66 58 67 64 68 59 69 63 70 60 71 61 72 62 73
REMARK SMILES IDX 4 74 2 75 1 77 3 78
REMARK H PARENT 31 24 18 32 20 34 33 36 35 38 37 40 40 44 7 46 44 49 46 52
REMARK H PARENT 48 56 4 76
REMARK Flexibility Score: inf
ROOT
ATOM      1  C   UNL     1      21.413  28.086  21.516  1.00  0.00     0.272 C 
ATOM      2  C   UNL     1      22.377  29.141  21.100  1.00  0.00     0.113 C 
ATOM      3  C   UNL     1      23.055  29.858  22.213  1.00  0.00     0.145 C 
ATOM      4  C   UNL     1      22.091  29.887  23.411  1.00  0.00     0.142 C 
ATOM      5  C   UNL     1      20.709  29.827  22.835  1.00  0.00     0.178 C 
ATOM      6  O   UNL     1      20.434  28.561  22.402  1.00  0.00    -0.332 OA
ENDROOT
BRANCH   1   7
ATOM      7  O   UNL     1      21.962  26.917  21.997  1.00  0.00    -0.338 OA
BRANCH   7   8
ATOM      8  C   UNL     1      21.278  26.333  23.009  1.00  0.00     0.199 C 
BRANCH   8   9
ATOM      9  C   UNL     1      22.120  25.276  23.744  1.00  0.00     0.179 C 
ATOM     10  C   UNL     1      24.196  24.277  23.600  1.00  0.00     0.282 C 
ATOM     11  O   UNL     1      23.248  25.066  22.949  1.00  0.00    -0.341 OA
ATOM     12  C   UNL     1      24.718  24.898  24.853  1.00  0.00     0.202 C 
ATOM     13  C   UNL     1      24.003  26.205  25.101  1.00  0.00     0.179 C 
ATOM     14  C   UNL     1      22.517  25.875  25.067  1.00  0.00     0.177 C 
BRANCH  10  15
ATOM     15  O   UNL     1      25.261  24.118  22.717  1.00  0.00    -0.341 OA
BRANCH  15  16
ATOM     16  C   UNL     1      25.220  25.000  21.639  1.00  0.00     0.184 C 
ATOM     17  C   UNL     1      24.863  24.260  20.400  1.00  0.00     0.178 C 
ATOM     18  O   UNL     1      25.901  23.870  19.604  1.00  0.00    -0.341 OA
ATOM     19  C   UNL     1      27.162  24.008  20.125  1.00  0.00     0.281 C 
ATOM     20  C   UNL     1      26.443  25.855  21.547  1.00  0.00     0.180 C 
ATOM     21  C   UNL     1      27.398  25.465  20.451  1.00  0.00     0.202 C 
BRANCH  17  22
ATOM     22  C   UNL     1      23.810  25.053  19.629  1.00  0.00     0.191 C 
BRANCH  22  23
ATOM     23  O   UNL     1      22.558  24.677  20.116  1.00  0.00    -0.394 OA
ATOM     24  H   UNL     1      21.842  25.303  19.790  1.00  0.00     0.210 HD
ENDBRANCH  22  23
ENDBRANCH  17  22
BRANCH  19  25
ATOM     25  O   UNL     1      28.055  23.651  19.095  1.00  0.00    -0.350 OA
BRANCH  25  26
ATOM     26  C   UNL     1      27.757  22.390  18.598  1.00  0.00     0.169 C 
BRANCH  26  27
ATOM     27  C   UNL     1      28.827  21.389  18.985  1.00  0.00     0.119 C 
BRANCH  27  28
ATOM     28  N   UNL     1      28.412  20.541  20.086  1.00  0.00    -0.092 NA
ATOM     29  N   UNL     1      28.697  19.354  20.088  1.00  0.00     0.001 N 
ATOM     30  N   UNL     1      29.216  18.294  20.470  1.00  0.00    -0.003 NA
ENDBRANCH  27  28
ENDBRANCH  26  27
ENDBRANCH  25  26
ENDBRANCH  19  25
BRANCH  20  31
ATOM     31  O   UNL     1      26.150  27.223  21.489  1.00  0.00    -0.387 OA
ATOM     32  H   UNL     1      26.880  27.748  21.929  1.00  0.00     0.211 HD
ENDBRANCH  20  31
BRANCH  21  33
ATOM     33  O   UNL     1      28.728  25.684  20.816  1.00  0.00    -0.385 OA
ATOM     34  H   UNL     1      29.177  26.087  20.027  1.00  0.00     0.211 HD
ENDBRANCH  21  33
ENDBRANCH  15  16
ENDBRANCH  10  15
BRANCH  12  35
ATOM     35  O   UNL     1      24.597  24.114  25.979  1.00  0.00    -0.385 OA
ATOM     36  H   UNL     1      24.899  24.628  26.781  1.00  0.00     0.211 HD
ENDBRANCH  12  35
BRANCH  13  37
ATOM     37  O   UNL     1      24.369  27.096  24.105  1.00  0.00    -0.387 OA
ATOM     38  H   UNL     1      24.801  26.686  23.323  1.00  0.00     0.211 HD
ENDBRANCH  13  37
BRANCH  14  39
ATOM     39  O   UNL     1      21.716  26.924  25.448  1.00  0.00    -0.387 OA
ATOM     40  H   UNL     1      21.779  27.059  26.418  1.00  0.00     0.211 HD
ENDBRANCH  14  39
ENDBRANCH   8   9
ENDBRANCH   7   8
ENDBRANCH   1   7
BRANCH   1  41
ATOM     41  C   UNL     1      20.615  27.740  20.291  1.00  0.00     0.364 C 
ATOM     42  O   UNL     1      21.171  27.240  19.309  1.00  0.00    -0.246 OA
BRANCH  41  43
ATOM     43  O   UNL     1      19.263  27.991  20.293  1.00  0.00    -0.477 OA
ATOM     44  H   UNL     1      18.817  28.691  19.714  1.00  0.00     0.296 HD
ENDBRANCH  41  43
ENDBRANCH   1  41
BRANCH   3  45
ATOM     45  O   UNL     1      24.306  29.425  22.547  1.00  0.00    -0.391 OA
ATOM     46  H   UNL     1      24.332  29.076  23.462  1.00  0.00     0.211 HD
ENDBRANCH   3  45
BRANCH   5  47
ATOM     47  C   UNL     1      19.632  30.333  23.804  1.00  0.00     0.176 C 
BRANCH  47  48
ATOM     48  O   UNL     1      19.697  31.742  23.700  1.00  0.00    -0.388 OA
ATOM     49  H   UNL     1      19.540  32.120  24.601  1.00  0.00     0.211 HD
ENDBRANCH  47  48
BRANCH  47  50
ATOM     50  C   UNL     1      18.293  29.885  23.418  1.00  0.00     0.165 C 
BRANCH  50  51
ATOM     51  O   UNL     1      18.147  29.871  21.997  1.00  0.00    -0.388 OA
ATOM     52  H   UNL     1      17.205  29.537  21.861  1.00  0.00     0.211 HD
ENDBRANCH  50  51
BRANCH  50  53
ATOM     53  C   UNL     1      17.136  30.578  24.021  1.00  0.00     0.154 C 
BRANCH  53  54
ATOM     54  N   UNL     1      15.824  30.376  23.587  1.00  0.00    -0.319 N 
ATOM     55  C   UNL     1      15.047  31.112  22.673  1.00  0.00     0.407 C 
ATOM     56  H   UNL     1      15.303  29.528  24.002  1.00  0.00     0.167 HD
ATOM     57  O   UNL     1      15.467  32.107  22.066  1.00  0.00    -0.225 OA
BRANCH  55  58
ATOM     58  O   UNL     1      13.721  30.745  22.394  1.00  0.00    -0.443 OA
BRANCH  58  59
ATOM     59  C   UNL     1      13.427  29.425  21.968  1.00  0.00     0.294 C 
BRANCH  59  60
ATOM     60  C   UNL     1      14.488  29.003  20.987  1.00  0.00     0.120 A 
ATOM     61  C   UNL     1      14.470  29.321  19.645  1.00  0.00     0.138 A 
ATOM     62  N   UNL     1      15.597  28.268  21.187  1.00  0.00    -0.132 NA
ATOM     63  N   UNL     1      15.570  28.768  19.071  1.00  0.00    -0.248 N 
ATOM     64  N   UNL     1      16.198  28.161  20.023  1.00  0.00    -0.067 NA
BRANCH  63  65
ATOM     65  C   UNL     1      15.855  28.893  17.650  1.00  0.00     0.181 C 
BRANCH  65  66
ATOM     66  C   UNL     1      17.304  29.306  17.584  1.00  0.00    -0.026 A 
ATOM     67  C   UNL     1      18.181  28.493  16.909  1.00  0.00     0.007 A 
ATOM     68  C   UNL     1      17.723  30.487  18.202  1.00  0.00     0.007 A 
ATOM     69  C   UNL     1      19.521  28.787  16.801  1.00  0.00     0.020 A 
ATOM     70  C   UNL     1      19.059  30.779  18.093  1.00  0.00     0.020 A 
ATOM     71  C   UNL     1      19.922  29.972  17.426  1.00  0.00     0.052 A 
BRANCH  71  72
ATOM     72  C   UNL     1      21.342  30.296  17.343  1.00  0.00     0.099 C 
ATOM     73  N   UNL     1      22.478  30.535  17.270  1.00  0.00    -0.192 NA
ENDBRANCH  71  72
ENDBRANCH  65  66
ENDBRANCH  63  65
ENDBRANCH  59  60
ENDBRANCH  58  59
ENDBRANCH  55  58
ENDBRANCH  53  54
ENDBRANCH  50  53
ENDBRANCH  47  50
ENDBRANCH   5  47
BRANCH   4  74
ATOM     74  N   UNL     1      22.355  31.042  24.231  1.00  0.00    -0.348 N 
ATOM     75  C   UNL     1      23.218  30.900  25.349  1.00  0.00     0.217 C 
ATOM     76  H   UNL     1      21.945  31.968  24.037  1.00  0.00     0.163 HD
ATOM     77  C   UNL     1      23.536  32.036  26.233  1.00  0.00     0.114 C 
ATOM     78  O   UNL     1      23.751  29.774  25.627  1.00  0.00    -0.275 OA
ENDBRANCH   4  74
TORSDOF 32
