REMARK VINA RESULT:    -5.843      2.665      7.886
REMARK INTER + INTRA:         -20.979
REMARK INTER:                 -12.884
REMARK INTRA:                  -8.095
REMARK UNBOUND:                -6.597
REMARK SMILES CC(=O)N[C@@H]1[C@@H](O)C[C@](OC[C@H]2O[C@@H](O[C@H]3[C@H](O)[C@@H](O)[C@H](OCCN=[N+]=[N-])O[C@@H]3CO)[C@H](O)[C@@H](O)[C@H]2O)(C(=O)O)O[C@H]1C(O)[C@H](O)CNC(=O)OCc1cn(-c2ccccc2)nn1
REMARK SMILES IDX 9 1 8 2 6 3 5 4 42 5 41 6 10 7 11 8 12 9 14 10 13 11 32 12
REMARK SMILES IDX 34 13 36 14 15 15 16 16 29 17 28 18 21 19 17 20 19 21 30 22
REMARK SMILES IDX 31 23 22 25 23 26 24 27 25 28 26 29 27 30 18 31 20 33 33 35
REMARK SMILES IDX 35 37 37 39 38 41 39 42 40 43 7 45 43 47 44 48 45 50 46 51
REMARK SMILES IDX 47 53 48 54 49 55 50 57 51 58 52 59 53 60 54 61 63 62 55 63
REMARK SMILES IDX 62 64 56 65 57 66 61 67 58 68 60 69 59 70 4 71 2 72 1 74
REMARK SMILES IDX 3 75
REMARK H PARENT 31 24 18 32 20 34 33 36 35 38 37 40 40 44 7 46 44 49 46 52
REMARK H PARENT 48 56 4 73
REMARK Flexibility Score: inf
ROOT
ATOM      1  C   UNL     1      15.974  29.397  19.877  1.00  0.00     0.272 C 
ATOM      2  C   UNL     1      14.562  29.094  20.216  1.00  0.00     0.113 C 
ATOM      3  C   UNL     1      14.292  28.865  21.656  1.00  0.00     0.145 C 
ATOM      4  C   UNL     1      15.054  29.865  22.506  1.00  0.00     0.142 C 
ATOM      5  C   UNL     1      16.514  29.681  22.159  1.00  0.00     0.178 C 
ATOM      6  O   UNL     1      16.652  30.154  20.880  1.00  0.00    -0.332 OA
ENDROOT
BRANCH   1   7
ATOM      7  O   UNL     1      16.156  30.173  18.771  1.00  0.00    -0.338 OA
BRANCH   7   8
ATOM      8  C   UNL     1      16.505  29.718  17.582  1.00  0.00     0.199 C 
BRANCH   8   9
ATOM      9  C   UNL     1      17.760  30.101  16.899  1.00  0.00     0.179 C 
ATOM     10  C   UNL     1      20.006  30.457  17.420  1.00  0.00     0.282 C 
ATOM     11  O   UNL     1      18.710  30.294  17.953  1.00  0.00    -0.341 OA
ATOM     12  C   UNL     1      20.049  30.579  15.933  1.00  0.00     0.202 C 
ATOM     13  C   UNL     1      19.436  29.367  15.264  1.00  0.00     0.179 C 
ATOM     14  C   UNL     1      18.285  28.898  16.106  1.00  0.00     0.177 C 
BRANCH  10  15
ATOM     15  O   UNL     1      20.742  29.395  17.798  1.00  0.00    -0.341 OA
BRANCH  15  16
ATOM     16  C   UNL     1      21.564  29.431  18.863  1.00  0.00     0.184 C 
ATOM     17  C   UNL     1      23.032  29.591  18.542  1.00  0.00     0.178 C 
ATOM     18  O   UNL     1      23.721  29.055  19.647  1.00  0.00    -0.341 OA
ATOM     19  C   UNL     1      23.755  27.663  19.417  1.00  0.00     0.281 C 
ATOM     20  C   UNL     1      21.408  28.217  19.780  1.00  0.00     0.180 C 
ATOM     21  C   UNL     1      22.346  27.111  19.342  1.00  0.00     0.202 C 
BRANCH  17  22
ATOM     22  C   UNL     1      23.444  31.043  18.432  1.00  0.00     0.191 C 
BRANCH  22  23
ATOM     23  O   UNL     1      23.238  31.461  17.115  1.00  0.00    -0.394 OA
ATOM     24  H   UNL     1      22.355  31.129  16.760  1.00  0.00     0.210 HD
ENDBRANCH  22  23
ENDBRANCH  17  22
BRANCH  19  25
ATOM     25  O   UNL     1      24.437  26.994  20.387  1.00  0.00    -0.350 OA
BRANCH  25  26
ATOM     26  C   UNL     1      25.153  27.733  21.288  1.00  0.00     0.169 C 
BRANCH  26  27
ATOM     27  C   UNL     1      26.472  27.150  21.687  1.00  0.00     0.119 C 
BRANCH  27  28
ATOM     28  N   UNL     1      26.999  26.290  20.693  1.00  0.00    -0.092 NA
ATOM     29  N   UNL     1      27.354  25.125  20.948  1.00  0.00     0.001 N 
ATOM     30  N   UNL     1      27.951  24.151  21.436  1.00  0.00    -0.003 NA
ENDBRANCH  27  28
ENDBRANCH  26  27
ENDBRANCH  25  26
ENDBRANCH  19  25
BRANCH  20  31
ATOM     31  O   UNL     1      21.699  28.498  21.108  1.00  0.00    -0.387 OA
ATOM     32  H   UNL     1      20.893  28.781  21.605  1.00  0.00     0.211 HD
ENDBRANCH  20  31
BRANCH  21  33
ATOM     33  O   UNL     1      22.063  26.647  18.074  1.00  0.00    -0.385 OA
ATOM     34  H   UNL     1      22.864  26.413  17.552  1.00  0.00     0.211 HD
ENDBRANCH  21  33
ENDBRANCH  15  16
ENDBRANCH  10  15
BRANCH  12  35
ATOM     35  O   UNL     1      19.582  31.788  15.433  1.00  0.00    -0.385 OA
ATOM     36  H   UNL     1      19.581  32.438  16.182  1.00  0.00     0.211 HD
ENDBRANCH  12  35
BRANCH  13  37
ATOM     37  O   UNL     1      20.385  28.364  15.210  1.00  0.00    -0.387 OA
ATOM     38  H   UNL     1      20.029  27.457  15.389  1.00  0.00     0.211 HD
ENDBRANCH  13  37
BRANCH  14  39
ATOM     39  O   UNL     1      18.717  27.966  17.078  1.00  0.00    -0.387 OA
ATOM     40  H   UNL     1      18.312  28.148  17.951  1.00  0.00     0.211 HD
ENDBRANCH  14  39
ENDBRANCH   8   9
ENDBRANCH   7   8
ENDBRANCH   1   7
BRANCH   1  41
ATOM     41  C   UNL     1      16.765  28.146  19.855  1.00  0.00     0.364 C 
ATOM     42  O   UNL     1      16.246  27.050  19.642  1.00  0.00    -0.246 OA
BRANCH  41  43
ATOM     43  O   UNL     1      18.156  28.184  20.087  1.00  0.00    -0.477 OA
ATOM     44  H   UNL     1      18.601  29.095  20.187  1.00  0.00     0.296 HD
ENDBRANCH  41  43
ENDBRANCH   1  41
BRANCH   3  45
ATOM     45  O   UNL     1      12.920  28.936  21.893  1.00  0.00    -0.391 OA
ATOM     46  H   UNL     1      12.768  28.612  22.797  1.00  0.00     0.211 HD
ENDBRANCH   3  45
BRANCH   5  47
ATOM     47  C   UNL     1      17.403  30.552  23.041  1.00  0.00     0.176 C 
BRANCH  47  48
ATOM     48  O   UNL     1      17.663  29.857  24.191  1.00  0.00    -0.388 OA
ATOM     49  H   UNL     1      16.864  29.547  24.672  1.00  0.00     0.211 HD
ENDBRANCH  47  48
BRANCH  47  50
ATOM     50  C   UNL     1      18.620  31.079  22.404  1.00  0.00     0.165 C 
BRANCH  50  51
ATOM     51  O   UNL     1      19.502  29.963  22.250  1.00  0.00    -0.388 OA
ATOM     52  H   UNL     1      20.145  30.221  21.565  1.00  0.00     0.211 HD
ENDBRANCH  50  51
BRANCH  50  53
ATOM     53  C   UNL     1      19.402  32.015  23.341  1.00  0.00     0.154 C 
BRANCH  53  54
ATOM     54  N   UNL     1      20.419  31.312  24.081  1.00  0.00    -0.319 N 
ATOM     55  C   UNL     1      20.324  31.126  25.503  1.00  0.00     0.407 C 
ATOM     56  H   UNL     1      21.267  30.901  23.637  1.00  0.00     0.167 HD
ATOM     57  O   UNL     1      19.341  31.564  26.143  1.00  0.00    -0.225 OA
BRANCH  55  58
ATOM     58  O   UNL     1      21.314  30.458  26.201  1.00  0.00    -0.443 OA
BRANCH  58  59
ATOM     59  C   UNL     1      21.116  29.132  26.677  1.00  0.00     0.294 C 
BRANCH  59  60
ATOM     60  C   UNL     1      21.150  28.261  25.465  1.00  0.00     0.121 A 
ATOM     61  C   UNL     1      22.165  27.351  25.208  1.00  0.00     0.144 A 
ATOM     62  N   UNL     1      20.302  28.154  24.439  1.00  0.00    -0.131 NA
ATOM     63  N   UNL     1      21.905  26.718  24.034  1.00  0.00    -0.220 N 
ATOM     64  N   UNL     1      20.775  27.228  23.599  1.00  0.00    -0.062 NA
BRANCH  63  65
ATOM     65  C   UNL     1      22.698  25.720  23.412  1.00  0.00     0.066 A 
ATOM     66  C   UNL     1      23.932  25.364  23.903  1.00  0.00     0.028 A 
ATOM     67  C   UNL     1      22.233  25.073  22.289  1.00  0.00     0.028 A 
ATOM     68  C   UNL     1      24.705  24.389  23.308  1.00  0.00     0.002 A 
ATOM     69  C   UNL     1      23.013  24.094  21.693  1.00  0.00     0.002 A 
ATOM     70  C   UNL     1      24.248  23.726  22.169  1.00  0.00     0.000 A 
ENDBRANCH  63  65
ENDBRANCH  59  60
ENDBRANCH  58  59
ENDBRANCH  55  58
ENDBRANCH  53  54
ENDBRANCH  50  53
ENDBRANCH  47  50
ENDBRANCH   5  47
BRANCH   4  71
ATOM     71  N   UNL     1      14.714  29.767  23.881  1.00  0.00    -0.348 N 
ATOM     72  C   UNL     1      13.774  30.680  24.427  1.00  0.00     0.217 C 
ATOM     73  H   UNL     1      15.114  29.043  24.504  1.00  0.00     0.163 HD
ATOM     74  C   UNL     1      13.397  30.600  25.871  1.00  0.00     0.114 C 
ATOM     75  O   UNL     1      13.223  31.587  23.732  1.00  0.00    -0.275 OA
ENDBRANCH   4  71
TORSDOF 30
