REMARK VINA RESULT:    -5.927      6.821     11.406
REMARK INTER + INTRA:         -20.555
REMARK INTER:                 -13.461
REMARK INTRA:                  -7.093
REMARK UNBOUND:                -5.964
REMARK SMILES CC(=O)N[C@@H]1[C@@H](O)C[C@](OC[C@H]2O[C@@H](O[C@H]3[C@H](O)[C@@H](O)[C@H](OCCN=[N+]=[N-])O[C@@H]3CO)[C@H](O)[C@@H](O)[C@H]2O)(C(=O)O)O[C@H]1C(O)[C@H](O)CNC(=O)OCc1cn(C2CCN(C)CC2)nn1
REMARK SMILES IDX 9 1 8 2 6 3 5 4 42 5 41 6 10 7 11 8 12 9 14 10 13 11 32 12
REMARK SMILES IDX 34 13 36 14 15 15 16 16 29 17 28 18 21 19 17 20 19 21 30 22
REMARK SMILES IDX 31 23 22 25 23 26 24 27 25 28 26 29 27 30 18 31 20 33 33 35
REMARK SMILES IDX 35 37 37 39 38 41 39 42 40 43 7 45 43 47 44 48 45 50 46 51
REMARK SMILES IDX 47 53 48 54 49 55 50 57 51 58 52 59 53 60 54 61 64 62 55 63
REMARK SMILES IDX 63 64 56 65 57 66 62 67 58 68 61 69 59 70 60 71 4 72 2 73
REMARK SMILES IDX 1 75 3 76
REMARK H PARENT 31 24 18 32 20 34 33 36 35 38 37 40 40 44 7 46 44 49 46 52
REMARK H PARENT 48 56 4 74
REMARK Flexibility Score: inf
ROOT
ATOM      1  C   UNL     1      21.558  28.687  23.814  1.00  0.00     0.272 C 
ATOM      2  C   UNL     1      20.341  29.239  24.534  1.00  0.00     0.113 C 
ATOM      3  C   UNL     1      19.702  30.418  23.928  1.00  0.00     0.145 C 
ATOM      4  C   UNL     1      19.646  30.405  22.417  1.00  0.00     0.142 C 
ATOM      5  C   UNL     1      20.647  29.509  21.797  1.00  0.00     0.178 C 
ATOM      6  O   UNL     1      21.138  28.471  22.462  1.00  0.00    -0.332 OA
ENDROOT
BRANCH   1   7
ATOM      7  O   UNL     1      21.776  27.437  24.250  1.00  0.00    -0.338 OA
BRANCH   7   8
ATOM      8  C   UNL     1      21.127  26.329  24.129  1.00  0.00     0.199 C 
BRANCH   8   9
ATOM      9  C   UNL     1      21.771  24.986  23.968  1.00  0.00     0.179 C 
ATOM     10  C   UNL     1      23.609  25.229  22.463  1.00  0.00     0.282 C 
ATOM     11  O   UNL     1      22.306  24.958  22.710  1.00  0.00    -0.341 OA
ATOM     12  C   UNL     1      24.390  25.621  23.642  1.00  0.00     0.202 C 
ATOM     13  C   UNL     1      24.148  24.518  24.687  1.00  0.00     0.179 C 
ATOM     14  C   UNL     1      22.715  24.625  25.065  1.00  0.00     0.177 C 
BRANCH  10  15
ATOM     15  O   UNL     1      23.579  26.097  21.380  1.00  0.00    -0.341 OA
BRANCH  15  16
ATOM     16  C   UNL     1      23.944  25.619  20.189  1.00  0.00     0.184 C 
ATOM     17  C   UNL     1      24.606  26.665  19.361  1.00  0.00     0.178 C 
ATOM     18  O   UNL     1      25.328  26.034  18.341  1.00  0.00    -0.341 OA
ATOM     19  C   UNL     1      24.462  25.434  17.458  1.00  0.00     0.281 C 
ATOM     20  C   UNL     1      22.768  25.151  19.317  1.00  0.00     0.180 C 
ATOM     21  C   UNL     1      23.430  24.537  18.087  1.00  0.00     0.202 C 
BRANCH  17  22
ATOM     22  C   UNL     1      25.429  27.651  20.116  1.00  0.00     0.191 C 
BRANCH  22  23
ATOM     23  O   UNL     1      26.331  26.962  20.916  1.00  0.00    -0.394 OA
ATOM     24  H   UNL     1      27.127  27.510  21.135  1.00  0.00     0.210 HD
ENDBRANCH  22  23
ENDBRANCH  17  22
BRANCH  19  25
ATOM     25  O   UNL     1      25.242  24.606  16.638  1.00  0.00    -0.350 OA
BRANCH  25  26
ATOM     26  C   UNL     1      25.302  25.008  15.329  1.00  0.00     0.169 C 
BRANCH  26  27
ATOM     27  C   UNL     1      25.034  23.894  14.338  1.00  0.00     0.119 C 
BRANCH  27  28
ATOM     28  N   UNL     1      23.963  23.032  14.801  1.00  0.00    -0.092 NA
ATOM     29  N   UNL     1      24.102  21.811  14.836  1.00  0.00     0.001 N 
ATOM     30  N   UNL     1      23.928  20.637  14.501  1.00  0.00    -0.003 NA
ENDBRANCH  27  28
ENDBRANCH  26  27
ENDBRANCH  25  26
ENDBRANCH  19  25
BRANCH  20  31
ATOM     31  O   UNL     1      22.026  24.158  19.899  1.00  0.00    -0.387 OA
ATOM     32  H   UNL     1      22.621  23.423  20.161  1.00  0.00     0.211 HD
ENDBRANCH  20  31
BRANCH  21  33
ATOM     33  O   UNL     1      22.464  24.204  17.170  1.00  0.00    -0.385 OA
ATOM     34  H   UNL     1      22.741  24.351  16.252  1.00  0.00     0.211 HD
ENDBRANCH  21  33
ENDBRANCH  15  16
ENDBRANCH  10  15
BRANCH  12  35
ATOM     35  O   UNL     1      25.772  25.597  23.470  1.00  0.00    -0.385 OA
ATOM     36  H   UNL     1      26.080  26.442  23.058  1.00  0.00     0.211 HD
ENDBRANCH  12  35
BRANCH  13  37
ATOM     37  O   UNL     1      24.995  24.616  25.762  1.00  0.00    -0.387 OA
ATOM     38  H   UNL     1      24.453  24.508  26.584  1.00  0.00     0.211 HD
ENDBRANCH  13  37
BRANCH  14  39
ATOM     39  O   UNL     1      22.599  25.564  26.087  1.00  0.00    -0.387 OA
ATOM     40  H   UNL     1      21.785  26.113  26.018  1.00  0.00     0.211 HD
ENDBRANCH  14  39
ENDBRANCH   8   9
ENDBRANCH   7   8
ENDBRANCH   1   7
BRANCH   1  41
ATOM     41  C   UNL     1      22.607  29.695  23.814  1.00  0.00     0.364 C 
ATOM     42  O   UNL     1      22.769  30.372  24.910  1.00  0.00    -0.246 OA
BRANCH  41  43
ATOM     43  O   UNL     1      23.484  30.077  22.833  1.00  0.00    -0.477 OA
ATOM     44  H   UNL     1      23.701  31.046  22.601  1.00  0.00     0.296 HD
ENDBRANCH  41  43
ENDBRANCH   1  41
BRANCH   3  45
ATOM     45  O   UNL     1      18.369  30.523  24.428  1.00  0.00    -0.391 OA
ATOM     46  H   UNL     1      18.367  30.615  25.404  1.00  0.00     0.211 HD
ENDBRANCH   3  45
BRANCH   5  47
ATOM     47  C   UNL     1      20.133  28.970  20.433  1.00  0.00     0.176 C 
BRANCH  47  48
ATOM     48  O   UNL     1      19.210  27.960  20.664  1.00  0.00    -0.388 OA
ATOM     49  H   UNL     1      19.594  27.187  21.128  1.00  0.00     0.211 HD
ENDBRANCH  47  48
BRANCH  47  50
ATOM     50  C   UNL     1      21.244  28.517  19.603  1.00  0.00     0.165 C 
BRANCH  50  51
ATOM     51  O   UNL     1      22.350  29.408  19.895  1.00  0.00    -0.388 OA
ATOM     52  H   UNL     1      23.144  28.867  20.118  1.00  0.00     0.211 HD
ENDBRANCH  50  51
BRANCH  50  53
ATOM     53  C   UNL     1      21.121  28.451  18.142  1.00  0.00     0.154 C 
BRANCH  53  54
ATOM     54  N   UNL     1      19.909  28.209  17.481  1.00  0.00    -0.319 N 
ATOM     55  C   UNL     1      18.997  29.169  16.978  1.00  0.00     0.407 C 
ATOM     56  H   UNL     1      19.628  27.180  17.335  1.00  0.00     0.167 HD
ATOM     57  O   UNL     1      19.231  30.391  17.053  1.00  0.00    -0.225 OA
BRANCH  55  58
ATOM     58  O   UNL     1      17.801  28.710  16.382  1.00  0.00    -0.443 OA
BRANCH  58  59
ATOM     59  C   UNL     1      16.576  29.219  16.844  1.00  0.00     0.294 C 
BRANCH  59  60
ATOM     60  C   UNL     1      16.329  28.694  18.208  1.00  0.00     0.120 A 
ATOM     61  C   UNL     1      15.382  29.190  19.121  1.00  0.00     0.138 A 
ATOM     62  N   UNL     1      16.902  27.676  18.866  1.00  0.00    -0.132 NA
ATOM     63  N   UNL     1      15.424  28.469  20.255  1.00  0.00    -0.249 N 
ATOM     64  N   UNL     1      16.349  27.564  20.074  1.00  0.00    -0.067 NA
BRANCH  63  65
ATOM     65  C   UNL     1      14.606  28.668  21.428  1.00  0.00     0.111 C 
ATOM     66  C   UNL     1      15.428  29.419  22.436  1.00  0.00     0.043 C 
ATOM     67  C   UNL     1      13.356  29.447  21.126  1.00  0.00     0.043 C 
ATOM     68  C   UNL     1      14.993  30.866  22.455  1.00  0.00     0.086 C 
ATOM     69  C   UNL     1      12.735  30.067  22.349  1.00  0.00     0.086 C 
ATOM     70  N   UNL     1      13.663  30.920  23.062  1.00  0.00    -0.306 NA
ATOM     71  C   UNL     1      13.786  30.450  24.430  1.00  0.00     0.105 C 
ENDBRANCH  63  65
ENDBRANCH  59  60
ENDBRANCH  58  59
ENDBRANCH  55  58
ENDBRANCH  53  54
ENDBRANCH  50  53
ENDBRANCH  47  50
ENDBRANCH   5  47
BRANCH   4  72
ATOM     72  N   UNL     1      19.720  31.745  21.868  1.00  0.00    -0.348 N 
ATOM     73  C   UNL     1      18.732  32.174  20.954  1.00  0.00     0.217 C 
ATOM     74  H   UNL     1      20.487  32.413  22.126  1.00  0.00     0.163 HD
ATOM     75  C   UNL     1      18.765  33.547  20.356  1.00  0.00     0.114 C 
ATOM     76  O   UNL     1      17.788  31.386  20.624  1.00  0.00    -0.275 OA
ENDBRANCH   4  72
TORSDOF 30
