REMARK VINA RESULT:    -5.617      3.396      7.373
REMARK INTER + INTRA:         -21.572
REMARK INTER:                 -13.320
REMARK INTRA:                  -8.252
REMARK UNBOUND:                -6.761
REMARK SMILES CC(=O)N[C@@H]1[C@@H](O)C[C@](OC[C@H]2O[C@@H](O[C@H]3[C@H](O)[C@@H](O)[C@H](OCCN=[N+]=[N-])O[C@@H]3CO)[C@H](O)[C@@H](O)[C@H]2O)(C(=O)O)O[C@H]1C(O)[C@H](O)CNC(=O)OCc1cn(CCNS(C)(=O)=O)nn1
REMARK SMILES IDX 43 1 42 2 9 3 8 4 41 5 6 6 5 7 10 8 11 9 12 10 14 11 13 12
REMARK SMILES IDX 32 13 34 14 36 15 15 16 16 17 29 18 28 19 21 20 17 21 19 22
REMARK SMILES IDX 30 23 31 24 22 26 23 27 24 28 25 29 26 30 27 31 18 32 20 34
REMARK SMILES IDX 33 36 35 38 37 40 38 42 39 43 40 44 7 46 4 48 2 49 1 51 3 52
REMARK SMILES IDX 44 53 45 55 46 56 47 58 48 59 49 60 50 62 51 63 52 64 53 65
REMARK SMILES IDX 54 66 64 67 55 68 63 69 56 70 57 71 58 72 59 74 61 75 62 76
REMARK SMILES IDX 60 77
REMARK H PARENT 31 25 18 33 20 35 33 37 35 39 37 41 40 45 7 47 4 50 44 54
REMARK H PARENT 46 57 48 61 58 73
REMARK Flexibility Score: inf
ROOT
ATOM      1  C   UNL     1      17.668  31.178  22.753  1.00  0.00     0.176 C 
ENDROOT
BRANCH   1   2
ATOM      2  C   UNL     1      19.074  31.086  23.376  1.00  0.00     0.178 C 
ATOM      3  C   UNL     1      20.369  29.457  24.449  1.00  0.00     0.272 C 
ATOM      4  C   UNL     1      20.450  30.181  25.733  1.00  0.00     0.113 C 
ATOM      5  O   UNL     1      19.227  29.789  23.730  1.00  0.00    -0.332 OA
ATOM      6  C   UNL     1      19.680  31.470  25.801  1.00  0.00     0.145 C 
ATOM      7  C   UNL     1      19.191  32.029  24.509  1.00  0.00     0.142 C 
BRANCH   3   8
ATOM      8  O   UNL     1      20.323  28.062  24.531  1.00  0.00    -0.338 OA
BRANCH   8   9
ATOM      9  C   UNL     1      20.526  27.596  25.819  1.00  0.00     0.199 C 
BRANCH   9  10
ATOM     10  C   UNL     1      21.486  26.458  25.812  1.00  0.00     0.179 C 
ATOM     11  C   UNL     1      23.233  25.439  24.703  1.00  0.00     0.282 C 
ATOM     12  O   UNL     1      22.474  26.611  24.855  1.00  0.00    -0.341 OA
ATOM     13  C   UNL     1      23.969  25.094  25.950  1.00  0.00     0.202 C 
ATOM     14  C   UNL     1      22.935  24.832  27.024  1.00  0.00     0.179 C 
ATOM     15  C   UNL     1      22.002  25.990  27.131  1.00  0.00     0.177 C 
BRANCH  11  16
ATOM     16  O   UNL     1      24.072  25.644  23.648  1.00  0.00    -0.341 OA
BRANCH  16  17
ATOM     17  C   UNL     1      23.495  25.777  22.432  1.00  0.00     0.184 C 
ATOM     18  C   UNL     1      22.703  24.675  21.850  1.00  0.00     0.178 C 
ATOM     19  O   UNL     1      22.721  24.806  20.461  1.00  0.00    -0.341 OA
ATOM     20  C   UNL     1      23.913  24.423  19.917  1.00  0.00     0.281 C 
ATOM     21  C   UNL     1      24.528  26.246  21.371  1.00  0.00     0.180 C 
ATOM     22  C   UNL     1      25.044  24.952  20.776  1.00  0.00     0.202 C 
BRANCH  18  23
ATOM     23  C   UNL     1      21.231  24.818  22.224  1.00  0.00     0.191 C 
BRANCH  23  24
ATOM     24  O   UNL     1      20.855  26.180  22.157  1.00  0.00    -0.394 OA
ATOM     25  H   UNL     1      21.637  26.774  22.163  1.00  0.00     0.210 HD
ENDBRANCH  23  24
ENDBRANCH  18  23
BRANCH  20  26
ATOM     26  O   UNL     1      24.040  24.859  18.590  1.00  0.00    -0.350 OA
BRANCH  26  27
ATOM     27  C   UNL     1      22.927  24.653  17.816  1.00  0.00     0.169 C 
BRANCH  27  28
ATOM     28  C   UNL     1      23.108  25.379  16.521  1.00  0.00     0.119 C 
BRANCH  28  29
ATOM     29  N   UNL     1      21.836  25.786  15.937  1.00  0.00    -0.092 NA
ATOM     30  N   UNL     1      21.787  26.973  15.568  1.00  0.00     0.001 N 
ATOM     31  N   UNL     1      21.421  28.076  15.179  1.00  0.00    -0.003 NA
ENDBRANCH  28  29
ENDBRANCH  27  28
ENDBRANCH  26  27
ENDBRANCH  20  26
BRANCH  21  32
ATOM     32  O   UNL     1      23.873  26.948  20.355  1.00  0.00    -0.387 OA
ATOM     33  H   UNL     1      22.955  26.581  20.252  1.00  0.00     0.211 HD
ENDBRANCH  21  32
BRANCH  22  34
ATOM     34  O   UNL     1      25.477  24.038  21.710  1.00  0.00    -0.385 OA
ATOM     35  H   UNL     1      25.013  24.099  22.583  1.00  0.00     0.211 HD
ENDBRANCH  22  34
ENDBRANCH  16  17
ENDBRANCH  11  16
BRANCH  13  36
ATOM     36  O   UNL     1      24.663  23.883  25.808  1.00  0.00    -0.385 OA
ATOM     37  H   UNL     1      24.173  23.124  26.215  1.00  0.00     0.211 HD
ENDBRANCH  13  36
BRANCH  14  38
ATOM     38  O   UNL     1      23.501  24.434  28.210  1.00  0.00    -0.387 OA
ATOM     39  H   UNL     1      23.613  25.200  28.855  1.00  0.00     0.211 HD
ENDBRANCH  14  38
BRANCH  15  40
ATOM     40  O   UNL     1      22.672  27.046  27.742  1.00  0.00    -0.387 OA
ATOM     41  H   UNL     1      22.816  26.905  28.713  1.00  0.00     0.211 HD
ENDBRANCH  15  40
ENDBRANCH   9  10
ENDBRANCH   8   9
ENDBRANCH   3   8
BRANCH   3  42
ATOM     42  C   UNL     1      21.556  29.732  23.604  1.00  0.00     0.364 C 
ATOM     43  O   UNL     1      21.899  28.956  22.651  1.00  0.00    -0.246 OA
BRANCH  42  44
ATOM     44  O   UNL     1      22.385  30.824  23.761  1.00  0.00    -0.477 OA
ATOM     45  H   UNL     1      22.185  31.740  23.369  1.00  0.00     0.296 HD
ENDBRANCH  42  44
ENDBRANCH   3  42
BRANCH   6  46
ATOM     46  O   UNL     1      18.626  31.378  26.698  1.00  0.00    -0.391 OA
ATOM     47  H   UNL     1      17.734  31.508  26.320  1.00  0.00     0.211 HD
ENDBRANCH   6  46
BRANCH   7  48
ATOM     48  N   UNL     1      20.082  33.141  24.136  1.00  0.00    -0.348 N 
ATOM     49  C   UNL     1      19.870  34.495  24.410  1.00  0.00     0.217 C 
ATOM     50  H   UNL     1      21.007  32.906  23.631  1.00  0.00     0.163 HD
ATOM     51  C   UNL     1      20.852  35.546  23.962  1.00  0.00     0.114 C 
ATOM     52  O   UNL     1      18.853  34.898  25.037  1.00  0.00    -0.275 OA
ENDBRANCH   7  48
ENDBRANCH   1   2
BRANCH   1  53
ATOM     53  O   UNL     1      17.798  31.631  21.428  1.00  0.00    -0.388 OA
ATOM     54  H   UNL     1      17.226  32.413  21.336  1.00  0.00     0.211 HD
ENDBRANCH   1  53
BRANCH   1  55
ATOM     55  C   UNL     1      17.028  29.840  22.731  1.00  0.00     0.165 C 
BRANCH  55  56
ATOM     56  O   UNL     1      17.109  29.151  21.545  1.00  0.00    -0.388 OA
ATOM     57  H   UNL     1      17.920  29.368  21.015  1.00  0.00     0.211 HD
ENDBRANCH  55  56
BRANCH  55  58
ATOM     58  C   UNL     1      15.649  29.770  23.311  1.00  0.00     0.154 C 
BRANCH  58  59
ATOM     59  N   UNL     1      14.677  30.437  22.486  1.00  0.00    -0.319 N 
ATOM     60  C   UNL     1      13.886  29.621  21.591  1.00  0.00     0.407 C 
ATOM     61  H   UNL     1      14.508  31.456  22.490  1.00  0.00     0.167 HD
ATOM     62  O   UNL     1      14.097  28.382  21.623  1.00  0.00    -0.225 OA
BRANCH  60  63
ATOM     63  O   UNL     1      12.960  30.188  20.755  1.00  0.00    -0.443 OA
BRANCH  63  64
ATOM     64  C   UNL     1      13.368  31.052  19.721  1.00  0.00     0.294 C 
BRANCH  64  65
ATOM     65  C   UNL     1      14.660  30.625  19.154  1.00  0.00     0.120 A 
ATOM     66  C   UNL     1      14.872  29.706  18.139  1.00  0.00     0.138 A 
ATOM     67  N   UNL     1      15.866  31.066  19.485  1.00  0.00    -0.132 NA
ATOM     68  N   UNL     1      16.178  29.616  17.883  1.00  0.00    -0.251 N 
ATOM     69  N   UNL     1      16.784  30.459  18.721  1.00  0.00    -0.067 NA
BRANCH  68  70
ATOM     70  C   UNL     1      16.811  28.759  16.894  1.00  0.00     0.162 C 
BRANCH  70  71
ATOM     71  C   UNL     1      18.323  28.755  17.110  1.00  0.00     0.122 C 
BRANCH  71  72
ATOM     72  N   UNL     1      18.670  27.989  18.273  1.00  0.00    -0.214 NA
ATOM     73  H   UNL     1      18.928  27.011  17.973  1.00  0.00     0.141 HD
BRANCH  72  74
ATOM     74  S   UNL     1      20.027  28.626  19.116  1.00  0.00     0.208 S 
ATOM     75  O   UNL     1      19.579  29.241  20.432  1.00  0.00    -0.213 OA
ATOM     76  O   UNL     1      20.928  27.445  19.423  1.00  0.00    -0.213 OA
ATOM     77  C   UNL     1      20.890  29.811  18.131  1.00  0.00     0.176 C 
ENDBRANCH  72  74
ENDBRANCH  71  72
ENDBRANCH  70  71
ENDBRANCH  68  70
ENDBRANCH  64  65
ENDBRANCH  63  64
ENDBRANCH  60  63
ENDBRANCH  58  59
ENDBRANCH  55  58
ENDBRANCH   1  55
TORSDOF 33
