REMARK VINA RESULT:    -4.841      8.080     15.007
REMARK INTER + INTRA:         -21.664
REMARK INTER:                 -14.881
REMARK INTRA:                  -6.783
REMARK UNBOUND:                -8.334
REMARK SMILES CC[N+](C)(CC)CCCn1cc(COC(=O)NC[C@@H](O)C(O)[C@@H]2O[C@@](OC[C@H]3O[C@@H](O[C@H]4[C@H](O)[C@@H](O)[C@H](OCCN=[N+]=[N-])O[C@@H]4CO)[C@H](O)[C@@H](O)[C@H]3O)(C(=O)O)C[C@H](O)[C@H]2NC(C)=O)nn1
REMARK SMILES IDX 21 1 23 2 25 3 57 4 24 5 58 6 60 7 26 8 27 9 28 10 30 11
REMARK SMILES IDX 29 12 48 13 50 14 52 15 31 16 32 17 45 18 44 19 37 20 33 21
REMARK SMILES IDX 35 22 46 23 47 24 38 26 39 27 40 28 41 29 42 30 43 31 34 32
REMARK SMILES IDX 36 34 49 36 51 38 53 40 54 42 55 43 56 44 59 46 61 48 62 49
REMARK SMILES IDX 63 51 64 52 22 53 19 55 20 56 18 58 17 59 15 60 16 62 14 63
REMARK SMILES IDX 13 64 12 65 11 66 65 67 10 68 66 69 9 70 8 71 7 72 3 73 4 74
REMARK SMILES IDX 2 75 1 76 5 77 6 78
REMARK H PARENT 47 25 34 33 36 35 49 37 51 39 53 41 56 45 59 47 61 50 22 54
REMARK H PARENT 20 57 17 61
REMARK Flexibility Score: inf
ROOT
ATOM      1  C   UNL     1      29.031  19.398  21.735  1.00  0.00     0.176 C 
ENDROOT
BRANCH   1   2
ATOM      2  C   UNL     1      30.032  20.516  22.009  1.00  0.00     0.178 C 
ATOM      3  C   UNL     1      32.313  20.794  22.546  1.00  0.00     0.272 C 
ATOM      4  C   UNL     1      31.823  21.995  23.284  1.00  0.00     0.113 C 
ATOM      5  O   UNL     1      31.193  19.921  22.451  1.00  0.00    -0.332 OA
ATOM      6  C   UNL     1      30.542  21.733  24.033  1.00  0.00     0.145 C 
ATOM      7  C   UNL     1      29.446  21.464  23.005  1.00  0.00     0.142 C 
BRANCH   3   8
ATOM      8  O   UNL     1      33.232  20.040  23.244  1.00  0.00    -0.338 OA
BRANCH   8   9
ATOM      9  C   UNL     1      33.372  18.729  22.986  1.00  0.00     0.199 C 
BRANCH   9  10
ATOM     10  C   UNL     1      34.622  18.151  23.702  1.00  0.00     0.179 C 
ATOM     11  C   UNL     1      33.755  17.604  25.826  1.00  0.00     0.282 C 
ATOM     12  O   UNL     1      34.614  18.348  25.027  1.00  0.00    -0.341 OA
ATOM     13  C   UNL     1      33.497  16.235  25.322  1.00  0.00     0.202 C 
ATOM     14  C   UNL     1      34.786  15.837  24.571  1.00  0.00     0.179 C 
ATOM     15  C   UNL     1      34.759  16.679  23.314  1.00  0.00     0.177 C 
BRANCH  11  16
ATOM     16  O   UNL     1      32.626  18.361  26.167  1.00  0.00    -0.341 OA
BRANCH  16  17
ATOM     17  C   UNL     1      32.754  18.988  27.372  1.00  0.00     0.184 C 
ATOM     18  C   UNL     1      31.832  18.676  28.469  1.00  0.00     0.178 C 
ATOM     19  O   UNL     1      32.322  19.206  29.649  1.00  0.00    -0.341 OA
ATOM     20  C   UNL     1      33.224  20.206  29.606  1.00  0.00     0.281 C 
ATOM     21  C   UNL     1      32.672  20.521  27.191  1.00  0.00     0.180 C 
ATOM     22  C   UNL     1      33.124  21.186  28.464  1.00  0.00     0.202 C 
BRANCH  18  23
ATOM     23  C   UNL     1      31.545  17.207  28.713  1.00  0.00     0.191 C 
BRANCH  23  24
ATOM     24  O   UNL     1      31.574  16.855  30.056  1.00  0.00    -0.394 OA
ATOM     25  H   UNL     1      31.327  15.875  30.091  1.00  0.00     0.210 HD
ENDBRANCH  23  24
ENDBRANCH  18  23
BRANCH  20  26
ATOM     26  O   UNL     1      34.511  19.732  29.785  1.00  0.00    -0.350 OA
BRANCH  26  27
ATOM     27  C   UNL     1      34.769  19.138  30.977  1.00  0.00     0.169 C 
BRANCH  27  28
ATOM     28  C   UNL     1      35.656  17.916  30.873  1.00  0.00     0.119 C 
BRANCH  28  29
ATOM     29  N   UNL     1      34.914  16.832  30.251  1.00  0.00    -0.092 NA
ATOM     30  N   UNL     1      35.274  16.284  29.212  1.00  0.00     0.001 N 
ATOM     31  N   UNL     1      35.629  15.705  28.183  1.00  0.00    -0.003 NA
ENDBRANCH  28  29
ENDBRANCH  27  28
ENDBRANCH  26  27
ENDBRANCH  20  26
BRANCH  21  32
ATOM     32  O   UNL     1      33.409  20.828  26.071  1.00  0.00    -0.387 OA
ATOM     33  H   UNL     1      33.545  20.102  25.443  1.00  0.00     0.211 HD
ENDBRANCH  21  32
BRANCH  22  34
ATOM     34  O   UNL     1      32.280  22.251  28.736  1.00  0.00    -0.385 OA
ATOM     35  H   UNL     1      32.013  22.769  27.932  1.00  0.00     0.211 HD
ENDBRANCH  22  34
ENDBRANCH  16  17
ENDBRANCH  11  16
BRANCH  13  36
ATOM     36  O   UNL     1      33.342  15.278  26.338  1.00  0.00    -0.385 OA
ATOM     37  H   UNL     1      33.979  14.555  26.151  1.00  0.00     0.211 HD
ENDBRANCH  13  36
BRANCH  14  38
ATOM     38  O   UNL     1      34.737  14.480  24.252  1.00  0.00    -0.387 OA
ATOM     39  H   UNL     1      35.336  14.346  23.489  1.00  0.00     0.211 HD
ENDBRANCH  14  38
BRANCH  15  40
ATOM     40  O   UNL     1      33.590  16.327  22.643  1.00  0.00    -0.387 OA
ATOM     41  H   UNL     1      33.639  16.355  21.676  1.00  0.00     0.211 HD
ENDBRANCH  15  40
ENDBRANCH   9  10
ENDBRANCH   8   9
ENDBRANCH   3   8
BRANCH   3  42
ATOM     42  C   UNL     1      32.824  21.070  21.192  1.00  0.00     0.364 C 
ATOM     43  O   UNL     1      32.637  20.278  20.242  1.00  0.00    -0.246 OA
BRANCH  42  44
ATOM     44  O   UNL     1      33.532  22.216  20.924  1.00  0.00    -0.477 OA
ATOM     45  H   UNL     1      34.509  22.345  21.186  1.00  0.00     0.296 HD
ENDBRANCH  42  44
ENDBRANCH   3  42
BRANCH   6  46
ATOM     46  O   UNL     1      30.622  20.671  24.903  1.00  0.00    -0.391 OA
ATOM     47  H   UNL     1      29.843  20.043  24.802  1.00  0.00     0.211 HD
ENDBRANCH   6  46
BRANCH   7  48
ATOM     48  N   UNL     1      29.231  22.765  22.347  1.00  0.00    -0.348 N 
ATOM     49  C   UNL     1      28.004  23.071  21.695  1.00  0.00     0.217 C 
ATOM     50  H   UNL     1      29.950  23.515  22.317  1.00  0.00     0.163 HD
ATOM     51  C   UNL     1      27.741  24.368  21.022  1.00  0.00     0.114 C 
ATOM     52  O   UNL     1      27.107  22.209  21.693  1.00  0.00    -0.275 OA
ENDBRANCH   7  48
ENDBRANCH   1   2
BRANCH   1  53
ATOM     53  O   UNL     1      29.434  18.241  22.486  1.00  0.00    -0.388 OA
ATOM     54  H   UNL     1      30.405  18.352  22.662  1.00  0.00     0.211 HD
ENDBRANCH   1  53
BRANCH   1  55
ATOM     55  C   UNL     1      29.059  18.993  20.297  1.00  0.00     0.165 C 
BRANCH  55  56
ATOM     56  O   UNL     1      30.224  18.121  20.231  1.00  0.00    -0.388 OA
ATOM     57  H   UNL     1      30.082  17.400  20.919  1.00  0.00     0.211 HD
ENDBRANCH  55  56
BRANCH  55  58
ATOM     58  C   UNL     1      29.248  20.057  19.281  1.00  0.00     0.154 C 
BRANCH  58  59
ATOM     59  N   UNL     1      28.226  20.919  18.890  1.00  0.00    -0.319 N 
ATOM     60  C   UNL     1      28.279  21.984  17.961  1.00  0.00     0.407 C 
ATOM     61  H   UNL     1      27.240  20.767  19.357  1.00  0.00     0.167 HD
ATOM     62  O   UNL     1      29.303  22.305  17.338  1.00  0.00    -0.225 OA
BRANCH  60  63
ATOM     63  O   UNL     1      27.119  22.757  17.710  1.00  0.00    -0.443 OA
BRANCH  63  64
ATOM     64  C   UNL     1      27.327  24.127  17.319  1.00  0.00     0.294 C 
BRANCH  64  65
ATOM     65  C   UNL     1      26.118  24.828  17.891  1.00  0.00     0.120 A 
ATOM     66  C   UNL     1      24.899  24.263  18.181  1.00  0.00     0.138 A 
ATOM     67  N   UNL     1      26.000  26.104  18.274  1.00  0.00    -0.132 NA
ATOM     68  N   UNL     1      24.086  25.220  18.734  1.00  0.00    -0.252 N 
ATOM     69  N   UNL     1      24.801  26.330  18.769  1.00  0.00    -0.067 NA
BRANCH  68  70
ATOM     70  C   UNL     1      22.734  25.007  19.217  1.00  0.00     0.152 C 
BRANCH  70  71
ATOM     71  C   UNL     1      22.596  25.264  20.656  1.00  0.00     0.085 C 
BRANCH  71  72
ATOM     72  C   UNL     1      23.348  24.464  21.637  1.00  0.00     0.265 C 
BRANCH  72  73
ATOM     73  N   UNL     1      23.486  24.955  22.967  1.00  0.00    -0.326 N 
ATOM     74  C   UNL     1      24.575  24.291  23.632  1.00  0.00     0.334 C 
BRANCH  73  75
ATOM     75  C   UNL     1      22.296  24.926  23.769  1.00  0.00     0.260 C 
ATOM     76  C   UNL     1      22.572  24.649  25.228  1.00  0.00     0.071 C 
ENDBRANCH  73  75
BRANCH  73  77
ATOM     77  C   UNL     1      23.911  26.358  22.838  1.00  0.00     0.260 C 
ATOM     78  C   UNL     1      25.379  26.562  22.970  1.00  0.00     0.071 C 
ENDBRANCH  73  77
ENDBRANCH  72  73
ENDBRANCH  71  72
ENDBRANCH  70  71
ENDBRANCH  68  70
ENDBRANCH  64  65
ENDBRANCH  63  64
ENDBRANCH  60  63
ENDBRANCH  58  59
ENDBRANCH  55  58
ENDBRANCH   1  55
TORSDOF 35
