REMARK VINA RESULT:    -5.650     12.194     18.832
REMARK INTER + INTRA:         -21.433
REMARK INTER:                 -14.874
REMARK INTRA:                  -6.559
REMARK UNBOUND:                -6.864
REMARK SMILES CC(=O)N[C@@H]1[C@@H](O)C[C@](OC[C@H]2O[C@@H](O[C@H]3[C@H](O)[C@@H](O)[C@H](OCCN=[N+]=[N-])O[C@@H]3CO)[C@H](O)[C@@H](O)[C@H]2O)(C(=O)O)O[C@H]1C(O)[C@H](O)CNC(=O)OCc1cn(CCC2OCCO2)nn1
REMARK SMILES IDX 9 1 8 2 6 3 5 4 42 5 41 6 10 7 11 8 12 9 14 10 13 11 32 12
REMARK SMILES IDX 34 13 36 14 15 15 16 16 29 17 28 18 21 19 17 20 19 21 30 22
REMARK SMILES IDX 31 23 22 25 23 26 24 27 25 28 26 29 27 30 18 31 20 33 33 35
REMARK SMILES IDX 35 37 37 39 38 41 39 42 40 43 7 45 43 47 44 48 45 50 46 51
REMARK SMILES IDX 47 53 48 54 49 55 50 57 51 58 52 59 53 60 54 61 64 62 55 63
REMARK SMILES IDX 63 64 56 65 57 66 58 67 59 68 62 69 60 70 61 71 4 72 2 73
REMARK SMILES IDX 1 75 3 76
REMARK H PARENT 31 24 18 32 20 34 33 36 35 38 37 40 40 44 7 46 44 49 46 52
REMARK H PARENT 48 56 4 74
REMARK Flexibility Score: inf
ROOT
ATOM      1  C   UNL     1       5.566  24.255  33.756  1.00  0.00     0.272 C 
ATOM      2  C   UNL     1       4.468  24.213  34.880  1.00  0.00     0.113 C 
ATOM      3  C   UNL     1       3.163  24.652  34.367  1.00  0.00     0.145 C 
ATOM      4  C   UNL     1       2.742  23.764  33.213  1.00  0.00     0.142 C 
ATOM      5  C   UNL     1       3.902  23.087  32.566  1.00  0.00     0.178 C 
ATOM      6  O   UNL     1       5.090  23.728  32.581  1.00  0.00    -0.332 OA
ENDROOT
BRANCH   1   7
ATOM      7  O   UNL     1       6.527  23.483  34.264  1.00  0.00    -0.338 OA
BRANCH   7   8
ATOM      8  C   UNL     1       7.786  23.375  33.905  1.00  0.00     0.199 C 
BRANCH   8   9
ATOM      9  C   UNL     1       8.880  23.151  34.900  1.00  0.00     0.179 C 
ATOM     10  C   UNL     1      10.933  24.052  35.572  1.00  0.00     0.282 C 
ATOM     11  O   UNL     1       9.988  23.899  34.578  1.00  0.00    -0.341 OA
ATOM     12  C   UNL     1      10.786  23.159  36.749  1.00  0.00     0.202 C 
ATOM     13  C   UNL     1       9.382  23.079  37.282  1.00  0.00     0.179 C 
ATOM     14  C   UNL     1       8.441  23.676  36.290  1.00  0.00     0.177 C 
BRANCH  10  15
ATOM     15  O   UNL     1      11.052  25.412  35.858  1.00  0.00    -0.341 OA
BRANCH  15  16
ATOM     16  C   UNL     1      11.812  26.112  34.931  1.00  0.00     0.184 C 
ATOM     17  C   UNL     1      12.978  26.847  35.517  1.00  0.00     0.178 C 
ATOM     18  O   UNL     1      13.688  27.429  34.465  1.00  0.00    -0.341 OA
ATOM     19  C   UNL     1      12.992  28.445  33.826  1.00  0.00     0.281 C 
ATOM     20  C   UNL     1      10.927  27.219  34.290  1.00  0.00     0.180 C 
ATOM     21  C   UNL     1      11.784  27.787  33.166  1.00  0.00     0.202 C 
BRANCH  17  22
ATOM     22  C   UNL     1      13.933  25.852  36.152  1.00  0.00     0.191 C 
BRANCH  22  23
ATOM     23  O   UNL     1      13.472  25.693  37.483  1.00  0.00    -0.394 OA
ATOM     24  H   UNL     1      14.137  25.972  38.148  1.00  0.00     0.210 HD
ENDBRANCH  22  23
ENDBRANCH  17  22
BRANCH  19  25
ATOM     25  O   UNL     1      13.808  29.022  32.894  1.00  0.00    -0.350 OA
BRANCH  25  26
ATOM     26  C   UNL     1      14.943  29.614  33.370  1.00  0.00     0.169 C 
BRANCH  26  27
ATOM     27  C   UNL     1      16.119  29.591  32.418  1.00  0.00     0.119 C 
BRANCH  27  28
ATOM     28  N   UNL     1      16.823  28.326  32.521  1.00  0.00    -0.092 NA
ATOM     29  N   UNL     1      16.935  27.708  33.577  1.00  0.00     0.001 N 
ATOM     30  N   UNL     1      16.955  26.953  34.545  1.00  0.00    -0.003 NA
ENDBRANCH  27  28
ENDBRANCH  26  27
ENDBRANCH  25  26
ENDBRANCH  19  25
BRANCH  20  31
ATOM     31  O   UNL     1       9.797  26.630  33.776  1.00  0.00    -0.387 OA
ATOM     32  H   UNL     1       9.104  27.334  33.642  1.00  0.00     0.211 HD
ENDBRANCH  20  31
BRANCH  21  33
ATOM     33  O   UNL     1      11.009  28.694  32.475  1.00  0.00    -0.385 OA
ATOM     34  H   UNL     1      10.589  28.226  31.711  1.00  0.00     0.211 HD
ENDBRANCH  21  33
ENDBRANCH  15  16
ENDBRANCH  10  15
BRANCH  12  35
ATOM     35  O   UNL     1      11.274  21.870  36.419  1.00  0.00    -0.385 OA
ATOM     36  H   UNL     1      10.484  21.272  36.494  1.00  0.00     0.211 HD
ENDBRANCH  12  35
BRANCH  13  37
ATOM     37  O   UNL     1       9.271  23.652  38.549  1.00  0.00    -0.387 OA
ATOM     38  H   UNL     1       9.338  22.919  39.216  1.00  0.00     0.211 HD
ENDBRANCH  13  37
BRANCH  14  39
ATOM     39  O   UNL     1       8.445  25.055  36.263  1.00  0.00    -0.387 OA
ATOM     40  H   UNL     1       7.921  25.474  36.991  1.00  0.00     0.211 HD
ENDBRANCH  14  39
ENDBRANCH   8   9
ENDBRANCH   7   8
ENDBRANCH   1   7
BRANCH   1  41
ATOM     41  C   UNL     1       5.772  25.689  33.554  1.00  0.00     0.364 C 
ATOM     42  O   UNL     1       6.280  26.397  34.519  1.00  0.00    -0.246 OA
BRANCH  41  43
ATOM     43  O   UNL     1       5.499  26.445  32.437  1.00  0.00    -0.477 OA
ATOM     44  H   UNL     1       4.693  27.055  32.426  1.00  0.00     0.296 HD
ENDBRANCH  41  43
ENDBRANCH   1  41
BRANCH   3  45
ATOM     45  O   UNL     1       2.240  24.507  35.443  1.00  0.00    -0.391 OA
ATOM     46  H   UNL     1       2.787  24.210  36.234  1.00  0.00     0.211 HD
ENDBRANCH   3  45
BRANCH   5  47
ATOM     47  C   UNL     1       3.954  21.646  32.976  1.00  0.00     0.176 C 
BRANCH  47  48
ATOM     48  O   UNL     1       2.698  21.132  33.333  1.00  0.00    -0.388 OA
ATOM     49  H   UNL     1       2.648  20.151  33.137  1.00  0.00     0.211 HD
ENDBRANCH  47  48
BRANCH  47  50
ATOM     50  C   UNL     1       4.353  20.768  31.755  1.00  0.00     0.165 C 
BRANCH  50  51
ATOM     51  O   UNL     1       5.551  21.229  31.263  1.00  0.00    -0.388 OA
ATOM     52  H   UNL     1       5.662  22.196  31.319  1.00  0.00     0.211 HD
ENDBRANCH  50  51
BRANCH  50  53
ATOM     53  C   UNL     1       3.206  20.719  30.830  1.00  0.00     0.154 C 
BRANCH  53  54
ATOM     54  N   UNL     1       3.387  21.565  29.694  1.00  0.00    -0.319 N 
ATOM     55  C   UNL     1       2.372  21.943  28.816  1.00  0.00     0.407 C 
ATOM     56  H   UNL     1       4.360  21.920  29.521  1.00  0.00     0.167 HD
ATOM     57  O   UNL     1       1.206  21.544  28.966  1.00  0.00    -0.225 OA
BRANCH  55  58
ATOM     58  O   UNL     1       2.582  22.787  27.716  1.00  0.00    -0.443 OA
BRANCH  58  59
ATOM     59  C   UNL     1       2.086  24.113  27.708  1.00  0.00     0.294 C 
BRANCH  59  60
ATOM     60  C   UNL     1       3.048  25.087  28.274  1.00  0.00     0.120 A 
ATOM     61  C   UNL     1       3.832  25.968  27.523  1.00  0.00     0.138 A 
ATOM     62  N   UNL     1       3.377  25.341  29.551  1.00  0.00    -0.132 NA
ATOM     63  N   UNL     1       4.596  26.713  28.367  1.00  0.00    -0.252 N 
ATOM     64  N   UNL     1       4.300  26.312  29.582  1.00  0.00    -0.067 NA
BRANCH  63  65
ATOM     65  C   UNL     1       5.521  27.733  27.896  1.00  0.00     0.151 C 
BRANCH  65  66
ATOM     66  C   UNL     1       5.339  27.967  26.402  1.00  0.00     0.086 C 
BRANCH  66  67
ATOM     67  C   UNL     1       6.526  27.478  25.621  1.00  0.00     0.251 C 
ATOM     68  O   UNL     1       7.106  28.552  24.944  1.00  0.00    -0.350 OA
ATOM     69  O   UNL     1       7.528  26.953  26.412  1.00  0.00    -0.350 OA
ATOM     70  C   UNL     1       8.384  28.113  24.619  1.00  0.00     0.192 C 
ATOM     71  C   UNL     1       8.579  26.869  25.468  1.00  0.00     0.192 C 
ENDBRANCH  66  67
ENDBRANCH  65  66
ENDBRANCH  63  65
ENDBRANCH  59  60
ENDBRANCH  58  59
ENDBRANCH  55  58
ENDBRANCH  53  54
ENDBRANCH  50  53
ENDBRANCH  47  50
ENDBRANCH   5  47
BRANCH   4  72
ATOM     72  N   UNL     1       1.913  24.507  32.267  1.00  0.00    -0.348 N 
ATOM     73  C   UNL     1       0.774  23.975  31.655  1.00  0.00     0.217 C 
ATOM     74  H   UNL     1       2.219  25.502  32.056  1.00  0.00     0.163 HD
ATOM     75  C   UNL     1      -0.025  24.803  30.694  1.00  0.00     0.114 C 
ATOM     76  O   UNL     1       0.455  22.789  31.942  1.00  0.00    -0.275 OA
ENDBRANCH   4  72
TORSDOF 32
