REMARK VINA RESULT:    -5.998     13.812     20.605
REMARK INTER + INTRA:         -22.974
REMARK INTER:                 -14.447
REMARK INTRA:                  -8.527
REMARK UNBOUND:                -6.283
REMARK SMILES CC(=O)N[C@@H]1[C@@H](O)C[C@](OC[C@H]2O[C@@H](O[C@H]3[C@H](O)[C@@H](O)[C@H](OCCN=[N+]=[N-])O[C@@H]3CO)[C@H](O)[C@@H](O)[C@H]2O)(C(=O)O)O[C@H]1C(O)[C@H](O)CNC(=O)OCc1cn(C[C@H](CC(=O)O)CC(C)C)nn1
REMARK SMILES IDX 43 1 42 2 9 3 8 4 41 5 6 6 5 7 10 8 11 9 12 10 14 11 13 12
REMARK SMILES IDX 32 13 34 14 36 15 15 16 16 17 29 18 28 19 21 20 17 21 19 22
REMARK SMILES IDX 30 23 31 24 22 26 23 27 24 28 25 29 26 30 27 31 18 32 20 34
REMARK SMILES IDX 33 36 35 38 37 40 38 42 39 43 40 44 7 46 4 48 2 49 1 51 3 52
REMARK SMILES IDX 44 53 45 55 46 56 47 58 48 59 49 60 50 62 51 63 52 64 53 65
REMARK SMILES IDX 54 66 67 67 55 68 66 69 56 70 57 71 58 72 59 73 60 74 61 75
REMARK SMILES IDX 62 77 63 78 64 79 65 80
REMARK H PARENT 31 25 18 33 20 35 33 37 35 39 37 41 40 45 7 47 4 50 44 54
REMARK H PARENT 46 57 48 61 61 76
REMARK Flexibility Score: inf
ROOT
ATOM      1  C   UNL     1      21.659  30.334  19.864  1.00  0.00     0.176 C 
ENDROOT
BRANCH   1   2
ATOM      2  C   UNL     1      22.487  29.917  18.681  1.00  0.00     0.178 C 
ATOM      3  C   UNL     1      21.390  29.342  16.613  1.00  0.00     0.272 C 
ATOM      4  C   UNL     1      21.501  27.894  16.931  1.00  0.00     0.113 C 
ATOM      5  O   UNL     1      21.721  30.165  17.587  1.00  0.00    -0.332 OA
ATOM      6  C   UNL     1      21.912  27.522  18.298  1.00  0.00     0.145 C 
ATOM      7  C   UNL     1      22.916  28.508  18.899  1.00  0.00     0.142 C 
BRANCH   3   8
ATOM      8  O   UNL     1      20.059  29.631  16.206  1.00  0.00    -0.338 OA
BRANCH   8   9
ATOM      9  C   UNL     1      19.401  30.520  16.998  1.00  0.00     0.199 C 
BRANCH   9  10
ATOM     10  C   UNL     1      18.663  29.776  18.133  1.00  0.00     0.179 C 
ATOM     11  C   UNL     1      17.274  30.149  19.955  1.00  0.00     0.282 C 
ATOM     12  O   UNL     1      17.710  30.588  18.714  1.00  0.00    -0.341 OA
ATOM     13  C   UNL     1      17.275  28.613  19.901  1.00  0.00     0.202 C 
ATOM     14  C   UNL     1      16.892  28.140  18.514  1.00  0.00     0.179 C 
ATOM     15  C   UNL     1      17.918  28.579  17.524  1.00  0.00     0.177 C 
BRANCH  11  16
ATOM     16  O   UNL     1      15.956  30.500  20.109  1.00  0.00    -0.341 OA
BRANCH  16  17
ATOM     17  C   UNL     1      15.509  30.653  21.395  1.00  0.00     0.184 C 
ATOM     18  C   UNL     1      16.497  30.258  22.453  1.00  0.00     0.178 C 
ATOM     19  O   UNL     1      16.133  29.194  23.225  1.00  0.00    -0.341 OA
ATOM     20  C   UNL     1      14.915  29.313  23.866  1.00  0.00     0.281 C 
ATOM     21  C   UNL     1      14.289  29.771  21.556  1.00  0.00     0.180 C 
ATOM     22  C   UNL     1      13.829  29.875  23.017  1.00  0.00     0.202 C 
BRANCH  18  23
ATOM     23  C   UNL     1      16.829  31.499  23.262  1.00  0.00     0.191 C 
BRANCH  23  24
ATOM     24  O   UNL     1      17.622  31.189  24.363  1.00  0.00    -0.394 OA
ATOM     25  H   UNL     1      17.082  31.035  25.186  1.00  0.00     0.210 HD
ENDBRANCH  23  24
ENDBRANCH  18  23
BRANCH  20  26
ATOM     26  O   UNL     1      15.129  29.996  25.054  1.00  0.00    -0.350 OA
BRANCH  26  27
ATOM     27  C   UNL     1      14.073  30.819  25.409  1.00  0.00     0.169 C 
BRANCH  27  28
ATOM     28  C   UNL     1      14.465  31.505  26.710  1.00  0.00     0.119 C 
BRANCH  28  29
ATOM     29  N   UNL     1      15.782  30.986  27.050  1.00  0.00    -0.092 NA
ATOM     30  N   UNL     1      16.039  30.776  28.212  1.00  0.00     0.001 N 
ATOM     31  N   UNL     1      16.613  30.619  29.299  1.00  0.00    -0.003 NA
ENDBRANCH  28  29
ENDBRANCH  27  28
ENDBRANCH  26  27
ENDBRANCH  20  26
BRANCH  21  32
ATOM     32  O   UNL     1      13.295  30.163  20.679  1.00  0.00    -0.387 OA
ATOM     33  H   UNL     1      13.672  30.065  19.749  1.00  0.00     0.211 HD
ENDBRANCH  21  32
BRANCH  22  34
ATOM     34  O   UNL     1      12.643  29.113  23.074  1.00  0.00    -0.385 OA
ATOM     35  H   UNL     1      12.629  28.541  22.278  1.00  0.00     0.211 HD
ENDBRANCH  22  34
ENDBRANCH  16  17
ENDBRANCH  11  16
BRANCH  13  36
ATOM     36  O   UNL     1      18.437  28.062  20.379  1.00  0.00    -0.385 OA
ATOM     37  H   UNL     1      18.336  27.534  21.191  1.00  0.00     0.211 HD
ENDBRANCH  13  36
BRANCH  14  38
ATOM     38  O   UNL     1      15.672  28.784  18.220  1.00  0.00    -0.387 OA
ATOM     39  H   UNL     1      15.039  28.726  18.952  1.00  0.00     0.211 HD
ENDBRANCH  14  38
BRANCH  15  40
ATOM     40  O   UNL     1      17.234  28.993  16.362  1.00  0.00    -0.387 OA
ATOM     41  H   UNL     1      16.482  29.564  16.585  1.00  0.00     0.211 HD
ENDBRANCH  15  40
ENDBRANCH   9  10
ENDBRANCH   8   9
ENDBRANCH   3   8
BRANCH   3  42
ATOM     42  C   UNL     1      22.182  29.644  15.355  1.00  0.00     0.364 C 
ATOM     43  O   UNL     1      21.614  30.085  14.348  1.00  0.00    -0.246 OA
BRANCH  42  44
ATOM     44  O   UNL     1      23.530  29.434  15.318  1.00  0.00    -0.477 OA
ATOM     45  H   UNL     1      23.965  28.694  14.769  1.00  0.00     0.296 HD
ENDBRANCH  42  44
ENDBRANCH   3  42
BRANCH   6  46
ATOM     46  O   UNL     1      20.906  27.281  19.208  1.00  0.00    -0.391 OA
ATOM     47  H   UNL     1      21.271  27.502  20.101  1.00  0.00     0.211 HD
ENDBRANCH   6  46
BRANCH   7  48
ATOM     48  N   UNL     1      24.191  28.140  18.345  1.00  0.00    -0.348 N 
ATOM     49  C   UNL     1      24.896  27.028  18.941  1.00  0.00     0.217 C 
ATOM     50  H   UNL     1      24.671  28.607  17.545  1.00  0.00     0.163 HD
ATOM     51  C   UNL     1      26.228  26.642  18.355  1.00  0.00     0.114 C 
ATOM     52  O   UNL     1      24.437  26.387  19.917  1.00  0.00    -0.275 OA
ENDBRANCH   7  48
ENDBRANCH   1   2
BRANCH   1  53
ATOM     53  O   UNL     1      21.767  31.749  20.009  1.00  0.00    -0.388 OA
ATOM     54  H   UNL     1      21.399  32.187  19.199  1.00  0.00     0.211 HD
ENDBRANCH   1  53
BRANCH   1  55
ATOM     55  C   UNL     1      22.078  29.808  21.218  1.00  0.00     0.165 C 
BRANCH  55  56
ATOM     56  O   UNL     1      20.777  29.467  21.792  1.00  0.00    -0.388 OA
ATOM     57  H   UNL     1      20.317  29.046  20.997  1.00  0.00     0.211 HD
ENDBRANCH  55  56
BRANCH  55  58
ATOM     58  C   UNL     1      22.562  30.879  22.133  1.00  0.00     0.154 C 
BRANCH  58  59
ATOM     59  N   UNL     1      21.613  31.210  23.136  1.00  0.00    -0.319 N 
ATOM     60  C   UNL     1      22.137  31.425  24.465  1.00  0.00     0.407 C 
ATOM     61  H   UNL     1      20.587  31.315  23.044  1.00  0.00     0.167 HD
ATOM     62  O   UNL     1      23.379  31.317  24.672  1.00  0.00    -0.225 OA
BRANCH  60  63
ATOM     63  O   UNL     1      21.350  31.741  25.550  1.00  0.00    -0.443 OA
BRANCH  63  64
ATOM     64  C   UNL     1      20.450  30.866  26.198  1.00  0.00     0.294 C 
BRANCH  64  65
ATOM     65  C   UNL     1      20.557  29.459  25.719  1.00  0.00     0.120 A 
ATOM     66  C   UNL     1      21.252  28.411  26.277  1.00  0.00     0.138 A 
ATOM     67  N   UNL     1      19.960  28.984  24.622  1.00  0.00    -0.132 NA
ATOM     68  N   UNL     1      21.059  27.306  25.494  1.00  0.00    -0.252 N 
ATOM     69  N   UNL     1      20.279  27.707  24.518  1.00  0.00    -0.067 NA
BRANCH  68  70
ATOM     70  C   UNL     1      21.609  26.014  25.682  1.00  0.00     0.150 C 
BRANCH  70  71
ATOM     71  C   UNL     1      22.216  25.396  24.494  1.00  0.00     0.022 C 
BRANCH  71  72
ATOM     72  C   UNL     1      21.304  24.719  23.539  1.00  0.00     0.128 C 
BRANCH  72  73
ATOM     73  C   UNL     1      21.255  25.250  22.171  1.00  0.00     0.303 C 
ATOM     74  O   UNL     1      21.745  24.572  21.230  1.00  0.00    -0.252 OA
BRANCH  73  75
ATOM     75  O   UNL     1      20.690  26.474  21.841  1.00  0.00    -0.481 OA
ATOM     76  H   UNL     1      19.731  26.525  21.528  1.00  0.00     0.296 HD
ENDBRANCH  73  75
ENDBRANCH  72  73
ENDBRANCH  71  72
BRANCH  71  77
ATOM     77  C   UNL     1      23.471  24.615  24.761  1.00  0.00     0.009 C 
BRANCH  77  78
ATOM     78  C   UNL     1      24.642  24.816  23.910  1.00  0.00    -0.017 C 
ATOM     79  C   UNL     1      24.839  23.931  22.733  1.00  0.00     0.007 C 
ATOM     80  C   UNL     1      24.852  26.249  23.460  1.00  0.00     0.007 C 
ENDBRANCH  77  78
ENDBRANCH  71  77
ENDBRANCH  70  71
ENDBRANCH  68  70
ENDBRANCH  64  65
ENDBRANCH  63  64
ENDBRANCH  60  63
ENDBRANCH  58  59
ENDBRANCH  55  58
ENDBRANCH   1  55
TORSDOF 36
