REMARK VINA RESULT:    -6.246     15.155     20.663
REMARK INTER + INTRA:         -21.954
REMARK INTER:                 -15.291
REMARK INTRA:                  -6.663
REMARK UNBOUND:                -6.033
REMARK SMILES CC(=O)N[C@@H]1[C@@H](O)C[C@](OC[C@H]2O[C@@H](O[C@H]3[C@H](O)[C@@H](O)[C@H](OCCN=[N+]=[N-])O[C@@H]3CO)[C@H](O)[C@@H](O)[C@H]2O)(C(=O)O)O[C@H]1C(O)[C@H](O)CNC(=O)OCc1cn(-c2cccc(S(N)(=O)=O)c2)nn1
REMARK SMILES IDX 9 1 8 2 6 3 5 4 42 5 41 6 10 7 11 8 12 9 14 10 13 11 32 12
REMARK SMILES IDX 34 13 36 14 15 15 16 16 29 17 28 18 21 19 17 20 19 21 30 22
REMARK SMILES IDX 31 23 22 25 23 26 24 27 25 28 26 29 27 30 18 31 20 33 33 35
REMARK SMILES IDX 35 37 37 39 38 41 39 42 40 43 7 45 43 47 44 48 45 50 46 51
REMARK SMILES IDX 47 53 48 54 49 55 50 57 51 58 52 59 53 60 54 61 67 62 55 63
REMARK SMILES IDX 66 64 56 65 65 66 57 67 60 68 58 69 59 70 61 71 63 72 64 73
REMARK SMILES IDX 62 74 4 77 2 78 1 80 3 81
REMARK H PARENT 31 24 18 32 20 34 33 36 35 38 37 40 40 44 7 46 44 49 46 52
REMARK H PARENT 48 56 62 75 62 76 4 79
REMARK Flexibility Score: inf
ROOT
ATOM      1  C   UNL     1      13.129  32.134  18.760  1.00  0.00     0.272 C 
ATOM      2  C   UNL     1      14.538  32.649  19.114  1.00  0.00     0.113 C 
ATOM      3  C   UNL     1      14.684  32.606  20.595  1.00  0.00     0.145 C 
ATOM      4  C   UNL     1      14.491  31.224  21.110  1.00  0.00     0.142 C 
ATOM      5  C   UNL     1      13.516  30.432  20.313  1.00  0.00     0.178 C 
ATOM      6  O   UNL     1      13.029  30.866  19.146  1.00  0.00    -0.332 OA
ENDROOT
BRANCH   1   7
ATOM      7  O   UNL     1      13.100  32.256  17.345  1.00  0.00    -0.338 OA
BRANCH   7   8
ATOM      8  C   UNL     1      12.437  31.185  16.828  1.00  0.00     0.199 C 
BRANCH   8   9
ATOM      9  C   UNL     1      13.186  30.518  15.695  1.00  0.00     0.179 C 
ATOM     10  C   UNL     1      15.260  29.895  15.136  1.00  0.00     0.282 C 
ATOM     11  O   UNL     1      14.281  29.791  16.157  1.00  0.00    -0.341 OA
ATOM     12  C   UNL     1      14.691  29.620  13.793  1.00  0.00     0.202 C 
ATOM     13  C   UNL     1      13.309  29.017  13.795  1.00  0.00     0.179 C 
ATOM     14  C   UNL     1      12.377  29.648  14.813  1.00  0.00     0.177 C 
BRANCH  10  15
ATOM     15  O   UNL     1      16.403  29.213  15.470  1.00  0.00    -0.341 OA
BRANCH  15  16
ATOM     16  C   UNL     1      17.568  29.939  15.391  1.00  0.00     0.184 C 
ATOM     17  C   UNL     1      18.515  29.254  14.437  1.00  0.00     0.178 C 
ATOM     18  O   UNL     1      19.822  29.259  14.941  1.00  0.00    -0.341 OA
ATOM     19  C   UNL     1      19.884  28.343  15.964  1.00  0.00     0.281 C 
ATOM     20  C   UNL     1      18.145  29.996  16.787  1.00  0.00     0.180 C 
ATOM     21  C   UNL     1      19.052  28.849  17.099  1.00  0.00     0.202 C 
BRANCH  17  22
ATOM     22  C   UNL     1      18.574  29.885  13.082  1.00  0.00     0.191 C 
BRANCH  22  23
ATOM     23  O   UNL     1      17.761  31.034  13.020  1.00  0.00    -0.394 OA
ATOM     24  H   UNL     1      18.040  31.628  12.284  1.00  0.00     0.210 HD
ENDBRANCH  22  23
ENDBRANCH  17  22
BRANCH  19  25
ATOM     25  O   UNL     1      21.185  28.138  16.422  1.00  0.00    -0.350 OA
BRANCH  25  26
ATOM     26  C   UNL     1      21.796  27.011  15.945  1.00  0.00     0.169 C 
BRANCH  26  27
ATOM     27  C   UNL     1      22.905  26.474  16.825  1.00  0.00     0.119 C 
BRANCH  27  28
ATOM     28  N   UNL     1      22.394  25.542  17.812  1.00  0.00    -0.092 NA
ATOM     29  N   UNL     1      23.072  25.141  18.754  1.00  0.00     0.001 N 
ATOM     30  N   UNL     1      23.659  24.675  19.715  1.00  0.00    -0.003 NA
ENDBRANCH  27  28
ENDBRANCH  26  27
ENDBRANCH  25  26
ENDBRANCH  19  25
BRANCH  20  31
ATOM     31  O   UNL     1      18.900  31.177  16.908  1.00  0.00    -0.387 OA
ATOM     32  H   UNL     1      19.827  30.999  17.206  1.00  0.00     0.211 HD
ENDBRANCH  20  31
BRANCH  21  33
ATOM     33  O   UNL     1      18.300  27.756  17.591  1.00  0.00    -0.385 OA
ATOM     34  H   UNL     1      18.576  27.615  18.526  1.00  0.00     0.211 HD
ENDBRANCH  21  33
ENDBRANCH  15  16
ENDBRANCH  10  15
BRANCH  12  35
ATOM     35  O   UNL     1      14.741  30.740  12.927  1.00  0.00    -0.385 OA
ATOM     36  H   UNL     1      13.777  30.865  12.653  1.00  0.00     0.211 HD
ENDBRANCH  12  35
BRANCH  13  37
ATOM     37  O   UNL     1      13.346  27.637  13.860  1.00  0.00    -0.387 OA
ATOM     38  H   UNL     1      14.200  27.403  14.345  1.00  0.00     0.211 HD
ENDBRANCH  13  37
BRANCH  14  39
ATOM     39  O   UNL     1      11.839  28.606  15.575  1.00  0.00    -0.387 OA
ATOM     40  H   UNL     1      10.908  28.396  15.311  1.00  0.00     0.211 HD
ENDBRANCH  14  39
ENDBRANCH   8   9
ENDBRANCH   7   8
ENDBRANCH   1   7
BRANCH   1  41
ATOM     41  C   UNL     1      12.186  33.111  19.359  1.00  0.00     0.364 C 
ATOM     42  O   UNL     1      11.199  32.654  20.044  1.00  0.00    -0.246 OA
BRANCH  41  43
ATOM     43  O   UNL     1      12.246  34.470  19.266  1.00  0.00    -0.477 OA
ATOM     44  H   UNL     1      12.452  34.963  18.387  1.00  0.00     0.296 HD
ENDBRANCH  41  43
ENDBRANCH   1  41
BRANCH   3  45
ATOM     45  O   UNL     1      16.004  33.066  20.861  1.00  0.00    -0.391 OA
ATOM     46  H   UNL     1      16.451  32.271  21.290  1.00  0.00     0.211 HD
ENDBRANCH   3  45
BRANCH   5  47
ATOM     47  C   UNL     1      14.115  29.016  20.131  1.00  0.00     0.176 C 
BRANCH  47  48
ATOM     48  O   UNL     1      14.010  28.338  21.330  1.00  0.00    -0.388 OA
ATOM     49  H   UNL     1      13.357  27.618  21.356  1.00  0.00     0.211 HD
ENDBRANCH  47  48
BRANCH  47  50
ATOM     50  C   UNL     1      15.469  29.096  19.539  1.00  0.00     0.165 C 
BRANCH  50  51
ATOM     51  O   UNL     1      15.476  28.417  18.323  1.00  0.00    -0.388 OA
ATOM     52  H   UNL     1      15.006  29.028  17.687  1.00  0.00     0.211 HD
ENDBRANCH  50  51
BRANCH  50  53
ATOM     53  C   UNL     1      16.529  28.458  20.421  1.00  0.00     0.154 C 
BRANCH  53  54
ATOM     54  N   UNL     1      17.460  29.487  20.817  1.00  0.00    -0.319 N 
ATOM     55  C   UNL     1      18.879  29.210  20.790  1.00  0.00     0.407 C 
ATOM     56  H   UNL     1      17.153  30.435  21.132  1.00  0.00     0.167 HD
ATOM     57  O   UNL     1      19.314  28.087  20.428  1.00  0.00    -0.225 OA
BRANCH  55  58
ATOM     58  O   UNL     1      19.711  30.240  21.178  1.00  0.00    -0.443 OA
BRANCH  58  59
ATOM     59  C   UNL     1      19.892  30.560  22.525  1.00  0.00     0.294 C 
BRANCH  59  60
ATOM     60  C   UNL     1      20.999  29.803  23.126  1.00  0.00     0.121 A 
ATOM     61  C   UNL     1      20.837  28.581  23.794  1.00  0.00     0.144 A 
ATOM     62  N   UNL     1      22.296  30.082  23.168  1.00  0.00    -0.131 NA
ATOM     63  N   UNL     1      22.040  28.192  24.200  1.00  0.00    -0.220 N 
ATOM     64  N   UNL     1      22.893  29.099  23.816  1.00  0.00    -0.062 NA
BRANCH  63  65
ATOM     65  C   UNL     1      22.285  26.974  24.917  1.00  0.00     0.068 A 
ATOM     66  C   UNL     1      23.011  27.030  26.109  1.00  0.00     0.050 A 
ATOM     67  C   UNL     1      21.822  25.781  24.452  1.00  0.00     0.028 A 
ATOM     68  C   UNL     1      23.271  25.894  26.834  1.00  0.00     0.084 A 
ATOM     69  C   UNL     1      22.072  24.650  25.159  1.00  0.00     0.004 A 
ATOM     70  C   UNL     1      22.795  24.681  26.354  1.00  0.00     0.022 A 
BRANCH  68  71
ATOM     71  S   UNL     1      24.166  25.890  28.326  1.00  0.00     0.238 S 
ATOM     72  O   UNL     1      23.970  27.215  29.008  1.00  0.00    -0.207 OA
ATOM     73  O   UNL     1      25.623  25.696  28.060  1.00  0.00    -0.207 OA
BRANCH  71  74
ATOM     74  N   UNL     1      23.559  24.606  29.332  1.00  0.00    -0.225 NA
ATOM     75  H   UNL     1      23.973  23.706  29.001  1.00  0.00     0.137 HD
ATOM     76  H   UNL     1      22.520  24.608  29.377  1.00  0.00     0.137 HD
ENDBRANCH  71  74
ENDBRANCH  68  71
ENDBRANCH  63  65
ENDBRANCH  59  60
ENDBRANCH  58  59
ENDBRANCH  55  58
ENDBRANCH  53  54
ENDBRANCH  50  53
ENDBRANCH  47  50
ENDBRANCH   5  47
BRANCH   4  77
ATOM     77  N   UNL     1      13.978  31.349  22.484  1.00  0.00    -0.348 N 
ATOM     78  C   UNL     1      14.588  30.704  23.593  1.00  0.00     0.217 C 
ATOM     79  H   UNL     1      13.133  31.932  22.658  1.00  0.00     0.163 HD
ATOM     80  C   UNL     1      14.025  30.870  24.957  1.00  0.00     0.114 C 
ATOM     81  O   UNL     1      15.613  29.994  23.376  1.00  0.00    -0.275 OA
ENDBRANCH   4  77
TORSDOF 32
