REMARK VINA RESULT:    -5.869      6.074     10.206
REMARK INTER + INTRA:         -20.911
REMARK INTER:                 -15.979
REMARK INTRA:                  -4.932
REMARK UNBOUND:                -5.091
REMARK SMILES C=CCCCCn1cc(COC(=O)NC[C@@H](O)C(O)[C@@H]2O[C@@](OC[C@H]3O[C@@H](O[C@H]4[C@H](O)[C@@H](O)[C@H](OCCN=[N+]=[N-])O[C@@H]4CO)[C@H](O)[C@@H](O)[C@H]3O)(C(=O)O)C[C@H](O)[C@H]2NC(C)=O)nn1
REMARK SMILES IDX 18 1 20 2 22 3 54 4 21 5 55 6 57 7 23 8 24 9 25 10 27 11
REMARK SMILES IDX 26 12 45 13 47 14 49 15 28 16 29 17 42 18 41 19 34 20 30 21
REMARK SMILES IDX 32 22 43 23 44 24 35 26 36 27 37 28 38 29 39 30 40 31 31 32
REMARK SMILES IDX 33 34 46 36 48 38 50 40 51 42 52 43 53 44 56 46 58 48 59 49
REMARK SMILES IDX 60 51 61 52 19 53 16 55 17 56 15 58 14 59 12 60 13 62 11 63
REMARK SMILES IDX 10 64 9 65 8 66 62 67 7 68 63 69 6 70 5 71 4 72 3 73 2 74
REMARK SMILES IDX 1 75
REMARK H PARENT 44 25 31 33 33 35 46 37 48 39 50 41 53 45 56 47 58 50 19 54
REMARK H PARENT 17 57 14 61
REMARK Flexibility Score: inf
ROOT
ATOM      1  C   UNL     1      21.336  28.198  18.907  1.00  0.00     0.176 C 
ENDROOT
BRANCH   1   2
ATOM      2  C   UNL     1      21.905  27.191  19.911  1.00  0.00     0.178 C 
ATOM      3  C   UNL     1      23.161  25.267  20.012  1.00  0.00     0.272 C 
ATOM      4  C   UNL     1      22.294  24.741  21.079  1.00  0.00     0.113 C 
ATOM      5  O   UNL     1      22.330  26.127  19.198  1.00  0.00    -0.332 OA
ATOM      6  C   UNL     1      21.616  25.745  21.906  1.00  0.00     0.145 C 
ATOM      7  C   UNL     1      21.208  27.011  21.173  1.00  0.00     0.142 C 
BRANCH   3   8
ATOM      8  O   UNL     1      23.513  24.326  19.056  1.00  0.00    -0.338 OA
BRANCH   8   9
ATOM      9  C   UNL     1      22.940  24.244  17.872  1.00  0.00     0.199 C 
BRANCH   9  10
ATOM     10  C   UNL     1      23.728  24.234  16.619  1.00  0.00     0.179 C 
ATOM     11  C   UNL     1      24.175  22.827  14.800  1.00  0.00     0.282 C 
ATOM     12  O   UNL     1      23.858  22.913  16.127  1.00  0.00    -0.341 OA
ATOM     13  C   UNL     1      24.717  24.073  14.217  1.00  0.00     0.202 C 
ATOM     14  C   UNL     1      23.871  25.295  14.449  1.00  0.00     0.179 C 
ATOM     15  C   UNL     1      22.929  25.008  15.578  1.00  0.00     0.177 C 
BRANCH  11  16
ATOM     16  O   UNL     1      23.134  22.210  14.158  1.00  0.00    -0.341 OA
BRANCH  16  17
ATOM     17  C   UNL     1      23.348  21.802  12.876  1.00  0.00     0.184 C 
ATOM     18  C   UNL     1      22.025  21.430  12.250  1.00  0.00     0.178 C 
ATOM     19  O   UNL     1      22.152  20.290  11.439  1.00  0.00    -0.341 OA
ATOM     20  C   UNL     1      22.210  19.190  12.289  1.00  0.00     0.281 C 
ATOM     21  C   UNL     1      24.201  20.512  12.832  1.00  0.00     0.180 C 
ATOM     22  C   UNL     1      23.357  19.328  13.245  1.00  0.00     0.202 C 
BRANCH  18  23
ATOM     23  C   UNL     1      21.397  22.571  11.468  1.00  0.00     0.191 C 
BRANCH  23  24
ATOM     24  O   UNL     1      21.767  23.795  11.997  1.00  0.00    -0.394 OA
ATOM     25  H   UNL     1      22.273  23.643  12.829  1.00  0.00     0.210 HD
ENDBRANCH  23  24
ENDBRANCH  18  23
BRANCH  20  26
ATOM     26  O   UNL     1      22.380  18.067  11.477  1.00  0.00    -0.350 OA
BRANCH  26  27
ATOM     27  C   UNL     1      22.343  18.351  10.124  1.00  0.00     0.169 C 
BRANCH  27  28
ATOM     28  C   UNL     1      21.311  17.432   9.497  1.00  0.00     0.119 C 
BRANCH  28  29
ATOM     29  N   UNL     1      20.169  17.244  10.352  1.00  0.00    -0.092 NA
ATOM     30  N   UNL     1      19.114  17.834  10.152  1.00  0.00     0.001 N 
ATOM     31  N   UNL     1      18.071  18.341   9.740  1.00  0.00    -0.003 NA
ENDBRANCH  28  29
ENDBRANCH  27  28
ENDBRANCH  26  27
ENDBRANCH  20  26
BRANCH  21  32
ATOM     32  O   UNL     1      24.545  20.332  11.494  1.00  0.00    -0.387 OA
ATOM     33  H   UNL     1      23.937  19.748  10.998  1.00  0.00     0.211 HD
ENDBRANCH  21  32
BRANCH  22  34
ATOM     34  O   UNL     1      22.961  19.449  14.574  1.00  0.00    -0.385 OA
ATOM     35  H   UNL     1      22.851  20.421  14.759  1.00  0.00     0.211 HD
ENDBRANCH  22  34
ENDBRANCH  16  17
ENDBRANCH  11  16
BRANCH  13  36
ATOM     36  O   UNL     1      25.970  24.304  14.802  1.00  0.00    -0.385 OA
ATOM     37  H   UNL     1      26.689  23.832  14.345  1.00  0.00     0.211 HD
ENDBRANCH  13  36
BRANCH  14  38
ATOM     38  O   UNL     1      23.185  25.689  13.298  1.00  0.00    -0.387 OA
ATOM     39  H   UNL     1      23.392  26.634  13.150  1.00  0.00     0.211 HD
ENDBRANCH  14  38
BRANCH  15  40
ATOM     40  O   UNL     1      21.813  24.271  15.163  1.00  0.00    -0.387 OA
ATOM     41  H   UNL     1      21.818  23.351  15.488  1.00  0.00     0.211 HD
ENDBRANCH  15  40
ENDBRANCH   9  10
ENDBRANCH   8   9
ENDBRANCH   3   8
BRANCH   3  42
ATOM     42  C   UNL     1      24.212  26.142  20.515  1.00  0.00     0.364 C 
ATOM     43  O   UNL     1      24.657  26.016  21.676  1.00  0.00    -0.246 OA
BRANCH  42  44
ATOM     44  O   UNL     1      24.755  27.140  19.762  1.00  0.00    -0.477 OA
ATOM     45  H   UNL     1      24.302  27.503  18.942  1.00  0.00     0.296 HD
ENDBRANCH  42  44
ENDBRANCH   3  42
BRANCH   6  46
ATOM     46  O   UNL     1      20.476  25.148  22.500  1.00  0.00    -0.391 OA
ATOM     47  H   UNL     1      20.446  25.307  23.477  1.00  0.00     0.211 HD
ENDBRANCH   6  46
BRANCH   7  48
ATOM     48  N   UNL     1      21.461  28.168  22.053  1.00  0.00    -0.348 N 
ATOM     49  C   UNL     1      20.506  29.183  22.291  1.00  0.00     0.217 C 
ATOM     50  H   UNL     1      22.385  28.293  22.550  1.00  0.00     0.163 HD
ATOM     51  C   UNL     1      20.829  30.348  23.195  1.00  0.00     0.114 C 
ATOM     52  O   UNL     1      19.381  29.099  21.736  1.00  0.00    -0.275 OA
ENDBRANCH   7  48
ENDBRANCH   1   2
BRANCH   1  53
ATOM     53  O   UNL     1      22.040  29.464  19.270  1.00  0.00    -0.388 OA
ATOM     54  H   UNL     1      22.356  29.213  20.196  1.00  0.00     0.211 HD
ENDBRANCH   1  53
BRANCH   1  55
ATOM     55  C   UNL     1      21.776  28.029  17.523  1.00  0.00     0.165 C 
BRANCH  55  56
ATOM     56  O   UNL     1      23.170  28.128  17.310  1.00  0.00    -0.388 OA
ATOM     57  H   UNL     1      23.579  27.776  18.138  1.00  0.00     0.211 HD
ENDBRANCH  55  56
BRANCH  55  58
ATOM     58  C   UNL     1      21.066  28.724  16.438  1.00  0.00     0.154 C 
BRANCH  58  59
ATOM     59  N   UNL     1      19.781  29.219  16.751  1.00  0.00    -0.319 N 
ATOM     60  C   UNL     1      18.628  29.372  15.973  1.00  0.00     0.407 C 
ATOM     61  H   UNL     1      19.656  29.540  17.784  1.00  0.00     0.167 HD
ATOM     62  O   UNL     1      18.613  29.054  14.773  1.00  0.00    -0.225 OA
BRANCH  60  63
ATOM     63  O   UNL     1      17.444  29.889  16.518  1.00  0.00    -0.443 OA
BRANCH  63  64
ATOM     64  C   UNL     1      16.349  28.992  16.713  1.00  0.00     0.294 C 
BRANCH  64  65
ATOM     65  C   UNL     1      16.261  28.575  18.136  1.00  0.00     0.120 A 
ATOM     66  C   UNL     1      15.334  29.071  19.051  1.00  0.00     0.138 A 
ATOM     67  N   UNL     1      17.005  27.688  18.814  1.00  0.00    -0.132 NA
ATOM     68  N   UNL     1      15.563  28.467  20.221  1.00  0.00    -0.252 N 
ATOM     69  N   UNL     1      16.566  27.639  20.075  1.00  0.00    -0.067 NA
BRANCH  68  70
ATOM     70  C   UNL     1      14.782  28.731  21.437  1.00  0.00     0.146 C 
BRANCH  70  71
ATOM     71  C   UNL     1      15.240  30.034  22.035  1.00  0.00     0.024 C 
BRANCH  71  72
ATOM     72  C   UNL     1      14.035  30.740  22.619  1.00  0.00     0.006 C 
BRANCH  72  73
ATOM     73  C   UNL     1      12.783  29.945  22.325  1.00  0.00     0.027 C 
BRANCH  73  74
ATOM     74  C   UNL     1      11.983  29.727  23.551  1.00  0.00    -0.035 C 
ATOM     75  C   UNL     1      12.391  30.205  24.710  1.00  0.00     0.004 C 
ENDBRANCH  73  74
ENDBRANCH  72  73
ENDBRANCH  71  72
ENDBRANCH  70  71
ENDBRANCH  68  70
ENDBRANCH  64  65
ENDBRANCH  63  64
ENDBRANCH  60  63
ENDBRANCH  58  59
ENDBRANCH  55  58
ENDBRANCH   1  55
TORSDOF 34
