REMARK VINA RESULT:    -5.232      2.201      2.594
REMARK INTER + INTRA:         -21.232
REMARK INTER:                 -13.736
REMARK INTRA:                  -7.496
REMARK UNBOUND:                -8.354
REMARK SMILES CC(=O)N[C@@H]1[C@@H](O)C[C@](OC[C@H]2O[C@@H](O[C@H]3[C@H](O)[C@@H](O)[C@H](OCCN=[N+]=[N-])O[C@@H]3CO)[C@H](O)[C@@H](O)[C@H]2O)(C(=O)O)O[C@H]1C(O)[C@H](O)CNC(=O)OCc1cn(-c2cccc(Cl)c2)nn1
REMARK SMILES IDX 9 1 8 2 6 3 5 4 42 5 41 6 10 7 11 8 12 9 14 10 13 11 32 12
REMARK SMILES IDX 34 13 36 14 15 15 16 16 29 17 28 18 21 19 17 20 19 21 30 22
REMARK SMILES IDX 31 23 22 25 23 26 24 27 25 28 26 29 27 30 18 31 20 33 33 35
REMARK SMILES IDX 35 37 37 39 38 41 39 42 40 43 7 45 43 47 44 48 45 50 46 51
REMARK SMILES IDX 47 53 48 54 49 55 50 57 51 58 52 59 53 60 54 61 64 62 55 63
REMARK SMILES IDX 63 64 56 65 57 66 62 67 58 68 60 69 59 70 61 71 4 72 2 73
REMARK SMILES IDX 1 75 3 76
REMARK H PARENT 31 24 18 32 20 34 33 36 35 38 37 40 40 44 7 46 44 49 46 52
REMARK H PARENT 48 56 4 74
REMARK Flexibility Score: inf
ROOT
ATOM      1  C   UNL     1      24.041  25.518  20.416  1.00  0.00     0.272 C 
ATOM      2  C   UNL     1      24.674  24.410  19.700  1.00  0.00     0.113 C 
ATOM      3  C   UNL     1      25.120  24.623  18.292  1.00  0.00     0.145 C 
ATOM      4  C   UNL     1      24.790  25.995  17.760  1.00  0.00     0.142 C 
ATOM      5  C   UNL     1      23.437  26.350  18.398  1.00  0.00     0.178 C 
ATOM      6  O   UNL     1      23.742  26.671  19.687  1.00  0.00    -0.332 OA
ENDROOT
BRANCH   1   7
ATOM      7  O   UNL     1      24.557  25.953  21.598  1.00  0.00    -0.338 OA
BRANCH   7   8
ATOM      8  C   UNL     1      24.963  25.155  22.584  1.00  0.00     0.199 C 
BRANCH   8   9
ATOM      9  C   UNL     1      25.001  25.651  23.991  1.00  0.00     0.179 C 
ATOM     10  C   UNL     1      24.274  27.376  25.342  1.00  0.00     0.282 C 
ATOM     11  O   UNL     1      24.152  26.773  24.077  1.00  0.00    -0.341 OA
ATOM     12  C   UNL     1      23.851  26.398  26.395  1.00  0.00     0.202 C 
ATOM     13  C   UNL     1      24.440  25.025  26.320  1.00  0.00     0.179 C 
ATOM     14  C   UNL     1      24.371  24.556  24.883  1.00  0.00     0.177 C 
BRANCH  10  15
ATOM     15  O   UNL     1      23.350  28.389  25.333  1.00  0.00    -0.341 OA
BRANCH  15  16
ATOM     16  C   UNL     1      22.727  28.689  24.123  1.00  0.00     0.184 C 
ATOM     17  C   UNL     1      23.135  29.948  23.514  1.00  0.00     0.178 C 
ATOM     18  O   UNL     1      22.095  30.728  23.068  1.00  0.00    -0.341 OA
ATOM     19  C   UNL     1      20.940  30.669  23.841  1.00  0.00     0.281 C 
ATOM     20  C   UNL     1      21.288  28.357  24.316  1.00  0.00     0.180 C 
ATOM     21  C   UNL     1      20.386  29.278  23.555  1.00  0.00     0.202 C 
BRANCH  17  22
ATOM     22  C   UNL     1      23.996  29.697  22.265  1.00  0.00     0.191 C 
BRANCH  22  23
ATOM     23  O   UNL     1      23.508  28.509  21.664  1.00  0.00    -0.394 OA
ATOM     24  H   UNL     1      23.003  28.743  20.864  1.00  0.00     0.210 HD
ENDBRANCH  22  23
ENDBRANCH  17  22
BRANCH  19  25
ATOM     25  O   UNL     1      20.069  31.622  23.395  1.00  0.00    -0.350 OA
BRANCH  25  26
ATOM     26  C   UNL     1      20.384  32.925  23.686  1.00  0.00     0.169 C 
BRANCH  26  27
ATOM     27  C   UNL     1      19.229  33.778  24.140  1.00  0.00     0.119 C 
BRANCH  27  28
ATOM     28  N   UNL     1      18.169  32.861  24.588  1.00  0.00    -0.092 NA
ATOM     29  N   UNL     1      17.919  32.868  25.812  1.00  0.00     0.001 N 
ATOM     30  N   UNL     1      17.338  33.103  26.887  1.00  0.00    -0.003 NA
ENDBRANCH  27  28
ENDBRANCH  26  27
ENDBRANCH  25  26
ENDBRANCH  19  25
BRANCH  20  31
ATOM     31  O   UNL     1      21.046  27.012  23.978  1.00  0.00    -0.387 OA
ATOM     32  H   UNL     1      21.397  26.480  24.736  1.00  0.00     0.211 HD
ENDBRANCH  20  31
BRANCH  21  33
ATOM     33  O   UNL     1      19.100  29.168  24.095  1.00  0.00    -0.385 OA
ATOM     34  H   UNL     1      19.067  29.446  25.025  1.00  0.00     0.211 HD
ENDBRANCH  21  33
ENDBRANCH  15  16
ENDBRANCH  10  15
BRANCH  12  35
ATOM     35  O   UNL     1      24.158  26.868  27.681  1.00  0.00    -0.385 OA
ATOM     36  H   UNL     1      24.726  26.235  28.176  1.00  0.00     0.211 HD
ENDBRANCH  12  35
BRANCH  13  37
ATOM     37  O   UNL     1      23.643  24.164  27.076  1.00  0.00    -0.387 OA
ATOM     38  H   UNL     1      24.052  23.302  27.264  1.00  0.00     0.211 HD
ENDBRANCH  13  37
BRANCH  14  39
ATOM     39  O   UNL     1      23.001  24.602  24.534  1.00  0.00    -0.387 OA
ATOM     40  H   UNL     1      22.799  25.294  23.885  1.00  0.00     0.211 HD
ENDBRANCH  14  39
ENDBRANCH   8   9
ENDBRANCH   7   8
ENDBRANCH   1   7
BRANCH   1  41
ATOM     41  C   UNL     1      22.644  25.017  20.812  1.00  0.00     0.364 C 
ATOM     42  O   UNL     1      22.262  23.851  20.607  1.00  0.00    -0.246 OA
BRANCH  41  43
ATOM     43  O   UNL     1      21.758  25.907  21.431  1.00  0.00    -0.477 OA
ATOM     44  H   UNL     1      20.753  25.773  21.270  1.00  0.00     0.296 HD
ENDBRANCH  41  43
ENDBRANCH   1  41
BRANCH   3  45
ATOM     45  O   UNL     1      26.467  24.382  18.089  1.00  0.00    -0.391 OA
ATOM     46  H   UNL     1      26.967  25.204  17.875  1.00  0.00     0.211 HD
ENDBRANCH   3  45
BRANCH   5  47
ATOM     47  C   UNL     1      22.722  27.435  17.612  1.00  0.00     0.176 C 
BRANCH  47  48
ATOM     48  O   UNL     1      21.789  26.712  16.823  1.00  0.00    -0.388 OA
ATOM     49  H   UNL     1      21.837  25.756  17.121  1.00  0.00     0.211 HD
ENDBRANCH  47  48
BRANCH  47  50
ATOM     50  C   UNL     1      21.892  28.264  18.569  1.00  0.00     0.165 C 
BRANCH  50  51
ATOM     51  O   UNL     1      20.942  27.461  19.179  1.00  0.00    -0.388 OA
ATOM     52  H   UNL     1      20.968  27.500  20.162  1.00  0.00     0.211 HD
ENDBRANCH  50  51
BRANCH  50  53
ATOM     53  C   UNL     1      21.136  29.332  17.771  1.00  0.00     0.154 C 
BRANCH  53  54
ATOM     54  N   UNL     1      19.747  29.001  17.610  1.00  0.00    -0.319 N 
ATOM     55  C   UNL     1      19.115  28.657  16.405  1.00  0.00     0.407 C 
ATOM     56  H   UNL     1      19.134  29.016  18.486  1.00  0.00     0.167 HD
ATOM     57  O   UNL     1      19.779  28.596  15.344  1.00  0.00    -0.225 OA
BRANCH  55  58
ATOM     58  O   UNL     1      17.722  28.369  16.346  1.00  0.00    -0.443 OA
BRANCH  58  59
ATOM     59  C   UNL     1      16.811  29.214  16.997  1.00  0.00     0.294 C 
BRANCH  59  60
ATOM     60  C   UNL     1      16.462  28.782  18.375  1.00  0.00     0.121 A 
ATOM     61  C   UNL     1      15.584  29.410  19.265  1.00  0.00     0.144 A 
ATOM     62  N   UNL     1      16.910  27.723  19.070  1.00  0.00    -0.131 NA
ATOM     63  N   UNL     1      15.543  28.725  20.422  1.00  0.00    -0.220 N 
ATOM     64  N   UNL     1      16.350  27.705  20.292  1.00  0.00    -0.062 NA
BRANCH  63  65
ATOM     65  C   UNL     1      14.746  29.122  21.530  1.00  0.00     0.068 A 
ATOM     66  C   UNL     1      13.370  29.121  21.521  1.00  0.00     0.028 A 
ATOM     67  C   UNL     1      15.355  29.547  22.723  1.00  0.00     0.049 A 
ATOM     68  C   UNL     1      12.634  29.519  22.633  1.00  0.00     0.004 A 
ATOM     69  C   UNL     1      14.626  29.939  23.819  1.00  0.00     0.043 A 
ATOM     70  C   UNL     1      13.250  29.933  23.795  1.00  0.00     0.020 A 
ATOM     71  Cl  UNL     1      15.405  30.467  25.304  1.00  0.00    -0.084 Cl
ENDBRANCH  63  65
ENDBRANCH  59  60
ENDBRANCH  58  59
ENDBRANCH  55  58
ENDBRANCH  53  54
ENDBRANCH  50  53
ENDBRANCH  47  50
ENDBRANCH   5  47
BRANCH   4  72
ATOM     72  N   UNL     1      24.780  26.059  16.336  1.00  0.00    -0.348 N 
ATOM     73  C   UNL     1      25.781  26.798  15.610  1.00  0.00     0.217 C 
ATOM     74  H   UNL     1      24.075  25.590  15.718  1.00  0.00     0.163 HD
ATOM     75  C   UNL     1      25.793  26.879  14.143  1.00  0.00     0.114 C 
ATOM     76  O   UNL     1      26.666  27.388  16.266  1.00  0.00    -0.275 OA
ENDBRANCH   4  72
TORSDOF 30
