REMARK VINA RESULT:    -4.780      3.481      9.593
REMARK INTER + INTRA:         -21.497
REMARK INTER:                 -15.196
REMARK INTRA:                  -6.301
REMARK UNBOUND:                -8.334
REMARK SMILES CC[N+](C)(CC)CCCn1cc(COC(=O)NC[C@@H](O)C(O)[C@@H]2O[C@@](OC[C@H]3O[C@@H](O[C@H]4[C@H](O)[C@@H](O)[C@H](OCCN=[N+]=[N-])O[C@@H]4CO)[C@H](O)[C@@H](O)[C@H]3O)(C(=O)O)C[C@H](O)[C@H]2NC(C)=O)nn1
REMARK SMILES IDX 21 1 23 2 25 3 57 4 24 5 58 6 60 7 26 8 27 9 28 10 30 11
REMARK SMILES IDX 29 12 48 13 50 14 52 15 31 16 32 17 45 18 44 19 37 20 33 21
REMARK SMILES IDX 35 22 46 23 47 24 38 26 39 27 40 28 41 29 42 30 43 31 34 32
REMARK SMILES IDX 36 34 49 36 51 38 53 40 54 42 55 43 56 44 59 46 61 48 62 49
REMARK SMILES IDX 63 51 64 52 22 53 19 55 20 56 18 58 17 59 15 60 16 62 14 63
REMARK SMILES IDX 13 64 12 65 11 66 65 67 10 68 66 69 9 70 8 71 7 72 3 73 4 74
REMARK SMILES IDX 2 75 1 76 5 77 6 78
REMARK H PARENT 47 25 34 33 36 35 49 37 51 39 53 41 56 45 59 47 61 50 22 54
REMARK H PARENT 20 57 17 61
REMARK Flexibility Score: inf
ROOT
ATOM      1  C   UNL     1      24.717  27.820  22.465  1.00  0.00     0.176 C 
ENDROOT
BRANCH   1   2
ATOM      2  C   UNL     1      23.949  26.515  22.278  1.00  0.00     0.178 C 
ATOM      3  C   UNL     1      22.636  25.008  23.530  1.00  0.00     0.272 C 
ATOM      4  C   UNL     1      23.217  23.990  22.606  1.00  0.00     0.113 C 
ATOM      5  O   UNL     1      23.555  26.094  23.528  1.00  0.00    -0.332 OA
ATOM      6  C   UNL     1      24.683  24.215  22.345  1.00  0.00     0.145 C 
ATOM      7  C   UNL     1      24.826  25.527  21.579  1.00  0.00     0.142 C 
BRANCH   3   8
ATOM      8  O   UNL     1      22.619  24.622  24.854  1.00  0.00    -0.338 OA
BRANCH   8   9
ATOM      9  C   UNL     1      23.314  25.314  25.773  1.00  0.00     0.199 C 
BRANCH   9  10
ATOM     10  C   UNL     1      22.416  25.694  26.980  1.00  0.00     0.179 C 
ATOM     11  C   UNL     1      24.005  26.460  28.546  1.00  0.00     0.282 C 
ATOM     12  O   UNL     1      23.027  25.550  28.163  1.00  0.00    -0.341 OA
ATOM     13  C   UNL     1      23.783  27.834  28.038  1.00  0.00     0.202 C 
ATOM     14  C   UNL     1      22.248  27.975  27.931  1.00  0.00     0.179 C 
ATOM     15  C   UNL     1      21.875  27.106  26.751  1.00  0.00     0.177 C 
BRANCH  11  16
ATOM     16  O   UNL     1      25.282  25.921  28.336  1.00  0.00    -0.341 OA
BRANCH  16  17
ATOM     17  C   UNL     1      26.167  26.264  29.316  1.00  0.00     0.184 C 
ATOM     18  C   UNL     1      27.573  26.520  28.986  1.00  0.00     0.178 C 
ATOM     19  O   UNL     1      28.200  27.116  30.065  1.00  0.00    -0.341 OA
ATOM     20  C   UNL     1      27.664  26.998  31.296  1.00  0.00     0.281 C 
ATOM     21  C   UNL     1      26.196  25.178  30.416  1.00  0.00     0.180 C 
ATOM     22  C   UNL     1      26.929  25.720  31.615  1.00  0.00     0.202 C 
BRANCH  18  23
ATOM     23  C   UNL     1      27.833  27.388  27.770  1.00  0.00     0.191 C 
BRANCH  23  24
ATOM     24  O   UNL     1      27.023  28.514  27.712  1.00  0.00    -0.394 OA
ATOM     25  H   UNL     1      27.244  29.059  28.534  1.00  0.00     0.210 HD
ENDBRANCH  23  24
ENDBRANCH  18  23
BRANCH  20  26
ATOM     26  O   UNL     1      26.940  28.125  31.641  1.00  0.00    -0.350 OA
BRANCH  26  27
ATOM     27  C   UNL     1      27.376  28.803  32.731  1.00  0.00     0.169 C 
BRANCH  27  28
ATOM     28  C   UNL     1      28.539  28.142  33.440  1.00  0.00     0.119 C 
BRANCH  28  29
ATOM     29  N   UNL     1      28.105  27.672  34.745  1.00  0.00    -0.092 NA
ATOM     30  N   UNL     1      27.785  26.507  34.965  1.00  0.00     0.001 N 
ATOM     31  N   UNL     1      27.482  25.338  35.213  1.00  0.00    -0.003 NA
ENDBRANCH  28  29
ENDBRANCH  27  28
ENDBRANCH  26  27
ENDBRANCH  20  26
BRANCH  21  32
ATOM     32  O   UNL     1      24.891  24.806  30.641  1.00  0.00    -0.387 OA
ATOM     33  H   UNL     1      24.566  24.064  30.108  1.00  0.00     0.211 HD
ENDBRANCH  21  32
BRANCH  22  34
ATOM     34  O   UNL     1      27.758  24.729  32.118  1.00  0.00    -0.385 OA
ATOM     35  H   UNL     1      27.973  24.015  31.463  1.00  0.00     0.211 HD
ENDBRANCH  22  34
ENDBRANCH  16  17
ENDBRANCH  11  16
BRANCH  13  36
ATOM     36  O   UNL     1      24.194  28.839  28.927  1.00  0.00    -0.385 OA
ATOM     37  H   UNL     1      24.089  29.696  28.459  1.00  0.00     0.211 HD
ENDBRANCH  13  36
BRANCH  14  38
ATOM     38  O   UNL     1      21.923  29.308  27.679  1.00  0.00    -0.387 OA
ATOM     39  H   UNL     1      21.388  29.617  28.439  1.00  0.00     0.211 HD
ENDBRANCH  14  38
BRANCH  15  40
ATOM     40  O   UNL     1      22.563  27.628  25.657  1.00  0.00    -0.387 OA
ATOM     41  H   UNL     1      22.152  27.473  24.794  1.00  0.00     0.211 HD
ENDBRANCH  15  40
ENDBRANCH   9  10
ENDBRANCH   8   9
ENDBRANCH   3   8
BRANCH   3  42
ATOM     42  C   UNL     1      21.304  25.503  23.142  1.00  0.00     0.364 C 
ATOM     43  O   UNL     1      20.551  24.850  22.387  1.00  0.00    -0.246 OA
BRANCH  42  44
ATOM     44  O   UNL     1      20.840  26.712  23.600  1.00  0.00    -0.477 OA
ATOM     45  H   UNL     1      21.287  27.602  23.385  1.00  0.00     0.296 HD
ENDBRANCH  42  44
ENDBRANCH   3  42
BRANCH   6  46
ATOM     46  O   UNL     1      25.444  24.269  23.489  1.00  0.00    -0.391 OA
ATOM     47  H   UNL     1      24.887  24.137  24.317  1.00  0.00     0.211 HD
ENDBRANCH   6  46
BRANCH   7  48
ATOM     48  N   UNL     1      24.253  25.244  20.252  1.00  0.00    -0.348 N 
ATOM     49  C   UNL     1      25.075  24.870  19.153  1.00  0.00     0.217 C 
ATOM     50  H   UNL     1      23.235  25.305  20.045  1.00  0.00     0.163 HD
ATOM     51  C   UNL     1      24.541  24.573  17.800  1.00  0.00     0.114 C 
ATOM     52  O   UNL     1      26.302  24.785  19.338  1.00  0.00    -0.275 OA
ENDBRANCH   7  48
ENDBRANCH   1   2
BRANCH   1  53
ATOM     53  O   UNL     1      25.088  27.928  23.849  1.00  0.00    -0.388 OA
ATOM     54  H   UNL     1      24.543  28.669  24.222  1.00  0.00     0.211 HD
ENDBRANCH   1  53
BRANCH   1  55
ATOM     55  C   UNL     1      23.850  29.000  22.171  1.00  0.00     0.165 C 
BRANCH  55  56
ATOM     56  O   UNL     1      22.853  28.938  23.232  1.00  0.00    -0.388 OA
ATOM     57  H   UNL     1      21.976  29.206  22.817  1.00  0.00     0.211 HD
ENDBRANCH  55  56
BRANCH  55  58
ATOM     58  C   UNL     1      23.118  29.018  20.881  1.00  0.00     0.154 C 
BRANCH  58  59
ATOM     59  N   UNL     1      21.732  28.913  20.796  1.00  0.00    -0.319 N 
ATOM     60  C   UNL     1      20.959  27.846  20.280  1.00  0.00     0.407 C 
ATOM     61  H   UNL     1      21.144  29.765  21.172  1.00  0.00     0.167 HD
ATOM     62  O   UNL     1      21.446  26.805  19.812  1.00  0.00    -0.225 OA
BRANCH  60  63
ATOM     63  O   UNL     1      19.546  27.941  20.273  1.00  0.00    -0.443 OA
BRANCH  63  64
ATOM     64  C   UNL     1      18.961  28.796  19.272  1.00  0.00     0.294 C 
BRANCH  64  65
ATOM     65  C   UNL     1      17.492  28.762  19.619  1.00  0.00     0.120 A 
ATOM     66  C   UNL     1      16.513  29.600  19.140  1.00  0.00     0.138 A 
ATOM     67  N   UNL     1      16.843  27.896  20.405  1.00  0.00    -0.132 NA
ATOM     68  N   UNL     1      15.303  29.208  19.655  1.00  0.00    -0.252 N 
ATOM     69  N   UNL     1      15.553  28.164  20.424  1.00  0.00    -0.067 NA
BRANCH  68  70
ATOM     70  C   UNL     1      14.018  29.812  19.352  1.00  0.00     0.152 C 
BRANCH  70  71
ATOM     71  C   UNL     1      14.006  30.510  18.061  1.00  0.00     0.085 C 
BRANCH  71  72
ATOM     72  C   UNL     1      13.534  29.828  16.844  1.00  0.00     0.265 C 
BRANCH  72  73
ATOM     73  N   UNL     1      13.719  30.462  15.581  1.00  0.00    -0.326 N 
ATOM     74  C   UNL     1      14.504  29.625  14.714  1.00  0.00     0.334 C 
BRANCH  73  75
ATOM     75  C   UNL     1      14.245  31.796  15.625  1.00  0.00     0.260 C 
ATOM     76  C   UNL     1      15.066  32.150  14.407  1.00  0.00     0.071 C 
ENDBRANCH  73  75
BRANCH  73  77
ATOM     77  C   UNL     1      12.386  30.520  14.959  1.00  0.00     0.260 C 
ATOM     78  C   UNL     1      11.441  29.483  15.454  1.00  0.00     0.071 C 
ENDBRANCH  73  77
ENDBRANCH  72  73
ENDBRANCH  71  72
ENDBRANCH  70  71
ENDBRANCH  68  70
ENDBRANCH  64  65
ENDBRANCH  63  64
ENDBRANCH  60  63
ENDBRANCH  58  59
ENDBRANCH  55  58
ENDBRANCH   1  55
TORSDOF 35
