REMARK VINA RESULT:    -4.609      3.183     10.715
REMARK INTER + INTRA:         -21.641
REMARK INTER:                 -14.033
REMARK INTRA:                  -7.608
REMARK UNBOUND:                -8.679
REMARK SMILES CCOC(CCn1cc(COC(=O)NC[C@@H](O)C(O)[C@@H]2O[C@@](OC[C@H]3O[C@@H](O[C@H]4[C@H](O)[C@@H](O)[C@H](OCCN=[N+]=[N-])O[C@@H]4CO)[C@H](O)[C@@H](O)[C@H]3O)(C(=O)O)C[C@H](O)[C@H]2NC(C)=O)nn1)OCC
REMARK SMILES IDX 18 1 20 2 22 3 54 4 21 5 55 6 57 7 23 8 24 9 25 10 27 11
REMARK SMILES IDX 26 12 45 13 47 14 49 15 28 16 29 17 42 18 41 19 34 20 30 21
REMARK SMILES IDX 32 22 43 23 44 24 35 26 36 27 37 28 38 29 39 30 40 31 31 32
REMARK SMILES IDX 33 34 46 36 48 38 50 40 51 42 52 43 53 44 56 46 58 48 59 49
REMARK SMILES IDX 60 51 61 52 19 53 16 55 17 56 15 58 14 59 12 60 13 62 11 63
REMARK SMILES IDX 10 64 9 65 8 66 62 67 7 68 63 69 6 70 5 71 4 72 3 73 2 74
REMARK SMILES IDX 1 75 64 76 65 77 66 78
REMARK H PARENT 44 25 31 33 33 35 46 37 48 39 50 41 53 45 56 47 58 50 19 54
REMARK H PARENT 17 57 14 61
REMARK Flexibility Score: inf
ROOT
ATOM      1  C   UNL     1      18.512  30.966  23.257  1.00  0.00     0.176 C 
ENDROOT
BRANCH   1   2
ATOM      2  C   UNL     1      19.309  30.524  22.065  1.00  0.00     0.178 C 
ATOM      3  C   UNL     1      19.783  28.729  20.685  1.00  0.00     0.272 C 
ATOM      4  C   UNL     1      20.536  29.808  19.991  1.00  0.00     0.113 C 
ATOM      5  O   UNL     1      19.119  29.168  21.853  1.00  0.00    -0.332 OA
ATOM      6  C   UNL     1      21.364  30.693  20.857  1.00  0.00     0.145 C 
ATOM      7  C   UNL     1      20.817  30.677  22.290  1.00  0.00     0.142 C 
BRANCH   3   8
ATOM      8  O   UNL     1      20.417  27.590  20.979  1.00  0.00    -0.338 OA
BRANCH   8   9
ATOM      9  C   UNL     1      21.539  27.211  20.340  1.00  0.00     0.199 C 
BRANCH   9  10
ATOM     10  C   UNL     1      22.428  26.381  21.238  1.00  0.00     0.179 C 
ATOM     11  C   UNL     1      22.673  25.374  23.231  1.00  0.00     0.282 C 
ATOM     12  O   UNL     1      21.738  25.669  22.202  1.00  0.00    -0.341 OA
ATOM     13  C   UNL     1      23.613  24.349  22.715  1.00  0.00     0.202 C 
ATOM     14  C   UNL     1      24.281  24.856  21.459  1.00  0.00     0.179 C 
ATOM     15  C   UNL     1      23.328  25.437  20.448  1.00  0.00     0.177 C 
BRANCH  11  16
ATOM     16  O   UNL     1      21.970  25.012  24.385  1.00  0.00    -0.341 OA
BRANCH  16  17
ATOM     17  C   UNL     1      22.165  25.961  25.338  1.00  0.00     0.184 C 
ATOM     18  C   UNL     1      22.350  25.536  26.744  1.00  0.00     0.178 C 
ATOM     19  O   UNL     1      22.913  26.608  27.449  1.00  0.00    -0.341 OA
ATOM     20  C   UNL     1      21.992  27.662  27.552  1.00  0.00     0.281 C 
ATOM     21  C   UNL     1      20.949  26.939  25.391  1.00  0.00     0.180 C 
ATOM     22  C   UNL     1      21.494  28.125  26.200  1.00  0.00     0.202 C 
BRANCH  18  23
ATOM     23  C   UNL     1      23.282  24.367  26.848  1.00  0.00     0.191 C 
BRANCH  23  24
ATOM     24  O   UNL     1      24.437  24.672  27.567  1.00  0.00    -0.394 OA
ATOM     25  H   UNL     1      24.897  25.462  27.232  1.00  0.00     0.210 HD
ENDBRANCH  23  24
ENDBRANCH  18  23
BRANCH  20  26
ATOM     26  O   UNL     1      22.665  28.717  28.143  1.00  0.00    -0.350 OA
BRANCH  26  27
ATOM     27  C   UNL     1      22.813  28.667  29.496  1.00  0.00     0.169 C 
BRANCH  27  28
ATOM     28  C   UNL     1      24.179  29.160  29.893  1.00  0.00     0.119 C 
BRANCH  28  29
ATOM     29  N   UNL     1      25.193  28.412  29.153  1.00  0.00    -0.092 NA
ATOM     30  N   UNL     1      25.347  27.232  29.530  1.00  0.00     0.001 N 
ATOM     31  N   UNL     1      25.914  26.228  29.966  1.00  0.00    -0.003 NA
ENDBRANCH  28  29
ENDBRANCH  27  28
ENDBRANCH  26  27
ENDBRANCH  20  26
BRANCH  21  32
ATOM     32  O   UNL     1      20.577  27.339  24.135  1.00  0.00    -0.387 OA
ATOM     33  H   UNL     1      21.323  27.727  23.616  1.00  0.00     0.211 HD
ENDBRANCH  21  32
BRANCH  22  34
ATOM     34  O   UNL     1      20.536  29.087  26.378  1.00  0.00    -0.385 OA
ATOM     35  H   UNL     1      20.668  29.464  27.302  1.00  0.00     0.211 HD
ENDBRANCH  22  34
ENDBRANCH  16  17
ENDBRANCH  11  16
BRANCH  13  36
ATOM     36  O   UNL     1      24.653  24.103  23.625  1.00  0.00    -0.385 OA
ATOM     37  H   UNL     1      24.360  24.230  24.556  1.00  0.00     0.211 HD
ENDBRANCH  13  36
BRANCH  14  38
ATOM     38  O   UNL     1      25.131  23.906  20.902  1.00  0.00    -0.387 OA
ATOM     39  H   UNL     1      25.082  23.044  21.397  1.00  0.00     0.211 HD
ENDBRANCH  14  38
BRANCH  15  40
ATOM     40  O   UNL     1      22.549  24.469  19.831  1.00  0.00    -0.387 OA
ATOM     41  H   UNL     1      21.718  24.857  19.476  1.00  0.00     0.211 HD
ENDBRANCH  15  40
ENDBRANCH   9  10
ENDBRANCH   8   9
ENDBRANCH   3   8
BRANCH   3  42
ATOM     42  C   UNL     1      18.651  28.358  19.777  1.00  0.00     0.364 C 
ATOM     43  O   UNL     1      18.826  28.151  18.562  1.00  0.00    -0.246 OA
BRANCH  42  44
ATOM     44  O   UNL     1      17.352  28.228  20.257  1.00  0.00    -0.477 OA
ATOM     45  H   UNL     1      16.588  28.543  19.668  1.00  0.00     0.296 HD
ENDBRANCH  42  44
ENDBRANCH   3  42
BRANCH   6  46
ATOM     46  O   UNL     1      22.710  30.425  20.843  1.00  0.00    -0.391 OA
ATOM     47  H   UNL     1      23.285  31.218  20.976  1.00  0.00     0.211 HD
ENDBRANCH   6  46
BRANCH   7  48
ATOM     48  N   UNL     1      21.166  31.851  23.020  1.00  0.00    -0.348 N 
ATOM     49  C   UNL     1      22.072  31.722  24.111  1.00  0.00     0.217 C 
ATOM     50  H   UNL     1      20.797  32.795  22.796  1.00  0.00     0.163 HD
ATOM     51  C   UNL     1      22.456  32.926  24.891  1.00  0.00     0.114 C 
ATOM     52  O   UNL     1      22.564  30.588  24.433  1.00  0.00    -0.275 OA
ENDBRANCH   7  48
ENDBRANCH   1   2
BRANCH   1  53
ATOM     53  O   UNL     1      18.145  32.302  23.018  1.00  0.00    -0.388 OA
ATOM     54  H   UNL     1      18.509  32.897  23.737  1.00  0.00     0.211 HD
ENDBRANCH   1  53
BRANCH   1  55
ATOM     55  C   UNL     1      17.229  30.158  23.283  1.00  0.00     0.165 C 
BRANCH  55  56
ATOM     56  O   UNL     1      16.563  30.249  22.096  1.00  0.00    -0.388 OA
ATOM     57  H   UNL     1      17.109  30.579  21.338  1.00  0.00     0.211 HD
ENDBRANCH  55  56
BRANCH  55  58
ATOM     58  C   UNL     1      16.353  30.606  24.420  1.00  0.00     0.154 C 
BRANCH  58  59
ATOM     59  N   UNL     1      14.948  30.376  24.250  1.00  0.00    -0.319 N 
ATOM     60  C   UNL     1      13.999  31.359  23.931  1.00  0.00     0.407 C 
ATOM     61  H   UNL     1      14.630  29.367  24.384  1.00  0.00     0.167 HD
ATOM     62  O   UNL     1      14.291  32.553  23.752  1.00  0.00    -0.225 OA
BRANCH  60  63
ATOM     63  O   UNL     1      12.634  31.019  23.798  1.00  0.00    -0.443 OA
BRANCH  63  64
ATOM     64  C   UNL     1      12.289  29.748  23.227  1.00  0.00     0.294 C 
BRANCH  64  65
ATOM     65  C   UNL     1      13.052  29.577  21.964  1.00  0.00     0.120 A 
ATOM     66  C   UNL     1      13.008  30.375  20.846  1.00  0.00     0.138 A 
ATOM     67  N   UNL     1      13.917  28.596  21.696  1.00  0.00    -0.132 NA
ATOM     68  N   UNL     1      13.855  29.836  19.945  1.00  0.00    -0.252 N 
ATOM     69  N   UNL     1      14.390  28.760  20.493  1.00  0.00    -0.067 NA
BRANCH  68  70
ATOM     70  C   UNL     1      14.095  30.379  18.640  1.00  0.00     0.151 C 
BRANCH  70  71
ATOM     71  C   UNL     1      14.974  29.538  17.760  1.00  0.00     0.086 C 
BRANCH  71  72
ATOM     72  C   UNL     1      16.271  30.296  17.479  1.00  0.00     0.251 C 
BRANCH  72  73
ATOM     73  O   UNL     1      15.982  31.639  17.630  1.00  0.00    -0.353 OA
BRANCH  73  74
ATOM     74  C   UNL     1      17.113  32.396  17.909  1.00  0.00     0.160 C 
ATOM     75  C   UNL     1      17.605  32.159  19.323  1.00  0.00     0.035 C 
ENDBRANCH  73  74
ENDBRANCH  72  73
BRANCH  72  76
ATOM     76  O   UNL     1      16.834  29.934  16.293  1.00  0.00    -0.353 OA
BRANCH  76  77
ATOM     77  C   UNL     1      16.342  28.815  15.678  1.00  0.00     0.160 C 
ATOM     78  C   UNL     1      16.566  28.926  14.188  1.00  0.00     0.035 C 
ENDBRANCH  76  77
ENDBRANCH  72  76
ENDBRANCH  71  72
ENDBRANCH  70  71
ENDBRANCH  68  70
ENDBRANCH  64  65
ENDBRANCH  63  64
ENDBRANCH  60  63
ENDBRANCH  58  59
ENDBRANCH  55  58
ENDBRANCH   1  55
TORSDOF 36
