REMARK VINA RESULT:    -6.425      9.137     14.079
REMARK INTER + INTRA:         -21.012
REMARK INTER:                 -15.488
REMARK INTRA:                  -5.524
REMARK UNBOUND:                -4.822
REMARK SMILES CC(=O)N[C@@H]1[C@@H](O)C[C@](OC[C@H]2O[C@@H](O[C@H]3[C@H](O)[C@@H](O)[C@H](OCCN=[N+]=[N-])O[C@@H]3CO)[C@H](O)[C@@H](O)[C@H]2O)(C(=O)O)O[C@H]1C(O)[C@H](O)CNC(=O)OCc1cn(Cc2ccccc2Br)nn1
REMARK SMILES IDX 9 1 8 2 6 3 5 4 42 5 41 6 10 7 11 8 12 9 14 10 13 11 32 12
REMARK SMILES IDX 34 13 36 14 15 15 16 16 29 17 28 18 21 19 17 20 19 21 30 22
REMARK SMILES IDX 31 23 22 25 23 26 24 27 25 28 26 29 27 30 18 31 20 33 33 35
REMARK SMILES IDX 35 37 37 39 38 41 39 42 40 43 7 45 43 47 44 48 45 50 46 51
REMARK SMILES IDX 47 53 48 54 49 55 50 57 51 58 52 59 53 60 54 61 65 62 55 63
REMARK SMILES IDX 64 64 56 65 57 66 58 67 62 68 59 69 61 70 63 71 60 72 4 73
REMARK SMILES IDX 2 74 1 76 3 77
REMARK H PARENT 31 24 18 32 20 34 33 36 35 38 37 40 40 44 7 46 44 49 46 52
REMARK H PARENT 48 56 4 75
REMARK Flexibility Score: inf
ROOT
ATOM      1  C   UNL     1      13.828  32.787  19.950  1.00  0.00     0.272 C 
ATOM      2  C   UNL     1      14.284  33.050  21.330  1.00  0.00     0.113 C 
ATOM      3  C   UNL     1      13.439  32.344  22.330  1.00  0.00     0.145 C 
ATOM      4  C   UNL     1      13.443  30.871  22.032  1.00  0.00     0.142 C 
ATOM      5  C   UNL     1      13.496  30.542  20.590  1.00  0.00     0.178 C 
ATOM      6  O   UNL     1      14.171  31.366  19.760  1.00  0.00    -0.332 OA
ENDROOT
BRANCH   1   7
ATOM      7  O   UNL     1      14.517  33.409  18.975  1.00  0.00    -0.338 OA
BRANCH   7   8
ATOM      8  C   UNL     1      15.717  33.214  18.531  1.00  0.00     0.199 C 
BRANCH   8   9
ATOM      9  C   UNL     1      16.203  32.373  17.435  1.00  0.00     0.179 C 
ATOM     10  C   UNL     1      16.265  31.831  15.208  1.00  0.00     0.282 C 
ATOM     11  O   UNL     1      16.105  32.886  16.138  1.00  0.00    -0.341 OA
ATOM     12  C   UNL     1      17.740  31.546  15.145  1.00  0.00     0.202 C 
ATOM     13  C   UNL     1      18.320  31.361  16.504  1.00  0.00     0.179 C 
ATOM     14  C   UNL     1      17.374  31.489  17.665  1.00  0.00     0.177 C 
BRANCH  10  15
ATOM     15  O   UNL     1      15.745  32.271  14.028  1.00  0.00    -0.341 OA
BRANCH  15  16
ATOM     16  C   UNL     1      14.462  31.931  13.722  1.00  0.00     0.184 C 
ATOM     17  C   UNL     1      13.696  31.221  14.783  1.00  0.00     0.178 C 
ATOM     18  O   UNL     1      13.101  30.098  14.215  1.00  0.00    -0.341 OA
ATOM     19  C   UNL     1      14.170  29.251  13.826  1.00  0.00     0.281 C 
ATOM     20  C   UNL     1      14.338  31.198  12.396  1.00  0.00     0.180 C 
ATOM     21  C   UNL     1      14.761  29.748  12.534  1.00  0.00     0.202 C 
BRANCH  17  22
ATOM     22  C   UNL     1      12.558  32.072  15.343  1.00  0.00     0.191 C 
BRANCH  22  23
ATOM     23  O   UNL     1      13.056  33.049  16.205  1.00  0.00    -0.394 OA
ATOM     24  H   UNL     1      13.212  32.705  17.114  1.00  0.00     0.210 HD
ENDBRANCH  22  23
ENDBRANCH  17  22
BRANCH  19  25
ATOM     25  O   UNL     1      13.623  27.975  13.726  1.00  0.00    -0.350 OA
BRANCH  25  26
ATOM     26  C   UNL     1      12.229  28.011  13.689  1.00  0.00     0.169 C 
BRANCH  26  27
ATOM     27  C   UNL     1      11.798  27.766  12.253  1.00  0.00     0.119 C 
BRANCH  27  28
ATOM     28  N   UNL     1      10.960  28.865  11.846  1.00  0.00    -0.092 NA
ATOM     29  N   UNL     1       9.994  29.231  12.522  1.00  0.00     0.001 N 
ATOM     30  N   UNL     1       8.853  29.214  13.028  1.00  0.00    -0.003 NA
ENDBRANCH  27  28
ENDBRANCH  26  27
ENDBRANCH  25  26
ENDBRANCH  19  25
BRANCH  20  31
ATOM     31  O   UNL     1      13.010  31.175  11.963  1.00  0.00    -0.387 OA
ATOM     32  H   UNL     1      12.721  30.221  11.997  1.00  0.00     0.211 HD
ENDBRANCH  20  31
BRANCH  21  33
ATOM     33  O   UNL     1      16.116  29.567  12.426  1.00  0.00    -0.385 OA
ATOM     34  H   UNL     1      16.552  29.828  13.270  1.00  0.00     0.211 HD
ENDBRANCH  21  33
ENDBRANCH  15  16
ENDBRANCH  10  15
BRANCH  12  35
ATOM     35  O   UNL     1      18.000  30.361  14.439  1.00  0.00    -0.385 OA
ATOM     36  H   UNL     1      17.310  30.293  13.741  1.00  0.00     0.211 HD
ENDBRANCH  12  35
BRANCH  13  37
ATOM     37  O   UNL     1      19.356  32.287  16.686  1.00  0.00    -0.387 OA
ATOM     38  H   UNL     1      20.105  31.913  17.193  1.00  0.00     0.211 HD
ENDBRANCH  13  37
BRANCH  14  39
ATOM     39  O   UNL     1      18.137  31.869  18.759  1.00  0.00    -0.387 OA
ATOM     40  H   UNL     1      17.671  32.342  19.463  1.00  0.00     0.211 HD
ENDBRANCH  14  39
ENDBRANCH   8   9
ENDBRANCH   7   8
ENDBRANCH   1   7
BRANCH   1  41
ATOM     41  C   UNL     1      12.372  32.738  19.700  1.00  0.00     0.364 C 
ATOM     42  O   UNL     1      11.480  33.276  20.394  1.00  0.00    -0.246 OA
BRANCH  41  43
ATOM     43  O   UNL     1      11.913  32.030  18.602  1.00  0.00    -0.477 OA
ATOM     44  H   UNL     1      10.917  31.884  18.434  1.00  0.00     0.296 HD
ENDBRANCH  41  43
ENDBRANCH   1  41
BRANCH   3  45
ATOM     45  O   UNL     1      14.102  32.540  23.585  1.00  0.00    -0.391 OA
ATOM     46  H   UNL     1      14.993  32.139  23.571  1.00  0.00     0.211 HD
ENDBRANCH   3  45
BRANCH   5  47
ATOM     47  C   UNL     1      14.107  29.149  20.409  1.00  0.00     0.176 C 
BRANCH  47  48
ATOM     48  O   UNL     1      14.385  28.654  21.674  1.00  0.00    -0.388 OA
ATOM     49  H   UNL     1      15.304  28.798  21.958  1.00  0.00     0.211 HD
ENDBRANCH  47  48
BRANCH  47  50
ATOM     50  C   UNL     1      15.355  29.168  19.598  1.00  0.00     0.165 C 
BRANCH  50  51
ATOM     51  O   UNL     1      15.144  28.678  18.297  1.00  0.00    -0.388 OA
ATOM     52  H   UNL     1      15.758  27.922  18.113  1.00  0.00     0.211 HD
ENDBRANCH  50  51
BRANCH  50  53
ATOM     53  C   UNL     1      16.396  28.265  20.206  1.00  0.00     0.154 C 
BRANCH  53  54
ATOM     54  N   UNL     1      17.679  28.870  20.158  1.00  0.00    -0.319 N 
ATOM     55  C   UNL     1      18.616  28.666  19.124  1.00  0.00     0.407 C 
ATOM     56  H   UNL     1      17.945  29.518  20.957  1.00  0.00     0.167 HD
ATOM     57  O   UNL     1      18.364  27.914  18.149  1.00  0.00    -0.225 OA
BRANCH  55  58
ATOM     58  O   UNL     1      19.868  29.294  19.139  1.00  0.00    -0.443 OA
BRANCH  58  59
ATOM     59  C   UNL     1      21.062  28.560  19.195  1.00  0.00     0.294 C 
BRANCH  59  60
ATOM     60  C   UNL     1      21.103  27.545  20.272  1.00  0.00     0.120 A 
ATOM     61  C   UNL     1      21.935  26.415  20.248  1.00  0.00     0.138 A 
ATOM     62  N   UNL     1      20.421  27.464  21.418  1.00  0.00    -0.132 NA
ATOM     63  N   UNL     1      21.719  25.721  21.360  1.00  0.00    -0.248 N 
ATOM     64  N   UNL     1      20.790  26.378  22.062  1.00  0.00    -0.067 NA
BRANCH  63  65
ATOM     65  C   UNL     1      22.344  24.479  21.813  1.00  0.00     0.182 C 
BRANCH  65  66
ATOM     66  C   UNL     1      22.828  24.536  23.209  1.00  0.00    -0.012 A 
ATOM     67  C   UNL     1      21.856  24.537  24.224  1.00  0.00     0.007 A 
ATOM     68  C   UNL     1      24.146  24.615  23.568  1.00  0.00     0.023 A 
ATOM     69  C   UNL     1      22.257  24.619  25.522  1.00  0.00     0.000 A 
ATOM     70  C   UNL     1      24.538  24.699  24.895  1.00  0.00     0.016 A 
ATOM     71  Br  UNL     1      25.511  24.558  22.248  1.00  0.00    -0.050 Br
ATOM     72  C   UNL     1      23.578  24.700  25.872  1.00  0.00     0.001 A 
ENDBRANCH  65  66
ENDBRANCH  63  65
ENDBRANCH  59  60
ENDBRANCH  58  59
ENDBRANCH  55  58
ENDBRANCH  53  54
ENDBRANCH  50  53
ENDBRANCH  47  50
ENDBRANCH   5  47
BRANCH   4  73
ATOM     73  N   UNL     1      12.286  30.268  22.640  1.00  0.00    -0.348 N 
ATOM     74  C   UNL     1      12.302  29.669  23.936  1.00  0.00     0.217 C 
ATOM     75  H   UNL     1      11.363  30.235  22.157  1.00  0.00     0.163 HD
ATOM     76  C   UNL     1      11.060  29.058  24.506  1.00  0.00     0.114 C 
ATOM     77  O   UNL     1      13.366  29.671  24.568  1.00  0.00    -0.275 OA
ENDBRANCH   4  73
TORSDOF 31
