REMARK VINA RESULT:    -6.814      2.378      6.934
REMARK INTER + INTRA:         -21.789
REMARK INTER:                 -14.301
REMARK INTRA:                  -7.487
REMARK UNBOUND:                -5.017
REMARK SMILES CC(=O)N[C@@H]1[C@@H](O)C[C@](OC[C@H]2O[C@@H](O[C@H]3[C@H](O)[C@@H](O)[C@H](OCCN=[N+]=[N-])O[C@@H]3CO)[C@H](O)[C@@H](O)[C@H]2O)(C(=O)O)O[C@H]1C(O)[C@H](O)CNC(=O)OCc1cn(C2CCCCC2)nn1
REMARK SMILES IDX 9 1 8 2 6 3 5 4 42 5 41 6 10 7 11 8 12 9 14 10 13 11 32 12
REMARK SMILES IDX 34 13 36 14 15 15 16 16 29 17 28 18 21 19 17 20 19 21 30 22
REMARK SMILES IDX 31 23 22 25 23 26 24 27 25 28 26 29 27 30 18 31 20 33 33 35
REMARK SMILES IDX 35 37 37 39 38 41 39 42 40 43 7 45 43 47 44 48 45 50 46 51
REMARK SMILES IDX 47 53 48 54 49 55 50 57 51 58 52 59 53 60 54 61 63 62 55 63
REMARK SMILES IDX 62 64 56 65 57 66 61 67 58 68 60 69 59 70 4 71 2 72 1 74
REMARK SMILES IDX 3 75
REMARK H PARENT 31 24 18 32 20 34 33 36 35 38 37 40 40 44 7 46 44 49 46 52
REMARK H PARENT 48 56 4 73
REMARK Flexibility Score: inf
ROOT
ATOM      1  C   UNL     1      15.008  30.936  15.897  1.00  0.00     0.272 C 
ATOM      2  C   UNL     1      14.254  30.437  14.609  1.00  0.00     0.113 C 
ATOM      3  C   UNL     1      15.020  29.306  13.994  1.00  0.00     0.145 C 
ATOM      4  C   UNL     1      16.440  29.710  13.701  1.00  0.00     0.142 C 
ATOM      5  C   UNL     1      17.036  30.595  14.740  1.00  0.00     0.178 C 
ATOM      6  O   UNL     1      16.289  31.231  15.619  1.00  0.00    -0.332 OA
ENDROOT
BRANCH   1   7
ATOM      7  O   UNL     1      14.861  29.924  16.740  1.00  0.00    -0.338 OA
BRANCH   7   8
ATOM      8  C   UNL     1      15.376  29.597  17.877  1.00  0.00     0.199 C 
BRANCH   8   9
ATOM      9  C   UNL     1      14.531  29.209  19.080  1.00  0.00     0.179 C 
ATOM     10  C   UNL     1      15.357  29.211  21.275  1.00  0.00     0.282 C 
ATOM     11  O   UNL     1      15.247  28.575  20.043  1.00  0.00    -0.341 OA
ATOM     12  C   UNL     1      14.007  29.548  21.784  1.00  0.00     0.202 C 
ATOM     13  C   UNL     1      13.140  30.274  20.784  1.00  0.00     0.179 C 
ATOM     14  C   UNL     1      13.906  30.522  19.541  1.00  0.00     0.177 C 
BRANCH  10  15
ATOM     15  O   UNL     1      16.283  30.180  21.152  1.00  0.00    -0.341 OA
BRANCH  15  16
ATOM     16  C   UNL     1      17.494  30.054  21.750  1.00  0.00     0.184 C 
ATOM     17  C   UNL     1      17.898  31.415  22.277  1.00  0.00     0.178 C 
ATOM     18  O   UNL     1      18.970  31.348  23.146  1.00  0.00    -0.341 OA
ATOM     19  C   UNL     1      19.796  30.273  22.951  1.00  0.00     0.281 C 
ATOM     20  C   UNL     1      18.609  29.653  20.807  1.00  0.00     0.180 C 
ATOM     21  C   UNL     1      19.918  29.905  21.518  1.00  0.00     0.202 C 
BRANCH  17  22
ATOM     22  C   UNL     1      16.750  32.216  22.820  1.00  0.00     0.191 C 
BRANCH  22  23
ATOM     23  O   UNL     1      16.120  32.835  21.739  1.00  0.00    -0.394 OA
ATOM     24  H   UNL     1      15.474  32.238  21.292  1.00  0.00     0.210 HD
ENDBRANCH  22  23
ENDBRANCH  17  22
BRANCH  19  25
ATOM     25  O   UNL     1      19.452  29.268  23.815  1.00  0.00    -0.350 OA
BRANCH  25  26
ATOM     26  C   UNL     1      20.508  28.756  24.552  1.00  0.00     0.169 C 
BRANCH  26  27
ATOM     27  C   UNL     1      20.850  29.568  25.772  1.00  0.00     0.119 C 
BRANCH  27  28
ATOM     28  N   UNL     1      22.283  29.778  25.790  1.00  0.00    -0.092 NA
ATOM     29  N   UNL     1      22.718  30.641  25.015  1.00  0.00     0.001 N 
ATOM     30  N   UNL     1      23.307  31.035  23.993  1.00  0.00    -0.003 NA
ENDBRANCH  27  28
ENDBRANCH  26  27
ENDBRANCH  25  26
ENDBRANCH  19  25
BRANCH  20  31
ATOM     31  O   UNL     1      18.567  28.333  20.429  1.00  0.00    -0.387 OA
ATOM     32  H   UNL     1      17.720  27.884  20.670  1.00  0.00     0.211 HD
ENDBRANCH  20  31
BRANCH  21  33
ATOM     33  O   UNL     1      20.509  31.013  20.861  1.00  0.00    -0.385 OA
ATOM     34  H   UNL     1      20.356  31.842  21.376  1.00  0.00     0.211 HD
ENDBRANCH  21  33
ENDBRANCH  15  16
ENDBRANCH  10  15
BRANCH  12  35
ATOM     35  O   UNL     1      13.360  28.308  22.027  1.00  0.00    -0.385 OA
ATOM     36  H   UNL     1      12.384  28.391  21.959  1.00  0.00     0.211 HD
ENDBRANCH  12  35
BRANCH  13  37
ATOM     37  O   UNL     1      12.673  31.494  21.312  1.00  0.00    -0.387 OA
ATOM     38  H   UNL     1      13.426  32.101  21.401  1.00  0.00     0.211 HD
ENDBRANCH  13  37
BRANCH  14  39
ATOM     39  O   UNL     1      14.778  31.576  19.547  1.00  0.00    -0.387 OA
ATOM     40  H   UNL     1      14.787  31.963  20.454  1.00  0.00     0.211 HD
ENDBRANCH  14  39
ENDBRANCH   8   9
ENDBRANCH   7   8
ENDBRANCH   1   7
BRANCH   1  41
ATOM     41  C   UNL     1      14.306  32.232  16.202  1.00  0.00     0.364 C 
ATOM     42  O   UNL     1      13.217  32.559  15.744  1.00  0.00    -0.246 OA
BRANCH  41  43
ATOM     43  O   UNL     1      14.912  33.159  17.072  1.00  0.00    -0.477 OA
ATOM     44  H   UNL     1      15.189  34.067  16.734  1.00  0.00     0.296 HD
ENDBRANCH  41  43
ENDBRANCH   1  41
BRANCH   3  45
ATOM     45  O   UNL     1      14.951  28.158  14.774  1.00  0.00    -0.391 OA
ATOM     46  H   UNL     1      15.041  27.372  14.160  1.00  0.00     0.211 HD
ENDBRANCH   3  45
BRANCH   5  47
ATOM     47  C   UNL     1      18.113  29.807  15.548  1.00  0.00     0.176 C 
BRANCH  47  48
ATOM     48  O   UNL     1      17.789  28.438  15.506  1.00  0.00    -0.388 OA
ATOM     49  H   UNL     1      18.511  27.883  15.862  1.00  0.00     0.211 HD
ENDBRANCH  47  48
BRANCH  47  50
ATOM     50  C   UNL     1      19.488  30.075  15.042  1.00  0.00     0.165 C 
BRANCH  50  51
ATOM     51  O   UNL     1      19.736  29.117  14.030  1.00  0.00    -0.388 OA
ATOM     52  H   UNL     1      20.421  28.475  14.300  1.00  0.00     0.211 HD
ENDBRANCH  50  51
BRANCH  50  53
ATOM     53  C   UNL     1      20.600  29.958  16.016  1.00  0.00     0.154 C 
BRANCH  53  54
ATOM     54  N   UNL     1      20.580  28.787  16.854  1.00  0.00    -0.319 N 
ATOM     55  C   UNL     1      21.201  28.733  18.131  1.00  0.00     0.407 C 
ATOM     56  H   UNL     1      20.088  27.940  16.521  1.00  0.00     0.167 HD
ATOM     57  O   UNL     1      21.805  29.738  18.579  1.00  0.00    -0.225 OA
BRANCH  55  58
ATOM     58  O   UNL     1      21.167  27.607  18.906  1.00  0.00    -0.443 OA
BRANCH  58  59
ATOM     59  C   UNL     1      22.268  26.948  19.484  1.00  0.00     0.294 C 
BRANCH  59  60
ATOM     60  C   UNL     1      21.866  26.412  20.803  1.00  0.00     0.120 A 
ATOM     61  C   UNL     1      22.716  25.711  21.610  1.00  0.00     0.138 A 
ATOM     62  N   UNL     1      20.689  26.483  21.434  1.00  0.00    -0.132 NA
ATOM     63  N   UNL     1      22.045  25.362  22.731  1.00  0.00    -0.249 N 
ATOM     64  N   UNL     1      20.812  25.846  22.596  1.00  0.00    -0.067 NA
BRANCH  63  65
ATOM     65  C   UNL     1      22.579  24.605  23.846  1.00  0.00     0.109 C 
ATOM     66  C   UNL     1      22.206  25.394  25.097  1.00  0.00     0.027 C 
ATOM     67  C   UNL     1      24.088  24.535  23.760  1.00  0.00     0.027 C 
ATOM     68  C   UNL     1      22.658  24.611  26.330  1.00  0.00     0.002 C 
ATOM     69  C   UNL     1      24.764  24.981  25.040  1.00  0.00     0.002 C 
ATOM     70  C   UNL     1      24.123  24.331  26.228  1.00  0.00     0.000 C 
ENDBRANCH  63  65
ENDBRANCH  59  60
ENDBRANCH  58  59
ENDBRANCH  55  58
ENDBRANCH  53  54
ENDBRANCH  50  53
ENDBRANCH  47  50
ENDBRANCH   5  47
BRANCH   4  71
ATOM     71  N   UNL     1      16.592  30.200  12.356  1.00  0.00    -0.348 N 
ATOM     72  C   UNL     1      17.447  29.638  11.393  1.00  0.00     0.217 C 
ATOM     73  H   UNL     1      16.039  31.050  12.012  1.00  0.00     0.163 HD
ATOM     74  C   UNL     1      17.545  30.193  10.000  1.00  0.00     0.114 C 
ATOM     75  O   UNL     1      18.154  28.664  11.648  1.00  0.00    -0.275 OA
ENDBRANCH   4  71
TORSDOF 30
