REMARK VINA RESULT:    -5.911     10.754     16.979
REMARK INTER + INTRA:         -21.327
REMARK INTER:                 -12.363
REMARK INTRA:                  -8.964
REMARK UNBOUND:                -6.778
REMARK SMILES CC(=O)N[C@@H]1[C@@H](O)C[C@](OC[C@H]2O[C@@H](O[C@H]3[C@H](O)[C@@H](O)[C@H](OCCN=[N+]=[N-])O[C@@H]3CO)[C@H](O)[C@@H](O)[C@H]2O)(C(=O)O)O[C@H]1C(O)[C@H](O)CNC(=O)OCc1cn(-c2ccc3c(c2)OCO3)nn1
REMARK SMILES IDX 9 1 8 2 6 3 5 4 42 5 41 6 10 7 11 8 12 9 14 10 13 11 32 12
REMARK SMILES IDX 34 13 36 14 15 15 16 16 29 17 28 18 21 19 17 20 19 21 30 22
REMARK SMILES IDX 31 23 22 25 23 26 24 27 25 28 26 29 27 30 18 31 20 33 33 35
REMARK SMILES IDX 35 37 37 39 38 41 39 42 40 43 7 45 43 47 44 48 45 50 46 51
REMARK SMILES IDX 47 53 48 54 49 55 50 57 51 58 52 59 53 60 54 61 66 62 55 63
REMARK SMILES IDX 65 64 56 65 57 66 61 67 58 68 60 69 59 70 62 71 64 72 63 73
REMARK SMILES IDX 4 74 2 75 1 77 3 78
REMARK H PARENT 31 24 18 32 20 34 33 36 35 38 37 40 40 44 7 46 44 49 46 52
REMARK H PARENT 48 56 4 76
REMARK Flexibility Score: inf
ROOT
ATOM      1  C   UNL     1      22.860  21.122  12.941  1.00  0.00     0.272 C 
ATOM      2  C   UNL     1      22.897  22.235  13.950  1.00  0.00     0.113 C 
ATOM      3  C   UNL     1      23.543  23.511  13.377  1.00  0.00     0.145 C 
ATOM      4  C   UNL     1      25.000  23.156  13.166  1.00  0.00     0.142 C 
ATOM      5  C   UNL     1      24.996  21.902  12.317  1.00  0.00     0.178 C 
ATOM      6  O   UNL     1      23.777  21.478  11.911  1.00  0.00    -0.332 OA
ENDROOT
BRANCH   1   7
ATOM      7  O   UNL     1      21.696  20.972  12.330  1.00  0.00    -0.338 OA
BRANCH   7   8
ATOM      8  C   UNL     1      20.665  20.210  12.530  1.00  0.00     0.199 C 
BRANCH   8   9
ATOM      9  C   UNL     1      19.987  19.464  11.412  1.00  0.00     0.179 C 
ATOM     10  C   UNL     1      19.315  19.851   9.216  1.00  0.00     0.282 C 
ATOM     11  O   UNL     1      19.635  20.369  10.444  1.00  0.00    -0.341 OA
ATOM     12  C   UNL     1      19.146  18.369   9.202  1.00  0.00     0.202 C 
ATOM     13  C   UNL     1      20.371  17.655   9.749  1.00  0.00     0.179 C 
ATOM     14  C   UNL     1      21.017  18.462  10.829  1.00  0.00     0.177 C 
BRANCH  10  15
ATOM     15  O   UNL     1      20.395  20.141   8.357  1.00  0.00    -0.341 OA
BRANCH  15  16
ATOM     16  C   UNL     1      20.104  21.111   7.434  1.00  0.00     0.184 C 
ATOM     17  C   UNL     1      20.941  20.897   6.200  1.00  0.00     0.178 C 
ATOM     18  O   UNL     1      22.188  21.473   6.264  1.00  0.00    -0.341 OA
ATOM     19  C   UNL     1      22.677  21.568   7.568  1.00  0.00     0.281 C 
ATOM     20  C   UNL     1      20.378  22.447   8.085  1.00  0.00     0.180 C 
ATOM     21  C   UNL     1      21.854  22.513   8.408  1.00  0.00     0.202 C 
BRANCH  17  22
ATOM     22  C   UNL     1      20.253  21.444   4.957  1.00  0.00     0.191 C 
BRANCH  22  23
ATOM     23  O   UNL     1      18.937  21.008   4.875  1.00  0.00    -0.394 OA
ATOM     24  H   UNL     1      18.835  20.045   5.151  1.00  0.00     0.210 HD
ENDBRANCH  22  23
ENDBRANCH  17  22
BRANCH  19  25
ATOM     25  O   UNL     1      23.955  22.098   7.453  1.00  0.00    -0.350 OA
BRANCH  25  26
ATOM     26  C   UNL     1      23.911  23.191   6.594  1.00  0.00     0.169 C 
BRANCH  26  27
ATOM     27  C   UNL     1      25.088  24.129   6.838  1.00  0.00     0.119 C 
BRANCH  27  28
ATOM     28  N   UNL     1      26.213  23.284   7.264  1.00  0.00    -0.092 NA
ATOM     29  N   UNL     1      27.279  23.834   7.615  1.00  0.00     0.001 N 
ATOM     30  N   UNL     1      28.254  24.563   7.873  1.00  0.00    -0.003 NA
ENDBRANCH  27  28
ENDBRANCH  26  27
ENDBRANCH  25  26
ENDBRANCH  19  25
BRANCH  20  31
ATOM     31  O   UNL     1      19.951  23.522   7.333  1.00  0.00    -0.387 OA
ATOM     32  H   UNL     1      19.181  23.311   6.726  1.00  0.00     0.211 HD
ENDBRANCH  20  31
BRANCH  21  33
ATOM     33  O   UNL     1      22.009  22.134   9.743  1.00  0.00    -0.385 OA
ATOM     34  H   UNL     1      21.970  21.152   9.871  1.00  0.00     0.211 HD
ENDBRANCH  21  33
ENDBRANCH  15  16
ENDBRANCH  10  15
BRANCH  12  35
ATOM     35  O   UNL     1      18.023  17.910   9.886  1.00  0.00    -0.385 OA
ATOM     36  H   UNL     1      17.211  18.322   9.455  1.00  0.00     0.211 HD
ENDBRANCH  12  35
BRANCH  13  37
ATOM     37  O   UNL     1      21.256  17.448   8.689  1.00  0.00    -0.387 OA
ATOM     38  H   UNL     1      22.155  17.195   8.968  1.00  0.00     0.211 HD
ENDBRANCH  13  37
BRANCH  14  39
ATOM     39  O   UNL     1      22.089  19.159  10.280  1.00  0.00    -0.387 OA
ATOM     40  H   UNL     1      22.889  19.155  10.831  1.00  0.00     0.211 HD
ENDBRANCH  14  39
ENDBRANCH   8   9
ENDBRANCH   7   8
ENDBRANCH   1   7
BRANCH   1  41
ATOM     41  C   UNL     1      23.400  19.852  13.525  1.00  0.00     0.364 C 
ATOM     42  O   UNL     1      23.429  19.799  14.805  1.00  0.00    -0.246 OA
BRANCH  41  43
ATOM     43  O   UNL     1      23.855  18.777  12.832  1.00  0.00    -0.477 OA
ATOM     44  H   UNL     1      23.533  18.519  11.912  1.00  0.00     0.296 HD
ENDBRANCH  41  43
ENDBRANCH   1  41
BRANCH   3  45
ATOM     45  O   UNL     1      22.894  23.735  12.155  1.00  0.00    -0.391 OA
ATOM     46  H   UNL     1      23.528  23.647  11.409  1.00  0.00     0.211 HD
ENDBRANCH   3  45
BRANCH   5  47
ATOM     47  C   UNL     1      25.738  22.308  11.026  1.00  0.00     0.176 C 
BRANCH  47  48
ATOM     48  O   UNL     1      24.940  22.963  10.133  1.00  0.00    -0.388 OA
ATOM     49  H   UNL     1      24.014  22.621  10.080  1.00  0.00     0.211 HD
ENDBRANCH  47  48
BRANCH  47  50
ATOM     50  C   UNL     1      26.965  23.153  11.343  1.00  0.00     0.165 C 
BRANCH  50  51
ATOM     51  O   UNL     1      26.932  24.374  10.758  1.00  0.00    -0.388 OA
ATOM     52  H   UNL     1      26.060  24.698  10.451  1.00  0.00     0.211 HD
ENDBRANCH  50  51
BRANCH  50  53
ATOM     53  C   UNL     1      28.149  22.349  10.905  1.00  0.00     0.154 C 
BRANCH  53  54
ATOM     54  N   UNL     1      28.521  21.353  11.861  1.00  0.00    -0.319 N 
ATOM     55  C   UNL     1      29.028  20.063  11.561  1.00  0.00     0.407 C 
ATOM     56  H   UNL     1      28.430  21.546  12.921  1.00  0.00     0.167 HD
ATOM     57  O   UNL     1      29.203  19.703  10.379  1.00  0.00    -0.225 OA
BRANCH  55  58
ATOM     58  O   UNL     1      29.347  19.153  12.573  1.00  0.00    -0.443 OA
BRANCH  58  59
ATOM     59  C   UNL     1      28.392  18.411  13.280  1.00  0.00     0.294 C 
BRANCH  59  60
ATOM     60  C   UNL     1      28.032  19.163  14.529  1.00  0.00     0.121 A 
ATOM     61  C   UNL     1      28.577  18.945  15.796  1.00  0.00     0.144 A 
ATOM     62  N   UNL     1      27.159  20.166  14.685  1.00  0.00    -0.131 NA
ATOM     63  N   UNL     1      28.014  19.816  16.662  1.00  0.00    -0.220 N 
ATOM     64  N   UNL     1      27.165  20.532  15.942  1.00  0.00    -0.062 NA
BRANCH  63  65
ATOM     65  C   UNL     1      28.265  19.960  18.038  1.00  0.00     0.070 A 
ATOM     66  C   UNL     1      28.028  21.149  18.669  1.00  0.00     0.032 A 
ATOM     67  C   UNL     1      28.750  18.903  18.771  1.00  0.00     0.079 A 
ATOM     68  C   UNL     1      28.280  21.275  20.043  1.00  0.00     0.053 A 
ATOM     69  C   UNL     1      29.003  19.010  20.122  1.00  0.00     0.167 A 
ATOM     70  C   UNL     1      28.764  20.204  20.751  1.00  0.00     0.165 A 
ATOM     71  O   UNL     1      29.481  18.099  21.037  1.00  0.00    -0.454 OA
ATOM     72  O   UNL     1      29.095  20.053  22.092  1.00  0.00    -0.454 OA
ATOM     73  C   UNL     1      29.809  18.853  22.211  1.00  0.00     0.468 C 
ENDBRANCH  63  65
ENDBRANCH  59  60
ENDBRANCH  58  59
ENDBRANCH  55  58
ENDBRANCH  53  54
ENDBRANCH  50  53
ENDBRANCH  47  50
ENDBRANCH   5  47
BRANCH   4  74
ATOM     74  N   UNL     1      25.640  23.006  14.437  1.00  0.00    -0.348 N 
ATOM     75  C   UNL     1      26.361  24.095  15.054  1.00  0.00     0.217 C 
ATOM     76  H   UNL     1      25.644  22.132  15.003  1.00  0.00     0.163 HD
ATOM     77  C   UNL     1      27.022  23.926  16.375  1.00  0.00     0.114 C 
ATOM     78  O   UNL     1      26.426  25.181  14.470  1.00  0.00    -0.275 OA
ENDBRANCH   4  74
TORSDOF 30
