REMARK VINA RESULT:    -5.402     14.444     20.038
REMARK INTER + INTRA:         -22.978
REMARK INTER:                 -12.567
REMARK INTRA:                 -10.411
REMARK UNBOUND:                -8.417
REMARK SMILES CC(=O)N[C@@H]1[C@@H](O)C[C@](OC[C@H]2O[C@@H](O[C@H]3[C@H](O)[C@@H](O)[C@H](OCCN=[N+]=[N-])O[C@@H]3CO)[C@H](O)[C@@H](O)[C@H]2O)(C(=O)O)O[C@H]1C(O)[C@H](O)CNC(=O)OCc1cn(CCNC(=O)NCc2ccco2)nn1
REMARK SMILES IDX 43 1 42 2 9 3 8 4 41 5 6 6 5 7 10 8 11 9 12 10 14 11 13 12
REMARK SMILES IDX 32 13 34 14 36 15 15 16 16 17 29 18 28 19 21 20 17 21 19 22
REMARK SMILES IDX 30 23 31 24 22 26 23 27 24 28 25 29 26 30 27 31 18 32 20 34
REMARK SMILES IDX 33 36 35 38 37 40 38 42 39 43 40 44 7 46 4 48 2 49 1 51 3 52
REMARK SMILES IDX 44 53 45 55 46 56 47 58 48 59 49 60 50 62 51 63 52 64 53 65
REMARK SMILES IDX 54 66 69 67 55 68 68 69 56 70 57 71 58 72 59 73 60 75 61 76
REMARK SMILES IDX 62 78 63 79 64 80 67 81 65 82 66 83
REMARK H PARENT 31 25 18 33 20 35 33 37 35 39 37 41 40 45 7 47 4 50 44 54
REMARK H PARENT 46 57 48 61 58 74 61 77
REMARK Flexibility Score: inf
ROOT
ATOM      1  C   UNL     1      10.462  26.264  34.312  1.00  0.00     0.176 C 
ENDROOT
BRANCH   1   2
ATOM      2  C   UNL     1      11.502  25.477  35.043  1.00  0.00     0.178 C 
ATOM      3  C   UNL     1      10.402  23.655  36.103  1.00  0.00     0.272 C 
ATOM      4  C   UNL     1      10.041  24.767  37.140  1.00  0.00     0.113 C 
ATOM      5  O   UNL     1      11.220  24.150  35.152  1.00  0.00    -0.332 OA
ATOM      6  C   UNL     1      11.188  25.638  37.467  1.00  0.00     0.145 C 
ATOM      7  C   UNL     1      12.024  26.087  36.293  1.00  0.00     0.142 C 
BRANCH   3   8
ATOM      8  O   UNL     1       9.188  23.357  35.522  1.00  0.00    -0.338 OA
BRANCH   8   9
ATOM      9  C   UNL     1       8.060  23.904  35.965  1.00  0.00     0.199 C 
BRANCH   9  10
ATOM     10  C   UNL     1       6.986  24.474  35.175  1.00  0.00     0.179 C 
ATOM     11  C   UNL     1       6.038  26.273  34.114  1.00  0.00     0.282 C 
ATOM     12  O   UNL     1       7.214  25.725  34.627  1.00  0.00    -0.341 OA
ATOM     13  C   UNL     1       4.973  25.292  33.788  1.00  0.00     0.202 C 
ATOM     14  C   UNL     1       5.441  23.933  33.356  1.00  0.00     0.179 C 
ATOM     15  C   UNL     1       6.763  23.556  33.956  1.00  0.00     0.177 C 
BRANCH  11  16
ATOM     16  O   UNL     1       6.274  27.080  33.013  1.00  0.00    -0.341 OA
BRANCH  16  17
ATOM     17  C   UNL     1       5.135  27.813  32.623  1.00  0.00     0.184 C 
ATOM     18  C   UNL     1       5.351  28.252  31.205  1.00  0.00     0.178 C 
ATOM     19  O   UNL     1       4.779  29.495  30.943  1.00  0.00    -0.341 OA
ATOM     20  C   UNL     1       5.495  30.424  31.688  1.00  0.00     0.281 C 
ATOM     21  C   UNL     1       4.943  28.913  33.614  1.00  0.00     0.180 C 
ATOM     22  C   UNL     1       5.120  30.301  33.127  1.00  0.00     0.202 C 
BRANCH  18  23
ATOM     23  C   UNL     1       4.638  27.257  30.288  1.00  0.00     0.191 C 
BRANCH  23  24
ATOM     24  O   UNL     1       5.424  26.085  30.267  1.00  0.00    -0.394 OA
ATOM     25  H   UNL     1       5.015  25.526  29.543  1.00  0.00     0.210 HD
ENDBRANCH  23  24
ENDBRANCH  18  23
BRANCH  20  26
ATOM     26  O   UNL     1       5.075  31.683  31.249  1.00  0.00    -0.350 OA
BRANCH  26  27
ATOM     27  C   UNL     1       3.805  31.626  30.674  1.00  0.00     0.169 C 
BRANCH  27  28
ATOM     28  C   UNL     1       3.811  32.623  29.513  1.00  0.00     0.119 C 
BRANCH  28  29
ATOM     29  N   UNL     1       4.493  31.968  28.411  1.00  0.00    -0.092 NA
ATOM     30  N   UNL     1       4.114  30.865  27.993  1.00  0.00     0.001 N 
ATOM     31  N   UNL     1       3.537  29.934  27.404  1.00  0.00    -0.003 NA
ENDBRANCH  28  29
ENDBRANCH  27  28
ENDBRANCH  26  27
ENDBRANCH  20  26
BRANCH  21  32
ATOM     32  O   UNL     1       3.656  28.755  34.166  1.00  0.00    -0.387 OA
ATOM     33  H   UNL     1       3.684  28.429  35.083  1.00  0.00     0.211 HD
ENDBRANCH  21  32
BRANCH  22  34
ATOM     34  O   UNL     1       6.181  30.893  33.858  1.00  0.00    -0.385 OA
ATOM     35  H   UNL     1       6.741  30.120  34.173  1.00  0.00     0.211 HD
ENDBRANCH  22  34
ENDBRANCH  16  17
ENDBRANCH  11  16
BRANCH  13  36
ATOM     36  O   UNL     1       3.981  25.218  34.775  1.00  0.00    -0.385 OA
ATOM     37  H   UNL     1       3.431  26.032  34.806  1.00  0.00     0.211 HD
ENDBRANCH  13  36
BRANCH  14  38
ATOM     38  O   UNL     1       5.480  23.814  31.961  1.00  0.00    -0.387 OA
ATOM     39  H   UNL     1       6.147  23.094  31.780  1.00  0.00     0.211 HD
ENDBRANCH  14  38
BRANCH  15  40
ATOM     40  O   UNL     1       7.818  23.628  33.079  1.00  0.00    -0.387 OA
ATOM     41  H   UNL     1       8.545  23.081  33.429  1.00  0.00     0.211 HD
ENDBRANCH  15  40
ENDBRANCH   9  10
ENDBRANCH   8   9
ENDBRANCH   3   8
BRANCH   3  42
ATOM     42  C   UNL     1      10.888  22.560  36.939  1.00  0.00     0.364 C 
ATOM     43  O   UNL     1      10.731  22.563  38.168  1.00  0.00    -0.246 OA
BRANCH  42  44
ATOM     44  O   UNL     1      11.557  21.442  36.429  1.00  0.00    -0.477 OA
ATOM     45  H   UNL     1      11.659  20.615  37.019  1.00  0.00     0.296 HD
ENDBRANCH  42  44
ENDBRANCH   3  42
BRANCH   6  46
ATOM     46  O   UNL     1      10.682  26.777  38.119  1.00  0.00    -0.391 OA
ATOM     47  H   UNL     1      11.409  27.442  38.218  1.00  0.00     0.211 HD
ENDBRANCH   6  46
BRANCH   7  48
ATOM     48  N   UNL     1      13.415  25.705  36.539  1.00  0.00    -0.348 N 
ATOM     49  C   UNL     1      14.479  26.468  36.040  1.00  0.00     0.217 C 
ATOM     50  H   UNL     1      13.593  24.846  37.101  1.00  0.00     0.163 HD
ATOM     51  C   UNL     1      15.915  26.119  36.263  1.00  0.00     0.114 C 
ATOM     52  O   UNL     1      14.188  27.505  35.363  1.00  0.00    -0.275 OA
ENDBRANCH   7  48
ENDBRANCH   1   2
BRANCH   1  53
ATOM     53  O   UNL     1       9.921  25.419  33.280  1.00  0.00    -0.388 OA
ATOM     54  H   UNL     1       9.367  26.000  32.737  1.00  0.00     0.211 HD
ENDBRANCH   1  53
BRANCH   1  55
ATOM     55  C   UNL     1      10.949  27.454  33.537  1.00  0.00     0.165 C 
BRANCH  55  56
ATOM     56  O   UNL     1      12.270  27.450  33.157  1.00  0.00    -0.388 OA
ATOM     57  H   UNL     1      12.836  28.069  33.683  1.00  0.00     0.211 HD
ENDBRANCH  55  56
BRANCH  55  58
ATOM     58  C   UNL     1      10.597  28.762  34.251  1.00  0.00     0.154 C 
BRANCH  58  59
ATOM     59  N   UNL     1       9.172  28.879  34.445  1.00  0.00    -0.319 N 
ATOM     60  C   UNL     1       8.562  28.904  35.720  1.00  0.00     0.407 C 
ATOM     61  H   UNL     1       8.566  28.951  33.605  1.00  0.00     0.167 HD
ATOM     62  O   UNL     1       9.281  28.823  36.749  1.00  0.00    -0.225 OA
BRANCH  60  63
ATOM     63  O   UNL     1       7.184  29.015  35.876  1.00  0.00    -0.443 OA
BRANCH  63  64
ATOM     64  C   UNL     1       6.648  29.105  37.192  1.00  0.00     0.294 C 
BRANCH  64  65
ATOM     65  C   UNL     1       5.893  27.830  37.396  1.00  0.00     0.120 A 
ATOM     66  C   UNL     1       6.375  26.721  38.036  1.00  0.00     0.138 A 
ATOM     67  N   UNL     1       4.627  27.561  36.993  1.00  0.00    -0.132 NA
ATOM     68  N   UNL     1       5.403  25.821  38.003  1.00  0.00    -0.250 N 
ATOM     69  N   UNL     1       4.348  26.335  37.370  1.00  0.00    -0.067 NA
BRANCH  68  70
ATOM     70  C   UNL     1       5.494  24.474  38.566  1.00  0.00     0.167 C 
BRANCH  70  71
ATOM     71  C   UNL     1       4.149  23.792  38.311  1.00  0.00     0.141 C 
BRANCH  71  72
ATOM     72  N   UNL     1       4.244  23.141  37.037  1.00  0.00    -0.336 N 
ATOM     73  C   UNL     1       3.158  22.519  36.389  1.00  0.00     0.315 C 
ATOM     74  H   UNL     1       5.195  23.141  36.581  1.00  0.00     0.165 HD
ATOM     75  O   UNL     1       2.024  22.483  36.914  1.00  0.00    -0.249 OA
ATOM     76  N   UNL     1       3.374  21.922  35.101  1.00  0.00    -0.331 N 
ATOM     77  H   UNL     1       4.344  21.977  34.698  1.00  0.00     0.165 HD
BRANCH  76  78
ATOM     78  C   UNL     1       2.292  21.281  34.407  1.00  0.00     0.193 C 
BRANCH  78  79
ATOM     79  C   UNL     1       2.713  20.896  33.034  1.00  0.00     0.122 A 
ATOM     80  C   UNL     1       2.145  19.861  32.301  1.00  0.00     0.047 A 
ATOM     81  O   UNL     1       3.642  21.440  32.323  1.00  0.00    -0.467 OA
ATOM     82  C   UNL     1       2.807  19.837  31.109  1.00  0.00     0.042 A 
ATOM     83  C   UNL     1       3.737  20.839  31.157  1.00  0.00     0.195 A 
ENDBRANCH  78  79
ENDBRANCH  76  78
ENDBRANCH  71  72
ENDBRANCH  70  71
ENDBRANCH  68  70
ENDBRANCH  64  65
ENDBRANCH  63  64
ENDBRANCH  60  63
ENDBRANCH  58  59
ENDBRANCH  55  58
ENDBRANCH   1  55
TORSDOF 34
