REMARK VINA RESULT:    -6.178      2.711      3.711
REMARK INTER + INTRA:         -21.504
REMARK INTER:                 -15.370
REMARK INTRA:                  -6.134
REMARK UNBOUND:                -6.298
REMARK SMILES CC(=O)N[C@@H]1[C@@H](O)C[C@](OC[C@H]2O[C@@H](O[C@H]3[C@H](O)[C@@H](O)[C@H](OCCN=[N+]=[N-])O[C@@H]3CO)[C@H](O)[C@@H](O)[C@H]2O)(C(=O)O)O[C@H]1C(O)[C@H](O)CNC(=O)OCc1cn(-c2c(C)cc(C)cc2C)nn1
REMARK SMILES IDX 9 1 8 2 6 3 5 4 42 5 41 6 10 7 11 8 12 9 14 10 13 11 32 12
REMARK SMILES IDX 34 13 36 14 15 15 16 16 29 17 28 18 21 19 17 20 19 21 30 22
REMARK SMILES IDX 31 23 22 25 23 26 24 27 25 28 26 29 27 30 18 31 20 33 33 35
REMARK SMILES IDX 35 37 37 39 38 41 39 42 40 43 7 45 43 47 44 48 45 50 46 51
REMARK SMILES IDX 47 53 48 54 49 55 50 57 51 58 52 59 53 60 54 61 66 62 55 63
REMARK SMILES IDX 65 64 56 65 57 66 63 67 58 68 59 69 62 70 64 71 60 72 61 73
REMARK SMILES IDX 4 74 2 75 1 77 3 78
REMARK H PARENT 31 24 18 32 20 34 33 36 35 38 37 40 40 44 7 46 44 49 46 52
REMARK H PARENT 48 56 4 76
REMARK Flexibility Score: inf
ROOT
ATOM      1  C   UNL     1      15.268  30.126  21.000  1.00  0.00     0.272 C 
ATOM      2  C   UNL     1      15.389  29.512  22.340  1.00  0.00     0.113 C 
ATOM      3  C   UNL     1      16.508  30.020  23.215  1.00  0.00     0.145 C 
ATOM      4  C   UNL     1      17.691  30.378  22.373  1.00  0.00     0.142 C 
ATOM      5  C   UNL     1      17.544  29.552  21.089  1.00  0.00     0.178 C 
ATOM      6  O   UNL     1      16.507  30.176  20.344  1.00  0.00    -0.332 OA
ENDROOT
BRANCH   1   7
ATOM      7  O   UNL     1      14.649  31.336  20.909  1.00  0.00    -0.338 OA
BRANCH   7   8
ATOM      8  C   UNL     1      15.362  32.456  20.684  1.00  0.00     0.199 C 
BRANCH   8   9
ATOM      9  C   UNL     1      14.753  33.154  19.459  1.00  0.00     0.179 C 
ATOM     10  C   UNL     1      13.777  32.521  17.473  1.00  0.00     0.282 C 
ATOM     11  O   UNL     1      14.842  32.344  18.343  1.00  0.00    -0.341 OA
ATOM     12  C   UNL     1      12.571  31.943  18.168  1.00  0.00     0.202 C 
ATOM     13  C   UNL     1      12.299  32.850  19.359  1.00  0.00     0.179 C 
ATOM     14  C   UNL     1      13.423  33.758  19.714  1.00  0.00     0.177 C 
BRANCH  10  15
ATOM     15  O   UNL     1      14.007  32.085  16.223  1.00  0.00    -0.341 OA
BRANCH  15  16
ATOM     16  C   UNL     1      14.891  31.089  16.018  1.00  0.00     0.184 C 
ATOM     17  C   UNL     1      16.005  31.579  15.110  1.00  0.00     0.178 C 
ATOM     18  O   UNL     1      15.885  31.137  13.827  1.00  0.00    -0.341 OA
ATOM     19  C   UNL     1      15.962  29.761  13.678  1.00  0.00     0.281 C 
ATOM     20  C   UNL     1      14.169  29.921  15.341  1.00  0.00     0.180 C 
ATOM     21  C   UNL     1      15.177  28.997  14.681  1.00  0.00     0.202 C 
BRANCH  17  22
ATOM     22  C   UNL     1      17.368  31.296  15.718  1.00  0.00     0.191 C 
BRANCH  22  23
ATOM     23  O   UNL     1      18.370  31.946  15.002  1.00  0.00    -0.394 OA
ATOM     24  H   UNL     1      18.263  32.924  14.972  1.00  0.00     0.210 HD
ENDBRANCH  22  23
ENDBRANCH  17  22
BRANCH  19  25
ATOM     25  O   UNL     1      17.295  29.325  13.702  1.00  0.00    -0.350 OA
BRANCH  25  26
ATOM     26  C   UNL     1      17.959  29.514  12.517  1.00  0.00     0.169 C 
BRANCH  26  27
ATOM     27  C   UNL     1      17.385  28.788  11.339  1.00  0.00     0.119 C 
BRANCH  27  28
ATOM     28  N   UNL     1      18.370  27.955  10.673  1.00  0.00    -0.092 NA
ATOM     29  N   UNL     1      19.014  28.385   9.695  1.00  0.00     0.001 N 
ATOM     30  N   UNL     1      19.584  29.012   8.794  1.00  0.00    -0.003 NA
ENDBRANCH  27  28
ENDBRANCH  26  27
ENDBRANCH  25  26
ENDBRANCH  19  25
BRANCH  20  31
ATOM     31  O   UNL     1      13.415  29.174  16.211  1.00  0.00    -0.387 OA
ATOM     32  H   UNL     1      12.549  28.857  15.847  1.00  0.00     0.211 HD
ENDBRANCH  20  31
BRANCH  21  33
ATOM     33  O   UNL     1      14.449  28.004  14.030  1.00  0.00    -0.385 OA
ATOM     34  H   UNL     1      14.406  28.176  13.048  1.00  0.00     0.211 HD
ENDBRANCH  21  33
ENDBRANCH  15  16
ENDBRANCH  10  15
BRANCH  12  35
ATOM     35  O   UNL     1      11.432  31.962  17.368  1.00  0.00    -0.385 OA
ATOM     36  H   UNL     1      11.632  32.569  16.593  1.00  0.00     0.211 HD
ENDBRANCH  12  35
BRANCH  13  37
ATOM     37  O   UNL     1      11.942  32.111  20.486  1.00  0.00    -0.387 OA
ATOM     38  H   UNL     1      11.602  32.671  21.229  1.00  0.00     0.211 HD
ENDBRANCH  13  37
BRANCH  14  39
ATOM     39  O   UNL     1      13.295  34.066  21.091  1.00  0.00    -0.387 OA
ATOM     40  H   UNL     1      14.181  34.193  21.502  1.00  0.00     0.211 HD
ENDBRANCH  14  39
ENDBRANCH   8   9
ENDBRANCH   7   8
ENDBRANCH   1   7
BRANCH   1  41
ATOM     41  C   UNL     1      14.497  29.136  20.155  1.00  0.00     0.364 C 
ATOM     42  O   UNL     1      13.710  28.364  20.712  1.00  0.00    -0.246 OA
BRANCH  41  43
ATOM     43  O   UNL     1      14.654  29.082  18.784  1.00  0.00    -0.477 OA
ATOM     44  H   UNL     1      14.567  28.249  18.228  1.00  0.00     0.296 HD
ENDBRANCH  41  43
ENDBRANCH   1  41
BRANCH   3  45
ATOM     45  O   UNL     1      15.998  31.084  23.956  1.00  0.00    -0.391 OA
ATOM     46  H   UNL     1      16.774  31.635  24.299  1.00  0.00     0.211 HD
ENDBRANCH   3  45
BRANCH   5  47
ATOM     47  C   UNL     1      18.714  29.587  20.187  1.00  0.00     0.176 C 
BRANCH  47  48
ATOM     48  O   UNL     1      19.239  30.929  20.260  1.00  0.00    -0.388 OA
ATOM     49  H   UNL     1      20.068  30.970  19.718  1.00  0.00     0.211 HD
ENDBRANCH  47  48
BRANCH  47  50
ATOM     50  C   UNL     1      18.458  29.440  18.700  1.00  0.00     0.165 C 
BRANCH  50  51
ATOM     51  O   UNL     1      18.206  28.018  18.587  1.00  0.00    -0.388 OA
ATOM     52  H   UNL     1      17.465  27.877  17.966  1.00  0.00     0.211 HD
ENDBRANCH  50  51
BRANCH  50  53
ATOM     53  C   UNL     1      19.723  29.613  17.896  1.00  0.00     0.154 C 
BRANCH  53  54
ATOM     54  N   UNL     1      20.926  29.124  18.496  1.00  0.00    -0.319 N 
ATOM     55  C   UNL     1      21.538  27.939  17.986  1.00  0.00     0.407 C 
ATOM     56  H   UNL     1      21.368  29.627  19.317  1.00  0.00     0.167 HD
ATOM     57  O   UNL     1      20.956  27.377  17.017  1.00  0.00    -0.225 OA
BRANCH  55  58
ATOM     58  O   UNL     1      22.713  27.417  18.513  1.00  0.00    -0.443 OA
BRANCH  58  59
ATOM     59  C   UNL     1      23.058  26.059  18.378  1.00  0.00     0.294 C 
BRANCH  59  60
ATOM     60  C   UNL     1      22.966  25.287  19.647  1.00  0.00     0.121 A 
ATOM     61  C   UNL     1      23.250  25.707  20.926  1.00  0.00     0.144 A 
ATOM     62  N   UNL     1      22.575  23.986  19.779  1.00  0.00    -0.131 NA
ATOM     63  N   UNL     1      23.035  24.692  21.779  1.00  0.00    -0.220 N 
ATOM     64  N   UNL     1      22.626  23.667  21.033  1.00  0.00    -0.062 NA
BRANCH  63  65
ATOM     65  C   UNL     1      23.206  24.666  23.209  1.00  0.00     0.072 A 
ATOM     66  C   UNL     1      22.064  24.667  23.971  1.00  0.00    -0.025 A 
ATOM     67  C   UNL     1      24.447  24.646  23.744  1.00  0.00    -0.025 A 
ATOM     68  C   UNL     1      20.701  24.691  23.335  1.00  0.00     0.047 C 
ATOM     69  C   UNL     1      22.206  24.645  25.344  1.00  0.00     0.009 A 
ATOM     70  C   UNL     1      24.541  24.625  25.140  1.00  0.00     0.009 A 
ATOM     71  C   UNL     1      25.704  24.642  22.953  1.00  0.00     0.047 C 
ATOM     72  C   UNL     1      23.434  24.624  25.954  1.00  0.00    -0.050 A 
ATOM     73  C   UNL     1      23.520  24.599  27.435  1.00  0.00     0.044 C 
ENDBRANCH  63  65
ENDBRANCH  59  60
ENDBRANCH  58  59
ENDBRANCH  55  58
ENDBRANCH  53  54
ENDBRANCH  50  53
ENDBRANCH  47  50
ENDBRANCH   5  47
BRANCH   4  74
ATOM     74  N   UNL     1      18.949  30.271  22.976  1.00  0.00    -0.348 N 
ATOM     75  C   UNL     1      19.762  31.394  23.303  1.00  0.00     0.217 C 
ATOM     76  H   UNL     1      19.326  29.340  23.228  1.00  0.00     0.163 HD
ATOM     77  C   UNL     1      21.101  31.244  23.949  1.00  0.00     0.114 C 
ATOM     78  O   UNL     1      19.316  32.522  23.034  1.00  0.00    -0.275 OA
ENDBRANCH   4  74
TORSDOF 30
