REMARK VINA RESULT:    -6.709      0.000      0.000
REMARK INTER + INTRA:         -21.730
REMARK INTER:                 -15.610
REMARK INTRA:                  -6.121
REMARK UNBOUND:                -5.215
REMARK SMILES CC(=O)N[C@@H]1[C@@H](O)C[C@](OC[C@H]2O[C@@H](O[C@H]3[C@H](O)[C@@H](O)[C@H](OCCN=[N+]=[N-])O[C@@H]3CO)[C@H](O)[C@@H](O)[C@H]2O)(C(=O)O)O[C@H]1C(O)[C@H](O)CNC(=O)OCc1cn(C2CCCC2)nn1
REMARK SMILES IDX 9 1 8 2 6 3 5 4 42 5 41 6 10 7 11 8 12 9 14 10 13 11 32 12
REMARK SMILES IDX 34 13 36 14 15 15 16 16 29 17 28 18 21 19 17 20 19 21 30 22
REMARK SMILES IDX 31 23 22 25 23 26 24 27 25 28 26 29 27 30 18 31 20 33 33 35
REMARK SMILES IDX 35 37 37 39 38 41 39 42 40 43 7 45 43 47 44 48 45 50 46 51
REMARK SMILES IDX 47 53 48 54 49 55 50 57 51 58 52 59 53 60 54 61 62 62 55 63
REMARK SMILES IDX 61 64 56 65 57 66 60 67 58 68 59 69 4 70 2 71 1 73 3 74
REMARK H PARENT 31 24 18 32 20 34 33 36 35 38 37 40 40 44 7 46 44 49 46 52
REMARK H PARENT 48 56 4 72
REMARK Flexibility Score: inf
ROOT
ATOM      1  C   UNL     1      20.522  28.046  21.077  1.00  0.00     0.272 C 
ATOM      2  C   UNL     1      20.733  29.369  21.714  1.00  0.00     0.113 C 
ATOM      3  C   UNL     1      19.568  29.878  22.488  1.00  0.00     0.145 C 
ATOM      4  C   UNL     1      18.277  29.773  21.642  1.00  0.00     0.142 C 
ATOM      5  C   UNL     1      18.655  29.210  20.317  1.00  0.00     0.178 C 
ATOM      6  O   UNL     1      19.185  27.913  20.637  1.00  0.00    -0.332 OA
ENDROOT
BRANCH   1   7
ATOM      7  O   UNL     1      20.794  26.998  21.882  1.00  0.00    -0.338 OA
BRANCH   7   8
ATOM      8  C   UNL     1      22.097  26.670  22.156  1.00  0.00     0.199 C 
BRANCH   8   9
ATOM      9  C   UNL     1      22.118  25.199  22.560  1.00  0.00     0.179 C 
ATOM     10  C   UNL     1      23.837  24.323  21.256  1.00  0.00     0.282 C 
ATOM     11  O   UNL     1      22.482  24.357  21.559  1.00  0.00    -0.341 OA
ATOM     12  C   UNL     1      24.723  24.558  22.430  1.00  0.00     0.202 C 
ATOM     13  C   UNL     1      24.094  24.246  23.752  1.00  0.00     0.179 C 
ATOM     14  C   UNL     1      22.818  25.045  23.857  1.00  0.00     0.177 C 
BRANCH  10  15
ATOM     15  O   UNL     1      24.140  25.125  20.157  1.00  0.00    -0.341 OA
BRANCH  15  16
ATOM     16  C   UNL     1      24.465  24.370  19.030  1.00  0.00     0.184 C 
ATOM     17  C   UNL     1      25.670  24.851  18.293  1.00  0.00     0.178 C 
ATOM     18  O   UNL     1      25.836  24.070  17.152  1.00  0.00    -0.341 OA
ATOM     19  C   UNL     1      24.917  24.445  16.188  1.00  0.00     0.281 C 
ATOM     20  C   UNL     1      23.282  24.511  18.081  1.00  0.00     0.180 C 
ATOM     21  C   UNL     1      23.559  24.004  16.703  1.00  0.00     0.202 C 
BRANCH  17  22
ATOM     22  C   UNL     1      26.969  24.687  19.075  1.00  0.00     0.191 C 
BRANCH  22  23
ATOM     23  O   UNL     1      26.858  23.449  19.728  1.00  0.00    -0.394 OA
ATOM     24  H   UNL     1      26.357  22.811  19.191  1.00  0.00     0.210 HD
ENDBRANCH  22  23
ENDBRANCH  17  22
BRANCH  19  25
ATOM     25  O   UNL     1      25.167  23.727  15.022  1.00  0.00    -0.350 OA
BRANCH  25  26
ATOM     26  C   UNL     1      25.595  22.429  15.347  1.00  0.00     0.169 C 
BRANCH  26  27
ATOM     27  C   UNL     1      25.150  21.441  14.283  1.00  0.00     0.119 C 
BRANCH  27  28
ATOM     28  N   UNL     1      23.752  21.146  14.405  1.00  0.00    -0.092 NA
ATOM     29  N   UNL     1      22.886  21.772  13.760  1.00  0.00     0.001 N 
ATOM     30  N   UNL     1      22.111  22.688  13.499  1.00  0.00    -0.003 NA
ENDBRANCH  27  28
ENDBRANCH  26  27
ENDBRANCH  25  26
ENDBRANCH  19  25
BRANCH  20  31
ATOM     31  O   UNL     1      22.251  23.754  18.632  1.00  0.00    -0.387 OA
ATOM     32  H   UNL     1      22.529  23.250  19.437  1.00  0.00     0.211 HD
ENDBRANCH  20  31
BRANCH  21  33
ATOM     33  O   UNL     1      22.601  24.554  15.837  1.00  0.00    -0.385 OA
ATOM     34  H   UNL     1      22.575  25.522  16.051  1.00  0.00     0.211 HD
ENDBRANCH  21  33
ENDBRANCH  15  16
ENDBRANCH  10  15
BRANCH  12  35
ATOM     35  O   UNL     1      25.888  23.758  22.358  1.00  0.00    -0.385 OA
ATOM     36  H   UNL     1      26.423  24.094  21.615  1.00  0.00     0.211 HD
ENDBRANCH  12  35
BRANCH  13  37
ATOM     37  O   UNL     1      24.942  24.638  24.770  1.00  0.00    -0.387 OA
ATOM     38  H   UNL     1      24.466  25.295  25.325  1.00  0.00     0.211 HD
ENDBRANCH  13  37
BRANCH  14  39
ATOM     39  O   UNL     1      23.108  26.244  24.494  1.00  0.00    -0.387 OA
ATOM     40  H   UNL     1      22.365  26.865  24.491  1.00  0.00     0.211 HD
ENDBRANCH  14  39
ENDBRANCH   8   9
ENDBRANCH   7   8
ENDBRANCH   1   7
BRANCH   1  41
ATOM     41  C   UNL     1      21.315  28.002  19.790  1.00  0.00     0.364 C 
ATOM     42  O   UNL     1      21.185  27.093  18.956  1.00  0.00    -0.246 OA
BRANCH  41  43
ATOM     43  O   UNL     1      22.211  29.057  19.594  1.00  0.00    -0.477 OA
ATOM     44  H   UNL     1      22.126  29.894  20.185  1.00  0.00     0.296 HD
ENDBRANCH  41  43
ENDBRANCH   1  41
BRANCH   3  45
ATOM     45  O   UNL     1      19.401  29.342  23.740  1.00  0.00    -0.391 OA
ATOM     46  H   UNL     1      19.057  30.025  24.360  1.00  0.00     0.211 HD
ENDBRANCH   3  45
BRANCH   5  47
ATOM     47  C   UNL     1      17.503  28.905  19.393  1.00  0.00     0.176 C 
BRANCH  47  48
ATOM     48  O   UNL     1      16.706  27.902  20.088  1.00  0.00    -0.388 OA
ATOM     49  H   UNL     1      16.230  27.460  19.348  1.00  0.00     0.211 HD
ENDBRANCH  47  48
BRANCH  47  50
ATOM     50  C   UNL     1      17.855  28.188  18.119  1.00  0.00     0.165 C 
BRANCH  50  51
ATOM     51  O   UNL     1      19.096  28.355  17.616  1.00  0.00    -0.388 OA
ATOM     52  H   UNL     1      19.183  28.237  16.645  1.00  0.00     0.211 HD
ENDBRANCH  50  51
BRANCH  50  53
ATOM     53  C   UNL     1      16.855  28.621  17.053  1.00  0.00     0.154 C 
BRANCH  53  54
ATOM     54  N   UNL     1      15.586  28.943  17.722  1.00  0.00    -0.319 N 
ATOM     55  C   UNL     1      14.746  29.976  17.235  1.00  0.00     0.407 C 
ATOM     56  H   UNL     1      15.270  28.418  18.577  1.00  0.00     0.167 HD
ATOM     57  O   UNL     1      15.100  30.621  16.214  1.00  0.00    -0.225 OA
BRANCH  55  58
ATOM     58  O   UNL     1      13.556  30.290  17.851  1.00  0.00    -0.443 OA
BRANCH  58  59
ATOM     59  C   UNL     1      13.484  31.163  18.962  1.00  0.00     0.294 C 
BRANCH  59  60
ATOM     60  C   UNL     1      13.444  30.453  20.260  1.00  0.00     0.120 A 
ATOM     61  C   UNL     1      13.083  30.894  21.513  1.00  0.00     0.138 A 
ATOM     62  N   UNL     1      13.781  29.157  20.434  1.00  0.00    -0.132 NA
ATOM     63  N   UNL     1      13.210  29.887  22.381  1.00  0.00    -0.249 N 
ATOM     64  N   UNL     1      13.636  28.843  21.689  1.00  0.00    -0.067 NA
BRANCH  63  65
ATOM     65  C   UNL     1      12.942  29.885  23.814  1.00  0.00     0.109 C 
ATOM     66  C   UNL     1      12.948  31.254  24.408  1.00  0.00     0.027 C 
ATOM     67  C   UNL     1      11.532  29.381  24.037  1.00  0.00     0.027 C 
ATOM     68  C   UNL     1      11.528  31.758  24.412  1.00  0.00     0.002 C 
ATOM     69  C   UNL     1      10.644  30.587  24.066  1.00  0.00     0.002 C 
ENDBRANCH  63  65
ENDBRANCH  59  60
ENDBRANCH  58  59
ENDBRANCH  55  58
ENDBRANCH  53  54
ENDBRANCH  50  53
ENDBRANCH  47  50
ENDBRANCH   5  47
BRANCH   4  70
ATOM     70  N   UNL     1      17.630  31.065  21.634  1.00  0.00    -0.348 N 
ATOM     71  C   UNL     1      16.697  31.412  22.686  1.00  0.00     0.217 C 
ATOM     72  H   UNL     1      17.806  31.795  20.914  1.00  0.00     0.163 HD
ATOM     73  C   UNL     1      16.022  32.733  22.698  1.00  0.00     0.114 C 
ATOM     74  O   UNL     1      16.440  30.598  23.613  1.00  0.00    -0.275 OA
ENDBRANCH   4  70
TORSDOF 30
