REMARK VINA RESULT:    -5.969      5.679     16.015
REMARK INTER + INTRA:         -21.631
REMARK INTER:                 -15.954
REMARK INTRA:                  -5.677
REMARK UNBOUND:                -6.939
REMARK SMILES CC(=O)N[C@@H]1[C@@H](O)C[C@](OC[C@H]2O[C@@H](O[C@H]3[C@H](O)[C@@H](O)[C@H](OCCN=[N+]=[N-])O[C@@H]3CO)[C@H](O)[C@@H](O)[C@H]2O)(C(=O)O)O[C@H]1C(O)[C@H](O)CNC(=O)OCc1cn([C@H]2C[C@H]3CC[C@@H](C2)N3C)nn1
REMARK SMILES IDX 9 1 8 2 6 3 5 4 42 5 41 6 10 7 11 8 12 9 14 10 13 11 32 12
REMARK SMILES IDX 34 13 36 14 15 15 16 16 29 17 28 18 21 19 17 20 19 21 30 22
REMARK SMILES IDX 31 23 22 25 23 26 24 27 25 28 26 29 27 30 18 31 20 33 33 35
REMARK SMILES IDX 35 37 37 39 38 41 39 42 40 43 7 45 43 47 44 48 45 50 46 51
REMARK SMILES IDX 47 53 48 54 49 55 50 57 51 58 52 59 53 60 54 61 66 62 55 63
REMARK SMILES IDX 65 64 56 65 62 66 57 67 61 68 58 69 63 70 60 71 59 72 64 73
REMARK SMILES IDX 4 74 2 75 1 77 3 78
REMARK H PARENT 31 24 18 32 20 34 33 36 35 38 37 40 40 44 7 46 44 49 46 52
REMARK H PARENT 48 56 4 76
REMARK Flexibility Score: inf
ROOT
ATOM      1  C   UNL     1      22.832  25.425  19.951  1.00  0.00     0.272 C 
ATOM      2  C   UNL     1      22.384  24.075  20.480  1.00  0.00     0.113 C 
ATOM      3  C   UNL     1      22.501  23.911  21.964  1.00  0.00     0.145 C 
ATOM      4  C   UNL     1      23.654  24.714  22.438  1.00  0.00     0.142 C 
ATOM      5  C   UNL     1      24.653  24.807  21.281  1.00  0.00     0.178 C 
ATOM      6  O   UNL     1      24.034  25.835  20.458  1.00  0.00    -0.332 OA
ENDROOT
BRANCH   1   7
ATOM      7  O   UNL     1      21.811  26.309  20.131  1.00  0.00    -0.338 OA
BRANCH   7   8
ATOM      8  C   UNL     1      22.062  27.630  20.220  1.00  0.00     0.199 C 
BRANCH   8   9
ATOM      9  C   UNL     1      21.268  28.457  21.160  1.00  0.00     0.179 C 
ATOM     10  C   UNL     1      19.201  29.357  21.286  1.00  0.00     0.282 C 
ATOM     11  O   UNL     1      19.880  28.182  20.941  1.00  0.00    -0.341 OA
ATOM     12  C   UNL     1      19.497  29.845  22.640  1.00  0.00     0.202 C 
ATOM     13  C   UNL     1      20.663  29.280  23.358  1.00  0.00     0.179 C 
ATOM     14  C   UNL     1      21.435  28.206  22.623  1.00  0.00     0.177 C 
BRANCH  10  15
ATOM     15  O   UNL     1      17.868  29.106  21.066  1.00  0.00    -0.341 OA
BRANCH  15  16
ATOM     16  C   UNL     1      17.556  29.014  19.707  1.00  0.00     0.184 C 
ATOM     17  C   UNL     1      17.208  30.312  19.056  1.00  0.00     0.178 C 
ATOM     18  O   UNL     1      15.966  30.812  19.288  1.00  0.00    -0.341 OA
ATOM     19  C   UNL     1      14.958  29.913  19.233  1.00  0.00     0.281 C 
ATOM     20  C   UNL     1      16.406  28.034  19.632  1.00  0.00     0.180 C 
ATOM     21  C   UNL     1      15.210  28.778  20.223  1.00  0.00     0.202 C 
BRANCH  17  22
ATOM     22  C   UNL     1      17.627  30.324  17.581  1.00  0.00     0.191 C 
BRANCH  22  23
ATOM     23  O   UNL     1      18.409  29.251  17.220  1.00  0.00    -0.394 OA
ATOM     24  H   UNL     1      18.962  29.428  16.430  1.00  0.00     0.210 HD
ENDBRANCH  22  23
ENDBRANCH  17  22
BRANCH  19  25
ATOM     25  O   UNL     1      14.569  29.459  18.008  1.00  0.00    -0.350 OA
BRANCH  25  26
ATOM     26  C   UNL     1      13.634  30.171  17.322  1.00  0.00     0.169 C 
BRANCH  26  27
ATOM     27  C   UNL     1      14.216  30.922  16.173  1.00  0.00     0.119 C 
BRANCH  27  28
ATOM     28  N   UNL     1      13.577  30.549  14.903  1.00  0.00    -0.092 NA
ATOM     29  N   UNL     1      13.937  29.520  14.305  1.00  0.00     0.001 N 
ATOM     30  N   UNL     1      14.014  28.289  14.120  1.00  0.00    -0.003 NA
ENDBRANCH  27  28
ENDBRANCH  26  27
ENDBRANCH  25  26
ENDBRANCH  19  25
BRANCH  20  31
ATOM     31  O   UNL     1      16.101  27.632  18.354  1.00  0.00    -0.387 OA
ATOM     32  H   UNL     1      16.008  26.671  18.262  1.00  0.00     0.211 HD
ENDBRANCH  20  31
BRANCH  21  33
ATOM     33  O   UNL     1      15.516  29.303  21.476  1.00  0.00    -0.385 OA
ATOM     34  H   UNL     1      16.506  29.274  21.564  1.00  0.00     0.211 HD
ENDBRANCH  21  33
ENDBRANCH  15  16
ENDBRANCH  10  15
BRANCH  12  35
ATOM     35  O   UNL     1      19.692  31.247  22.546  1.00  0.00    -0.385 OA
ATOM     36  H   UNL     1      19.792  31.670  23.425  1.00  0.00     0.211 HD
ENDBRANCH  12  35
BRANCH  13  37
ATOM     37  O   UNL     1      20.277  28.709  24.596  1.00  0.00    -0.387 OA
ATOM     38  H   UNL     1      19.380  28.268  24.446  1.00  0.00     0.211 HD
ENDBRANCH  13  37
BRANCH  14  39
ATOM     39  O   UNL     1      20.806  26.985  22.964  1.00  0.00    -0.387 OA
ATOM     40  H   UNL     1      20.074  27.271  23.596  1.00  0.00     0.211 HD
ENDBRANCH  14  39
ENDBRANCH   8   9
ENDBRANCH   7   8
ENDBRANCH   1   7
BRANCH   1  41
ATOM     41  C   UNL     1      23.046  25.182  18.489  1.00  0.00     0.364 C 
ATOM     42  O   UNL     1      23.865  25.822  17.837  1.00  0.00    -0.246 OA
BRANCH  41  43
ATOM     43  O   UNL     1      22.304  24.202  17.817  1.00  0.00    -0.477 OA
ATOM     44  H   UNL     1      22.841  23.494  17.296  1.00  0.00     0.296 HD
ENDBRANCH  41  43
ENDBRANCH   1  41
BRANCH   3  45
ATOM     45  O   UNL     1      21.274  24.356  22.511  1.00  0.00    -0.391 OA
ATOM     46  H   UNL     1      21.331  25.318  22.739  1.00  0.00     0.211 HD
ENDBRANCH   3  45
BRANCH   5  47
ATOM     47  C   UNL     1      25.987  25.318  21.655  1.00  0.00     0.176 C 
BRANCH  47  48
ATOM     48  O   UNL     1      25.794  26.725  22.003  1.00  0.00    -0.388 OA
ATOM     49  H   UNL     1      26.142  26.848  22.922  1.00  0.00     0.211 HD
ENDBRANCH  47  48
BRANCH  47  50
ATOM     50  C   UNL     1      26.970  25.507  20.508  1.00  0.00     0.165 C 
BRANCH  50  51
ATOM     51  O   UNL     1      26.344  24.935  19.374  1.00  0.00    -0.388 OA
ATOM     52  H   UNL     1      26.648  25.369  18.540  1.00  0.00     0.211 HD
ENDBRANCH  50  51
BRANCH  50  53
ATOM     53  C   UNL     1      28.329  24.957  20.672  1.00  0.00     0.154 C 
BRANCH  53  54
ATOM     54  N   UNL     1      28.213  23.809  21.594  1.00  0.00    -0.319 N 
ATOM     55  C   UNL     1      28.022  22.490  21.112  1.00  0.00     0.407 C 
ATOM     56  H   UNL     1      28.274  23.987  22.612  1.00  0.00     0.167 HD
ATOM     57  O   UNL     1      27.964  22.301  19.855  1.00  0.00    -0.225 OA
BRANCH  55  58
ATOM     58  O   UNL     1      27.903  21.427  21.992  1.00  0.00    -0.443 OA
BRANCH  58  59
ATOM     59  C   UNL     1      28.411  20.172  21.598  1.00  0.00     0.294 C 
BRANCH  59  60
ATOM     60  C   UNL     1      29.549  19.712  22.418  1.00  0.00     0.120 A 
ATOM     61  C   UNL     1      30.206  20.484  23.354  1.00  0.00     0.138 A 
ATOM     62  N   UNL     1      30.176  18.531  22.426  1.00  0.00    -0.132 NA
ATOM     63  N   UNL     1      31.200  19.773  23.900  1.00  0.00    -0.249 N 
ATOM     64  N   UNL     1      31.169  18.572  23.320  1.00  0.00    -0.067 NA
BRANCH  63  65
ATOM     65  C   UNL     1      32.108  20.278  24.919  1.00  0.00     0.112 C 
ATOM     66  C   UNL     1      33.240  19.313  25.018  1.00  0.00     0.046 C 
ATOM     67  C   UNL     1      31.328  20.502  26.173  1.00  0.00     0.046 C 
ATOM     68  C   UNL     1      33.665  18.982  26.413  1.00  0.00     0.058 C 
ATOM     69  C   UNL     1      32.019  20.102  27.440  1.00  0.00     0.058 C 
ATOM     70  N   UNL     1      33.461  20.071  27.316  1.00  0.00    -0.300 NA
ATOM     71  C   UNL     1      32.731  17.908  26.964  1.00  0.00     0.021 C 
ATOM     72  C   UNL     1      31.673  18.658  27.738  1.00  0.00     0.021 C 
ATOM     73  C   UNL     1      34.015  21.332  26.887  1.00  0.00     0.105 C 
ENDBRANCH  63  65
ENDBRANCH  59  60
ENDBRANCH  58  59
ENDBRANCH  55  58
ENDBRANCH  53  54
ENDBRANCH  50  53
ENDBRANCH  47  50
ENDBRANCH   5  47
BRANCH   4  74
ATOM     74  N   UNL     1      24.133  24.456  23.729  1.00  0.00    -0.348 N 
ATOM     75  C   UNL     1      23.540  25.027  24.906  1.00  0.00     0.217 C 
ATOM     76  H   UNL     1      24.928  23.799  23.894  1.00  0.00     0.163 HD
ATOM     77  C   UNL     1      24.115  24.678  26.247  1.00  0.00     0.114 C 
ATOM     78  O   UNL     1      22.573  25.795  24.835  1.00  0.00    -0.275 OA
ENDBRANCH   4  74
TORSDOF 30
