REMARK VINA RESULT:    -5.732      9.556     15.356
REMARK INTER + INTRA:         -23.525
REMARK INTER:                 -14.734
REMARK INTRA:                  -8.791
REMARK UNBOUND:                -8.074
REMARK SMILES CC(=O)N[C@@H]1[C@@H](O)C[C@](OC[C@H]2O[C@@H](O[C@H]3[C@H](O)[C@@H](O)[C@H](OCCN=[N+]=[N-])O[C@@H]3CO)[C@H](O)[C@@H](O)[C@H]2O)(C(=O)O)O[C@H]1C(O)[C@H](O)CNC(=O)OCc1cn(C[C@@H](C)CN2CCN(c3ccc(Cl)cc3)CC2)nn1
REMARK SMILES IDX 43 1 42 2 9 3 8 4 41 5 6 6 5 7 10 8 11 9 12 10 14 11 13 12
REMARK SMILES IDX 32 13 34 14 36 15 15 16 16 17 29 18 28 19 21 20 17 21 19 22
REMARK SMILES IDX 30 23 31 24 22 26 23 27 24 28 25 29 26 30 27 31 18 32 20 34
REMARK SMILES IDX 33 36 35 38 37 40 38 42 39 43 40 44 7 46 4 48 2 49 1 51 3 52
REMARK SMILES IDX 44 53 45 55 46 56 47 58 48 59 49 60 50 62 51 63 52 64 53 65
REMARK SMILES IDX 54 66 74 67 55 68 73 69 56 70 57 71 58 72 59 73 60 74 61 75
REMARK SMILES IDX 72 76 62 77 71 78 63 79 64 80 65 81 70 82 66 83 69 84 67 85
REMARK SMILES IDX 68 86
REMARK H PARENT 31 25 18 33 20 35 33 37 35 39 37 41 40 45 7 47 4 50 44 54
REMARK H PARENT 46 57 48 61
REMARK Flexibility Score: inf
ROOT
ATOM      1  C   UNL     1      15.990  30.688  23.811  1.00  0.00     0.176 C 
ENDROOT
BRANCH   1   2
ATOM      2  C   UNL     1      15.142  30.497  22.562  1.00  0.00     0.178 C 
ATOM      3  C   UNL     1      15.213  30.417  20.202  1.00  0.00     0.272 C 
ATOM      4  C   UNL     1      13.806  30.754  20.269  1.00  0.00     0.113 C 
ATOM      5  O   UNL     1      15.854  30.748  21.436  1.00  0.00    -0.332 OA
ATOM      6  C   UNL     1      13.490  31.798  21.324  1.00  0.00     0.145 C 
ATOM      7  C   UNL     1      13.811  31.160  22.683  1.00  0.00     0.142 C 
BRANCH   3   8
ATOM      8  O   UNL     1      16.015  30.939  19.278  1.00  0.00    -0.338 OA
BRANCH   8   9
ATOM      9  C   UNL     1      17.091  31.667  19.427  1.00  0.00     0.199 C 
BRANCH   9  10
ATOM     10  C   UNL     1      18.467  31.189  19.064  1.00  0.00     0.179 C 
ATOM     11  C   UNL     1      19.415  29.072  18.805  1.00  0.00     0.282 C 
ATOM     12  O   UNL     1      18.810  29.990  19.621  1.00  0.00    -0.341 OA
ATOM     13  C   UNL     1      18.441  28.657  17.719  1.00  0.00     0.202 C 
ATOM     14  C   UNL     1      18.046  29.876  16.952  1.00  0.00     0.179 C 
ATOM     15  C   UNL     1      18.569  31.146  17.532  1.00  0.00     0.177 C 
BRANCH  11  16
ATOM     16  O   UNL     1      19.656  27.934  19.612  1.00  0.00    -0.341 OA
BRANCH  16  17
ATOM     17  C   UNL     1      20.992  27.862  19.918  1.00  0.00     0.184 C 
ATOM     18  C   UNL     1      21.361  28.699  21.125  1.00  0.00     0.178 C 
ATOM     19  O   UNL     1      22.129  29.789  20.851  1.00  0.00    -0.341 OA
ATOM     20  C   UNL     1      23.310  29.557  20.169  1.00  0.00     0.281 C 
ATOM     21  C   UNL     1      21.868  28.220  18.722  1.00  0.00     0.180 C 
ATOM     22  C   UNL     1      23.277  28.369  19.247  1.00  0.00     0.202 C 
BRANCH  18  23
ATOM     23  C   UNL     1      21.902  27.849  22.264  1.00  0.00     0.191 C 
BRANCH  23  24
ATOM     24  O   UNL     1      22.296  28.608  23.338  1.00  0.00    -0.394 OA
ATOM     25  H   UNL     1      21.935  28.157  24.162  1.00  0.00     0.210 HD
ENDBRANCH  23  24
ENDBRANCH  18  23
BRANCH  20  26
ATOM     26  O   UNL     1      24.404  29.461  21.020  1.00  0.00    -0.350 OA
BRANCH  26  27
ATOM     27  C   UNL     1      24.918  30.646  21.462  1.00  0.00     0.169 C 
BRANCH  27  28
ATOM     28  C   UNL     1      25.112  30.656  22.951  1.00  0.00     0.119 C 
BRANCH  28  29
ATOM     29  N   UNL     1      23.842  30.942  23.597  1.00  0.00    -0.092 NA
ATOM     30  N   UNL     1      23.797  31.787  24.510  1.00  0.00     0.001 N 
ATOM     31  N   UNL     1      23.890  32.632  25.390  1.00  0.00    -0.003 NA
ENDBRANCH  28  29
ENDBRANCH  27  28
ENDBRANCH  26  27
ENDBRANCH  20  26
BRANCH  21  32
ATOM     32  O   UNL     1      21.875  27.186  17.789  1.00  0.00    -0.387 OA
ATOM     33  H   UNL     1      22.631  27.395  17.165  1.00  0.00     0.211 HD
ENDBRANCH  21  32
BRANCH  22  34
ATOM     34  O   UNL     1      24.125  28.652  18.149  1.00  0.00    -0.385 OA
ATOM     35  H   UNL     1      23.931  28.113  17.366  1.00  0.00     0.211 HD
ENDBRANCH  22  34
ENDBRANCH  16  17
ENDBRANCH  11  16
BRANCH  13  36
ATOM     36  O   UNL     1      19.053  27.689  16.941  1.00  0.00    -0.385 OA
ATOM     37  H   UNL     1      18.413  27.467  16.203  1.00  0.00     0.211 HD
ENDBRANCH  13  36
BRANCH  14  38
ATOM     38  O   UNL     1      16.664  29.961  16.734  1.00  0.00    -0.387 OA
ATOM     39  H   UNL     1      16.331  30.870  16.910  1.00  0.00     0.211 HD
ENDBRANCH  14  38
BRANCH  15  40
ATOM     40  O   UNL     1      17.912  32.236  17.016  1.00  0.00    -0.387 OA
ATOM     41  H   UNL     1      16.961  32.260  17.270  1.00  0.00     0.211 HD
ENDBRANCH  15  40
ENDBRANCH   9  10
ENDBRANCH   8   9
ENDBRANCH   3   8
BRANCH   3  42
ATOM     42  C   UNL     1      15.387  28.911  20.208  1.00  0.00     0.364 C 
ATOM     43  O   UNL     1      14.393  28.144  19.956  1.00  0.00    -0.246 OA
BRANCH  42  44
ATOM     44  O   UNL     1      16.569  28.271  20.479  1.00  0.00    -0.477 OA
ATOM     45  H   UNL     1      17.251  28.663  21.117  1.00  0.00     0.296 HD
ENDBRANCH  42  44
ENDBRANCH   3  42
BRANCH   6  46
ATOM     46  O   UNL     1      14.334  32.883  21.090  1.00  0.00    -0.391 OA
ATOM     47  H   UNL     1      14.040  33.410  20.308  1.00  0.00     0.211 HD
ENDBRANCH   6  46
BRANCH   7  48
ATOM     48  N   UNL     1      12.745  30.224  22.976  1.00  0.00    -0.348 N 
ATOM     49  C   UNL     1      12.191  30.163  24.280  1.00  0.00     0.217 C 
ATOM     50  H   UNL     1      12.350  29.565  22.250  1.00  0.00     0.163 HD
ATOM     51  C   UNL     1      11.084  29.176  24.544  1.00  0.00     0.114 C 
ATOM     52  O   UNL     1      12.580  30.897  25.232  1.00  0.00    -0.275 OA
ENDBRANCH   7  48
ENDBRANCH   1   2
BRANCH   1  53
ATOM     53  O   UNL     1      16.656  29.486  24.045  1.00  0.00    -0.388 OA
ATOM     54  H   UNL     1      16.354  29.065  24.883  1.00  0.00     0.211 HD
ENDBRANCH   1  53
BRANCH   1  55
ATOM     55  C   UNL     1      17.049  31.745  23.675  1.00  0.00     0.165 C 
BRANCH  55  56
ATOM     56  O   UNL     1      16.652  32.900  23.054  1.00  0.00    -0.388 OA
ATOM     57  H   UNL     1      15.733  33.144  23.255  1.00  0.00     0.211 HD
ENDBRANCH  55  56
BRANCH  55  58
ATOM     58  C   UNL     1      18.347  31.257  23.127  1.00  0.00     0.154 C 
BRANCH  58  59
ATOM     59  N   UNL     1      19.361  31.358  24.179  1.00  0.00    -0.319 N 
ATOM     60  C   UNL     1      19.943  30.205  24.755  1.00  0.00     0.407 C 
ATOM     61  H   UNL     1      19.655  32.301  24.504  1.00  0.00     0.167 HD
ATOM     62  O   UNL     1      19.561  29.083  24.343  1.00  0.00    -0.225 OA
BRANCH  60  63
ATOM     63  O   UNL     1      20.907  30.325  25.747  1.00  0.00    -0.443 OA
BRANCH  63  64
ATOM     64  C   UNL     1      20.801  29.472  26.887  1.00  0.00     0.294 C 
BRANCH  64  65
ATOM     65  C   UNL     1      22.077  29.367  27.631  1.00  0.00     0.120 A 
ATOM     66  C   UNL     1      22.238  29.127  28.976  1.00  0.00     0.138 A 
ATOM     67  N   UNL     1      23.332  29.489  27.137  1.00  0.00    -0.132 NA
ATOM     68  N   UNL     1      23.544  29.116  29.226  1.00  0.00    -0.252 N 
ATOM     69  N   UNL     1      24.202  29.335  28.110  1.00  0.00    -0.067 NA
BRANCH  68  70
ATOM     70  C   UNL     1      24.130  28.902  30.550  1.00  0.00     0.150 C 
BRANCH  70  71
ATOM     71  C   UNL     1      24.947  27.607  30.575  1.00  0.00     0.022 C 
ATOM     72  C   UNL     1      25.718  27.632  31.877  1.00  0.00     0.011 C 
BRANCH  71  73
ATOM     73  C   UNL     1      24.014  26.439  30.508  1.00  0.00     0.089 C 
BRANCH  73  74
ATOM     74  N   UNL     1      23.970  25.681  29.327  1.00  0.00    -0.299 NA
ATOM     75  C   UNL     1      25.022  25.712  28.402  1.00  0.00     0.106 C 
ATOM     76  C   UNL     1      22.662  25.437  28.811  1.00  0.00     0.106 C 
ATOM     77  C   UNL     1      24.546  26.012  26.980  1.00  0.00     0.132 C 
ATOM     78  C   UNL     1      22.747  24.432  27.676  1.00  0.00     0.132 C 
ATOM     79  N   UNL     1      23.494  25.062  26.621  1.00  0.00    -0.369 N 
BRANCH  79  80
ATOM     80  C   UNL     1      23.242  24.800  25.269  1.00  0.00     0.037 A 
ATOM     81  C   UNL     1      21.951  24.767  24.748  1.00  0.00     0.027 A 
ATOM     82  C   UNL     1      24.256  24.565  24.348  1.00  0.00     0.027 A 
ATOM     83  C   UNL     1      21.677  24.519  23.424  1.00  0.00     0.022 A 
ATOM     84  C   UNL     1      23.985  24.317  23.018  1.00  0.00     0.022 A 
ATOM     85  C   UNL     1      22.695  24.289  22.535  1.00  0.00     0.041 A 
ATOM     86  Cl  UNL     1      22.351  23.978  20.866  1.00  0.00    -0.084 Cl
ENDBRANCH  79  80
ENDBRANCH  73  74
ENDBRANCH  71  73
ENDBRANCH  70  71
ENDBRANCH  68  70
ENDBRANCH  64  65
ENDBRANCH  63  64
ENDBRANCH  60  63
ENDBRANCH  58  59
ENDBRANCH  55  58
ENDBRANCH   1  55
TORSDOF 34
