REMARK VINA RESULT:    -5.738      5.436     12.125
REMARK INTER + INTRA:         -21.262
REMARK INTER:                 -12.319
REMARK INTRA:                  -8.942
REMARK UNBOUND:                -6.131
REMARK SMILES COCC(C(N)=O)n1cc(COC(=O)NC[C@@H](O)C(O)[C@@H]2O[C@@](OC[C@H]3O[C@@H](O[C@H]4[C@H](O)[C@@H](O)[C@H](OCCN=[N+]=[N-])O[C@@H]4CO)[C@H](O)[C@@H](O)[C@H]3O)(C(=O)O)C[C@H](O)[C@H]2NC(C)=O)nn1
REMARK SMILES IDX 23 1 55 2 56 3 58 4 21 5 22 6 24 7 25 8 26 9 28 10 27 11
REMARK SMILES IDX 46 12 48 13 50 14 29 15 30 16 43 17 42 18 35 19 31 20 33 21
REMARK SMILES IDX 44 22 45 23 36 25 37 26 38 27 39 28 40 29 41 30 32 31 34 33
REMARK SMILES IDX 47 35 49 37 51 39 52 41 53 42 54 43 57 45 19 47 20 48 17 50
REMARK SMILES IDX 18 51 16 53 15 54 13 55 14 57 12 58 11 59 10 60 9 61 63 62
REMARK SMILES IDX 8 63 64 64 4 65 3 66 2 67 1 68 5 69 7 70 6 71 59 74 60 75
REMARK SMILES IDX 61 77 62 78
REMARK H PARENT 45 24 32 32 34 34 47 36 49 38 51 40 54 44 57 46 20 49 18 52
REMARK H PARENT 15 56 6 72 6 73 59 76
REMARK Flexibility Score: inf
ROOT
ATOM      1  C   UNL     1      16.870  30.571  22.377  1.00  0.00     0.272 C 
ATOM      2  C   UNL     1      17.109  31.669  23.339  1.00  0.00     0.113 C 
ATOM      3  C   UNL     1      18.267  32.561  23.078  1.00  0.00     0.145 C 
ATOM      4  C   UNL     1      19.425  31.763  22.541  1.00  0.00     0.142 C 
ATOM      5  C   UNL     1      19.141  30.301  22.851  1.00  0.00     0.178 C 
ATOM      6  O   UNL     1      18.056  29.884  22.123  1.00  0.00    -0.332 OA
ENDROOT
BRANCH   1   7
ATOM      7  O   UNL     1      16.325  30.901  21.167  1.00  0.00    -0.338 OA
BRANCH   7   8
ATOM      8  C   UNL     1      17.005  30.561  20.044  1.00  0.00     0.199 C 
BRANCH   8   9
ATOM      9  C   UNL     1      16.107  29.891  18.995  1.00  0.00     0.179 C 
ATOM     10  C   UNL     1      17.036  30.313  16.909  1.00  0.00     0.282 C 
ATOM     11  O   UNL     1      16.050  30.614  17.838  1.00  0.00    -0.341 OA
ATOM     12  C   UNL     1      17.115  28.862  16.583  1.00  0.00     0.202 C 
ATOM     13  C   UNL     1      17.315  28.018  17.798  1.00  0.00     0.179 C 
ATOM     14  C   UNL     1      16.359  28.432  18.858  1.00  0.00     0.177 C 
BRANCH  10  15
ATOM     15  O   UNL     1      18.272  30.825  17.261  1.00  0.00    -0.341 OA
BRANCH  15  16
ATOM     16  C   UNL     1      18.813  31.577  16.219  1.00  0.00     0.184 C 
ATOM     17  C   UNL     1      20.248  31.336  15.941  1.00  0.00     0.178 C 
ATOM     18  O   UNL     1      20.662  31.971  14.796  1.00  0.00    -0.341 OA
ATOM     19  C   UNL     1      20.001  33.171  14.526  1.00  0.00     0.281 C 
ATOM     20  C   UNL     1      18.687  33.045  16.663  1.00  0.00     0.180 C 
ATOM     21  C   UNL     1      19.596  33.868  15.816  1.00  0.00     0.202 C 
BRANCH  17  22
ATOM     22  C   UNL     1      20.629  29.875  15.790  1.00  0.00     0.191 C 
BRANCH  22  23
ATOM     23  O   UNL     1      20.759  29.288  17.047  1.00  0.00    -0.394 OA
ATOM     24  H   UNL     1      21.685  29.004  17.231  1.00  0.00     0.210 HD
ENDBRANCH  22  23
ENDBRANCH  17  22
BRANCH  19  25
ATOM     25  O   UNL     1      18.967  32.944  13.688  1.00  0.00    -0.350 OA
BRANCH  25  26
ATOM     26  C   UNL     1      19.122  32.175  12.588  1.00  0.00     0.169 C 
BRANCH  26  27
ATOM     27  C   UNL     1      18.430  30.858  12.547  1.00  0.00     0.119 C 
BRANCH  27  28
ATOM     28  N   UNL     1      17.963  30.503  11.245  1.00  0.00    -0.092 NA
ATOM     29  N   UNL     1      16.788  30.188  11.074  1.00  0.00     0.001 N 
ATOM     30  N   UNL     1      15.599  30.330  10.744  1.00  0.00    -0.003 NA
ENDBRANCH  27  28
ENDBRANCH  26  27
ENDBRANCH  25  26
ENDBRANCH  19  25
BRANCH  20  31
ATOM     31  O   UNL     1      17.360  33.455  16.544  1.00  0.00    -0.387 OA
ATOM     32  H   UNL     1      17.382  34.328  16.088  1.00  0.00     0.211 HD
ENDBRANCH  20  31
BRANCH  21  33
ATOM     33  O   UNL     1      20.796  34.159  16.500  1.00  0.00    -0.385 OA
ATOM     34  H   UNL     1      21.442  33.410  16.353  1.00  0.00     0.211 HD
ENDBRANCH  21  33
ENDBRANCH  15  16
ENDBRANCH  10  15
BRANCH  12  35
ATOM     35  O   UNL     1      15.868  28.498  16.039  1.00  0.00    -0.385 OA
ATOM     36  H   UNL     1      15.769  28.849  15.129  1.00  0.00     0.211 HD
ENDBRANCH  12  35
BRANCH  13  37
ATOM     37  O   UNL     1      18.646  27.974  18.212  1.00  0.00    -0.387 OA
ATOM     38  H   UNL     1      19.048  27.172  17.781  1.00  0.00     0.211 HD
ENDBRANCH  13  37
BRANCH  14  39
ATOM     39  O   UNL     1      16.742  27.926  20.102  1.00  0.00    -0.387 OA
ATOM     40  H   UNL     1      17.688  28.157  20.299  1.00  0.00     0.211 HD
ENDBRANCH  14  39
ENDBRANCH   8   9
ENDBRANCH   7   8
ENDBRANCH   1   7
BRANCH   1  41
ATOM     41  C   UNL     1      16.000  29.557  23.075  1.00  0.00     0.364 C 
ATOM     42  O   UNL     1      15.299  28.749  22.435  1.00  0.00    -0.246 OA
BRANCH  41  43
ATOM     43  O   UNL     1      15.991  29.537  24.445  1.00  0.00    -0.477 OA
ATOM     44  H   UNL     1      15.240  29.136  24.984  1.00  0.00     0.296 HD
ENDBRANCH  41  43
ENDBRANCH   1  41
BRANCH   3  45
ATOM     45  O   UNL     1      17.969  33.661  22.280  1.00  0.00    -0.391 OA
ATOM     46  H   UNL     1      17.590  34.388  22.834  1.00  0.00     0.211 HD
ENDBRANCH   3  45
BRANCH   5  47
ATOM     47  C   UNL     1      20.348  29.460  22.486  1.00  0.00     0.176 C 
BRANCH  47  48
ATOM     48  O   UNL     1      20.435  28.301  23.197  1.00  0.00    -0.388 OA
ATOM     49  H   UNL     1      20.887  28.317  24.051  1.00  0.00     0.211 HD
ENDBRANCH  47  48
BRANCH  47  50
ATOM     50  C   UNL     1      20.354  29.173  21.010  1.00  0.00     0.165 C 
BRANCH  50  51
ATOM     51  O   UNL     1      19.730  27.911  20.849  1.00  0.00    -0.388 OA
ATOM     52  H   UNL     1      19.413  27.823  19.909  1.00  0.00     0.211 HD
ENDBRANCH  50  51
BRANCH  50  53
ATOM     53  C   UNL     1      21.711  29.045  20.405  1.00  0.00     0.154 C 
BRANCH  53  54
ATOM     54  N   UNL     1      22.369  27.796  20.600  1.00  0.00    -0.319 N 
ATOM     55  C   UNL     1      22.326  26.742  19.648  1.00  0.00     0.407 C 
ATOM     56  H   UNL     1      22.921  27.609  21.481  1.00  0.00     0.167 HD
ATOM     57  O   UNL     1      21.690  26.901  18.596  1.00  0.00    -0.225 OA
BRANCH  55  58
ATOM     58  O   UNL     1      22.983  25.525  19.864  1.00  0.00    -0.443 OA
BRANCH  58  59
ATOM     59  C   UNL     1      22.401  24.469  20.567  1.00  0.00     0.294 C 
BRANCH  59  60
ATOM     60  C   UNL     1      21.951  24.801  21.925  1.00  0.00     0.120 A 
ATOM     61  C   UNL     1      22.702  24.609  23.057  1.00  0.00     0.139 A 
ATOM     62  N   UNL     1      20.770  25.331  22.261  1.00  0.00    -0.132 NA
ATOM     63  N   UNL     1      21.947  25.033  24.073  1.00  0.00    -0.237 N 
ATOM     64  N   UNL     1      20.786  25.466  23.578  1.00  0.00    -0.066 NA
BRANCH  63  65
ATOM     65  C   UNL     1      22.338  25.019  25.470  1.00  0.00     0.223 C 
BRANCH  65  66
ATOM     66  C   UNL     1      23.803  24.739  25.552  1.00  0.00     0.197 C 
BRANCH  66  67
ATOM     67  O   UNL     1      24.252  24.716  26.848  1.00  0.00    -0.382 OA
ATOM     68  C   UNL     1      25.227  25.654  27.062  1.00  0.00     0.195 C 
ENDBRANCH  66  67
ENDBRANCH  65  66
BRANCH  65  69
ATOM     69  C   UNL     1      22.028  26.385  26.011  1.00  0.00     0.244 C 
ATOM     70  O   UNL     1      21.468  26.476  27.121  1.00  0.00    -0.273 OA
ATOM     71  N   UNL     1      22.382  27.523  25.244  1.00  0.00    -0.368 N 
ATOM     72  H   UNL     1      21.704  28.116  24.736  1.00  0.00     0.159 HD
ATOM     73  H   UNL     1      23.393  27.773  25.191  1.00  0.00     0.159 HD
ENDBRANCH  65  69
ENDBRANCH  63  65
ENDBRANCH  59  60
ENDBRANCH  58  59
ENDBRANCH  55  58
ENDBRANCH  53  54
ENDBRANCH  50  53
ENDBRANCH  47  50
ENDBRANCH   5  47
BRANCH   4  74
ATOM     74  N   UNL     1      20.688  32.205  23.126  1.00  0.00    -0.348 N 
ATOM     75  C   UNL     1      21.480  33.252  22.582  1.00  0.00     0.217 C 
ATOM     76  H   UNL     1      21.058  31.748  23.997  1.00  0.00     0.163 HD
ATOM     77  C   UNL     1      22.754  33.715  23.155  1.00  0.00     0.114 C 
ATOM     78  O   UNL     1      21.041  33.820  21.525  1.00  0.00    -0.275 OA
ENDBRANCH   4  74
TORSDOF 33
