REMARK VINA RESULT:    -6.568      0.000      0.000
REMARK INTER + INTRA:         -22.945
REMARK INTER:                 -14.738
REMARK INTRA:                  -8.206
REMARK UNBOUND:                -6.778
REMARK SMILES CC(=O)N[C@@H]1[C@@H](O)C[C@](OC[C@H]2O[C@@H](O[C@H]3[C@H](O)[C@@H](O)[C@H](OCCN=[N+]=[N-])O[C@@H]3CO)[C@H](O)[C@@H](O)[C@H]2O)(C(=O)O)O[C@H]1C(O)[C@H](O)CNC(=O)OCc1cn(-c2ccc3c(c2)OCO3)nn1
REMARK SMILES IDX 9 1 8 2 6 3 5 4 42 5 41 6 10 7 11 8 12 9 14 10 13 11 32 12
REMARK SMILES IDX 34 13 36 14 15 15 16 16 29 17 28 18 21 19 17 20 19 21 30 22
REMARK SMILES IDX 31 23 22 25 23 26 24 27 25 28 26 29 27 30 18 31 20 33 33 35
REMARK SMILES IDX 35 37 37 39 38 41 39 42 40 43 7 45 43 47 44 48 45 50 46 51
REMARK SMILES IDX 47 53 48 54 49 55 50 57 51 58 52 59 53 60 54 61 66 62 55 63
REMARK SMILES IDX 65 64 56 65 57 66 61 67 58 68 60 69 59 70 62 71 64 72 63 73
REMARK SMILES IDX 4 74 2 75 1 77 3 78
REMARK H PARENT 31 24 18 32 20 34 33 36 35 38 37 40 40 44 7 46 44 49 46 52
REMARK H PARENT 48 56 4 76
REMARK Flexibility Score: inf
ROOT
ATOM      1  C   UNL     1      22.879  25.432  23.426  1.00  0.00     0.272 C 
ATOM      2  C   UNL     1      23.728  24.343  22.832  1.00  0.00     0.113 C 
ATOM      3  C   UNL     1      25.102  24.869  22.376  1.00  0.00     0.145 C 
ATOM      4  C   UNL     1      24.807  25.785  21.207  1.00  0.00     0.142 C 
ATOM      5  C   UNL     1      23.783  26.779  21.715  1.00  0.00     0.178 C 
ATOM      6  O   UNL     1      23.465  26.667  23.026  1.00  0.00    -0.332 OA
ENDROOT
BRANCH   1   7
ATOM      7  O   UNL     1      22.874  25.465  24.749  1.00  0.00    -0.338 OA
BRANCH   7   8
ATOM      8  C   UNL     1      22.681  24.573  25.672  1.00  0.00     0.199 C 
BRANCH   8   9
ATOM      9  C   UNL     1      23.060  24.809  27.109  1.00  0.00     0.179 C 
ATOM     10  C   UNL     1      24.677  25.970  28.317  1.00  0.00     0.282 C 
ATOM     11  O   UNL     1      24.306  25.380  27.137  1.00  0.00    -0.341 OA
ATOM     12  C   UNL     1      23.773  25.667  29.464  1.00  0.00     0.202 C 
ATOM     13  C   UNL     1      22.329  26.021  29.154  1.00  0.00     0.179 C 
ATOM     14  C   UNL     1      22.027  25.799  27.707  1.00  0.00     0.177 C 
BRANCH  10  15
ATOM     15  O   UNL     1      24.616  27.363  28.114  1.00  0.00    -0.341 OA
BRANCH  15  16
ATOM     16  C   UNL     1      25.850  27.958  28.074  1.00  0.00     0.184 C 
ATOM     17  C   UNL     1      25.746  29.367  28.597  1.00  0.00     0.178 C 
ATOM     18  O   UNL     1      25.382  30.290  27.646  1.00  0.00    -0.341 OA
ATOM     19  C   UNL     1      24.596  29.744  26.630  1.00  0.00     0.281 C 
ATOM     20  C   UNL     1      26.322  27.915  26.639  1.00  0.00     0.180 C 
ATOM     21  C   UNL     1      25.363  28.738  25.808  1.00  0.00     0.202 C 
BRANCH  17  22
ATOM     22  C   UNL     1      27.062  29.836  29.202  1.00  0.00     0.191 C 
BRANCH  22  23
ATOM     23  O   UNL     1      27.880  28.761  29.527  1.00  0.00    -0.394 OA
ATOM     24  H   UNL     1      28.016  28.136  28.750  1.00  0.00     0.210 HD
ENDBRANCH  22  23
ENDBRANCH  17  22
BRANCH  19  25
ATOM     25  O   UNL     1      24.259  30.806  25.802  1.00  0.00    -0.350 OA
BRANCH  25  26
ATOM     26  C   UNL     1      22.942  31.172  26.056  1.00  0.00     0.169 C 
BRANCH  26  27
ATOM     27  C   UNL     1      22.146  31.293  24.761  1.00  0.00     0.119 C 
BRANCH  27  28
ATOM     28  N   UNL     1      20.795  30.791  25.054  1.00  0.00    -0.092 NA
ATOM     29  N   UNL     1      20.580  29.562  24.977  1.00  0.00     0.001 N 
ATOM     30  N   UNL     1      20.560  28.332  24.797  1.00  0.00    -0.003 NA
ENDBRANCH  27  28
ENDBRANCH  26  27
ENDBRANCH  25  26
ENDBRANCH  19  25
BRANCH  20  31
ATOM     31  O   UNL     1      27.635  28.312  26.481  1.00  0.00    -0.387 OA
ATOM     32  H   UNL     1      27.896  29.086  27.062  1.00  0.00     0.211 HD
ENDBRANCH  20  31
BRANCH  21  33
ATOM     33  O   UNL     1      24.434  27.858  25.247  1.00  0.00    -0.385 OA
ATOM     34  H   UNL     1      24.600  26.913  25.494  1.00  0.00     0.211 HD
ENDBRANCH  21  33
ENDBRANCH  15  16
ENDBRANCH  10  15
BRANCH  12  35
ATOM     35  O   UNL     1      23.822  24.346  29.903  1.00  0.00    -0.385 OA
ATOM     36  H   UNL     1      22.936  23.917  29.689  1.00  0.00     0.211 HD
ENDBRANCH  12  35
BRANCH  13  37
ATOM     37  O   UNL     1      22.131  27.359  29.502  1.00  0.00    -0.387 OA
ATOM     38  H   UNL     1      22.930  27.801  29.843  1.00  0.00     0.211 HD
ENDBRANCH  13  37
BRANCH  14  39
ATOM     39  O   UNL     1      22.112  27.020  27.045  1.00  0.00    -0.387 OA
ATOM     40  H   UNL     1      22.664  27.000  26.246  1.00  0.00     0.211 HD
ENDBRANCH  14  39
ENDBRANCH   8   9
ENDBRANCH   7   8
ENDBRANCH   1   7
BRANCH   1  41
ATOM     41  C   UNL     1      21.508  25.432  22.820  1.00  0.00     0.364 C 
ATOM     42  O   UNL     1      21.004  24.278  22.589  1.00  0.00    -0.246 OA
BRANCH  41  43
ATOM     43  O   UNL     1      20.771  26.526  22.498  1.00  0.00    -0.477 OA
ATOM     44  H   UNL     1      20.957  27.121  21.706  1.00  0.00     0.296 HD
ENDBRANCH  41  43
ENDBRANCH   1  41
BRANCH   3  45
ATOM     45  O   UNL     1      25.603  25.589  23.469  1.00  0.00    -0.391 OA
ATOM     46  H   UNL     1      26.484  25.245  23.732  1.00  0.00     0.211 HD
ENDBRANCH   3  45
BRANCH   5  47
ATOM     47  C   UNL     1      24.478  28.151  21.580  1.00  0.00     0.176 C 
BRANCH  47  48
ATOM     48  O   UNL     1      25.401  28.187  20.576  1.00  0.00    -0.388 OA
ATOM     49  H   UNL     1      25.959  27.374  20.500  1.00  0.00     0.211 HD
ENDBRANCH  47  48
BRANCH  47  50
ATOM     50  C   UNL     1      23.456  29.264  21.387  1.00  0.00     0.165 C 
BRANCH  50  51
ATOM     51  O   UNL     1      22.315  29.062  22.089  1.00  0.00    -0.388 OA
ATOM     52  H   UNL     1      21.502  28.876  21.576  1.00  0.00     0.211 HD
ENDBRANCH  50  51
BRANCH  50  53
ATOM     53  C   UNL     1      23.203  29.347  19.914  1.00  0.00     0.154 C 
BRANCH  53  54
ATOM     54  N   UNL     1      21.821  29.189  19.584  1.00  0.00    -0.319 N 
ATOM     55  C   UNL     1      21.212  27.999  19.109  1.00  0.00     0.407 C 
ATOM     56  H   UNL     1      21.132  30.015  19.688  1.00  0.00     0.167 HD
ATOM     57  O   UNL     1      21.878  26.956  18.954  1.00  0.00    -0.225 OA
BRANCH  55  58
ATOM     58  O   UNL     1      19.849  27.953  18.799  1.00  0.00    -0.443 OA
BRANCH  58  59
ATOM     59  C   UNL     1      19.011  29.076  18.812  1.00  0.00     0.294 C 
BRANCH  59  60
ATOM     60  C   UNL     1      17.728  28.704  19.500  1.00  0.00     0.121 A 
ATOM     61  C   UNL     1      17.103  29.439  20.509  1.00  0.00     0.144 A 
ATOM     62  N   UNL     1      16.941  27.641  19.294  1.00  0.00    -0.131 NA
ATOM     63  N   UNL     1      15.972  28.796  20.872  1.00  0.00    -0.220 N 
ATOM     64  N   UNL     1      15.919  27.715  20.108  1.00  0.00    -0.062 NA
BRANCH  63  65
ATOM     65  C   UNL     1      15.029  29.174  21.844  1.00  0.00     0.070 A 
ATOM     66  C   UNL     1      13.691  29.141  21.567  1.00  0.00     0.032 A 
ATOM     67  C   UNL     1      15.440  29.581  23.090  1.00  0.00     0.079 A 
ATOM     68  C   UNL     1      12.762  29.519  22.548  1.00  0.00     0.053 A 
ATOM     69  C   UNL     1      14.541  29.956  24.066  1.00  0.00     0.167 A 
ATOM     70  C   UNL     1      13.200  29.921  23.785  1.00  0.00     0.165 A 
ATOM     71  O   UNL     1      14.725  30.389  25.361  1.00  0.00    -0.454 OA
ATOM     72  O   UNL     1      12.515  30.339  24.919  1.00  0.00    -0.454 OA
ATOM     73  C   UNL     1      13.458  30.904  25.789  1.00  0.00     0.468 C 
ENDBRANCH  63  65
ENDBRANCH  59  60
ENDBRANCH  58  59
ENDBRANCH  55  58
ENDBRANCH  53  54
ENDBRANCH  50  53
ENDBRANCH  47  50
ENDBRANCH   5  47
BRANCH   4  74
ATOM     74  N   UNL     1      24.367  25.004  20.091  1.00  0.00    -0.348 N 
ATOM     75  C   UNL     1      24.916  25.196  18.770  1.00  0.00     0.217 C 
ATOM     76  H   UNL     1      23.639  24.260  20.135  1.00  0.00     0.163 HD
ATOM     77  C   UNL     1      24.450  24.377  17.619  1.00  0.00     0.114 C 
ATOM     78  O   UNL     1      25.787  26.055  18.599  1.00  0.00    -0.275 OA
ENDBRANCH   4  74
TORSDOF 30
