REMARK VINA RESULT:    -6.665      3.494      9.626
REMARK INTER + INTRA:         -22.525
REMARK INTER:                 -14.241
REMARK INTRA:                  -8.284
REMARK UNBOUND:                -5.144
REMARK SMILES CC(=O)N[C@@H]1[C@@H](O)C[C@](OC[C@H]2O[C@@H](O[C@H]3[C@H](O)[C@@H](O)[C@H](OCCN=[N+]=[N-])O[C@@H]3CO)[C@H](O)[C@@H](O)[C@H]2O)(C(=O)O)O[C@H]1C(O)[C@H](O)CNC(=O)OCc1cn(-c2cccc(C=CC(=O)O)c2)nn1
REMARK SMILES IDX 43 1 42 2 9 3 8 4 41 5 6 6 5 7 10 8 11 9 12 10 14 11 13 12
REMARK SMILES IDX 32 13 34 14 36 15 15 16 16 17 29 18 28 19 21 20 17 21 19 22
REMARK SMILES IDX 30 23 31 24 22 26 23 27 24 28 25 29 26 30 27 31 18 32 20 34
REMARK SMILES IDX 33 36 35 38 37 40 38 42 39 43 40 44 7 46 4 48 2 49 1 51 3 52
REMARK SMILES IDX 44 53 45 55 46 56 47 58 48 59 49 60 50 62 51 63 52 64 53 65
REMARK SMILES IDX 54 66 68 67 55 68 67 69 56 70 66 71 57 72 60 73 58 74 59 75
REMARK SMILES IDX 61 76 62 77 63 78 64 79 65 80
REMARK H PARENT 31 25 18 33 20 35 33 37 35 39 37 41 40 45 7 47 4 50 44 54
REMARK H PARENT 46 57 48 61 65 81
REMARK Flexibility Score: inf
ROOT
ATOM      1  C   UNL     1      19.338  30.087  23.932  1.00  0.00     0.176 C 
ENDROOT
BRANCH   1   2
ATOM      2  C   UNL     1      20.338  30.485  22.865  1.00  0.00     0.178 C 
ATOM      3  C   UNL     1      21.108  29.641  20.802  1.00  0.00     0.272 C 
ATOM      4  C   UNL     1      21.966  30.976  21.042  1.00  0.00     0.113 C 
ATOM      5  O   UNL     1      20.352  29.475  21.943  1.00  0.00    -0.332 OA
ATOM      6  C   UNL     1      22.697  30.744  22.316  1.00  0.00     0.145 C 
ATOM      7  C   UNL     1      21.707  30.657  23.461  1.00  0.00     0.142 C 
BRANCH   3   8
ATOM      8  O   UNL     1      22.058  28.700  20.753  1.00  0.00    -0.338 OA
BRANCH   8   9
ATOM      9  C   UNL     1      21.987  27.536  20.134  1.00  0.00     0.199 C 
BRANCH   9  10
ATOM     10  C   UNL     1      22.413  26.279  20.863  1.00  0.00     0.179 C 
ATOM     11  C   UNL     1      23.499  26.064  22.953  1.00  0.00     0.282 C 
ATOM     12  O   UNL     1      23.431  26.596  21.681  1.00  0.00    -0.341 OA
ATOM     13  C   UNL     1      22.903  24.713  22.966  1.00  0.00     0.202 C 
ATOM     14  C   UNL     1      21.493  24.623  22.470  1.00  0.00     0.179 C 
ATOM     15  C   UNL     1      21.186  25.854  21.657  1.00  0.00     0.177 C 
BRANCH  11  16
ATOM     16  O   UNL     1      22.969  27.015  23.799  1.00  0.00    -0.341 OA
BRANCH  16  17
ATOM     17  C   UNL     1      23.561  27.135  25.008  1.00  0.00     0.184 C 
ATOM     18  C   UNL     1      22.550  27.300  26.101  1.00  0.00     0.178 C 
ATOM     19  O   UNL     1      23.257  27.028  27.297  1.00  0.00    -0.341 OA
ATOM     20  C   UNL     1      24.115  28.092  27.585  1.00  0.00     0.281 C 
ATOM     21  C   UNL     1      24.453  28.376  25.109  1.00  0.00     0.180 C 
ATOM     22  C   UNL     1      25.083  28.381  26.485  1.00  0.00     0.202 C 
BRANCH  18  23
ATOM     23  C   UNL     1      21.371  26.399  26.015  1.00  0.00     0.191 C 
BRANCH  23  24
ATOM     24  O   UNL     1      20.403  26.988  25.205  1.00  0.00    -0.394 OA
ATOM     25  H   UNL     1      19.507  26.559  25.368  1.00  0.00     0.210 HD
ENDBRANCH  23  24
ENDBRANCH  18  23
BRANCH  20  26
ATOM     26  O   UNL     1      24.827  27.753  28.732  1.00  0.00    -0.350 OA
BRANCH  26  27
ATOM     27  C   UNL     1      25.577  26.593  28.554  1.00  0.00     0.169 C 
BRANCH  27  28
ATOM     28  C   UNL     1      26.863  26.745  29.334  1.00  0.00     0.119 C 
BRANCH  28  29
ATOM     29  N   UNL     1      27.314  25.447  29.775  1.00  0.00    -0.092 NA
ATOM     30  N   UNL     1      27.417  25.194  30.989  1.00  0.00     0.001 N 
ATOM     31  N   UNL     1      27.903  25.058  32.122  1.00  0.00    -0.003 NA
ENDBRANCH  28  29
ENDBRANCH  27  28
ENDBRANCH  26  27
ENDBRANCH  20  26
BRANCH  21  32
ATOM     32  O   UNL     1      25.494  28.354  24.188  1.00  0.00    -0.387 OA
ATOM     33  H   UNL     1      25.591  27.405  23.923  1.00  0.00     0.211 HD
ENDBRANCH  21  32
BRANCH  22  34
ATOM     34  O   UNL     1      25.555  29.699  26.686  1.00  0.00    -0.385 OA
ATOM     35  H   UNL     1      24.942  30.231  27.240  1.00  0.00     0.211 HD
ENDBRANCH  22  34
ENDBRANCH  16  17
ENDBRANCH  11  16
BRANCH  13  36
ATOM     36  O   UNL     1      23.685  23.853  22.140  1.00  0.00    -0.385 OA
ATOM     37  H   UNL     1      24.305  23.323  22.715  1.00  0.00     0.211 HD
ENDBRANCH  13  36
BRANCH  14  38
ATOM     38  O   UNL     1      20.549  24.423  23.480  1.00  0.00    -0.387 OA
ATOM     39  H   UNL     1      20.931  24.585  24.380  1.00  0.00     0.211 HD
ENDBRANCH  14  38
BRANCH  15  40
ATOM     40  O   UNL     1      20.772  26.864  22.503  1.00  0.00    -0.387 OA
ATOM     41  H   UNL     1      20.151  27.512  22.045  1.00  0.00     0.211 HD
ENDBRANCH  15  40
ENDBRANCH   9  10
ENDBRANCH   8   9
ENDBRANCH   3   8
BRANCH   3  42
ATOM     42  C   UNL     1      20.268  29.936  19.653  1.00  0.00     0.364 C 
ATOM     43  O   UNL     1      20.602  30.319  18.518  1.00  0.00    -0.246 OA
BRANCH  42  44
ATOM     44  O   UNL     1      18.870  29.775  19.816  1.00  0.00    -0.477 OA
ATOM     45  H   UNL     1      18.382  29.166  19.141  1.00  0.00     0.296 HD
ENDBRANCH  42  44
ENDBRANCH   3  42
BRANCH   6  46
ATOM     46  O   UNL     1      23.333  29.465  22.176  1.00  0.00    -0.391 OA
ATOM     47  H   UNL     1      23.148  28.916  22.987  1.00  0.00     0.211 HD
ENDBRANCH   6  46
BRANCH   7  48
ATOM     48  N   UNL     1      21.833  31.662  24.453  1.00  0.00    -0.348 N 
ATOM     49  C   UNL     1      21.576  33.032  24.341  1.00  0.00     0.217 C 
ATOM     50  H   UNL     1      22.201  31.363  25.429  1.00  0.00     0.163 HD
ATOM     51  C   UNL     1      21.804  33.922  25.548  1.00  0.00     0.114 C 
ATOM     52  O   UNL     1      21.160  33.594  23.293  1.00  0.00    -0.275 OA
ENDBRANCH   7  48
ENDBRANCH   1   2
BRANCH   1  53
ATOM     53  O   UNL     1      19.998  29.900  25.133  1.00  0.00    -0.388 OA
ATOM     54  H   UNL     1      20.427  30.694  25.498  1.00  0.00     0.211 HD
ENDBRANCH   1  53
BRANCH   1  55
ATOM     55  C   UNL     1      18.307  31.188  24.183  1.00  0.00     0.165 C 
BRANCH  55  56
ATOM     56  O   UNL     1      17.523  30.969  25.282  1.00  0.00    -0.388 OA
ATOM     57  H   UNL     1      17.949  30.442  25.996  1.00  0.00     0.211 HD
ENDBRANCH  55  56
BRANCH  55  58
ATOM     58  C   UNL     1      17.493  31.456  22.958  1.00  0.00     0.154 C 
BRANCH  58  59
ATOM     59  N   UNL     1      16.873  30.282  22.460  1.00  0.00    -0.319 N 
ATOM     60  C   UNL     1      15.558  29.902  22.812  1.00  0.00     0.407 C 
ATOM     61  H   UNL     1      17.385  29.639  21.796  1.00  0.00     0.167 HD
ATOM     62  O   UNL     1      14.867  30.604  23.601  1.00  0.00    -0.225 OA
BRANCH  60  63
ATOM     63  O   UNL     1      14.953  28.750  22.314  1.00  0.00    -0.443 OA
BRANCH  63  64
ATOM     64  C   UNL     1      14.295  28.871  21.047  1.00  0.00     0.294 C 
BRANCH  64  65
ATOM     65  C   UNL     1      15.290  28.542  20.010  1.00  0.00     0.121 A 
ATOM     66  C   UNL     1      15.388  29.067  18.724  1.00  0.00     0.144 A 
ATOM     67  N   UNL     1      16.300  27.665  20.131  1.00  0.00    -0.131 NA
ATOM     68  N   UNL     1      16.453  28.491  18.121  1.00  0.00    -0.220 N 
ATOM     69  N   UNL     1      16.979  27.653  18.992  1.00  0.00    -0.062 NA
BRANCH  68  70
ATOM     70  C   UNL     1      16.867  28.795  16.799  1.00  0.00     0.067 A 
ATOM     71  C   UNL     1      18.225  28.794  16.482  1.00  0.00     0.036 A 
ATOM     72  C   UNL     1      15.970  29.087  15.827  1.00  0.00     0.028 A 
ATOM     73  C   UNL     1      18.671  29.078  15.229  1.00  0.00    -0.023 A 
ATOM     74  C   UNL     1      16.379  29.384  14.529  1.00  0.00     0.003 A 
ATOM     75  C   UNL     1      17.729  29.371  14.262  1.00  0.00     0.008 A 
BRANCH  73  76
ATOM     76  C   UNL     1      20.080  29.081  14.898  1.00  0.00     0.015 C 
ATOM     77  C   UNL     1      20.936  28.352  15.568  1.00  0.00     0.094 C 
BRANCH  77  78
ATOM     78  C   UNL     1      22.353  28.387  15.198  1.00  0.00     0.328 C 
ATOM     79  O   UNL     1      22.745  27.962  14.105  1.00  0.00    -0.247 OA
BRANCH  78  80
ATOM     80  O   UNL     1      23.297  28.904  16.082  1.00  0.00    -0.478 OA
ATOM     81  H   UNL     1      24.261  28.581  15.978  1.00  0.00     0.297 HD
ENDBRANCH  78  80
ENDBRANCH  77  78
ENDBRANCH  73  76
ENDBRANCH  68  70
ENDBRANCH  64  65
ENDBRANCH  63  64
ENDBRANCH  60  63
ENDBRANCH  58  59
ENDBRANCH  55  58
ENDBRANCH   1  55
TORSDOF 33
