REMARK VINA RESULT:    -5.733      2.457      6.406
REMARK INTER + INTRA:         -20.709
REMARK INTER:                 -13.173
REMARK INTRA:                  -7.536
REMARK UNBOUND:                -6.597
REMARK SMILES CC(=O)N[C@@H]1[C@@H](O)C[C@](OC[C@H]2O[C@@H](O[C@H]3[C@H](O)[C@@H](O)[C@H](OCCN=[N+]=[N-])O[C@@H]3CO)[C@H](O)[C@@H](O)[C@H]2O)(C(=O)O)O[C@H]1C(O)[C@H](O)CNC(=O)OCc1cn(-c2ccccc2)nn1
REMARK SMILES IDX 9 1 8 2 6 3 5 4 42 5 41 6 10 7 11 8 12 9 14 10 13 11 32 12
REMARK SMILES IDX 34 13 36 14 15 15 16 16 29 17 28 18 21 19 17 20 19 21 30 22
REMARK SMILES IDX 31 23 22 25 23 26 24 27 25 28 26 29 27 30 18 31 20 33 33 35
REMARK SMILES IDX 35 37 37 39 38 41 39 42 40 43 7 45 43 47 44 48 45 50 46 51
REMARK SMILES IDX 47 53 48 54 49 55 50 57 51 58 52 59 53 60 54 61 63 62 55 63
REMARK SMILES IDX 62 64 56 65 57 66 61 67 58 68 60 69 59 70 4 71 2 72 1 74
REMARK SMILES IDX 3 75
REMARK H PARENT 31 24 18 32 20 34 33 36 35 38 37 40 40 44 7 46 44 49 46 52
REMARK H PARENT 48 56 4 73
REMARK Flexibility Score: inf
ROOT
ATOM      1  C   UNL     1      20.261  28.484  19.214  1.00  0.00     0.272 C 
ATOM      2  C   UNL     1      21.113  29.172  18.213  1.00  0.00     0.113 C 
ATOM      3  C   UNL     1      22.574  29.043  18.431  1.00  0.00     0.145 C 
ATOM      4  C   UNL     1      22.927  27.628  18.850  1.00  0.00     0.142 C 
ATOM      5  C   UNL     1      22.133  27.354  20.107  1.00  0.00     0.178 C 
ATOM      6  O   UNL     1      20.826  27.268  19.705  1.00  0.00    -0.332 OA
ENDROOT
BRANCH   1   7
ATOM      7  O   UNL     1      19.046  28.063  18.758  1.00  0.00    -0.338 OA
BRANCH   7   8
ATOM      8  C   UNL     1      18.565  28.318  17.556  1.00  0.00     0.199 C 
BRANCH   8   9
ATOM      9  C   UNL     1      17.229  28.906  17.321  1.00  0.00     0.179 C 
ATOM     10  C   UNL     1      15.242  29.276  18.488  1.00  0.00     0.282 C 
ATOM     11  O   UNL     1      16.474  28.588  18.495  1.00  0.00    -0.341 OA
ATOM     12  C   UNL     1      14.947  29.994  17.212  1.00  0.00     0.202 C 
ATOM     13  C   UNL     1      16.028  31.001  16.886  1.00  0.00     0.179 C 
ATOM     14  C   UNL     1      17.346  30.435  17.327  1.00  0.00     0.177 C 
BRANCH  10  15
ATOM     15  O   UNL     1      15.262  30.164  19.500  1.00  0.00    -0.341 OA
BRANCH  15  16
ATOM     16  C   UNL     1      14.380  30.116  20.516  1.00  0.00     0.184 C 
ATOM     17  C   UNL     1      14.359  31.332  21.412  1.00  0.00     0.178 C 
ATOM     18  O   UNL     1      13.849  30.884  22.647  1.00  0.00    -0.341 OA
ATOM     19  C   UNL     1      14.959  30.327  23.319  1.00  0.00     0.281 C 
ATOM     20  C   UNL     1      14.552  28.879  21.399  1.00  0.00     0.180 C 
ATOM     21  C   UNL     1      15.528  29.172  22.520  1.00  0.00     0.202 C 
BRANCH  17  22
ATOM     22  C   UNL     1      13.412  32.401  20.911  1.00  0.00     0.191 C 
BRANCH  22  23
ATOM     23  O   UNL     1      13.543  32.492  19.523  1.00  0.00    -0.394 OA
ATOM     24  H   UNL     1      13.576  31.578  19.098  1.00  0.00     0.210 HD
ENDBRANCH  22  23
ENDBRANCH  17  22
BRANCH  19  25
ATOM     25  O   UNL     1      14.639  29.883  24.565  1.00  0.00    -0.350 OA
BRANCH  25  26
ATOM     26  C   UNL     1      13.737  30.612  25.291  1.00  0.00     0.169 C 
BRANCH  26  27
ATOM     27  C   UNL     1      14.327  31.473  26.362  1.00  0.00     0.119 C 
BRANCH  27  28
ATOM     28  N   UNL     1      15.581  30.988  26.808  1.00  0.00    -0.092 NA
ATOM     29  N   UNL     1      15.770  30.632  27.986  1.00  0.00     0.001 N 
ATOM     30  N   UNL     1      15.869  30.647  29.223  1.00  0.00    -0.003 NA
ENDBRANCH  27  28
ENDBRANCH  26  27
ENDBRANCH  25  26
ENDBRANCH  19  25
BRANCH  20  31
ATOM     31  O   UNL     1      13.367  28.462  21.988  1.00  0.00    -0.387 OA
ATOM     32  H   UNL     1      12.595  28.985  21.660  1.00  0.00     0.211 HD
ENDBRANCH  20  31
BRANCH  21  33
ATOM     33  O   UNL     1      16.794  29.468  22.058  1.00  0.00    -0.385 OA
ATOM     34  H   UNL     1      17.326  30.011  22.683  1.00  0.00     0.211 HD
ENDBRANCH  21  33
ENDBRANCH  15  16
ENDBRANCH  10  15
BRANCH  12  35
ATOM     35  O   UNL     1      14.609  29.171  16.145  1.00  0.00    -0.385 OA
ATOM     36  H   UNL     1      14.191  28.355  16.522  1.00  0.00     0.211 HD
ENDBRANCH  12  35
BRANCH  13  37
ATOM     37  O   UNL     1      15.783  32.161  17.596  1.00  0.00    -0.387 OA
ATOM     38  H   UNL     1      16.371  32.289  18.382  1.00  0.00     0.211 HD
ENDBRANCH  13  37
BRANCH  14  39
ATOM     39  O   UNL     1      17.624  30.786  18.668  1.00  0.00    -0.387 OA
ATOM     40  H   UNL     1      17.164  31.612  18.923  1.00  0.00     0.211 HD
ENDBRANCH  14  39
ENDBRANCH   8   9
ENDBRANCH   7   8
ENDBRANCH   1   7
BRANCH   1  41
ATOM     41  C   UNL     1      20.177  29.299  20.448  1.00  0.00     0.364 C 
ATOM     42  O   UNL     1      20.649  30.434  20.512  1.00  0.00    -0.246 OA
BRANCH  41  43
ATOM     43  O   UNL     1      19.545  28.779  21.597  1.00  0.00    -0.477 OA
ATOM     44  H   UNL     1      19.661  27.789  21.801  1.00  0.00     0.296 HD
ENDBRANCH  41  43
ENDBRANCH   1  41
BRANCH   3  45
ATOM     45  O   UNL     1      23.254  29.418  17.274  1.00  0.00    -0.391 OA
ATOM     46  H   UNL     1      23.607  30.312  17.426  1.00  0.00     0.211 HD
ENDBRANCH   3  45
BRANCH   5  47
ATOM     47  C   UNL     1      22.494  25.995  20.699  1.00  0.00     0.176 C 
BRANCH  47  48
ATOM     48  O   UNL     1      23.701  26.121  21.332  1.00  0.00    -0.388 OA
ATOM     49  H   UNL     1      23.997  27.048  21.471  1.00  0.00     0.211 HD
ENDBRANCH  47  48
BRANCH  47  50
ATOM     50  C   UNL     1      21.466  25.372  21.547  1.00  0.00     0.165 C 
BRANCH  50  51
ATOM     51  O   UNL     1      20.914  26.426  22.342  1.00  0.00    -0.388 OA
ATOM     52  H   UNL     1      20.318  26.922  21.753  1.00  0.00     0.211 HD
ENDBRANCH  50  51
BRANCH  50  53
ATOM     53  C   UNL     1      22.079  24.428  22.595  1.00  0.00     0.154 C 
BRANCH  53  54
ATOM     54  N   UNL     1      22.123  25.030  23.904  1.00  0.00    -0.319 N 
ATOM     55  C   UNL     1      23.367  25.261  24.587  1.00  0.00     0.407 C 
ATOM     56  H   UNL     1      21.271  25.331  24.423  1.00  0.00     0.167 HD
ATOM     57  O   UNL     1      24.457  24.955  24.054  1.00  0.00    -0.225 OA
BRANCH  55  58
ATOM     58  O   UNL     1      23.391  25.831  25.846  1.00  0.00    -0.443 OA
BRANCH  58  59
ATOM     59  C   UNL     1      22.190  26.104  26.559  1.00  0.00     0.294 C 
BRANCH  59  60
ATOM     60  C   UNL     1      21.470  27.132  25.751  1.00  0.00     0.121 A 
ATOM     61  C   UNL     1      22.017  28.366  25.426  1.00  0.00     0.144 A 
ATOM     62  N   UNL     1      20.253  27.122  25.201  1.00  0.00    -0.131 NA
ATOM     63  N   UNL     1      21.117  29.068  24.689  1.00  0.00    -0.220 N 
ATOM     64  N   UNL     1      20.066  28.287  24.573  1.00  0.00    -0.062 NA
BRANCH  63  65
ATOM     65  C   UNL     1      21.283  30.374  24.161  1.00  0.00     0.066 A 
ATOM     66  C   UNL     1      20.232  31.255  24.063  1.00  0.00     0.028 A 
ATOM     67  C   UNL     1      22.525  30.792  23.739  1.00  0.00     0.028 A 
ATOM     68  C   UNL     1      20.387  32.530  23.559  1.00  0.00     0.002 A 
ATOM     69  C   UNL     1      22.677  32.074  23.232  1.00  0.00     0.002 A 
ATOM     70  C   UNL     1      21.639  32.967  23.125  1.00  0.00     0.000 A 
ENDBRANCH  63  65
ENDBRANCH  59  60
ENDBRANCH  58  59
ENDBRANCH  55  58
ENDBRANCH  53  54
ENDBRANCH  50  53
ENDBRANCH  47  50
ENDBRANCH   5  47
BRANCH   4  71
ATOM     71  N   UNL     1      24.331  27.430  18.932  1.00  0.00    -0.348 N 
ATOM     72  C   UNL     1      25.008  26.815  17.847  1.00  0.00     0.217 C 
ATOM     73  H   UNL     1      24.889  27.731  19.752  1.00  0.00     0.163 HD
ATOM     74  C   UNL     1      26.484  26.595  17.907  1.00  0.00     0.114 C 
ATOM     75  O   UNL     1      24.405  26.432  16.798  1.00  0.00    -0.275 OA
ENDBRANCH   4  71
TORSDOF 30
