REMARK VINA RESULT:    -5.746      6.300     10.578
REMARK INTER + INTRA:         -21.288
REMARK INTER:                 -12.815
REMARK INTRA:                  -8.473
REMARK UNBOUND:                -7.145
REMARK SMILES CC(=O)N[C@@H]1[C@@H](O)C[C@](OC[C@H]2O[C@@H](O[C@H]3[C@H](O)[C@@H](O)[C@H](OCCN=[N+]=[N-])O[C@@H]3CO)[C@H](O)[C@@H](O)[C@H]2O)(C(=O)O)O[C@H]1C(O)[C@H](O)CNC(=O)OCc1cn(-c2ccccc2Br)nn1
REMARK SMILES IDX 9 1 8 2 6 3 5 4 42 5 41 6 10 7 11 8 12 9 14 10 13 11 32 12
REMARK SMILES IDX 34 13 36 14 15 15 16 16 29 17 28 18 21 19 17 20 19 21 30 22
REMARK SMILES IDX 31 23 22 25 23 26 24 27 25 28 26 29 27 30 18 31 20 33 33 35
REMARK SMILES IDX 35 37 37 39 38 41 39 42 40 43 7 45 43 47 44 48 45 50 46 51
REMARK SMILES IDX 47 53 48 54 49 55 50 57 51 58 52 59 53 60 54 61 64 62 55 63
REMARK SMILES IDX 63 64 56 65 57 66 61 67 58 68 60 69 62 70 59 71 4 72 2 73
REMARK SMILES IDX 1 75 3 76
REMARK H PARENT 31 24 18 32 20 34 33 36 35 38 37 40 40 44 7 46 44 49 46 52
REMARK H PARENT 48 56 4 74
REMARK Flexibility Score: inf
ROOT
ATOM      1  C   UNL     1      23.400  25.178  21.296  1.00  0.00     0.272 C 
ATOM      2  C   UNL     1      22.229  24.442  21.830  1.00  0.00     0.113 C 
ATOM      3  C   UNL     1      21.679  25.081  23.062  1.00  0.00     0.145 C 
ATOM      4  C   UNL     1      21.545  26.562  23.019  1.00  0.00     0.142 C 
ATOM      5  C   UNL     1      22.274  27.162  21.869  1.00  0.00     0.178 C 
ATOM      6  O   UNL     1      23.408  26.548  21.456  1.00  0.00    -0.332 OA
ENDROOT
BRANCH   1   7
ATOM      7  O   UNL     1      23.657  24.993  19.950  1.00  0.00    -0.338 OA
BRANCH   7   8
ATOM      8  C   UNL     1      22.804  24.210  19.250  1.00  0.00     0.199 C 
BRANCH   8   9
ATOM      9  C   UNL     1      22.956  24.599  17.758  1.00  0.00     0.179 C 
ATOM     10  C   UNL     1      23.462  26.490  16.530  1.00  0.00     0.282 C 
ATOM     11  O   UNL     1      22.760  25.911  17.553  1.00  0.00    -0.341 OA
ATOM     12  C   UNL     1      23.575  25.598  15.315  1.00  0.00     0.202 C 
ATOM     13  C   UNL     1      24.188  24.263  15.680  1.00  0.00     0.179 C 
ATOM     14  C   UNL     1      24.207  24.065  17.184  1.00  0.00     0.177 C 
BRANCH  10  15
ATOM     15  O   UNL     1      24.690  26.995  16.933  1.00  0.00    -0.341 OA
BRANCH  15  16
ATOM     16  C   UNL     1      24.619  27.960  17.911  1.00  0.00     0.184 C 
ATOM     17  C   UNL     1      24.616  29.376  17.387  1.00  0.00     0.178 C 
ATOM     18  O   UNL     1      24.130  30.172  18.413  1.00  0.00    -0.341 OA
ATOM     19  C   UNL     1      24.834  30.119  19.573  1.00  0.00     0.281 C 
ATOM     20  C   UNL     1      25.831  27.900  18.832  1.00  0.00     0.180 C 
ATOM     21  C   UNL     1      25.843  29.061  19.737  1.00  0.00     0.202 C 
BRANCH  17  22
ATOM     22  C   UNL     1      23.791  29.586  16.161  1.00  0.00     0.191 C 
BRANCH  22  23
ATOM     23  O   UNL     1      22.476  29.850  16.538  1.00  0.00    -0.394 OA
ATOM     24  H   UNL     1      22.147  30.633  16.063  1.00  0.00     0.210 HD
ENDBRANCH  22  23
ENDBRANCH  17  22
BRANCH  19  25
ATOM     25  O   UNL     1      23.879  29.987  20.609  1.00  0.00    -0.350 OA
BRANCH  25  26
ATOM     26  C   UNL     1      24.054  30.878  21.630  1.00  0.00     0.169 C 
BRANCH  26  27
ATOM     27  C   UNL     1      23.270  30.596  22.873  1.00  0.00     0.119 C 
BRANCH  27  28
ATOM     28  N   UNL     1      24.225  30.259  23.917  1.00  0.00    -0.092 NA
ATOM     29  N   UNL     1      24.615  29.107  24.042  1.00  0.00     0.001 N 
ATOM     30  N   UNL     1      25.073  27.976  24.140  1.00  0.00    -0.003 NA
ENDBRANCH  27  28
ENDBRANCH  26  27
ENDBRANCH  25  26
ENDBRANCH  19  25
BRANCH  20  31
ATOM     31  O   UNL     1      25.856  26.724  19.565  1.00  0.00    -0.387 OA
ATOM     32  H   UNL     1      25.243  26.035  19.218  1.00  0.00     0.211 HD
ENDBRANCH  20  31
BRANCH  21  33
ATOM     33  O   UNL     1      27.162  29.601  19.660  1.00  0.00    -0.385 OA
ATOM     34  H   UNL     1      27.687  29.146  18.961  1.00  0.00     0.211 HD
ENDBRANCH  21  33
ENDBRANCH  15  16
ENDBRANCH  10  15
BRANCH  12  35
ATOM     35  O   UNL     1      22.348  25.456  14.667  1.00  0.00    -0.385 OA
ATOM     36  H   UNL     1      22.374  25.833  13.753  1.00  0.00     0.211 HD
ENDBRANCH  12  35
BRANCH  13  37
ATOM     37  O   UNL     1      25.429  24.108  15.094  1.00  0.00    -0.387 OA
ATOM     38  H   UNL     1      25.714  24.935  14.656  1.00  0.00     0.211 HD
ENDBRANCH  13  37
BRANCH  14  39
ATOM     39  O   UNL     1      25.359  24.655  17.675  1.00  0.00    -0.387 OA
ATOM     40  H   UNL     1      25.592  25.493  17.208  1.00  0.00     0.211 HD
ENDBRANCH  14  39
ENDBRANCH   8   9
ENDBRANCH   7   8
ENDBRANCH   1   7
BRANCH   1  41
ATOM     41  C   UNL     1      24.588  24.715  22.120  1.00  0.00     0.364 C 
ATOM     42  O   UNL     1      24.630  23.498  22.402  1.00  0.00    -0.246 OA
BRANCH  41  43
ATOM     43  O   UNL     1      25.579  25.544  22.551  1.00  0.00    -0.477 OA
ATOM     44  H   UNL     1      25.385  26.544  22.719  1.00  0.00     0.296 HD
ENDBRANCH  41  43
ENDBRANCH   1  41
BRANCH   3  45
ATOM     45  O   UNL     1      20.439  24.469  23.356  1.00  0.00    -0.391 OA
ATOM     46  H   UNL     1      20.264  24.608  24.328  1.00  0.00     0.211 HD
ENDBRANCH   3  45
BRANCH   5  47
ATOM     47  C   UNL     1      21.317  27.566  20.747  1.00  0.00     0.176 C 
BRANCH  47  48
ATOM     48  O   UNL     1      21.906  27.588  19.508  1.00  0.00    -0.388 OA
ATOM     49  H   UNL     1      22.320  28.479  19.312  1.00  0.00     0.211 HD
ENDBRANCH  47  48
BRANCH  47  50
ATOM     50  C   UNL     1      20.718  28.958  21.007  1.00  0.00     0.165 C 
BRANCH  50  51
ATOM     51  O   UNL     1      19.592  28.791  21.771  1.00  0.00    -0.388 OA
ATOM     52  H   UNL     1      18.819  29.338  21.546  1.00  0.00     0.211 HD
ENDBRANCH  50  51
BRANCH  50  53
ATOM     53  C   UNL     1      20.408  29.639  19.714  1.00  0.00     0.154 C 
BRANCH  53  54
ATOM     54  N   UNL     1      19.243  29.113  19.089  1.00  0.00    -0.319 N 
ATOM     55  C   UNL     1      19.163  28.377  17.889  1.00  0.00     0.407 C 
ATOM     56  H   UNL     1      18.304  29.284  19.572  1.00  0.00     0.167 HD
ATOM     57  O   UNL     1      20.181  28.103  17.246  1.00  0.00    -0.225 OA
BRANCH  55  58
ATOM     58  O   UNL     1      17.930  27.944  17.402  1.00  0.00    -0.443 OA
BRANCH  58  59
ATOM     59  C   UNL     1      16.721  28.651  17.543  1.00  0.00     0.294 C 
BRANCH  59  60
ATOM     60  C   UNL     1      16.227  28.593  18.957  1.00  0.00     0.121 A 
ATOM     61  C   UNL     1      15.362  29.525  19.530  1.00  0.00     0.144 A 
ATOM     62  N   UNL     1      16.497  27.712  19.907  1.00  0.00    -0.131 NA
ATOM     63  N   UNL     1      15.159  29.150  20.802  1.00  0.00    -0.219 N 
ATOM     64  N   UNL     1      15.845  28.055  21.024  1.00  0.00    -0.062 NA
BRANCH  63  65
ATOM     65  C   UNL     1      14.348  29.812  21.757  1.00  0.00     0.081 A 
ATOM     66  C   UNL     1      13.003  29.543  21.872  1.00  0.00     0.029 A 
ATOM     67  C   UNL     1      14.896  30.744  22.596  1.00  0.00     0.043 A 
ATOM     68  C   UNL     1      12.237  30.213  22.824  1.00  0.00     0.002 A 
ATOM     69  C   UNL     1      14.147  31.409  23.537  1.00  0.00     0.018 A 
ATOM     70  Br  UNL     1      16.753  31.148  22.465  1.00  0.00    -0.048 Br
ATOM     71  C   UNL     1      12.803  31.149  23.663  1.00  0.00     0.001 A 
ENDBRANCH  63  65
ENDBRANCH  59  60
ENDBRANCH  58  59
ENDBRANCH  55  58
ENDBRANCH  53  54
ENDBRANCH  50  53
ENDBRANCH  47  50
ENDBRANCH   5  47
BRANCH   4  72
ATOM     72  N   UNL     1      21.937  27.206  24.252  1.00  0.00    -0.348 N 
ATOM     73  C   UNL     1      21.048  28.057  24.953  1.00  0.00     0.217 C 
ATOM     74  H   UNL     1      22.885  27.050  24.645  1.00  0.00     0.163 HD
ATOM     75  C   UNL     1      21.535  28.682  26.219  1.00  0.00     0.114 C 
ATOM     76  O   UNL     1      19.895  28.293  24.546  1.00  0.00    -0.275 OA
ENDBRANCH   4  72
TORSDOF 30
