REMARK VINA RESULT:    -6.335      2.512      3.636
REMARK INTER + INTRA:         -22.531
REMARK INTER:                 -16.953
REMARK INTRA:                  -5.578
REMARK UNBOUND:                -6.197
REMARK SMILES CC(=O)N[C@@H]1[C@@H](O)C[C@](OC[C@H]2O[C@@H](O[C@H]3[C@H](O)[C@@H](O)[C@H](OCCN=[N+]=[N-])O[C@@H]3CO)[C@H](O)[C@@H](O)[C@H]2O)(C(=O)O)O[C@H]1C(O)[C@H](O)CNC(=O)OCc1cn(Cc2cccc(C#N)c2)nn1
REMARK SMILES IDX 9 1 8 2 6 3 5 4 42 5 41 6 10 7 11 8 12 9 14 10 13 11 32 12
REMARK SMILES IDX 34 13 36 14 15 15 16 16 29 17 28 18 21 19 17 20 19 21 30 22
REMARK SMILES IDX 31 23 22 25 23 26 24 27 25 28 26 29 27 30 18 31 20 33 33 35
REMARK SMILES IDX 35 37 37 39 38 41 39 42 40 43 7 45 43 47 44 48 45 50 46 51
REMARK SMILES IDX 47 53 48 54 49 55 50 57 51 58 52 59 53 60 54 61 66 62 55 63
REMARK SMILES IDX 65 64 56 65 57 66 58 67 64 68 59 69 61 70 60 71 62 72 63 73
REMARK SMILES IDX 4 74 2 75 1 77 3 78
REMARK H PARENT 31 24 18 32 20 34 33 36 35 38 37 40 40 44 7 46 44 49 46 52
REMARK H PARENT 48 56 4 76
REMARK Flexibility Score: inf
ROOT
ATOM      1  C   UNL     1      15.645  31.722  18.642  1.00  0.00     0.272 C 
ATOM      2  C   UNL     1      14.540  30.739  18.945  1.00  0.00     0.113 C 
ATOM      3  C   UNL     1      14.415  29.567  18.066  1.00  0.00     0.145 C 
ATOM      4  C   UNL     1      14.852  29.878  16.630  1.00  0.00     0.142 C 
ATOM      5  C   UNL     1      16.115  30.611  16.560  1.00  0.00     0.178 C 
ATOM      6  O   UNL     1      16.445  31.439  17.583  1.00  0.00    -0.332 OA
ENDROOT
BRANCH   1   7
ATOM      7  O   UNL     1      16.403  31.851  19.715  1.00  0.00    -0.338 OA
BRANCH   7   8
ATOM      8  C   UNL     1      17.536  31.965  20.221  1.00  0.00     0.199 C 
BRANCH   8   9
ATOM      9  C   UNL     1      17.958  31.656  21.630  1.00  0.00     0.179 C 
ATOM     10  C   UNL     1      17.449  30.336  23.383  1.00  0.00     0.282 C 
ATOM     11  O   UNL     1      17.391  30.374  21.984  1.00  0.00    -0.341 OA
ATOM     12  C   UNL     1      18.851  30.205  23.874  1.00  0.00     0.202 C 
ATOM     13  C   UNL     1      19.818  31.092  23.112  1.00  0.00     0.179 C 
ATOM     14  C   UNL     1      19.455  31.295  21.681  1.00  0.00     0.177 C 
BRANCH  10  15
ATOM     15  O   UNL     1      16.685  29.264  23.839  1.00  0.00    -0.341 OA
BRANCH  15  16
ATOM     16  C   UNL     1      15.367  29.591  24.025  1.00  0.00     0.184 C 
ATOM     17  C   UNL     1      14.686  29.990  22.768  1.00  0.00     0.178 C 
ATOM     18  O   UNL     1      13.385  30.402  22.945  1.00  0.00    -0.341 OA
ATOM     19  C   UNL     1      13.182  31.359  23.915  1.00  0.00     0.281 C 
ATOM     20  C   UNL     1      15.396  30.901  24.878  1.00  0.00     0.180 C 
ATOM     21  C   UNL     1      13.935  31.154  25.190  1.00  0.00     0.202 C 
BRANCH  17  22
ATOM     22  C   UNL     1      14.648  28.836  21.793  1.00  0.00     0.191 C 
BRANCH  22  23
ATOM     23  O   UNL     1      13.345  28.338  21.700  1.00  0.00    -0.394 OA
ATOM     24  H   UNL     1      13.310  27.379  21.542  1.00  0.00     0.210 HD
ENDBRANCH  22  23
ENDBRANCH  17  22
BRANCH  19  25
ATOM     25  O   UNL     1      11.814  31.298  24.255  1.00  0.00    -0.350 OA
BRANCH  25  26
ATOM     26  C   UNL     1      11.226  30.227  23.634  1.00  0.00     0.169 C 
BRANCH  26  27
ATOM     27  C   UNL     1      10.261  29.497  24.524  1.00  0.00     0.119 C 
BRANCH  27  28
ATOM     28  N   UNL     1      10.547  28.086  24.636  1.00  0.00    -0.092 NA
ATOM     29  N   UNL     1       9.779  27.376  25.302  1.00  0.00     0.001 N 
ATOM     30  N   UNL     1       9.137  26.572  26.014  1.00  0.00    -0.003 NA
ENDBRANCH  27  28
ENDBRANCH  26  27
ENDBRANCH  25  26
ENDBRANCH  19  25
BRANCH  20  31
ATOM     31  O   UNL     1      16.169  30.658  25.982  1.00  0.00    -0.387 OA
ATOM     32  H   UNL     1      17.092  30.362  25.736  1.00  0.00     0.211 HD
ENDBRANCH  20  31
BRANCH  21  33
ATOM     33  O   UNL     1      13.867  32.324  25.943  1.00  0.00    -0.385 OA
ATOM     34  H   UNL     1      14.647  32.305  26.571  1.00  0.00     0.211 HD
ENDBRANCH  21  33
ENDBRANCH  15  16
ENDBRANCH  10  15
BRANCH  12  35
ATOM     35  O   UNL     1      18.891  30.689  25.202  1.00  0.00    -0.385 OA
ATOM     36  H   UNL     1      17.948  30.825  25.468  1.00  0.00     0.211 HD
ENDBRANCH  12  35
BRANCH  13  37
ATOM     37  O   UNL     1      21.051  30.423  23.139  1.00  0.00    -0.387 OA
ATOM     38  H   UNL     1      21.328  30.088  22.265  1.00  0.00     0.211 HD
ENDBRANCH  13  37
BRANCH  14  39
ATOM     39  O   UNL     1      19.605  30.055  21.041  1.00  0.00    -0.387 OA
ATOM     40  H   UNL     1      19.522  30.126  20.070  1.00  0.00     0.211 HD
ENDBRANCH  14  39
ENDBRANCH   8   9
ENDBRANCH   7   8
ENDBRANCH   1   7
BRANCH   1  41
ATOM     41  C   UNL     1      14.955  33.011  18.276  1.00  0.00     0.364 C 
ATOM     42  O   UNL     1      13.713  33.023  17.976  1.00  0.00    -0.246 OA
BRANCH  41  43
ATOM     43  O   UNL     1      15.623  34.205  18.250  1.00  0.00    -0.477 OA
ATOM     44  H   UNL     1      15.052  35.063  18.336  1.00  0.00     0.296 HD
ENDBRANCH  41  43
ENDBRANCH   1  41
BRANCH   3  45
ATOM     45  O   UNL     1      15.184  28.519  18.550  1.00  0.00    -0.391 OA
ATOM     46  H   UNL     1      15.718  28.071  17.853  1.00  0.00     0.211 HD
ENDBRANCH   3  45
BRANCH   5  47
ATOM     47  C   UNL     1      17.353  29.751  16.408  1.00  0.00     0.176 C 
BRANCH  47  48
ATOM     48  O   UNL     1      16.948  28.726  15.489  1.00  0.00    -0.388 OA
ATOM     49  H   UNL     1      16.232  29.111  14.933  1.00  0.00     0.211 HD
ENDBRANCH  47  48
BRANCH  47  50
ATOM     50  C   UNL     1      18.561  30.342  15.812  1.00  0.00     0.165 C 
BRANCH  50  51
ATOM     51  O   UNL     1      18.970  29.312  14.858  1.00  0.00    -0.388 OA
ATOM     52  H   UNL     1      18.237  29.245  14.175  1.00  0.00     0.211 HD
ENDBRANCH  50  51
BRANCH  50  53
ATOM     53  C   UNL     1      19.767  30.509  16.662  1.00  0.00     0.154 C 
BRANCH  53  54
ATOM     54  N   UNL     1      19.766  29.853  17.929  1.00  0.00    -0.319 N 
ATOM     55  C   UNL     1      20.298  28.525  18.045  1.00  0.00     0.407 C 
ATOM     56  H   UNL     1      19.405  30.281  18.790  1.00  0.00     0.167 HD
ATOM     57  O   UNL     1      20.748  27.999  17.001  1.00  0.00    -0.225 OA
BRANCH  55  58
ATOM     58  O   UNL     1      20.335  27.832  19.219  1.00  0.00    -0.443 OA
BRANCH  58  59
ATOM     59  C   UNL     1      21.569  27.307  19.754  1.00  0.00     0.294 C 
BRANCH  59  60
ATOM     60  C   UNL     1      21.355  26.930  21.180  1.00  0.00     0.120 A 
ATOM     61  C   UNL     1      21.480  25.675  21.732  1.00  0.00     0.138 A 
ATOM     62  N   UNL     1      20.998  27.737  22.184  1.00  0.00    -0.132 NA
ATOM     63  N   UNL     1      21.198  25.740  23.064  1.00  0.00    -0.248 N 
ATOM     64  N   UNL     1      20.909  27.010  23.307  1.00  0.00    -0.067 NA
BRANCH  63  65
ATOM     65  C   UNL     1      21.207  24.643  23.988  1.00  0.00     0.181 C 
BRANCH  65  66
ATOM     66  C   UNL     1      22.377  24.768  24.886  1.00  0.00    -0.025 A 
ATOM     67  C   UNL     1      23.672  24.644  24.456  1.00  0.00     0.006 A 
ATOM     68  C   UNL     1      22.170  25.020  26.238  1.00  0.00     0.025 A 
ATOM     69  C   UNL     1      24.749  24.756  25.295  1.00  0.00     0.002 A 
ATOM     70  C   UNL     1      23.249  25.132  27.079  1.00  0.00     0.052 A 
ATOM     71  C   UNL     1      24.570  25.006  26.648  1.00  0.00     0.019 A 
BRANCH  70  72
ATOM     72  C   UNL     1      23.025  25.398  28.476  1.00  0.00     0.099 C 
ATOM     73  N   UNL     1      22.836  25.600  29.612  1.00  0.00    -0.192 NA
ENDBRANCH  70  72
ENDBRANCH  65  66
ENDBRANCH  63  65
ENDBRANCH  59  60
ENDBRANCH  58  59
ENDBRANCH  55  58
ENDBRANCH  53  54
ENDBRANCH  50  53
ENDBRANCH  47  50
ENDBRANCH   5  47
BRANCH   4  74
ATOM     74  N   UNL     1      13.719  30.470  15.921  1.00  0.00    -0.348 N 
ATOM     75  C   UNL     1      13.365  29.975  14.649  1.00  0.00     0.217 C 
ATOM     76  H   UNL     1      13.137  31.247  16.290  1.00  0.00     0.163 HD
ATOM     77  C   UNL     1      12.227  30.518  13.855  1.00  0.00     0.114 C 
ATOM     78  O   UNL     1      14.029  29.043  14.166  1.00  0.00    -0.275 OA
ENDBRANCH   4  74
TORSDOF 32
