REMARK VINA RESULT:    -5.260     21.769     26.831
REMARK INTER + INTRA:         -21.509
REMARK INTER:                 -14.377
REMARK INTRA:                  -7.132
REMARK UNBOUND:                -8.561
REMARK SMILES CC(=O)N[C@@H]1[C@@H](O)C[C@](OC[C@H]2O[C@@H](O[C@H]3[C@H](O)[C@@H](O)[C@H](OCCN=[N+]=[N-])O[C@@H]3CO)[C@H](O)[C@@H](O)[C@H]2O)(C(=O)O)O[C@H]1C(O)[C@H](O)CNC(=O)OCc1cn(-c2cnc3ccccc3c2)nn1
REMARK SMILES IDX 9 1 8 2 6 3 5 4 42 5 41 6 10 7 11 8 12 9 14 10 13 11 32 12
REMARK SMILES IDX 34 13 36 14 15 15 16 16 29 17 28 18 21 19 17 20 19 21 30 22
REMARK SMILES IDX 31 23 22 25 23 26 24 27 25 28 26 29 27 30 18 31 20 33 33 35
REMARK SMILES IDX 35 37 37 39 38 41 39 42 40 43 7 45 43 47 44 48 45 50 46 51
REMARK SMILES IDX 47 53 48 54 49 55 50 57 51 58 52 59 53 60 54 61 67 62 55 63
REMARK SMILES IDX 66 64 56 65 57 66 65 67 58 68 64 69 59 70 63 71 60 72 62 73
REMARK SMILES IDX 61 74 4 75 2 76 1 78 3 79
REMARK H PARENT 31 24 18 32 20 34 33 36 35 38 37 40 40 44 7 46 44 49 46 52
REMARK H PARENT 48 56 4 77
REMARK Flexibility Score: inf
ROOT
ATOM      1  C   UNL     1       7.933  24.760  35.650  1.00  0.00     0.272 C 
ATOM      2  C   UNL     1       9.044  25.141  36.561  1.00  0.00     0.113 C 
ATOM      3  C   UNL     1       9.827  26.333  36.046  1.00  0.00     0.145 C 
ATOM      4  C   UNL     1       8.773  27.380  35.684  1.00  0.00     0.142 C 
ATOM      5  C   UNL     1       8.012  26.806  34.479  1.00  0.00     0.178 C 
ATOM      6  O   UNL     1       7.241  25.779  35.064  1.00  0.00    -0.332 OA
ENDROOT
BRANCH   1   7
ATOM      7  O   UNL     1       6.955  24.002  36.330  1.00  0.00    -0.338 OA
BRANCH   7   8
ATOM      8  C   UNL     1       5.913  24.736  36.823  1.00  0.00     0.199 C 
BRANCH   8   9
ATOM      9  C   UNL     1       4.673  23.868  36.829  1.00  0.00     0.179 C 
ATOM     10  C   UNL     1       3.230  22.638  35.535  1.00  0.00     0.282 C 
ATOM     11  O   UNL     1       4.525  23.106  35.688  1.00  0.00    -0.341 OA
ATOM     12  C   UNL     1       2.508  22.498  36.844  1.00  0.00     0.202 C 
ATOM     13  C   UNL     1       3.392  22.166  37.994  1.00  0.00     0.179 C 
ATOM     14  C   UNL     1       4.475  23.198  38.123  1.00  0.00     0.177 C 
BRANCH  10  15
ATOM     15  O   UNL     1       3.250  21.471  34.802  1.00  0.00    -0.341 OA
BRANCH  15  16
ATOM     16  C   UNL     1       3.282  21.696  33.425  1.00  0.00     0.184 C 
ATOM     17  C   UNL     1       1.982  21.352  32.742  1.00  0.00     0.178 C 
ATOM     18  O   UNL     1       2.087  20.586  31.623  1.00  0.00    -0.341 OA
ATOM     19  C   UNL     1       3.059  20.906  30.717  1.00  0.00     0.281 C 
ATOM     20  C   UNL     1       4.490  21.082  32.775  1.00  0.00     0.180 C 
ATOM     21  C   UNL     1       4.401  21.243  31.290  1.00  0.00     0.202 C 
BRANCH  17  22
ATOM     22  C   UNL     1       1.120  22.603  32.561  1.00  0.00     0.191 C 
BRANCH  22  23
ATOM     23  O   UNL     1       1.863  23.690  32.112  1.00  0.00    -0.394 OA
ATOM     24  H   UNL     1       2.053  23.653  31.153  1.00  0.00     0.210 HD
ENDBRANCH  22  23
ENDBRANCH  17  22
BRANCH  19  25
ATOM     25  O   UNL     1       2.645  21.854  29.778  1.00  0.00    -0.350 OA
BRANCH  25  26
ATOM     26  C   UNL     1       2.046  21.284  28.675  1.00  0.00     0.169 C 
BRANCH  26  27
ATOM     27  C   UNL     1       1.471  22.323  27.741  1.00  0.00     0.119 C 
BRANCH  27  28
ATOM     28  N   UNL     1       2.134  23.599  27.920  1.00  0.00    -0.092 NA
ATOM     29  N   UNL     1       3.160  23.899  27.310  1.00  0.00     0.001 N 
ATOM     30  N   UNL     1       3.912  24.342  26.442  1.00  0.00    -0.003 NA
ENDBRANCH  27  28
ENDBRANCH  26  27
ENDBRANCH  25  26
ENDBRANCH  19  25
BRANCH  20  31
ATOM     31  O   UNL     1       5.627  21.798  33.212  1.00  0.00    -0.387 OA
ATOM     32  H   UNL     1       6.439  21.465  32.743  1.00  0.00     0.211 HD
ENDBRANCH  20  31
BRANCH  21  33
ATOM     33  O   UNL     1       5.432  20.453  30.731  1.00  0.00    -0.385 OA
ATOM     34  H   UNL     1       5.408  19.538  31.139  1.00  0.00     0.211 HD
ENDBRANCH  21  33
ENDBRANCH  15  16
ENDBRANCH  10  15
BRANCH  12  35
ATOM     35  O   UNL     1       1.737  23.608  37.176  1.00  0.00    -0.385 OA
ATOM     36  H   UNL     1       1.556  24.179  36.392  1.00  0.00     0.211 HD
ENDBRANCH  12  35
BRANCH  13  37
ATOM     37  O   UNL     1       3.917  20.878  37.863  1.00  0.00    -0.387 OA
ATOM     38  H   UNL     1       4.579  20.720  38.556  1.00  0.00     0.211 HD
ENDBRANCH  13  37
BRANCH  14  39
ATOM     39  O   UNL     1       5.601  22.548  38.616  1.00  0.00    -0.387 OA
ATOM     40  H   UNL     1       5.554  22.364  39.573  1.00  0.00     0.211 HD
ENDBRANCH  14  39
ENDBRANCH   8   9
ENDBRANCH   7   8
ENDBRANCH   1   7
BRANCH   1  41
ATOM     41  C   UNL     1       8.503  23.926  34.536  1.00  0.00     0.364 C 
ATOM     42  O   UNL     1       7.741  23.412  33.653  1.00  0.00    -0.246 OA
BRANCH  41  43
ATOM     43  O   UNL     1       9.842  23.654  34.378  1.00  0.00    -0.477 OA
ATOM     44  H   UNL     1      10.483  23.505  35.171  1.00  0.00     0.296 HD
ENDBRANCH  41  43
ENDBRANCH   1  41
BRANCH   3  45
ATOM     45  O   UNL     1      10.728  26.810  36.968  1.00  0.00    -0.391 OA
ATOM     46  H   UNL     1      10.359  27.628  37.362  1.00  0.00     0.211 HD
ENDBRANCH   3  45
BRANCH   5  47
ATOM     47  C   UNL     1       7.015  27.793  33.937  1.00  0.00     0.176 C 
BRANCH  47  48
ATOM     48  O   UNL     1       6.446  28.462  35.052  1.00  0.00    -0.388 OA
ATOM     49  H   UNL     1       5.646  27.981  35.383  1.00  0.00     0.211 HD
ENDBRANCH  47  48
BRANCH  47  50
ATOM     50  C   UNL     1       5.841  27.167  33.197  1.00  0.00     0.165 C 
BRANCH  50  51
ATOM     51  O   UNL     1       6.075  27.592  31.841  1.00  0.00    -0.388 OA
ATOM     52  H   UNL     1       5.367  28.242  31.622  1.00  0.00     0.211 HD
ENDBRANCH  50  51
BRANCH  50  53
ATOM     53  C   UNL     1       4.556  27.885  33.548  1.00  0.00     0.154 C 
BRANCH  53  54
ATOM     54  N   UNL     1       3.590  27.993  32.521  1.00  0.00    -0.319 N 
ATOM     55  C   UNL     1       2.445  27.176  32.404  1.00  0.00     0.407 C 
ATOM     56  H   UNL     1       3.750  28.750  31.783  1.00  0.00     0.167 HD
ATOM     57  O   UNL     1       2.253  26.278  33.246  1.00  0.00    -0.225 OA
BRANCH  55  58
ATOM     58  O   UNL     1       1.587  27.407  31.353  1.00  0.00    -0.443 OA
BRANCH  58  59
ATOM     59  C   UNL     1       1.636  26.676  30.158  1.00  0.00     0.294 C 
BRANCH  59  60
ATOM     60  C   UNL     1       2.996  26.799  29.542  1.00  0.00     0.121 A 
ATOM     61  C   UNL     1       3.384  27.577  28.504  1.00  0.00     0.144 A 
ATOM     62  N   UNL     1       4.078  26.102  29.961  1.00  0.00    -0.131 NA
ATOM     63  N   UNL     1       4.696  27.333  28.318  1.00  0.00    -0.219 N 
ATOM     64  N   UNL     1       5.110  26.432  29.212  1.00  0.00    -0.062 NA
BRANCH  63  65
ATOM     65  C   UNL     1       5.494  27.953  27.313  1.00  0.00     0.085 A 
ATOM     66  C   UNL     1       6.047  27.200  26.328  1.00  0.00     0.140 A 
ATOM     67  C   UNL     1       5.681  29.325  27.365  1.00  0.00     0.040 A 
ATOM     68  N   UNL     1       6.794  27.803  25.381  1.00  0.00    -0.254 NA
ATOM     69  C   UNL     1       6.440  29.918  26.398  1.00  0.00     0.002 A 
ATOM     70  C   UNL     1       6.980  29.127  25.424  1.00  0.00     0.070 A 
ATOM     71  C   UNL     1       6.641  31.282  26.428  1.00  0.00     0.010 A 
ATOM     72  C   UNL     1       7.754  29.740  24.438  1.00  0.00     0.029 A 
ATOM     73  C   UNL     1       7.413  31.869  25.440  1.00  0.00     0.001 A 
ATOM     74  C   UNL     1       7.978  31.088  24.430  1.00  0.00     0.002 A 
ENDBRANCH  63  65
ENDBRANCH  59  60
ENDBRANCH  58  59
ENDBRANCH  55  58
ENDBRANCH  53  54
ENDBRANCH  50  53
ENDBRANCH  47  50
ENDBRANCH   5  47
BRANCH   4  75
ATOM     75  N   UNL     1       9.337  28.661  35.494  1.00  0.00    -0.348 N 
ATOM     76  C   UNL     1       9.038  29.740  36.408  1.00  0.00     0.217 C 
ATOM     77  H   UNL     1       9.995  28.911  34.728  1.00  0.00     0.163 HD
ATOM     78  C   UNL     1       9.614  31.073  36.225  1.00  0.00     0.114 C 
ATOM     79  O   UNL     1       8.255  29.470  37.368  1.00  0.00    -0.275 OA
ENDBRANCH   4  75
TORSDOF 30
