REMARK VINA RESULT:    -6.702      2.944      9.042
REMARK INTER + INTRA:         -22.367
REMARK INTER:                 -17.097
REMARK INTRA:                  -5.270
REMARK UNBOUND:                -5.087
REMARK SMILES CC(=O)N[C@@H]1[C@@H](O)C[C@](OC[C@H]2O[C@@H](O[C@H]3[C@H](O)[C@@H](O)[C@H](OCCN=[N+]=[N-])O[C@@H]3CO)[C@H](O)[C@@H](O)[C@H]2O)(C(=O)O)O[C@H]1C(O)[C@H](O)CNC(=O)OCc1cn(CS(=O)(=O)c2ccccc2)nn1
REMARK SMILES IDX 9 1 8 2 6 3 5 4 42 5 41 6 10 7 11 8 12 9 14 10 13 11 32 12
REMARK SMILES IDX 34 13 36 14 15 15 16 16 29 17 28 18 21 19 17 20 19 21 30 22
REMARK SMILES IDX 31 23 22 25 23 26 24 27 25 28 26 29 27 30 18 31 20 33 33 35
REMARK SMILES IDX 35 37 37 39 38 41 39 42 40 43 7 45 43 47 44 48 45 50 46 51
REMARK SMILES IDX 47 53 48 54 49 55 50 57 51 58 52 59 53 60 54 61 67 62 55 63
REMARK SMILES IDX 66 64 56 65 57 66 58 67 59 68 60 69 61 70 65 71 62 72 64 73
REMARK SMILES IDX 63 74 4 75 2 76 1 78 3 79
REMARK H PARENT 31 24 18 32 20 34 33 36 35 38 37 40 40 44 7 46 44 49 46 52
REMARK H PARENT 48 56 4 77
REMARK Flexibility Score: inf
ROOT
ATOM      1  C   UNL     1      14.270  30.665  21.664  1.00  0.00     0.272 C 
ATOM      2  C   UNL     1      12.901  31.042  22.059  1.00  0.00     0.113 C 
ATOM      3  C   UNL     1      12.698  32.516  22.346  1.00  0.00     0.145 C 
ATOM      4  C   UNL     1      13.776  32.920  23.290  1.00  0.00     0.142 C 
ATOM      5  C   UNL     1      15.148  32.498  22.846  1.00  0.00     0.178 C 
ATOM      6  O   UNL     1      15.297  31.236  22.398  1.00  0.00    -0.332 OA
ENDROOT
BRANCH   1   7
ATOM      7  O   UNL     1      14.491  30.724  20.305  1.00  0.00    -0.338 OA
BRANCH   7   8
ATOM      8  C   UNL     1      15.652  30.200  19.838  1.00  0.00     0.199 C 
BRANCH   8   9
ATOM      9  C   UNL     1      15.378  28.978  18.936  1.00  0.00     0.179 C 
ATOM     10  C   UNL     1      15.686  29.321  16.615  1.00  0.00     0.282 C 
ATOM     11  O   UNL     1      14.944  29.438  17.755  1.00  0.00    -0.341 OA
ATOM     12  C   UNL     1      17.141  29.353  16.890  1.00  0.00     0.202 C 
ATOM     13  C   UNL     1      17.539  28.362  17.941  1.00  0.00     0.179 C 
ATOM     14  C   UNL     1      16.474  27.995  18.893  1.00  0.00     0.177 C 
BRANCH  10  15
ATOM     15  O   UNL     1      15.265  30.385  15.799  1.00  0.00    -0.341 OA
BRANCH  15  16
ATOM     16  C   UNL     1      14.328  30.098  14.866  1.00  0.00     0.184 C 
ATOM     17  C   UNL     1      12.930  30.340  15.352  1.00  0.00     0.178 C 
ATOM     18  O   UNL     1      12.116  30.442  14.227  1.00  0.00    -0.341 OA
ATOM     19  C   UNL     1      12.293  29.463  13.289  1.00  0.00     0.281 C 
ATOM     20  C   UNL     1      14.324  28.589  14.519  1.00  0.00     0.180 C 
ATOM     21  C   UNL     1      13.128  28.312  13.697  1.00  0.00     0.202 C 
BRANCH  17  22
ATOM     22  C   UNL     1      12.732  31.548  16.198  1.00  0.00     0.191 C 
BRANCH  22  23
ATOM     23  O   UNL     1      12.880  31.202  17.536  1.00  0.00    -0.394 OA
ATOM     24  H   UNL     1      12.764  30.230  17.646  1.00  0.00     0.210 HD
ENDBRANCH  22  23
ENDBRANCH  17  22
BRANCH  19  25
ATOM     25  O   UNL     1      12.872  30.073  12.180  1.00  0.00    -0.350 OA
BRANCH  25  26
ATOM     26  C   UNL     1      12.213  29.702  10.985  1.00  0.00     0.169 C 
BRANCH  26  27
ATOM     27  C   UNL     1      13.201  29.009  10.072  1.00  0.00     0.119 C 
BRANCH  27  28
ATOM     28  N   UNL     1      14.216  29.989   9.695  1.00  0.00    -0.092 NA
ATOM     29  N   UNL     1      15.409  29.702   9.924  1.00  0.00     0.001 N 
ATOM     30  N   UNL     1      16.532  29.475  10.411  1.00  0.00    -0.003 NA
ENDBRANCH  27  28
ENDBRANCH  26  27
ENDBRANCH  25  26
ENDBRANCH  19  25
BRANCH  20  31
ATOM     31  O   UNL     1      15.478  28.251  13.832  1.00  0.00    -0.387 OA
ATOM     32  H   UNL     1      16.227  28.229  14.483  1.00  0.00     0.211 HD
ENDBRANCH  20  31
BRANCH  21  33
ATOM     33  O   UNL     1      12.291  27.439  14.437  1.00  0.00    -0.385 OA
ATOM     34  H   UNL     1      12.591  26.507  14.393  1.00  0.00     0.211 HD
ENDBRANCH  21  33
ENDBRANCH  15  16
ENDBRANCH  10  15
BRANCH  12  35
ATOM     35  O   UNL     1      17.890  28.955  15.737  1.00  0.00    -0.385 OA
ATOM     36  H   UNL     1      18.178  29.801  15.320  1.00  0.00     0.211 HD
ENDBRANCH  12  35
BRANCH  13  37
ATOM     37  O   UNL     1      18.702  28.798  18.624  1.00  0.00    -0.387 OA
ATOM     38  H   UNL     1      19.398  28.082  18.576  1.00  0.00     0.211 HD
ENDBRANCH  13  37
BRANCH  14  39
ATOM     39  O   UNL     1      17.043  27.763  20.159  1.00  0.00    -0.387 OA
ATOM     40  H   UNL     1      17.944  27.374  20.016  1.00  0.00     0.211 HD
ENDBRANCH  14  39
ENDBRANCH   8   9
ENDBRANCH   7   8
ENDBRANCH   1   7
BRANCH   1  41
ATOM     41  C   UNL     1      14.403  29.200  22.050  1.00  0.00     0.364 C 
ATOM     42  O   UNL     1      15.455  28.837  22.601  1.00  0.00    -0.246 OA
BRANCH  41  43
ATOM     43  O   UNL     1      13.372  28.311  21.792  1.00  0.00    -0.477 OA
ATOM     44  H   UNL     1      12.539  28.295  22.399  1.00  0.00     0.296 HD
ENDBRANCH  41  43
ENDBRANCH   1  41
BRANCH   3  45
ATOM     45  O   UNL     1      12.672  33.202  21.163  1.00  0.00    -0.391 OA
ATOM     46  H   UNL     1      11.718  33.311  20.896  1.00  0.00     0.211 HD
ENDBRANCH   3  45
BRANCH   5  47
ATOM     47  C   UNL     1      15.830  33.538  21.987  1.00  0.00     0.176 C 
BRANCH  47  48
ATOM     48  O   UNL     1      15.033  34.649  21.718  1.00  0.00    -0.388 OA
ATOM     49  H   UNL     1      14.086  34.516  21.870  1.00  0.00     0.211 HD
ENDBRANCH  47  48
BRANCH  47  50
ATOM     50  C   UNL     1      17.159  34.001  22.565  1.00  0.00     0.165 C 
BRANCH  50  51
ATOM     51  O   UNL     1      18.046  34.421  21.600  1.00  0.00    -0.388 OA
ATOM     52  H   UNL     1      17.694  35.048  20.950  1.00  0.00     0.211 HD
ENDBRANCH  50  51
BRANCH  50  53
ATOM     53  C   UNL     1      17.778  33.052  23.519  1.00  0.00     0.154 C 
BRANCH  53  54
ATOM     54  N   UNL     1      18.411  31.889  22.976  1.00  0.00    -0.319 N 
ATOM     55  C   UNL     1      18.372  30.583  23.514  1.00  0.00     0.407 C 
ATOM     56  H   UNL     1      18.971  32.015  22.077  1.00  0.00     0.167 HD
ATOM     57  O   UNL     1      17.735  30.333  24.554  1.00  0.00    -0.225 OA
BRANCH  55  58
ATOM     58  O   UNL     1      19.060  29.574  22.859  1.00  0.00    -0.443 OA
BRANCH  58  59
ATOM     59  C   UNL     1      20.443  29.385  22.922  1.00  0.00     0.294 C 
BRANCH  59  60
ATOM     60  C   UNL     1      20.871  28.486  21.834  1.00  0.00     0.120 A 
ATOM     61  C   UNL     1      22.180  28.082  21.634  1.00  0.00     0.139 A 
ATOM     62  N   UNL     1      20.164  27.888  20.863  1.00  0.00    -0.132 NA
ATOM     63  N   UNL     1      22.231  27.264  20.567  1.00  0.00    -0.237 N 
ATOM     64  N   UNL     1      20.982  27.170  20.122  1.00  0.00    -0.066 NA
BRANCH  63  65
ATOM     65  C   UNL     1      23.396  26.621  20.026  1.00  0.00     0.287 C 
BRANCH  65  66
ATOM     66  S   UNL     1      23.262  24.882  20.440  1.00  0.00     0.198 S 
ATOM     67  O   UNL     1      24.573  24.207  20.305  1.00  0.00    -0.222 OA
ATOM     68  O   UNL     1      22.227  24.288  19.500  1.00  0.00    -0.222 OA
BRANCH  66  69
ATOM     69  C   UNL     1      22.676  24.784  22.080  1.00  0.00     0.069 A 
ATOM     70  C   UNL     1      21.341  24.602  22.370  1.00  0.00     0.020 A 
ATOM     71  C   UNL     1      23.539  24.886  23.149  1.00  0.00     0.020 A 
ATOM     72  C   UNL     1      20.878  24.525  23.658  1.00  0.00     0.001 A 
ATOM     73  C   UNL     1      23.092  24.812  24.443  1.00  0.00     0.001 A 
ATOM     74  C   UNL     1      21.755  24.631  24.695  1.00  0.00     0.000 A 
ENDBRANCH  66  69
ENDBRANCH  65  66
ENDBRANCH  63  65
ENDBRANCH  59  60
ENDBRANCH  58  59
ENDBRANCH  55  58
ENDBRANCH  53  54
ENDBRANCH  50  53
ENDBRANCH  47  50
ENDBRANCH   5  47
BRANCH   4  75
ATOM     75  N   UNL     1      13.529  32.279  24.576  1.00  0.00    -0.348 N 
ATOM     76  C   UNL     1      13.900  32.896  25.803  1.00  0.00     0.217 C 
ATOM     77  H   UNL     1      13.064  31.323  24.654  1.00  0.00     0.163 HD
ATOM     78  C   UNL     1      13.623  32.189  27.105  1.00  0.00     0.114 C 
ATOM     79  O   UNL     1      14.460  34.029  25.814  1.00  0.00    -0.275 OA
ENDBRANCH   4  75
TORSDOF 32
