REMARK VINA RESULT:    -6.829      0.000      0.000
REMARK INTER + INTRA:         -22.435
REMARK INTER:                 -12.115
REMARK INTRA:                 -10.320
REMARK UNBOUND:                -4.828
REMARK SMILES CC(=O)N[C@@H]1[C@@H](O)C[C@](OC[C@H]2O[C@@H](O[C@H]3[C@H](O)[C@@H](O)[C@H](OCCN=[N+]=[N-])O[C@@H]3CO)[C@H](O)[C@@H](O)[C@H]2O)(C(=O)O)O[C@H]1C(O)[C@H](O)CNC(=O)OCc1cn(CCN2CCCC2)nn1
REMARK SMILES IDX 9 1 8 2 6 3 5 4 42 5 41 6 10 7 11 8 12 9 14 10 13 11 32 12
REMARK SMILES IDX 34 13 36 14 15 15 16 16 29 17 28 18 21 19 17 20 19 21 30 22
REMARK SMILES IDX 31 23 22 25 23 26 24 27 25 28 26 29 27 30 18 31 20 33 33 35
REMARK SMILES IDX 35 37 37 39 38 41 39 42 40 43 7 45 43 47 44 48 45 50 46 51
REMARK SMILES IDX 47 53 48 54 49 55 50 57 51 58 52 59 53 60 54 61 64 62 55 63
REMARK SMILES IDX 63 64 56 65 57 66 58 67 59 68 62 69 60 70 61 71 4 72 2 73
REMARK SMILES IDX 1 75 3 76
REMARK H PARENT 31 24 18 32 20 34 33 36 35 38 37 40 40 44 7 46 44 49 46 52
REMARK H PARENT 48 56 4 74
REMARK Flexibility Score: inf
ROOT
ATOM      1  C   UNL     1      23.082  30.113  23.490  1.00  0.00     0.272 C 
ATOM      2  C   UNL     1      23.296  28.699  23.930  1.00  0.00     0.113 C 
ATOM      3  C   UNL     1      21.955  28.015  24.229  1.00  0.00     0.145 C 
ATOM      4  C   UNL     1      21.366  28.782  25.447  1.00  0.00     0.142 C 
ATOM      5  C   UNL     1      21.322  30.216  25.066  1.00  0.00     0.178 C 
ATOM      6  O   UNL     1      21.736  30.409  23.745  1.00  0.00    -0.332 OA
ENDROOT
BRANCH   1   7
ATOM      7  O   UNL     1      23.170  30.246  22.102  1.00  0.00    -0.338 OA
BRANCH   7   8
ATOM      8  C   UNL     1      22.137  30.820  21.455  1.00  0.00     0.199 C 
BRANCH   8   9
ATOM      9  C   UNL     1      21.520  29.913  20.393  1.00  0.00     0.179 C 
ATOM     10  C   UNL     1      21.713  27.865  19.380  1.00  0.00     0.282 C 
ATOM     11  O   UNL     1      21.872  28.582  20.536  1.00  0.00    -0.341 OA
ATOM     12  C   UNL     1      20.475  28.286  18.665  1.00  0.00     0.202 C 
ATOM     13  C   UNL     1      19.484  28.840  19.673  1.00  0.00     0.179 C 
ATOM     14  C   UNL     1      20.016  30.092  20.340  1.00  0.00     0.177 C 
BRANCH  10  15
ATOM     15  O   UNL     1      21.886  26.517  19.496  1.00  0.00    -0.341 OA
BRANCH  15  16
ATOM     16  C   UNL     1      22.509  25.958  20.528  1.00  0.00     0.184 C 
ATOM     17  C   UNL     1      23.714  25.089  20.235  1.00  0.00     0.178 C 
ATOM     18  O   UNL     1      24.494  25.075  21.396  1.00  0.00    -0.341 OA
ATOM     19  C   UNL     1      23.826  24.188  22.289  1.00  0.00     0.281 C 
ATOM     20  C   UNL     1      21.646  25.131  21.466  1.00  0.00     0.180 C 
ATOM     21  C   UNL     1      22.529  24.874  22.671  1.00  0.00     0.202 C 
BRANCH  17  22
ATOM     22  C   UNL     1      24.513  25.515  19.050  1.00  0.00     0.191 C 
BRANCH  22  23
ATOM     23  O   UNL     1      23.852  25.078  17.906  1.00  0.00    -0.394 OA
ATOM     24  H   UNL     1      23.994  24.099  17.783  1.00  0.00     0.210 HD
ENDBRANCH  22  23
ENDBRANCH  17  22
BRANCH  19  25
ATOM     25  O   UNL     1      24.608  24.131  23.398  1.00  0.00    -0.350 OA
BRANCH  25  26
ATOM     26  C   UNL     1      25.315  25.216  23.788  1.00  0.00     0.169 C 
BRANCH  26  27
ATOM     27  C   UNL     1      25.158  25.687  25.191  1.00  0.00     0.119 C 
BRANCH  27  28
ATOM     28  N   UNL     1      24.565  24.723  26.086  1.00  0.00    -0.092 NA
ATOM     29  N   UNL     1      23.412  24.882  26.462  1.00  0.00     0.001 N 
ATOM     30  N   UNL     1      22.221  25.112  26.697  1.00  0.00    -0.003 NA
ENDBRANCH  27  28
ENDBRANCH  26  27
ENDBRANCH  25  26
ENDBRANCH  19  25
BRANCH  20  31
ATOM     31  O   UNL     1      20.557  25.858  21.925  1.00  0.00    -0.387 OA
ATOM     32  H   UNL     1      20.790  26.664  22.423  1.00  0.00     0.211 HD
ENDBRANCH  20  31
BRANCH  21  33
ATOM     33  O   UNL     1      21.872  24.241  23.700  1.00  0.00    -0.385 OA
ATOM     34  H   UNL     1      22.251  24.346  24.589  1.00  0.00     0.211 HD
ENDBRANCH  21  33
ENDBRANCH  15  16
ENDBRANCH  10  15
BRANCH  12  35
ATOM     35  O   UNL     1      20.695  29.295  17.720  1.00  0.00    -0.385 OA
ATOM     36  H   UNL     1      20.575  28.934  16.793  1.00  0.00     0.211 HD
ENDBRANCH  12  35
BRANCH  13  37
ATOM     37  O   UNL     1      19.266  27.902  20.687  1.00  0.00    -0.387 OA
ATOM     38  H   UNL     1      19.962  28.012  21.410  1.00  0.00     0.211 HD
ENDBRANCH  13  37
BRANCH  14  39
ATOM     39  O   UNL     1      19.454  30.133  21.615  1.00  0.00    -0.387 OA
ATOM     40  H   UNL     1      19.626  29.225  22.004  1.00  0.00     0.211 HD
ENDBRANCH  14  39
ENDBRANCH   8   9
ENDBRANCH   7   8
ENDBRANCH   1   7
BRANCH   1  41
ATOM     41  C   UNL     1      23.955  31.102  24.175  1.00  0.00     0.364 C 
ATOM     42  O   UNL     1      24.380  30.808  25.334  1.00  0.00    -0.246 OA
BRANCH  41  43
ATOM     43  O   UNL     1      24.348  32.314  23.673  1.00  0.00    -0.477 OA
ATOM     44  H   UNL     1      25.267  32.616  23.444  1.00  0.00     0.296 HD
ENDBRANCH  41  43
ENDBRANCH   1  41
BRANCH   3  45
ATOM     45  O   UNL     1      21.064  28.182  23.198  1.00  0.00    -0.391 OA
ATOM     46  H   UNL     1      20.319  27.523  23.215  1.00  0.00     0.211 HD
ENDBRANCH   3  45
BRANCH   5  47
ATOM     47  C   UNL     1      19.901  30.728  25.071  1.00  0.00     0.176 C 
BRANCH  47  48
ATOM     48  O   UNL     1      18.974  29.859  24.528  1.00  0.00    -0.388 OA
ATOM     49  H   UNL     1      19.120  29.617  23.587  1.00  0.00     0.211 HD
ENDBRANCH  47  48
BRANCH  47  50
ATOM     50  C   UNL     1      19.383  31.380  26.293  1.00  0.00     0.165 C 
BRANCH  50  51
ATOM     51  O   UNL     1      19.272  30.594  27.416  1.00  0.00    -0.388 OA
ATOM     52  H   UNL     1      19.253  31.072  28.275  1.00  0.00     0.211 HD
ENDBRANCH  50  51
BRANCH  50  53
ATOM     53  C   UNL     1      18.370  32.461  26.106  1.00  0.00     0.154 C 
BRANCH  53  54
ATOM     54  N   UNL     1      17.243  32.068  25.344  1.00  0.00    -0.319 N 
ATOM     55  C   UNL     1      16.184  31.259  25.885  1.00  0.00     0.407 C 
ATOM     56  H   UNL     1      17.148  32.369  24.344  1.00  0.00     0.167 HD
ATOM     57  O   UNL     1      16.177  30.845  27.059  1.00  0.00    -0.225 OA
BRANCH  55  58
ATOM     58  O   UNL     1      15.095  30.905  25.089  1.00  0.00    -0.443 OA
BRANCH  58  59
ATOM     59  C   UNL     1      14.943  31.481  23.787  1.00  0.00     0.294 C 
BRANCH  59  60
ATOM     60  C   UNL     1      15.286  30.500  22.737  1.00  0.00     0.120 A 
ATOM     61  C   UNL     1      14.597  30.015  21.663  1.00  0.00     0.138 A 
ATOM     62  N   UNL     1      16.491  29.861  22.685  1.00  0.00    -0.132 NA
ATOM     63  N   UNL     1      15.354  29.135  21.007  1.00  0.00    -0.251 N 
ATOM     64  N   UNL     1      16.529  29.058  21.666  1.00  0.00    -0.067 NA
BRANCH  63  65
ATOM     65  C   UNL     1      15.076  28.369  19.833  1.00  0.00     0.161 C 
BRANCH  65  66
ATOM     66  C   UNL     1      16.197  28.291  18.865  1.00  0.00     0.108 C 
BRANCH  66  67
ATOM     67  N   UNL     1      16.284  29.226  17.824  1.00  0.00    -0.301 NA
ATOM     68  C   UNL     1      16.573  30.578  18.090  1.00  0.00     0.084 C 
ATOM     69  C   UNL     1      16.944  28.785  16.633  1.00  0.00     0.084 C 
ATOM     70  C   UNL     1      17.664  31.019  17.125  1.00  0.00     0.017 C 
ATOM     71  C   UNL     1      17.692  29.953  16.069  1.00  0.00     0.017 C 
ENDBRANCH  66  67
ENDBRANCH  65  66
ENDBRANCH  63  65
ENDBRANCH  59  60
ENDBRANCH  58  59
ENDBRANCH  55  58
ENDBRANCH  53  54
ENDBRANCH  50  53
ENDBRANCH  47  50
ENDBRANCH   5  47
BRANCH   4  72
ATOM     72  N   UNL     1      22.235  28.473  26.567  1.00  0.00    -0.348 N 
ATOM     73  C   UNL     1      21.769  28.255  27.895  1.00  0.00     0.217 C 
ATOM     74  H   UNL     1      23.260  28.397  26.432  1.00  0.00     0.163 HD
ATOM     75  C   UNL     1      22.763  27.950  28.983  1.00  0.00     0.114 C 
ATOM     76  O   UNL     1      20.562  28.321  28.131  1.00  0.00    -0.275 OA
ENDBRANCH   4  72
TORSDOF 32
