REMARK VINA RESULT:    -5.614      2.949      8.860
REMARK INTER + INTRA:         -22.295
REMARK INTER:                 -14.191
REMARK INTRA:                  -8.105
REMARK UNBOUND:                -8.149
REMARK SMILES CC(=O)N[C@@H]1[C@@H](O)C[C@](OC[C@H]2O[C@@H](O[C@H]3[C@H](O)[C@@H](O)[C@H](OCCN=[N+]=[N-])O[C@@H]3CO)[C@H](O)[C@@H](O)[C@H]2O)(C(=O)O)O[C@H]1C(O)[C@H](O)CNC(=O)OCc1cn(Cc2ccc3c(c2)OCO3)nn1
REMARK SMILES IDX 9 1 8 2 6 3 5 4 42 5 41 6 10 7 11 8 12 9 14 10 13 11 32 12
REMARK SMILES IDX 34 13 36 14 15 15 16 16 29 17 28 18 21 19 17 20 19 21 30 22
REMARK SMILES IDX 31 23 22 25 23 26 24 27 25 28 26 29 27 30 18 31 20 33 33 35
REMARK SMILES IDX 35 37 37 39 38 41 39 42 40 43 7 45 43 47 44 48 45 50 46 51
REMARK SMILES IDX 47 53 48 54 49 55 50 57 51 58 52 59 53 60 54 61 67 62 55 63
REMARK SMILES IDX 66 64 56 65 57 66 58 67 62 68 59 69 61 70 60 71 63 72 65 73
REMARK SMILES IDX 64 74 4 75 2 76 1 78 3 79
REMARK H PARENT 31 24 18 32 20 34 33 36 35 38 37 40 40 44 7 46 44 49 46 52
REMARK H PARENT 48 56 4 77
REMARK Flexibility Score: inf
ROOT
ATOM      1  C   UNL     1      23.111  25.678  21.110  1.00  0.00     0.272 C 
ATOM      2  C   UNL     1      22.746  24.393  21.827  1.00  0.00     0.113 C 
ATOM      3  C   UNL     1      21.519  24.617  22.658  1.00  0.00     0.145 C 
ATOM      4  C   UNL     1      21.903  25.686  23.716  1.00  0.00     0.142 C 
ATOM      5  C   UNL     1      22.435  26.863  22.981  1.00  0.00     0.178 C 
ATOM      6  O   UNL     1      22.391  26.744  21.594  1.00  0.00    -0.332 OA
ENDROOT
BRANCH   1   7
ATOM      7  O   UNL     1      22.947  25.532  19.724  1.00  0.00    -0.338 OA
BRANCH   7   8
ATOM      8  C   UNL     1      23.087  24.283  19.219  1.00  0.00     0.199 C 
BRANCH   8   9
ATOM      9  C   UNL     1      23.219  24.385  17.691  1.00  0.00     0.179 C 
ATOM     10  C   UNL     1      22.535  25.618  15.874  1.00  0.00     0.282 C 
ATOM     11  O   UNL     1      22.323  25.305  17.217  1.00  0.00    -0.341 OA
ATOM     12  C   UNL     1      23.878  26.344  15.757  1.00  0.00     0.202 C 
ATOM     13  C   UNL     1      24.871  25.943  16.787  1.00  0.00     0.179 C 
ATOM     14  C   UNL     1      24.632  24.550  17.259  1.00  0.00     0.177 C 
BRANCH  10  15
ATOM     15  O   UNL     1      21.590  26.473  15.463  1.00  0.00    -0.341 OA
BRANCH  15  16
ATOM     16  C   UNL     1      21.559  27.761  15.904  1.00  0.00     0.184 C 
ATOM     17  C   UNL     1      20.633  27.998  17.064  1.00  0.00     0.178 C 
ATOM     18  O   UNL     1      19.588  28.805  16.759  1.00  0.00    -0.341 OA
ATOM     19  C   UNL     1      19.916  30.111  16.342  1.00  0.00     0.281 C 
ATOM     20  C   UNL     1      21.202  28.666  14.754  1.00  0.00     0.180 C 
ATOM     21  C   UNL     1      21.012  30.067  15.301  1.00  0.00     0.202 C 
BRANCH  17  22
ATOM     22  C   UNL     1      21.421  28.582  18.210  1.00  0.00     0.191 C 
BRANCH  22  23
ATOM     23  O   UNL     1      20.700  28.448  19.425  1.00  0.00    -0.394 OA
ATOM     24  H   UNL     1      21.166  27.872  20.074  1.00  0.00     0.210 HD
ENDBRANCH  22  23
ENDBRANCH  17  22
BRANCH  19  25
ATOM     25  O   UNL     1      20.165  30.927  17.399  1.00  0.00    -0.350 OA
BRANCH  25  26
ATOM     26  C   UNL     1      19.226  31.626  18.031  1.00  0.00     0.169 C 
BRANCH  26  27
ATOM     27  C   UNL     1      18.000  31.972  17.246  1.00  0.00     0.119 C 
BRANCH  27  28
ATOM     28  N   UNL     1      16.788  31.365  17.671  1.00  0.00    -0.092 NA
ATOM     29  N   UNL     1      16.476  30.200  17.438  1.00  0.00     0.001 N 
ATOM     30  N   UNL     1      16.153  29.191  16.787  1.00  0.00    -0.003 NA
ENDBRANCH  27  28
ENDBRANCH  26  27
ENDBRANCH  25  26
ENDBRANCH  19  25
BRANCH  20  31
ATOM     31  O   UNL     1      22.273  28.675  13.865  1.00  0.00    -0.387 OA
ATOM     32  H   UNL     1      22.384  27.795  13.418  1.00  0.00     0.211 HD
ENDBRANCH  20  31
BRANCH  21  33
ATOM     33  O   UNL     1      20.682  30.866  14.210  1.00  0.00    -0.385 OA
ATOM     34  H   UNL     1      21.291  31.650  14.163  1.00  0.00     0.211 HD
ENDBRANCH  21  33
ENDBRANCH  15  16
ENDBRANCH  10  15
BRANCH  12  35
ATOM     35  O   UNL     1      24.399  26.188  14.474  1.00  0.00    -0.385 OA
ATOM     36  H   UNL     1      23.692  26.006  13.834  1.00  0.00     0.211 HD
ENDBRANCH  12  35
BRANCH  13  37
ATOM     37  O   UNL     1      24.975  26.840  17.839  1.00  0.00    -0.387 OA
ATOM     38  H   UNL     1      24.727  26.374  18.678  1.00  0.00     0.211 HD
ENDBRANCH  13  37
BRANCH  14  39
ATOM     39  O   UNL     1      25.523  24.297  18.313  1.00  0.00    -0.387 OA
ATOM     40  H   UNL     1      25.796  23.361  18.265  1.00  0.00     0.211 HD
ENDBRANCH  14  39
ENDBRANCH   8   9
ENDBRANCH   7   8
ENDBRANCH   1   7
BRANCH   1  41
ATOM     41  C   UNL     1      24.552  25.935  21.286  1.00  0.00     0.364 C 
ATOM     42  O   UNL     1      25.209  26.664  20.531  1.00  0.00    -0.246 OA
BRANCH  41  43
ATOM     43  O   UNL     1      25.265  25.356  22.339  1.00  0.00    -0.477 OA
ATOM     44  H   UNL     1      25.151  25.715  23.302  1.00  0.00     0.296 HD
ENDBRANCH  41  43
ENDBRANCH   1  41
BRANCH   3  45
ATOM     45  O   UNL     1      20.424  25.115  22.013  1.00  0.00    -0.391 OA
ATOM     46  H   UNL     1      19.559  24.826  22.398  1.00  0.00     0.211 HD
ENDBRANCH   3  45
BRANCH   5  47
ATOM     47  C   UNL     1      21.550  28.105  23.250  1.00  0.00     0.176 C 
BRANCH  47  48
ATOM     48  O   UNL     1      20.496  28.198  22.393  1.00  0.00    -0.388 OA
ATOM     49  H   UNL     1      19.752  27.635  22.709  1.00  0.00     0.211 HD
ENDBRANCH  47  48
BRANCH  47  50
ATOM     50  C   UNL     1      21.218  28.355  24.655  1.00  0.00     0.165 C 
BRANCH  50  51
ATOM     51  O   UNL     1      20.062  27.714  25.122  1.00  0.00    -0.388 OA
ATOM     52  H   UNL     1      19.348  27.735  24.433  1.00  0.00     0.211 HD
ENDBRANCH  50  51
BRANCH  50  53
ATOM     53  C   UNL     1      21.137  29.793  25.088  1.00  0.00     0.154 C 
BRANCH  53  54
ATOM     54  N   UNL     1      20.482  30.540  24.001  1.00  0.00    -0.319 N 
ATOM     55  C   UNL     1      19.098  30.875  24.048  1.00  0.00     0.407 C 
ATOM     56  H   UNL     1      21.055  30.819  23.197  1.00  0.00     0.167 HD
ATOM     57  O   UNL     1      18.453  30.504  25.064  1.00  0.00    -0.225 OA
BRANCH  55  58
ATOM     58  O   UNL     1      18.459  31.570  23.050  1.00  0.00    -0.443 OA
BRANCH  58  59
ATOM     59  C   UNL     1      18.749  31.326  21.694  1.00  0.00     0.294 C 
BRANCH  59  60
ATOM     60  C   UNL     1      17.845  30.259  21.203  1.00  0.00     0.120 A 
ATOM     61  C   UNL     1      16.461  30.297  21.077  1.00  0.00     0.138 A 
ATOM     62  N   UNL     1      18.190  29.024  20.787  1.00  0.00    -0.132 NA
ATOM     63  N   UNL     1      16.033  29.113  20.599  1.00  0.00    -0.248 N 
ATOM     64  N   UNL     1      17.094  28.366  20.435  1.00  0.00    -0.067 NA
BRANCH  63  65
ATOM     65  C   UNL     1      14.670  28.766  20.328  1.00  0.00     0.181 C 
BRANCH  65  66
ATOM     66  C   UNL     1      13.678  29.518  21.131  1.00  0.00    -0.023 A 
ATOM     67  C   UNL     1      13.298  29.058  22.354  1.00  0.00     0.010 A 
ATOM     68  C   UNL     1      13.125  30.704  20.634  1.00  0.00     0.056 A 
ATOM     69  C   UNL     1      12.377  29.769  23.080  1.00  0.00     0.051 A 
ATOM     70  C   UNL     1      12.205  31.421  21.347  1.00  0.00     0.166 A 
ATOM     71  C   UNL     1      11.840  30.927  22.587  1.00  0.00     0.165 A 
ATOM     72  O   UNL     1      11.486  32.587  21.163  1.00  0.00    -0.454 OA
ATOM     73  O   UNL     1      10.898  31.790  23.160  1.00  0.00    -0.454 OA
ATOM     74  C   UNL     1      10.971  32.995  22.428  1.00  0.00     0.468 C 
ENDBRANCH  65  66
ENDBRANCH  63  65
ENDBRANCH  59  60
ENDBRANCH  58  59
ENDBRANCH  55  58
ENDBRANCH  53  54
ENDBRANCH  50  53
ENDBRANCH  47  50
ENDBRANCH   5  47
BRANCH   4  75
ATOM     75  N   UNL     1      22.832  25.013  24.578  1.00  0.00    -0.348 N 
ATOM     76  C   UNL     1      22.665  25.154  25.997  1.00  0.00     0.217 C 
ATOM     77  H   UNL     1      23.631  24.417  24.297  1.00  0.00     0.163 HD
ATOM     78  C   UNL     1      23.625  24.464  26.924  1.00  0.00     0.114 C 
ATOM     79  O   UNL     1      21.727  25.847  26.458  1.00  0.00    -0.275 OA
ENDBRANCH   4  75
TORSDOF 31
