REMARK VINA RESULT:    -5.403      6.125     11.199
REMARK INTER + INTRA:         -22.048
REMARK INTER:                 -13.935
REMARK INTRA:                  -8.113
REMARK UNBOUND:                -8.275
REMARK SMILES CC(=O)N[C@@H]1[C@@H](O)C[C@](OC[C@H]2O[C@@H](O[C@H]3[C@H](O)[C@@H](O)[C@H](OCCN=[N+]=[N-])O[C@@H]3CO)[C@H](O)[C@@H](O)[C@H]2O)(C(=O)O)O[C@H]1C(O)[C@H](O)CNC(=O)OCc1cn(C(C)(C)C(=O)O)nn1
REMARK SMILES IDX 9 1 8 2 6 3 5 4 42 5 41 6 10 7 11 8 12 9 14 10 13 11 32 12
REMARK SMILES IDX 34 13 36 14 15 15 16 16 29 17 28 18 21 19 17 20 19 21 30 22
REMARK SMILES IDX 31 23 22 25 23 26 24 27 25 28 26 29 27 30 18 31 20 33 33 35
REMARK SMILES IDX 35 37 37 39 38 41 39 42 40 43 7 45 43 47 44 48 45 50 46 51
REMARK SMILES IDX 47 53 48 54 49 55 50 57 51 58 52 59 53 60 54 61 63 62 55 63
REMARK SMILES IDX 62 64 56 65 57 66 58 67 59 68 60 69 61 70 4 72 2 73 1 75
REMARK SMILES IDX 3 76
REMARK H PARENT 31 24 18 32 20 34 33 36 35 38 37 40 40 44 7 46 44 49 46 52
REMARK H PARENT 48 56 61 71 4 74
REMARK Flexibility Score: inf
ROOT
ATOM      1  C   UNL     1      16.826  29.924  19.283  1.00  0.00     0.272 C 
ATOM      2  C   UNL     1      15.926  30.878  18.614  1.00  0.00     0.113 C 
ATOM      3  C   UNL     1      16.459  32.276  18.485  1.00  0.00     0.145 C 
ATOM      4  C   UNL     1      17.453  32.549  19.573  1.00  0.00     0.142 C 
ATOM      5  C   UNL     1      17.012  31.674  20.762  1.00  0.00     0.178 C 
ATOM      6  O   UNL     1      17.396  30.384  20.475  1.00  0.00    -0.332 OA
ENDROOT
BRANCH   1   7
ATOM      7  O   UNL     1      17.834  29.443  18.504  1.00  0.00    -0.338 OA
BRANCH   7   8
ATOM      8  C   UNL     1      18.534  28.362  18.938  1.00  0.00     0.199 C 
BRANCH   8   9
ATOM      9  C   UNL     1      19.822  28.774  19.617  1.00  0.00     0.179 C 
ATOM     10  C   UNL     1      20.917  28.592  21.641  1.00  0.00     0.282 C 
ATOM     11  O   UNL     1      19.869  28.054  20.808  1.00  0.00    -0.341 OA
ATOM     12  C   UNL     1      22.193  28.211  20.993  1.00  0.00     0.202 C 
ATOM     13  C   UNL     1      21.976  27.618  19.602  1.00  0.00     0.179 C 
ATOM     14  C   UNL     1      21.014  28.470  18.789  1.00  0.00     0.177 C 
BRANCH  10  15
ATOM     15  O   UNL     1      20.632  28.089  22.873  1.00  0.00    -0.341 OA
BRANCH  15  16
ATOM     16  C   UNL     1      21.695  27.488  23.525  1.00  0.00     0.184 C 
ATOM     17  C   UNL     1      21.208  26.300  24.295  1.00  0.00     0.178 C 
ATOM     18  O   UNL     1      22.095  25.959  25.328  1.00  0.00    -0.341 OA
ATOM     19  C   UNL     1      22.050  26.852  26.389  1.00  0.00     0.281 C 
ATOM     20  C   UNL     1      22.320  28.456  24.530  1.00  0.00     0.180 C 
ATOM     21  C   UNL     1      21.710  28.241  25.892  1.00  0.00     0.202 C 
BRANCH  17  22
ATOM     22  C   UNL     1      21.150  25.042  23.413  1.00  0.00     0.191 C 
BRANCH  22  23
ATOM     23  O   UNL     1      20.495  25.386  22.248  1.00  0.00    -0.394 OA
ATOM     24  H   UNL     1      19.995  26.242  22.407  1.00  0.00     0.210 HD
ENDBRANCH  22  23
ENDBRANCH  17  22
BRANCH  19  25
ATOM     25  O   UNL     1      23.313  26.820  26.977  1.00  0.00    -0.350 OA
BRANCH  25  26
ATOM     26  C   UNL     1      23.346  27.192  28.296  1.00  0.00     0.169 C 
BRANCH  26  27
ATOM     27  C   UNL     1      22.195  26.439  28.979  1.00  0.00     0.119 C 
BRANCH  27  28
ATOM     28  N   UNL     1      21.638  27.184  30.084  1.00  0.00    -0.092 NA
ATOM     29  N   UNL     1      20.455  26.975  30.395  1.00  0.00     0.001 N 
ATOM     30  N   UNL     1      19.240  26.933  30.526  1.00  0.00    -0.003 NA
ENDBRANCH  27  28
ENDBRANCH  26  27
ENDBRANCH  25  26
ENDBRANCH  19  25
BRANCH  20  31
ATOM     31  O   UNL     1      23.684  28.201  24.627  1.00  0.00    -0.387 OA
ATOM     32  H   UNL     1      23.890  27.244  24.769  1.00  0.00     0.211 HD
ENDBRANCH  20  31
BRANCH  21  33
ATOM     33  O   UNL     1      20.338  28.431  25.787  1.00  0.00    -0.385 OA
ATOM     34  H   UNL     1      20.089  29.275  25.341  1.00  0.00     0.211 HD
ENDBRANCH  21  33
ENDBRANCH  15  16
ENDBRANCH  10  15
BRANCH  12  35
ATOM     35  O   UNL     1      22.939  29.388  20.760  1.00  0.00    -0.385 OA
ATOM     36  H   UNL     1      23.534  29.335  19.998  1.00  0.00     0.211 HD
ENDBRANCH  12  35
BRANCH  13  37
ATOM     37  O   UNL     1      21.543  26.309  19.698  1.00  0.00    -0.387 OA
ATOM     38  H   UNL     1      22.177  25.771  20.237  1.00  0.00     0.211 HD
ENDBRANCH  13  37
BRANCH  14  39
ATOM     39  O   UNL     1      20.674  27.733  17.666  1.00  0.00    -0.387 OA
ATOM     40  H   UNL     1      21.074  26.822  17.769  1.00  0.00     0.211 HD
ENDBRANCH  14  39
ENDBRANCH   8   9
ENDBRANCH   7   8
ENDBRANCH   1   7
BRANCH   1  41
ATOM     41  C   UNL     1      15.949  28.761  19.762  1.00  0.00     0.364 C 
ATOM     42  O   UNL     1      16.247  28.134  20.801  1.00  0.00    -0.246 OA
BRANCH  41  43
ATOM     43  O   UNL     1      14.820  28.384  19.061  1.00  0.00    -0.477 OA
ATOM     44  H   UNL     1      13.956  28.902  19.062  1.00  0.00     0.296 HD
ENDBRANCH  41  43
ENDBRANCH   1  41
BRANCH   3  45
ATOM     45  O   UNL     1      17.079  32.415  17.261  1.00  0.00    -0.391 OA
ATOM     46  H   UNL     1      17.806  31.753  17.125  1.00  0.00     0.211 HD
ENDBRANCH   3  45
BRANCH   5  47
ATOM     47  C   UNL     1      17.627  32.144  22.049  1.00  0.00     0.176 C 
BRANCH  47  48
ATOM     48  O   UNL     1      16.631  32.308  23.008  1.00  0.00    -0.388 OA
ATOM     49  H   UNL     1      15.988  33.026  22.732  1.00  0.00     0.211 HD
ENDBRANCH  47  48
BRANCH  47  50
ATOM     50  C   UNL     1      18.603  31.109  22.560  1.00  0.00     0.165 C 
BRANCH  50  51
ATOM     51  O   UNL     1      17.963  29.882  22.781  1.00  0.00    -0.388 OA
ATOM     52  H   UNL     1      17.705  29.511  21.907  1.00  0.00     0.211 HD
ENDBRANCH  50  51
BRANCH  50  53
ATOM     53  C   UNL     1      19.282  31.525  23.838  1.00  0.00     0.154 C 
BRANCH  53  54
ATOM     54  N   UNL     1      18.617  30.977  24.995  1.00  0.00    -0.319 N 
ATOM     55  C   UNL     1      17.832  31.785  25.852  1.00  0.00     0.407 C 
ATOM     56  H   UNL     1      18.707  29.966  25.217  1.00  0.00     0.167 HD
ATOM     57  O   UNL     1      17.673  33.016  25.650  1.00  0.00    -0.225 OA
BRANCH  55  58
ATOM     58  O   UNL     1      17.193  31.242  26.976  1.00  0.00    -0.443 OA
BRANCH  58  59
ATOM     59  C   UNL     1      15.762  31.231  27.016  1.00  0.00     0.294 C 
BRANCH  59  60
ATOM     60  C   UNL     1      15.200  30.752  25.754  1.00  0.00     0.120 A 
ATOM     61  C   UNL     1      13.935  30.991  25.281  1.00  0.00     0.139 A 
ATOM     62  N   UNL     1      15.821  29.996  24.845  1.00  0.00    -0.132 NA
ATOM     63  N   UNL     1      13.808  30.375  24.089  1.00  0.00    -0.235 N 
ATOM     64  N   UNL     1      14.985  29.781  23.865  1.00  0.00    -0.066 NA
BRANCH  63  65
ATOM     65  C   UNL     1      12.671  30.327  23.194  1.00  0.00     0.155 C 
ATOM     66  C   UNL     1      12.129  31.706  22.964  1.00  0.00     0.049 C 
ATOM     67  C   UNL     1      11.554  29.474  23.786  1.00  0.00     0.049 C 
BRANCH  65  68
ATOM     68  C   UNL     1      13.110  29.682  21.936  1.00  0.00     0.331 C 
ATOM     69  O   UNL     1      13.222  30.368  20.908  1.00  0.00    -0.250 OA
BRANCH  68  70
ATOM     70  O   UNL     1      13.386  28.326  21.938  1.00  0.00    -0.479 OA
ATOM     71  H   UNL     1      14.247  27.942  22.310  1.00  0.00     0.296 HD
ENDBRANCH  68  70
ENDBRANCH  65  68
ENDBRANCH  63  65
ENDBRANCH  59  60
ENDBRANCH  58  59
ENDBRANCH  55  58
ENDBRANCH  53  54
ENDBRANCH  50  53
ENDBRANCH  47  50
ENDBRANCH   5  47
BRANCH   4  72
ATOM     72  N   UNL     1      17.407  33.909  20.044  1.00  0.00    -0.348 N 
ATOM     73  C   UNL     1      18.102  34.989  19.430  1.00  0.00     0.217 C 
ATOM     74  H   UNL     1      16.829  34.120  20.881  1.00  0.00     0.163 HD
ATOM     75  C   UNL     1      18.001  36.374  19.984  1.00  0.00     0.114 C 
ATOM     76  O   UNL     1      18.808  34.767  18.411  1.00  0.00    -0.275 OA
ENDBRANCH   4  72
TORSDOF 32
