REMARK VINA RESULT:    -6.366     13.148     18.121
REMARK INTER + INTRA:         -22.262
REMARK INTER:                 -13.182
REMARK INTRA:                  -9.080
REMARK UNBOUND:                -6.033
REMARK SMILES CC(=O)N[C@@H]1[C@@H](O)C[C@](OC[C@H]2O[C@@H](O[C@H]3[C@H](O)[C@@H](O)[C@H](OCCN=[N+]=[N-])O[C@@H]3CO)[C@H](O)[C@@H](O)[C@H]2O)(C(=O)O)O[C@H]1C(O)[C@H](O)CNC(=O)OCc1cn(-c2cccc(S(N)(=O)=O)c2)nn1
REMARK SMILES IDX 9 1 8 2 6 3 5 4 42 5 41 6 10 7 11 8 12 9 14 10 13 11 32 12
REMARK SMILES IDX 34 13 36 14 15 15 16 16 29 17 28 18 21 19 17 20 19 21 30 22
REMARK SMILES IDX 31 23 22 25 23 26 24 27 25 28 26 29 27 30 18 31 20 33 33 35
REMARK SMILES IDX 35 37 37 39 38 41 39 42 40 43 7 45 43 47 44 48 45 50 46 51
REMARK SMILES IDX 47 53 48 54 49 55 50 57 51 58 52 59 53 60 54 61 67 62 55 63
REMARK SMILES IDX 66 64 56 65 65 66 57 67 60 68 58 69 59 70 61 71 63 72 64 73
REMARK SMILES IDX 62 74 4 77 2 78 1 80 3 81
REMARK H PARENT 31 24 18 32 20 34 33 36 35 38 37 40 40 44 7 46 44 49 46 52
REMARK H PARENT 48 56 62 75 62 76 4 79
REMARK Flexibility Score: inf
ROOT
ATOM      1  C   UNL     1      15.917  29.133  20.208  1.00  0.00     0.272 C 
ATOM      2  C   UNL     1      17.237  29.129  21.003  1.00  0.00     0.113 C 
ATOM      3  C   UNL     1      18.309  29.658  20.114  1.00  0.00     0.145 C 
ATOM      4  C   UNL     1      17.985  31.033  19.649  1.00  0.00     0.142 C 
ATOM      5  C   UNL     1      16.526  31.268  19.480  1.00  0.00     0.178 C 
ATOM      6  O   UNL     1      15.609  30.389  19.897  1.00  0.00    -0.332 OA
ENDROOT
BRANCH   1   7
ATOM      7  O   UNL     1      14.994  28.582  21.138  1.00  0.00    -0.338 OA
BRANCH   7   8
ATOM      8  C   UNL     1      15.270  29.079  22.374  1.00  0.00     0.199 C 
BRANCH   8   9
ATOM      9  C   UNL     1      14.026  29.461  23.148  1.00  0.00     0.179 C 
ATOM     10  C   UNL     1      13.430  30.376  25.100  1.00  0.00     0.282 C 
ATOM     11  O   UNL     1      14.243  30.575  23.956  1.00  0.00    -0.341 OA
ATOM     12  C   UNL     1      12.048  29.972  24.734  1.00  0.00     0.202 C 
ATOM     13  C   UNL     1      11.701  30.133  23.276  1.00  0.00     0.179 C 
ATOM     14  C   UNL     1      12.810  29.691  22.339  1.00  0.00     0.177 C 
BRANCH  10  15
ATOM     15  O   UNL     1      13.551  31.416  25.986  1.00  0.00    -0.341 OA
BRANCH  15  16
ATOM     16  C   UNL     1      14.647  32.225  25.798  1.00  0.00     0.184 C 
ATOM     17  C   UNL     1      15.495  32.210  27.047  1.00  0.00     0.178 C 
ATOM     18  O   UNL     1      15.952  33.497  27.355  1.00  0.00    -0.341 OA
ATOM     19  C   UNL     1      14.891  34.215  27.853  1.00  0.00     0.281 C 
ATOM     20  C   UNL     1      14.122  33.615  25.512  1.00  0.00     0.180 C 
ATOM     21  C   UNL     1      13.910  34.433  26.746  1.00  0.00     0.202 C 
BRANCH  17  22
ATOM     22  C   UNL     1      16.704  31.336  26.948  1.00  0.00     0.191 C 
BRANCH  22  23
ATOM     23  O   UNL     1      16.829  30.784  25.657  1.00  0.00    -0.394 OA
ATOM     24  H   UNL     1      16.283  31.281  25.004  1.00  0.00     0.210 HD
ENDBRANCH  22  23
ENDBRANCH  17  22
BRANCH  19  25
ATOM     25  O   UNL     1      15.274  35.458  28.358  1.00  0.00    -0.350 OA
BRANCH  25  26
ATOM     26  C   UNL     1      16.033  35.410  29.496  1.00  0.00     0.169 C 
BRANCH  26  27
ATOM     27  C   UNL     1      15.296  34.920  30.725  1.00  0.00     0.119 C 
BRANCH  27  28
ATOM     28  N   UNL     1      16.065  33.922  31.441  1.00  0.00    -0.092 NA
ATOM     29  N   UNL     1      16.494  32.906  30.902  1.00  0.00     0.001 N 
ATOM     30  N   UNL     1      16.954  31.864  30.468  1.00  0.00    -0.003 NA
ENDBRANCH  27  28
ENDBRANCH  26  27
ENDBRANCH  25  26
ENDBRANCH  19  25
BRANCH  20  31
ATOM     31  O   UNL     1      15.062  34.290  24.714  1.00  0.00    -0.387 OA
ATOM     32  H   UNL     1      14.683  35.101  24.294  1.00  0.00     0.211 HD
ENDBRANCH  20  31
BRANCH  21  33
ATOM     33  O   UNL     1      12.619  34.190  27.272  1.00  0.00    -0.385 OA
ATOM     34  H   UNL     1      12.353  33.288  26.978  1.00  0.00     0.211 HD
ENDBRANCH  21  33
ENDBRANCH  15  16
ENDBRANCH  10  15
BRANCH  12  35
ATOM     35  O   UNL     1      11.710  28.672  25.183  1.00  0.00    -0.385 OA
ATOM     36  H   UNL     1      12.541  28.373  25.673  1.00  0.00     0.211 HD
ENDBRANCH  12  35
BRANCH  13  37
ATOM     37  O   UNL     1      11.210  31.394  22.996  1.00  0.00    -0.387 OA
ATOM     38  H   UNL     1      10.886  31.770  23.875  1.00  0.00     0.211 HD
ENDBRANCH  13  37
BRANCH  14  39
ATOM     39  O   UNL     1      13.046  30.751  21.456  1.00  0.00    -0.387 OA
ATOM     40  H   UNL     1      13.304  31.579  21.933  1.00  0.00     0.211 HD
ENDBRANCH  14  39
ENDBRANCH   8   9
ENDBRANCH   7   8
ENDBRANCH   1   7
BRANCH   1  41
ATOM     41  C   UNL     1      16.121  28.179  19.090  1.00  0.00     0.364 C 
ATOM     42  O   UNL     1      16.335  26.946  19.382  1.00  0.00    -0.246 OA
BRANCH  41  43
ATOM     43  O   UNL     1      16.106  28.465  17.757  1.00  0.00    -0.477 OA
ATOM     44  H   UNL     1      16.895  28.908  17.270  1.00  0.00     0.296 HD
ENDBRANCH  41  43
ENDBRANCH   1  41
BRANCH   3  45
ATOM     45  O   UNL     1      19.494  29.655  20.903  1.00  0.00    -0.391 OA
ATOM     46  H   UNL     1      19.497  28.739  21.324  1.00  0.00     0.211 HD
ENDBRANCH   3  45
BRANCH   5  47
ATOM     47  C   UNL     1      16.213  32.664  20.071  1.00  0.00     0.176 C 
BRANCH  47  48
ATOM     48  O   UNL     1      17.021  33.595  19.447  1.00  0.00    -0.388 OA
ATOM     49  H   UNL     1      17.768  33.237  18.939  1.00  0.00     0.211 HD
ENDBRANCH  47  48
BRANCH  47  50
ATOM     50  C   UNL     1      16.274  32.628  21.549  1.00  0.00     0.165 C 
BRANCH  50  51
ATOM     51  O   UNL     1      14.981  32.708  22.061  1.00  0.00    -0.388 OA
ATOM     52  H   UNL     1      14.639  33.596  21.752  1.00  0.00     0.211 HD
ENDBRANCH  50  51
BRANCH  50  53
ATOM     53  C   UNL     1      17.063  33.791  22.128  1.00  0.00     0.154 C 
BRANCH  53  54
ATOM     54  N   UNL     1      18.372  33.305  22.492  1.00  0.00    -0.319 N 
ATOM     55  C   UNL     1      18.740  33.234  23.889  1.00  0.00     0.407 C 
ATOM     56  H   UNL     1      19.079  33.003  21.784  1.00  0.00     0.167 HD
ATOM     57  O   UNL     1      17.937  33.589  24.790  1.00  0.00    -0.225 OA
BRANCH  55  58
ATOM     58  O   UNL     1      20.004  32.757  24.165  1.00  0.00    -0.443 OA
BRANCH  58  59
ATOM     59  C   UNL     1      20.239  31.905  25.247  1.00  0.00     0.294 C 
BRANCH  59  60
ATOM     60  C   UNL     1      20.149  30.489  24.862  1.00  0.00     0.121 A 
ATOM     61  C   UNL     1      20.965  29.482  25.397  1.00  0.00     0.144 A 
ATOM     62  N   UNL     1      19.340  29.894  23.994  1.00  0.00    -0.131 NA
ATOM     63  N   UNL     1      20.604  28.339  24.824  1.00  0.00    -0.220 N 
ATOM     64  N   UNL     1      19.636  28.608  23.993  1.00  0.00    -0.062 NA
BRANCH  63  65
ATOM     65  C   UNL     1      21.206  27.073  25.122  1.00  0.00     0.068 A 
ATOM     66  C   UNL     1      21.671  26.837  26.419  1.00  0.00     0.050 A 
ATOM     67  C   UNL     1      21.327  26.110  24.166  1.00  0.00     0.028 A 
ATOM     68  C   UNL     1      22.253  25.641  26.756  1.00  0.00     0.084 A 
ATOM     69  C   UNL     1      21.901  24.922  24.488  1.00  0.00     0.004 A 
ATOM     70  C   UNL     1      22.373  24.665  25.777  1.00  0.00     0.022 A 
BRANCH  68  71
ATOM     71  S   UNL     1      22.852  25.280  28.350  1.00  0.00     0.238 S 
ATOM     72  O   UNL     1      21.871  25.802  29.362  1.00  0.00    -0.207 OA
ATOM     73  O   UNL     1      24.172  25.944  28.574  1.00  0.00    -0.207 OA
BRANCH  71  74
ATOM     74  N   UNL     1      23.009  23.554  28.505  1.00  0.00    -0.225 NA
ATOM     75  H   UNL     1      22.335  23.227  29.234  1.00  0.00     0.137 HD
ATOM     76  H   UNL     1      23.995  23.270  28.677  1.00  0.00     0.137 HD
ENDBRANCH  71  74
ENDBRANCH  68  71
ENDBRANCH  63  65
ENDBRANCH  59  60
ENDBRANCH  58  59
ENDBRANCH  55  58
ENDBRANCH  53  54
ENDBRANCH  50  53
ENDBRANCH  47  50
ENDBRANCH   5  47
BRANCH   4  77
ATOM     77  N   UNL     1      18.641  31.208  18.343  1.00  0.00    -0.348 N 
ATOM     78  C   UNL     1      19.933  31.780  18.203  1.00  0.00     0.217 C 
ATOM     79  H   UNL     1      18.142  30.902  17.482  1.00  0.00     0.163 HD
ATOM     80  C   UNL     1      20.543  31.927  16.857  1.00  0.00     0.114 C 
ATOM     81  O   UNL     1      20.534  32.153  19.252  1.00  0.00    -0.275 OA
ENDBRANCH   4  77
TORSDOF 32
