REMARK VINA RESULT:    -8.044     13.948     20.151
REMARK INTER + INTRA:         -19.545
REMARK INTER:                 -13.634
REMARK INTRA:                  -5.911
REMARK UNBOUND:                 3.076
REMARK SMILES CC(=O)N[C@@H]1[C@@H](O)C[C@](OC[C@H]2O[C@@H](O[C@H]3[C@H](O)[C@@H](O)[C@H](OCCN=[N+]=[N-])O[C@@H]3CO)[C@H](O)[C@@H](O)[C@H]2O)(C(=O)O)O[C@H]1C(O)[C@H](O)CNC(=O)OCc1cn(C2CC(O)C=C[C@@H](O)C2)nn1
REMARK SMILES IDX 43 1 42 2 9 3 8 4 41 5 6 6 5 7 10 8 11 9 12 10 14 11 13 12
REMARK SMILES IDX 32 13 34 14 36 15 15 16 16 17 29 18 28 19 21 20 17 21 19 22
REMARK SMILES IDX 30 23 31 24 22 26 23 27 24 28 25 29 26 30 27 31 18 32 20 34
REMARK SMILES IDX 33 36 35 38 37 40 38 42 39 43 40 44 7 46 4 48 2 49 1 51 3 52
REMARK SMILES IDX 44 53 45 55 46 56 47 58 48 59 49 60 50 62 51 63 52 64 53 65
REMARK SMILES IDX 54 66 66 67 55 68 65 69 56 70 57 71 58 72 59 74 64 76 62 77
REMARK SMILES IDX 61 78 60 79 63 81
REMARK H PARENT 31 25 18 33 20 35 33 37 35 39 37 41 40 45 7 47 4 50 44 54
REMARK H PARENT 46 57 48 61 59 75 63 82
REMARK Flexibility Score: 90.00
ROOT
ATOM      1  C   UNL     1       1.532  23.098  32.734  1.00  0.00     0.176 C 
ENDROOT
BRANCH   1   2
ATOM      2  C   UNL     1       2.959  23.536  32.458  1.00  0.00     0.178 C 
ATOM      3  C   UNL     1       5.027  23.402  33.573  1.00  0.00     0.272 C 
ATOM      4  C   UNL     1       5.601  24.479  32.728  1.00  0.00     0.113 C 
ATOM      5  O   UNL     1       3.693  23.259  33.647  1.00  0.00    -0.332 OA
ATOM      6  C   UNL     1       4.689  25.005  31.680  1.00  0.00     0.145 C 
ATOM      7  C   UNL     1       3.209  24.953  32.175  1.00  0.00     0.142 C 
BRANCH   3   8
ATOM      8  O   UNL     1       5.610  23.499  34.853  1.00  0.00    -0.338 OA
BRANCH   8   9
ATOM      9  C   UNL     1       4.754  23.873  35.848  1.00  0.00     0.199 C 
BRANCH   9  10
ATOM     10  C   UNL     1       5.371  24.971  36.715  1.00  0.00     0.179 C 
ATOM     11  C   UNL     1       7.328  26.183  36.525  1.00  0.00     0.282 C 
ATOM     12  O   UNL     1       6.719  24.927  36.550  1.00  0.00    -0.341 OA
ATOM     13  C   UNL     1       6.795  26.837  35.264  1.00  0.00     0.202 C 
ATOM     14  C   UNL     1       5.362  27.216  35.563  1.00  0.00     0.179 C 
ATOM     15  C   UNL     1       4.695  26.285  36.524  1.00  0.00     0.177 C 
BRANCH  11  16
ATOM     16  O   UNL     1       8.692  26.020  36.535  1.00  0.00    -0.341 OA
BRANCH  16  17
ATOM     17  C   UNL     1       9.020  24.770  36.001  1.00  0.00     0.184 C 
ATOM     18  C   UNL     1      10.203  24.187  36.731  1.00  0.00     0.178 C 
ATOM     19  O   UNL     1      11.412  24.745  36.401  1.00  0.00    -0.341 OA
ATOM     20  C   UNL     1      11.352  25.650  35.344  1.00  0.00     0.281 C 
ATOM     21  C   UNL     1       9.220  24.809  34.511  1.00  0.00     0.180 C 
ATOM     22  C   UNL     1      10.668  25.000  34.147  1.00  0.00     0.202 C 
BRANCH  18  23
ATOM     23  C   UNL     1      10.260  22.677  36.544  1.00  0.00     0.191 C 
BRANCH  23  24
ATOM     24  O   UNL     1      10.318  22.003  37.749  1.00  0.00    -0.394 OA
ATOM     25  H   UNL     1       9.647  21.306  37.831  1.00  0.00     0.210 HD
ENDBRANCH  23  24
ENDBRANCH  18  23
BRANCH  20  26
ATOM     26  O   UNL     1      12.671  25.964  35.031  1.00  0.00    -0.350 OA
BRANCH  26  27
ATOM     27  C   UNL     1      13.073  27.031  35.825  1.00  0.00     0.169 C 
BRANCH  27  28
ATOM     28  C   UNL     1      13.144  28.320  35.024  1.00  0.00     0.119 C 
BRANCH  28  29
ATOM     29  N   UNL     1      12.781  28.088  33.642  1.00  0.00    -0.092 NA
ATOM     30  N   UNL     1      12.331  29.033  32.972  1.00  0.00     0.001 N 
ATOM     31  N   UNL     1      11.803  30.023  32.449  1.00  0.00    -0.003 NA
ENDBRANCH  28  29
ENDBRANCH  27  28
ENDBRANCH  26  27
ENDBRANCH  20  26
BRANCH  21  32
ATOM     32  O   UNL     1       8.737  23.637  33.928  1.00  0.00    -0.387 OA
ATOM     33  H   UNL     1       8.372  23.013  34.600  1.00  0.00     0.211 HD
ENDBRANCH  21  32
BRANCH  22  34
ATOM     34  O   UNL     1      10.800  25.823  33.034  1.00  0.00    -0.385 OA
ATOM     35  H   UNL     1      10.586  25.326  32.201  1.00  0.00     0.211 HD
ENDBRANCH  22  34
ENDBRANCH  16  17
ENDBRANCH  11  16
BRANCH  13  36
ATOM     36  O   UNL     1       7.503  27.934  34.853  1.00  0.00    -0.385 OA
ATOM     37  H   UNL     1       7.013  28.771  34.854  1.00  0.00     0.211 HD
ENDBRANCH  13  36
BRANCH  14  38
ATOM     38  O   UNL     1       4.704  27.293  34.337  1.00  0.00    -0.387 OA
ATOM     39  H   UNL     1       4.013  26.578  34.257  1.00  0.00     0.211 HD
ENDBRANCH  14  38
BRANCH  15  40
ATOM     40  O   UNL     1       3.380  26.013  36.095  1.00  0.00    -0.387 OA
ATOM     41  H   UNL     1       2.778  26.764  36.190  1.00  0.00     0.211 HD
ENDBRANCH  15  40
ENDBRANCH   9  10
ENDBRANCH   8   9
ENDBRANCH   3   8
BRANCH   3  42
ATOM     42  C   UNL     1       5.560  22.105  33.004  1.00  0.00     0.364 C 
ATOM     43  O   UNL     1       5.050  20.987  33.278  1.00  0.00    -0.246 OA
BRANCH  42  44
ATOM     44  O   UNL     1       6.650  22.180  32.153  1.00  0.00    -0.477 OA
ATOM     45  H   UNL     1       7.604  22.126  32.511  1.00  0.00     0.296 HD
ENDBRANCH  42  44
ENDBRANCH   3  42
BRANCH   6  46
ATOM     46  O   UNL     1       5.017  26.286  31.311  1.00  0.00    -0.391 OA
ATOM     47  H   UNL     1       5.794  26.597  31.824  1.00  0.00     0.211 HD
ENDBRANCH   6  46
BRANCH   7  48
ATOM     48  N   UNL     1       2.406  25.682  31.272  1.00  0.00    -0.348 N 
ATOM     49  C   UNL     1       2.019  27.012  31.574  1.00  0.00     0.217 C 
ATOM     50  H   UNL     1       2.111  25.275  30.366  1.00  0.00     0.163 HD
ATOM     51  C   UNL     1       1.173  27.799  30.638  1.00  0.00     0.114 C 
ATOM     52  O   UNL     1       2.395  27.538  32.648  1.00  0.00    -0.275 OA
ENDBRANCH   7  48
ENDBRANCH   1   2
BRANCH   1  53
ATOM     53  O   UNL     1       1.490  23.247  34.190  1.00  0.00    -0.388 OA
ATOM     54  H   UNL     1       0.601  22.884  34.498  1.00  0.00     0.211 HD
ENDBRANCH   1  53
BRANCH   1  55
ATOM     55  C   UNL     1       1.300  21.622  32.584  1.00  0.00     0.165 C 
BRANCH  55  56
ATOM     56  O   UNL     1       2.129  20.879  33.389  1.00  0.00    -0.388 OA
ATOM     57  H   UNL     1       2.176  21.196  34.318  1.00  0.00     0.211 HD
ENDBRANCH  55  56
BRANCH  55  58
ATOM     58  C   UNL     1       1.572  21.175  31.152  1.00  0.00     0.154 C 
BRANCH  58  59
ATOM     59  N   UNL     1       1.221  22.141  30.161  1.00  0.00    -0.319 N 
ATOM     60  C   UNL     1       1.488  21.962  28.776  1.00  0.00     0.407 C 
ATOM     61  H   UNL     1       0.737  23.042  30.454  1.00  0.00     0.167 HD
ATOM     62  O   UNL     1       2.066  20.888  28.441  1.00  0.00    -0.225 OA
BRANCH  60  63
ATOM     63  O   UNL     1       1.123  22.927  27.866  1.00  0.00    -0.443 OA
BRANCH  63  64
ATOM     64  C   UNL     1       1.951  23.214  26.742  1.00  0.00     0.294 C 
BRANCH  64  65
ATOM     65  C   UNL     1       2.832  24.346  27.105  1.00  0.00     0.120 A 
ATOM     66  C   UNL     1       3.743  25.001  26.319  1.00  0.00     0.138 A 
ATOM     67  N   UNL     1       2.886  24.932  28.314  1.00  0.00    -0.132 NA
ATOM     68  N   UNL     1       4.323  25.963  27.080  1.00  0.00    -0.249 N 
ATOM     69  N   UNL     1       3.783  25.895  28.279  1.00  0.00    -0.067 NA
BRANCH  68  70
ATOM     70  C   UNL     1       5.365  26.907  26.653  1.00  0.00     0.115 C 
BRANCH  70  71
ATOM     71  C   UNL     1       5.879  26.477  25.321  1.00  0.00     0.063 C 
BRANCH  71  72
ATOM     72  C   UNL     1       7.316  26.982  25.156  1.00  0.00     0.139 CG0
ATOM     73  G   UNL     1       7.290  28.437  24.934  1.00  0.00     0.000 G0
BRANCH  72  74
ATOM     74  O   UNL     1       7.935  26.318  24.099  1.00  0.00    -0.389 OA
ATOM     75  H   UNL     1       8.885  26.625  24.060  1.00  0.00     0.211 HD
ENDBRANCH  72  74
ENDBRANCH  71  72
ENDBRANCH  70  71
BRANCH  70  76
ATOM     76  C   UNL     1       4.766  28.278  26.590  1.00  0.00     0.063 C 
BRANCH  76  77
ATOM     77  C   UNL     1       5.908  29.266  26.851  1.00  0.00     0.139 C 
BRANCH  77  78
ATOM     78  C   UNL     1       6.713  29.437  25.612  1.00  0.00     0.002 C 
ATOM     79  C   UNL     1       7.298  28.469  24.921  1.00  0.00     0.002 CG0
ATOM     80  G   UNL     1       7.319  27.018  25.168  1.00  0.00     0.000 G0
ENDBRANCH  77  78
BRANCH  77  81
ATOM     81  O   UNL     1       5.436  30.482  27.322  1.00  0.00    -0.389 OA
ATOM     82  H   UNL     1       6.051  31.192  26.985  1.00  0.00     0.211 HD
ENDBRANCH  77  81
ENDBRANCH  76  77
ENDBRANCH  70  76
ENDBRANCH  68  70
ENDBRANCH  64  65
ENDBRANCH  63  64
ENDBRANCH  60  63
ENDBRANCH  58  59
ENDBRANCH  55  58
ENDBRANCH   1  55
TORSDOF 32
