REMARK VINA RESULT:    -6.008      3.364      9.916
REMARK INTER + INTRA:         -21.386
REMARK INTER:                 -14.865
REMARK INTRA:                  -6.522
REMARK UNBOUND:                -6.597
REMARK SMILES CC(=O)N[C@@H]1[C@@H](O)C[C@](OC[C@H]2O[C@@H](O[C@H]3[C@H](O)[C@@H](O)[C@H](OCCN=[N+]=[N-])O[C@@H]3CO)[C@H](O)[C@@H](O)[C@H]2O)(C(=O)O)O[C@H]1C(O)[C@H](O)CNC(=O)OCc1cn(-c2ccccc2)nn1
REMARK SMILES IDX 9 1 8 2 6 3 5 4 42 5 41 6 10 7 11 8 12 9 14 10 13 11 32 12
REMARK SMILES IDX 34 13 36 14 15 15 16 16 29 17 28 18 21 19 17 20 19 21 30 22
REMARK SMILES IDX 31 23 22 25 23 26 24 27 25 28 26 29 27 30 18 31 20 33 33 35
REMARK SMILES IDX 35 37 37 39 38 41 39 42 40 43 7 45 43 47 44 48 45 50 46 51
REMARK SMILES IDX 47 53 48 54 49 55 50 57 51 58 52 59 53 60 54 61 63 62 55 63
REMARK SMILES IDX 62 64 56 65 57 66 61 67 58 68 60 69 59 70 4 71 2 72 1 74
REMARK SMILES IDX 3 75
REMARK H PARENT 31 24 18 32 20 34 33 36 35 38 37 40 40 44 7 46 44 49 46 52
REMARK H PARENT 48 56 4 73
REMARK Flexibility Score: inf
ROOT
ATOM      1  C   UNL     1      20.715  29.257  24.985  1.00  0.00     0.272 C 
ATOM      2  C   UNL     1      21.350  30.448  25.601  1.00  0.00     0.113 C 
ATOM      3  C   UNL     1      21.043  31.741  24.943  1.00  0.00     0.145 C 
ATOM      4  C   UNL     1      19.577  31.806  24.555  1.00  0.00     0.142 C 
ATOM      5  C   UNL     1      19.333  30.624  23.643  1.00  0.00     0.178 C 
ATOM      6  O   UNL     1      19.419  29.516  24.444  1.00  0.00    -0.332 OA
ENDROOT
BRANCH   1   7
ATOM      7  O   UNL     1      20.460  28.223  25.837  1.00  0.00    -0.338 OA
BRANCH   7   8
ATOM      8  C   UNL     1      21.153  27.961  26.929  1.00  0.00     0.199 C 
BRANCH   8   9
ATOM      9  C   UNL     1      21.921  26.712  27.126  1.00  0.00     0.179 C 
ATOM     10  C   UNL     1      22.546  24.822  25.909  1.00  0.00     0.282 C 
ATOM     11  O   UNL     1      21.695  25.948  25.937  1.00  0.00    -0.341 OA
ATOM     12  C   UNL     1      23.312  24.599  27.171  1.00  0.00     0.202 C 
ATOM     13  C   UNL     1      24.166  25.800  27.514  1.00  0.00     0.179 C 
ATOM     14  C   UNL     1      23.420  27.038  27.110  1.00  0.00     0.177 C 
BRANCH  10  15
ATOM     15  O   UNL     1      23.410  24.986  24.889  1.00  0.00    -0.341 OA
BRANCH  15  16
ATOM     16  C   UNL     1      23.015  25.397  23.670  1.00  0.00     0.184 C 
ATOM     17  C   UNL     1      22.331  24.348  22.825  1.00  0.00     0.178 C 
ATOM     18  O   UNL     1      22.513  24.760  21.490  1.00  0.00    -0.341 OA
ATOM     19  C   UNL     1      23.800  24.300  21.137  1.00  0.00     0.281 C 
ATOM     20  C   UNL     1      24.151  26.004  22.847  1.00  0.00     0.180 C 
ATOM     21  C   UNL     1      24.844  24.925  22.041  1.00  0.00     0.202 C 
BRANCH  17  22
ATOM     22  C   UNL     1      20.838  24.295  23.066  1.00  0.00     0.191 C 
BRANCH  22  23
ATOM     23  O   UNL     1      20.432  25.527  23.586  1.00  0.00    -0.394 OA
ATOM     24  H   UNL     1      19.427  25.589  23.636  1.00  0.00     0.210 HD
ENDBRANCH  22  23
ENDBRANCH  17  22
BRANCH  19  25
ATOM     25  O   UNL     1      24.114  24.583  19.844  1.00  0.00    -0.350 OA
BRANCH  25  26
ATOM     26  C   UNL     1      23.128  25.093  19.044  1.00  0.00     0.169 C 
BRANCH  26  27
ATOM     27  C   UNL     1      23.077  24.535  17.657  1.00  0.00     0.119 C 
BRANCH  27  28
ATOM     28  N   UNL     1      22.268  25.317  16.796  1.00  0.00    -0.092 NA
ATOM     29  N   UNL     1      22.238  25.127  15.566  1.00  0.00     0.001 N 
ATOM     30  N   UNL     1      22.583  25.028  14.378  1.00  0.00    -0.003 NA
ENDBRANCH  27  28
ENDBRANCH  26  27
ENDBRANCH  25  26
ENDBRANCH  19  25
BRANCH  20  31
ATOM     31  O   UNL     1      23.716  26.969  21.949  1.00  0.00    -0.387 OA
ATOM     32  H   UNL     1      24.426  27.625  21.747  1.00  0.00     0.211 HD
ENDBRANCH  20  31
BRANCH  21  33
ATOM     33  O   UNL     1      25.442  23.970  22.837  1.00  0.00    -0.385 OA
ATOM     34  H   UNL     1      25.248  24.077  23.796  1.00  0.00     0.211 HD
ENDBRANCH  21  33
ENDBRANCH  15  16
ENDBRANCH  10  15
BRANCH  12  35
ATOM     35  O   UNL     1      22.557  24.127  28.236  1.00  0.00    -0.385 OA
ATOM     36  H   UNL     1      22.351  23.174  28.055  1.00  0.00     0.211 HD
ENDBRANCH  12  35
BRANCH  13  37
ATOM     37  O   UNL     1      25.340  25.732  26.788  1.00  0.00    -0.387 OA
ATOM     38  H   UNL     1      26.064  26.314  27.130  1.00  0.00     0.211 HD
ENDBRANCH  13  37
BRANCH  14  39
ATOM     39  O   UNL     1      23.713  27.392  25.772  1.00  0.00    -0.387 OA
ATOM     40  H   UNL     1      23.152  28.135  25.469  1.00  0.00     0.211 HD
ENDBRANCH  14  39
ENDBRANCH   8   9
ENDBRANCH   7   8
ENDBRANCH   1   7
BRANCH   1  41
ATOM     41  C   UNL     1      21.471  28.853  23.778  1.00  0.00     0.364 C 
ATOM     42  O   UNL     1      22.644  29.183  23.603  1.00  0.00    -0.246 OA
BRANCH  41  43
ATOM     43  O   UNL     1      20.849  28.070  22.783  1.00  0.00    -0.477 OA
ATOM     44  H   UNL     1      21.352  27.913  21.912  1.00  0.00     0.296 HD
ENDBRANCH  41  43
ENDBRANCH   1  41
BRANCH   3  45
ATOM     45  O   UNL     1      21.394  32.791  25.787  1.00  0.00    -0.391 OA
ATOM     46  H   UNL     1      22.343  32.962  25.653  1.00  0.00     0.211 HD
ENDBRANCH   3  45
BRANCH   5  47
ATOM     47  C   UNL     1      17.914  30.645  23.084  1.00  0.00     0.176 C 
BRANCH  47  48
ATOM     48  O   UNL     1      17.831  29.681  22.116  1.00  0.00    -0.388 OA
ATOM     49  H   UNL     1      17.710  28.768  22.456  1.00  0.00     0.211 HD
ENDBRANCH  47  48
BRANCH  47  50
ATOM     50  C   UNL     1      16.832  30.555  24.077  1.00  0.00     0.165 C 
BRANCH  50  51
ATOM     51  O   UNL     1      16.368  29.202  24.036  1.00  0.00    -0.388 OA
ATOM     52  H   UNL     1      16.265  28.982  23.092  1.00  0.00     0.211 HD
ENDBRANCH  50  51
BRANCH  50  53
ATOM     53  C   UNL     1      15.593  31.362  23.654  1.00  0.00     0.154 C 
BRANCH  53  54
ATOM     54  N   UNL     1      15.331  31.247  22.241  1.00  0.00    -0.319 N 
ATOM     55  C   UNL     1      14.337  30.341  21.731  1.00  0.00     0.407 C 
ATOM     56  H   UNL     1      15.834  31.803  21.520  1.00  0.00     0.167 HD
ATOM     57  O   UNL     1      13.657  29.632  22.506  1.00  0.00    -0.225 OA
BRANCH  55  58
ATOM     58  O   UNL     1      14.104  30.235  20.372  1.00  0.00    -0.443 OA
BRANCH  58  59
ATOM     59  C   UNL     1      14.125  28.973  19.714  1.00  0.00     0.294 C 
BRANCH  59  60
ATOM     60  C   UNL     1      15.565  28.592  19.623  1.00  0.00     0.121 A 
ATOM     61  C   UNL     1      16.377  28.931  18.548  1.00  0.00     0.144 A 
ATOM     62  N   UNL     1      16.347  27.907  20.461  1.00  0.00    -0.131 NA
ATOM     63  N   UNL     1      17.625  28.441  18.766  1.00  0.00    -0.220 N 
ATOM     64  N   UNL     1      17.569  27.830  19.928  1.00  0.00    -0.062 NA
BRANCH  63  65
ATOM     65  C   UNL     1      18.748  28.564  17.908  1.00  0.00     0.066 A 
ATOM     66  C   UNL     1      18.610  28.667  16.544  1.00  0.00     0.028 A 
ATOM     67  C   UNL     1      20.019  28.589  18.438  1.00  0.00     0.028 A 
ATOM     68  C   UNL     1      19.696  28.794  15.703  1.00  0.00     0.002 A 
ATOM     69  C   UNL     1      21.109  28.717  17.590  1.00  0.00     0.002 A 
ATOM     70  C   UNL     1      20.991  28.821  16.225  1.00  0.00     0.000 A 
ENDBRANCH  63  65
ENDBRANCH  59  60
ENDBRANCH  58  59
ENDBRANCH  55  58
ENDBRANCH  53  54
ENDBRANCH  50  53
ENDBRANCH  47  50
ENDBRANCH   5  47
BRANCH   4  71
ATOM     71  N   UNL     1      19.215  33.081  24.048  1.00  0.00    -0.348 N 
ATOM     72  C   UNL     1      18.298  33.881  24.778  1.00  0.00     0.217 C 
ATOM     73  H   UNL     1      19.606  33.462  23.167  1.00  0.00     0.163 HD
ATOM     74  C   UNL     1      17.900  35.228  24.269  1.00  0.00     0.114 C 
ATOM     75  O   UNL     1      17.785  33.499  25.874  1.00  0.00    -0.275 OA
ENDBRANCH   4  71
TORSDOF 30
