REMARK VINA RESULT:    -5.593      3.268      6.478
REMARK INTER + INTRA:         -21.591
REMARK INTER:                 -15.571
REMARK INTRA:                  -6.020
REMARK UNBOUND:                -7.496
REMARK SMILES CC(=O)N[C@@H]1[C@@H](O)C[C@](OC[C@H]2O[C@@H](O[C@H]3[C@H](O)[C@@H](O)[C@H](OCCN=[N+]=[N-])O[C@@H]3CO)[C@H](O)[C@@H](O)[C@H]2O)(C(=O)O)O[C@H]1C(O)[C@H](O)CNC(=O)OCc1cn(-c2ccccc2C(N)=O)nn1
REMARK SMILES IDX 9 1 8 2 6 3 5 4 42 5 41 6 10 7 11 8 12 9 14 10 13 11 32 12
REMARK SMILES IDX 34 13 36 14 15 15 16 16 29 17 28 18 21 19 17 20 19 21 30 22
REMARK SMILES IDX 31 23 22 25 23 26 24 27 25 28 26 29 27 30 18 31 20 33 33 35
REMARK SMILES IDX 35 37 37 39 38 41 39 42 40 43 7 45 43 47 44 48 45 50 46 51
REMARK SMILES IDX 47 53 48 54 49 55 50 57 51 58 52 59 53 60 54 61 66 62 55 63
REMARK SMILES IDX 65 64 56 65 61 66 57 67 60 68 58 69 59 70 62 71 64 72 63 73
REMARK SMILES IDX 4 76 2 77 1 79 3 80
REMARK H PARENT 31 24 18 32 20 34 33 36 35 38 37 40 40 44 7 46 44 49 46 52
REMARK H PARENT 48 56 63 74 63 75 4 78
REMARK Flexibility Score: inf
ROOT
ATOM      1  C   UNL     1      19.817  28.680  17.861  1.00  0.00     0.272 C 
ATOM      2  C   UNL     1      20.469  29.942  17.228  1.00  0.00     0.113 C 
ATOM      3  C   UNL     1      21.205  29.441  16.017  1.00  0.00     0.145 C 
ATOM      4  C   UNL     1      22.395  28.676  16.440  1.00  0.00     0.142 C 
ATOM      5  C   UNL     1      22.018  27.977  17.759  1.00  0.00     0.178 C 
ATOM      6  O   UNL     1      20.686  27.608  17.745  1.00  0.00    -0.332 OA
ENDROOT
BRANCH   1   7
ATOM      7  O   UNL     1      18.691  28.472  17.087  1.00  0.00    -0.338 OA
BRANCH   7   8
ATOM      8  C   UNL     1      17.565  28.150  17.785  1.00  0.00     0.199 C 
BRANCH   8   9
ATOM      9  C   UNL     1      16.349  28.941  17.337  1.00  0.00     0.179 C 
ATOM     10  C   UNL     1      14.348  29.724  18.238  1.00  0.00     0.282 C 
ATOM     11  O   UNL     1      15.566  29.106  18.477  1.00  0.00    -0.341 OA
ATOM     12  C   UNL     1      14.149  30.242  16.863  1.00  0.00     0.202 C 
ATOM     13  C   UNL     1      15.360  30.835  16.207  1.00  0.00     0.179 C 
ATOM     14  C   UNL     1      16.669  30.299  16.803  1.00  0.00     0.177 C 
BRANCH  10  15
ATOM     15  O   UNL     1      14.227  30.749  19.159  1.00  0.00    -0.341 OA
BRANCH  15  16
ATOM     16  C   UNL     1      14.433  30.342  20.466  1.00  0.00     0.184 C 
ATOM     17  C   UNL     1      13.154  30.580  21.239  1.00  0.00     0.178 C 
ATOM     18  O   UNL     1      13.160  31.748  21.921  1.00  0.00    -0.341 OA
ATOM     19  C   UNL     1      14.073  31.815  22.910  1.00  0.00     0.281 C 
ATOM     20  C   UNL     1      15.536  31.233  21.025  1.00  0.00     0.180 C 
ATOM     21  C   UNL     1      15.425  31.387  22.500  1.00  0.00     0.202 C 
BRANCH  17  22
ATOM     22  C   UNL     1      12.888  29.422  22.161  1.00  0.00     0.191 C 
BRANCH  22  23
ATOM     23  O   UNL     1      13.648  28.301  21.813  1.00  0.00    -0.394 OA
ATOM     24  H   UNL     1      13.529  27.648  22.567  1.00  0.00     0.210 HD
ENDBRANCH  22  23
ENDBRANCH  17  22
BRANCH  19  25
ATOM     25  O   UNL     1      13.653  31.228  24.113  1.00  0.00    -0.350 OA
BRANCH  25  26
ATOM     26  C   UNL     1      13.246  32.132  25.062  1.00  0.00     0.169 C 
BRANCH  26  27
ATOM     27  C   UNL     1      13.499  31.596  26.431  1.00  0.00     0.119 C 
BRANCH  27  28
ATOM     28  N   UNL     1      14.704  32.180  26.963  1.00  0.00    -0.092 NA
ATOM     29  N   UNL     1      15.511  31.537  27.647  1.00  0.00     0.001 N 
ATOM     30  N   UNL     1      16.250  30.668  28.118  1.00  0.00    -0.003 NA
ENDBRANCH  27  28
ENDBRANCH  26  27
ENDBRANCH  25  26
ENDBRANCH  19  25
BRANCH  20  31
ATOM     31  O   UNL     1      16.783  30.698  20.715  1.00  0.00    -0.387 OA
ATOM     32  H   UNL     1      16.720  30.119  19.892  1.00  0.00     0.211 HD
ENDBRANCH  20  31
BRANCH  21  33
ATOM     33  O   UNL     1      16.355  32.380  22.893  1.00  0.00    -0.385 OA
ATOM     34  H   UNL     1      17.275  31.999  22.788  1.00  0.00     0.211 HD
ENDBRANCH  21  33
ENDBRANCH  15  16
ENDBRANCH  10  15
BRANCH  12  35
ATOM     35  O   UNL     1      13.519  29.301  16.021  1.00  0.00    -0.385 OA
ATOM     36  H   UNL     1      13.543  28.442  16.495  1.00  0.00     0.211 HD
ENDBRANCH  12  35
BRANCH  13  37
ATOM     37  O   UNL     1      15.383  32.221  16.372  1.00  0.00    -0.387 OA
ATOM     38  H   UNL     1      16.182  32.633  15.920  1.00  0.00     0.211 HD
ENDBRANCH  13  37
BRANCH  14  39
ATOM     39  O   UNL     1      17.036  31.119  17.885  1.00  0.00    -0.387 OA
ATOM     40  H   UNL     1      17.741  30.749  18.439  1.00  0.00     0.211 HD
ENDBRANCH  14  39
ENDBRANCH   8   9
ENDBRANCH   7   8
ENDBRANCH   1   7
BRANCH   1  41
ATOM     41  C   UNL     1      19.528  28.942  19.273  1.00  0.00     0.364 C 
ATOM     42  O   UNL     1      19.479  27.981  20.115  1.00  0.00    -0.246 OA
BRANCH  41  43
ATOM     43  O   UNL     1      19.305  30.249  19.715  1.00  0.00    -0.477 OA
ATOM     44  H   UNL     1      19.460  30.421  20.705  1.00  0.00     0.296 HD
ENDBRANCH  41  43
ENDBRANCH   1  41
BRANCH   3  45
ATOM     45  O   UNL     1      20.334  28.515  15.388  1.00  0.00    -0.391 OA
ATOM     46  H   UNL     1      20.809  27.650  15.287  1.00  0.00     0.211 HD
ENDBRANCH   3  45
BRANCH   5  47
ATOM     47  C   UNL     1      22.983  26.865  18.055  1.00  0.00     0.176 C 
BRANCH  47  48
ATOM     48  O   UNL     1      22.448  26.153  19.146  1.00  0.00    -0.388 OA
ATOM     49  H   UNL     1      22.123  25.263  18.840  1.00  0.00     0.211 HD
ENDBRANCH  47  48
BRANCH  47  50
ATOM     50  C   UNL     1      23.022  25.848  16.910  1.00  0.00     0.165 C 
BRANCH  50  51
ATOM     51  O   UNL     1      22.285  24.716  17.294  1.00  0.00    -0.388 OA
ATOM     52  H   UNL     1      22.392  24.063  16.553  1.00  0.00     0.211 HD
ENDBRANCH  50  51
BRANCH  50  53
ATOM     53  C   UNL     1      24.412  25.430  16.571  1.00  0.00     0.154 C 
BRANCH  53  54
ATOM     54  N   UNL     1      25.124  24.972  17.733  1.00  0.00    -0.319 N 
ATOM     55  C   UNL     1      25.991  23.852  17.743  1.00  0.00     0.407 C 
ATOM     56  H   UNL     1      24.982  25.515  18.633  1.00  0.00     0.167 HD
ATOM     57  O   UNL     1      26.263  23.140  16.775  1.00  0.00    -0.225 OA
BRANCH  55  58
ATOM     58  O   UNL     1      26.621  23.485  18.956  1.00  0.00    -0.443 OA
BRANCH  58  59
ATOM     59  C   UNL     1      27.123  24.504  19.824  1.00  0.00     0.294 C 
BRANCH  59  60
ATOM     60  C   UNL     1      26.068  24.982  20.737  1.00  0.00     0.121 A 
ATOM     61  C   UNL     1      25.611  24.404  21.897  1.00  0.00     0.144 A 
ATOM     62  N   UNL     1      25.340  26.103  20.592  1.00  0.00    -0.131 NA
ATOM     63  N   UNL     1      24.631  25.168  22.427  1.00  0.00    -0.220 N 
ATOM     64  N   UNL     1      24.492  26.204  21.595  1.00  0.00    -0.062 NA
BRANCH  63  65
ATOM     65  C   UNL     1      23.875  24.959  23.606  1.00  0.00     0.079 A 
ATOM     66  C   UNL     1      22.525  24.747  23.493  1.00  0.00     0.065 A 
ATOM     67  C   UNL     1      24.470  24.968  24.852  1.00  0.00     0.029 A 
ATOM     68  C   UNL     1      21.732  24.538  24.618  1.00  0.00     0.016 A 
ATOM     69  C   UNL     1      23.691  24.760  25.992  1.00  0.00     0.002 A 
ATOM     70  C   UNL     1      22.337  24.550  25.858  1.00  0.00     0.001 A 
BRANCH  66  71
ATOM     71  C   UNL     1      21.907  24.740  22.183  1.00  0.00     0.250 C 
ATOM     72  O   UNL     1      20.977  25.552  21.947  1.00  0.00    -0.269 OA
ATOM     73  N   UNL     1      22.286  23.870  21.139  1.00  0.00    -0.366 N 
ATOM     74  H   UNL     1      22.618  24.257  20.243  1.00  0.00     0.159 HD
ATOM     75  H   UNL     1      22.228  22.851  21.276  1.00  0.00     0.159 HD
ENDBRANCH  66  71
ENDBRANCH  63  65
ENDBRANCH  59  60
ENDBRANCH  58  59
ENDBRANCH  55  58
ENDBRANCH  53  54
ENDBRANCH  50  53
ENDBRANCH  47  50
ENDBRANCH   5  47
BRANCH   4  76
ATOM     76  N   UNL     1      23.587  29.394  16.664  1.00  0.00    -0.348 N 
ATOM     77  C   UNL     1      24.716  29.312  15.811  1.00  0.00     0.217 C 
ATOM     78  H   UNL     1      23.650  30.022  17.501  1.00  0.00     0.163 HD
ATOM     79  C   UNL     1      25.982  30.049  16.014  1.00  0.00     0.114 C 
ATOM     80  O   UNL     1      24.568  28.532  14.815  1.00  0.00    -0.275 OA
ENDBRANCH   4  76
TORSDOF 31
