REMARK VINA RESULT:    -6.101      2.980      7.808
REMARK INTER + INTRA:         -22.404
REMARK INTER:                 -13.410
REMARK INTRA:                  -8.994
REMARK UNBOUND:                -7.387
REMARK SMILES CC(=O)N[C@@H]1[C@@H](O)C[C@](OC[C@H]2O[C@@H](O[C@H]3[C@H](O)[C@@H](O)[C@H](OCCN=[N+]=[N-])O[C@@H]3CO)[C@H](O)[C@@H](O)[C@H]2O)(C(=O)O)O[C@H]1C(O)[C@H](O)CNC(=O)OCc1cn(C23CC4CC(CC(C4)C2)C3)nn1
REMARK SMILES IDX 9 1 8 2 6 3 5 4 42 5 41 6 10 7 11 8 12 9 14 10 13 11 32 12
REMARK SMILES IDX 34 13 36 14 15 15 16 16 29 17 28 18 21 19 17 20 19 21 30 22
REMARK SMILES IDX 31 23 22 25 23 26 24 27 25 28 26 29 27 30 18 31 20 33 33 35
REMARK SMILES IDX 35 37 37 39 38 41 39 42 40 43 7 45 43 47 44 48 45 50 46 51
REMARK SMILES IDX 47 53 48 54 49 55 50 57 51 58 52 59 53 60 54 61 67 62 55 63
REMARK SMILES IDX 66 64 56 65 65 66 64 67 57 68 60 69 62 70 58 71 59 72 61 73
REMARK SMILES IDX 63 74 4 75 2 76 1 78 3 79
REMARK H PARENT 31 24 18 32 20 34 33 36 35 38 37 40 40 44 7 46 44 49 46 52
REMARK H PARENT 48 56 4 77
REMARK Flexibility Score: inf
ROOT
ATOM      1  C   UNL     1      16.269  29.747  21.018  1.00  0.00     0.272 C 
ATOM      2  C   UNL     1      15.335  29.301  19.947  1.00  0.00     0.113 C 
ATOM      3  C   UNL     1      15.899  28.105  19.208  1.00  0.00     0.145 C 
ATOM      4  C   UNL     1      17.029  28.672  18.337  1.00  0.00     0.142 C 
ATOM      5  C   UNL     1      17.812  29.577  19.240  1.00  0.00     0.178 C 
ATOM      6  O   UNL     1      17.599  29.401  20.584  1.00  0.00    -0.332 OA
ENDROOT
BRANCH   1   7
ATOM      7  O   UNL     1      16.162  29.176  22.210  1.00  0.00    -0.338 OA
BRANCH   7   8
ATOM      8  C   UNL     1      15.195  29.224  23.090  1.00  0.00     0.199 C 
BRANCH   8   9
ATOM      9  C   UNL     1      15.313  29.881  24.425  1.00  0.00     0.179 C 
ATOM     10  C   UNL     1      16.494  31.276  25.732  1.00  0.00     0.282 C 
ATOM     11  O   UNL     1      16.480  30.727  24.433  1.00  0.00    -0.341 OA
ATOM     12  C   UNL     1      15.673  32.521  25.651  1.00  0.00     0.202 C 
ATOM     13  C   UNL     1      14.516  32.243  24.710  1.00  0.00     0.179 C 
ATOM     14  C   UNL     1      14.122  30.786  24.727  1.00  0.00     0.177 C 
BRANCH  10  15
ATOM     15  O   UNL     1      17.796  31.467  26.179  1.00  0.00    -0.341 OA
BRANCH  15  16
ATOM     16  C   UNL     1      18.543  32.026  25.184  1.00  0.00     0.184 C 
ATOM     17  C   UNL     1      19.704  31.249  24.681  1.00  0.00     0.178 C 
ATOM     18  O   UNL     1      20.025  31.800  23.419  1.00  0.00    -0.341 OA
ATOM     19  C   UNL     1      20.606  33.082  23.564  1.00  0.00     0.281 C 
ATOM     20  C   UNL     1      19.117  33.387  25.591  1.00  0.00     0.180 C 
ATOM     21  C   UNL     1      19.750  33.988  24.384  1.00  0.00     0.202 C 
BRANCH  17  22
ATOM     22  C   UNL     1      19.545  29.777  24.607  1.00  0.00     0.191 C 
BRANCH  22  23
ATOM     23  O   UNL     1      18.723  29.495  23.504  1.00  0.00    -0.394 OA
ATOM     24  H   UNL     1      17.771  29.412  23.770  1.00  0.00     0.210 HD
ENDBRANCH  22  23
ENDBRANCH  17  22
BRANCH  19  25
ATOM     25  O   UNL     1      20.679  33.582  22.284  1.00  0.00    -0.350 OA
BRANCH  25  26
ATOM     26  C   UNL     1      21.908  33.831  21.794  1.00  0.00     0.169 C 
BRANCH  26  27
ATOM     27  C   UNL     1      22.946  32.889  22.314  1.00  0.00     0.119 C 
BRANCH  27  28
ATOM     28  N   UNL     1      23.092  31.740  21.412  1.00  0.00    -0.092 NA
ATOM     29  N   UNL     1      22.843  31.920  20.227  1.00  0.00     0.001 N 
ATOM     30  N   UNL     1      22.393  31.839  19.064  1.00  0.00    -0.003 NA
ENDBRANCH  27  28
ENDBRANCH  26  27
ENDBRANCH  25  26
ENDBRANCH  19  25
BRANCH  20  31
ATOM     31  O   UNL     1      18.117  34.244  26.046  1.00  0.00    -0.387 OA
ATOM     32  H   UNL     1      17.263  33.985  25.633  1.00  0.00     0.211 HD
ENDBRANCH  20  31
BRANCH  21  33
ATOM     33  O   UNL     1      20.519  35.066  24.820  1.00  0.00    -0.385 OA
ATOM     34  H   UNL     1      20.009  35.897  24.774  1.00  0.00     0.211 HD
ENDBRANCH  21  33
ENDBRANCH  15  16
ENDBRANCH  10  15
BRANCH  12  35
ATOM     35  O   UNL     1      15.250  33.034  26.852  1.00  0.00    -0.385 OA
ATOM     36  H   UNL     1      15.677  33.907  27.022  1.00  0.00     0.211 HD
ENDBRANCH  12  35
BRANCH  13  37
ATOM     37  O   UNL     1      14.760  32.689  23.418  1.00  0.00    -0.387 OA
ATOM     38  H   UNL     1      15.113  31.917  22.868  1.00  0.00     0.211 HD
ENDBRANCH  13  37
BRANCH  14  39
ATOM     39  O   UNL     1      13.179  30.588  23.729  1.00  0.00    -0.387 OA
ATOM     40  H   UNL     1      12.609  31.390  23.597  1.00  0.00     0.211 HD
ENDBRANCH  14  39
ENDBRANCH   8   9
ENDBRANCH   7   8
ENDBRANCH   1   7
BRANCH   1  41
ATOM     41  C   UNL     1      16.332  31.218  21.051  1.00  0.00     0.364 C 
ATOM     42  O   UNL     1      15.581  31.999  20.452  1.00  0.00    -0.246 OA
BRANCH  41  43
ATOM     43  O   UNL     1      17.375  31.757  21.860  1.00  0.00    -0.477 OA
ATOM     44  H   UNL     1      18.245  31.979  21.424  1.00  0.00     0.296 HD
ENDBRANCH  41  43
ENDBRANCH   1  41
BRANCH   3  45
ATOM     45  O   UNL     1      16.482  27.232  20.118  1.00  0.00    -0.391 OA
ATOM     46  H   UNL     1      15.764  26.922  20.727  1.00  0.00     0.211 HD
ENDBRANCH   3  45
BRANCH   5  47
ATOM     47  C   UNL     1      19.359  29.312  19.084  1.00  0.00     0.176 C 
BRANCH  47  48
ATOM     48  O   UNL     1      19.348  27.999  18.569  1.00  0.00    -0.388 OA
ATOM     49  H   UNL     1      18.399  27.719  18.594  1.00  0.00     0.211 HD
ENDBRANCH  47  48
BRANCH  47  50
ATOM     50  C   UNL     1      20.008  29.330  20.394  1.00  0.00     0.165 C 
BRANCH  50  51
ATOM     51  O   UNL     1      20.100  30.593  21.008  1.00  0.00    -0.388 OA
ATOM     52  H   UNL     1      20.109  30.468  22.004  1.00  0.00     0.211 HD
ENDBRANCH  50  51
BRANCH  50  53
ATOM     53  C   UNL     1      21.311  28.640  20.532  1.00  0.00     0.154 C 
BRANCH  53  54
ATOM     54  N   UNL     1      21.249  27.226  20.473  1.00  0.00    -0.319 N 
ATOM     55  C   UNL     1      22.208  26.337  19.967  1.00  0.00     0.407 C 
ATOM     56  H   UNL     1      20.329  26.785  20.875  1.00  0.00     0.167 HD
ATOM     57  O   UNL     1      23.269  26.751  19.474  1.00  0.00    -0.225 OA
BRANCH  55  58
ATOM     58  O   UNL     1      21.942  24.948  20.031  1.00  0.00    -0.443 OA
BRANCH  58  59
ATOM     59  C   UNL     1      22.542  24.212  21.067  1.00  0.00     0.294 C 
BRANCH  59  60
ATOM     60  C   UNL     1      22.042  24.690  22.366  1.00  0.00     0.120 A 
ATOM     61  C   UNL     1      22.820  24.987  23.455  1.00  0.00     0.138 A 
ATOM     62  N   UNL     1      20.770  24.924  22.734  1.00  0.00    -0.132 NA
ATOM     63  N   UNL     1      22.005  25.387  24.435  1.00  0.00    -0.246 N 
ATOM     64  N   UNL     1      20.772  25.339  23.970  1.00  0.00    -0.066 NA
BRANCH  63  65
ATOM     65  C   UNL     1      22.473  25.788  25.747  1.00  0.00     0.065 C 
ATOM     66  C   UNL     1      21.502  26.768  26.324  1.00  0.00     0.034 C 
ATOM     67  C   UNL     1      22.679  24.567  26.621  1.00  0.00     0.034 C 
ATOM     68  C   UNL     1      23.820  26.477  25.620  1.00  0.00     0.034 C 
ATOM     69  C   UNL     1      21.932  27.188  27.707  1.00  0.00    -0.008 C 
ATOM     70  C   UNL     1      23.043  25.009  28.007  1.00  0.00    -0.008 C 
ATOM     71  C   UNL     1      24.262  26.868  27.010  1.00  0.00    -0.008 C 
ATOM     72  C   UNL     1      23.289  27.840  27.617  1.00  0.00     0.007 C 
ATOM     73  C   UNL     1      22.013  25.944  28.562  1.00  0.00     0.007 C 
ATOM     74  C   UNL     1      24.401  25.691  27.934  1.00  0.00     0.007 C 
ENDBRANCH  63  65
ENDBRANCH  59  60
ENDBRANCH  58  59
ENDBRANCH  55  58
ENDBRANCH  53  54
ENDBRANCH  50  53
ENDBRANCH  47  50
ENDBRANCH   5  47
BRANCH   4  75
ATOM     75  N   UNL     1      16.412  29.450  17.256  1.00  0.00    -0.348 N 
ATOM     76  C   UNL     1      16.970  29.466  15.948  1.00  0.00     0.217 C 
ATOM     77  H   UNL     1      15.545  30.013  17.441  1.00  0.00     0.163 HD
ATOM     78  C   UNL     1      16.325  30.277  14.853  1.00  0.00     0.114 C 
ATOM     79  O   UNL     1      18.002  28.792  15.736  1.00  0.00    -0.275 OA
ENDBRANCH   4  75
TORSDOF 30
