REMARK VINA RESULT:    -6.819      0.000      0.000
REMARK INTER + INTRA:         -21.801
REMARK INTER:                 -14.902
REMARK INTRA:                  -6.899
REMARK UNBOUND:                -5.017
REMARK SMILES CC(=O)N[C@@H]1[C@@H](O)C[C@](OC[C@H]2O[C@@H](O[C@H]3[C@H](O)[C@@H](O)[C@H](OCCN=[N+]=[N-])O[C@@H]3CO)[C@H](O)[C@@H](O)[C@H]2O)(C(=O)O)O[C@H]1C(O)[C@H](O)CNC(=O)OCc1cn(C2CCCCC2)nn1
REMARK SMILES IDX 9 1 8 2 6 3 5 4 42 5 41 6 10 7 11 8 12 9 14 10 13 11 32 12
REMARK SMILES IDX 34 13 36 14 15 15 16 16 29 17 28 18 21 19 17 20 19 21 30 22
REMARK SMILES IDX 31 23 22 25 23 26 24 27 25 28 26 29 27 30 18 31 20 33 33 35
REMARK SMILES IDX 35 37 37 39 38 41 39 42 40 43 7 45 43 47 44 48 45 50 46 51
REMARK SMILES IDX 47 53 48 54 49 55 50 57 51 58 52 59 53 60 54 61 63 62 55 63
REMARK SMILES IDX 62 64 56 65 57 66 61 67 58 68 60 69 59 70 4 71 2 72 1 74
REMARK SMILES IDX 3 75
REMARK H PARENT 31 24 18 32 20 34 33 36 35 38 37 40 40 44 7 46 44 49 46 52
REMARK H PARENT 48 56 4 73
REMARK Flexibility Score: inf
ROOT
ATOM      1  C   UNL     1      15.833  29.574  19.910  1.00  0.00     0.272 C 
ATOM      2  C   UNL     1      14.394  29.062  20.290  1.00  0.00     0.113 C 
ATOM      3  C   UNL     1      13.513  30.236  20.585  1.00  0.00     0.145 C 
ATOM      4  C   UNL     1      14.109  31.105  21.660  1.00  0.00     0.142 C 
ATOM      5  C   UNL     1      15.590  31.232  21.572  1.00  0.00     0.178 C 
ATOM      6  O   UNL     1      16.316  30.396  20.858  1.00  0.00    -0.332 OA
ENDROOT
BRANCH   1   7
ATOM      7  O   UNL     1      15.641  30.162  18.738  1.00  0.00    -0.338 OA
BRANCH   7   8
ATOM      8  C   UNL     1      16.394  30.766  17.882  1.00  0.00     0.199 C 
BRANCH   8   9
ATOM      9  C   UNL     1      16.072  30.817  16.397  1.00  0.00     0.179 C 
ATOM     10  C   UNL     1      17.553  30.062  14.742  1.00  0.00     0.282 C 
ATOM     11  O   UNL     1      17.165  31.061  15.629  1.00  0.00    -0.341 OA
ATOM     12  C   UNL     1      16.404  29.684  13.885  1.00  0.00     0.202 C 
ATOM     13  C   UNL     1      15.142  29.377  14.655  1.00  0.00     0.179 C 
ATOM     14  C   UNL     1      15.404  29.476  16.109  1.00  0.00     0.177 C 
BRANCH  10  15
ATOM     15  O   UNL     1      18.196  29.115  15.449  1.00  0.00    -0.341 OA
BRANCH  15  16
ATOM     16  C   UNL     1      19.518  28.887  15.249  1.00  0.00     0.184 C 
ATOM     17  C   UNL     1      20.242  29.178  16.547  1.00  0.00     0.178 C 
ATOM     18  O   UNL     1      21.542  28.710  16.543  1.00  0.00    -0.341 OA
ATOM     19  C   UNL     1      22.109  28.612  15.300  1.00  0.00     0.281 C 
ATOM     20  C   UNL     1      20.156  29.810  14.232  1.00  0.00     0.180 C 
ATOM     21  C   UNL     1      21.654  29.688  14.384  1.00  0.00     0.202 C 
BRANCH  17  22
ATOM     22  C   UNL     1      19.474  28.767  17.770  1.00  0.00     0.191 C 
BRANCH  22  23
ATOM     23  O   UNL     1      20.314  27.967  18.546  1.00  0.00    -0.394 OA
ATOM     24  H   UNL     1      21.262  28.070  18.296  1.00  0.00     0.210 HD
ENDBRANCH  22  23
ENDBRANCH  17  22
BRANCH  19  25
ATOM     25  O   UNL     1      21.990  27.327  14.842  1.00  0.00    -0.350 OA
BRANCH  25  26
ATOM     26  C   UNL     1      22.503  26.363  15.696  1.00  0.00     0.169 C 
BRANCH  26  27
ATOM     27  C   UNL     1      23.984  26.488  15.937  1.00  0.00     0.119 C 
BRANCH  27  28
ATOM     28  N   UNL     1      24.265  26.023  17.279  1.00  0.00    -0.092 NA
ATOM     29  N   UNL     1      23.527  26.459  18.174  1.00  0.00     0.001 N 
ATOM     30  N   UNL     1      23.257  27.174  19.155  1.00  0.00    -0.003 NA
ENDBRANCH  27  28
ENDBRANCH  26  27
ENDBRANCH  25  26
ENDBRANCH  19  25
BRANCH  20  31
ATOM     31  O   UNL     1      19.826  29.514  12.932  1.00  0.00    -0.387 OA
ATOM     32  H   UNL     1      18.991  29.951  12.631  1.00  0.00     0.211 HD
ENDBRANCH  20  31
BRANCH  21  33
ATOM     33  O   UNL     1      22.088  30.914  14.947  1.00  0.00    -0.385 OA
ATOM     34  H   UNL     1      21.574  31.119  15.765  1.00  0.00     0.211 HD
ENDBRANCH  21  33
ENDBRANCH  15  16
ENDBRANCH  10  15
BRANCH  12  35
ATOM     35  O   UNL     1      16.108  30.829  13.100  1.00  0.00    -0.385 OA
ATOM     36  H   UNL     1      16.076  30.612  12.143  1.00  0.00     0.211 HD
ENDBRANCH  12  35
BRANCH  13  37
ATOM     37  O   UNL     1      14.660  28.091  14.340  1.00  0.00    -0.387 OA
ATOM     38  H   UNL     1      14.805  27.510  15.104  1.00  0.00     0.211 HD
ENDBRANCH  13  37
BRANCH  14  39
ATOM     39  O   UNL     1      16.023  28.412  16.704  1.00  0.00    -0.387 OA
ATOM     40  H   UNL     1      16.991  28.599  16.740  1.00  0.00     0.211 HD
ENDBRANCH  14  39
ENDBRANCH   8   9
ENDBRANCH   7   8
ENDBRANCH   1   7
BRANCH   1  41
ATOM     41  C   UNL     1      16.649  28.311  19.954  1.00  0.00     0.364 C 
ATOM     42  O   UNL     1      16.304  27.241  19.468  1.00  0.00    -0.246 OA
BRANCH  41  43
ATOM     43  O   UNL     1      17.906  28.321  20.591  1.00  0.00    -0.477 OA
ATOM     44  H   UNL     1      18.374  27.455  20.807  1.00  0.00     0.296 HD
ENDBRANCH  41  43
ENDBRANCH   1  41
BRANCH   3  45
ATOM     45  O   UNL     1      13.216  30.955  19.433  1.00  0.00    -0.391 OA
ATOM     46  H   UNL     1      13.173  30.304  18.675  1.00  0.00     0.211 HD
ENDBRANCH   3  45
BRANCH   5  47
ATOM     47  C   UNL     1      15.969  32.671  21.106  1.00  0.00     0.176 C 
BRANCH  47  48
ATOM     48  O   UNL     1      15.002  33.568  21.601  1.00  0.00    -0.388 OA
ATOM     49  H   UNL     1      14.661  33.287  22.473  1.00  0.00     0.211 HD
ENDBRANCH  47  48
BRANCH  47  50
ATOM     50  C   UNL     1      17.348  33.043  21.528  1.00  0.00     0.165 C 
BRANCH  50  51
ATOM     51  O   UNL     1      18.213  32.612  20.495  1.00  0.00    -0.388 OA
ATOM     52  H   UNL     1      18.481  33.352  19.916  1.00  0.00     0.211 HD
ENDBRANCH  50  51
BRANCH  50  53
ATOM     53  C   UNL     1      17.855  32.438  22.783  1.00  0.00     0.154 C 
BRANCH  53  54
ATOM     54  N   UNL     1      19.169  31.856  22.714  1.00  0.00    -0.319 N 
ATOM     55  C   UNL     1      19.420  30.472  22.915  1.00  0.00     0.407 C 
ATOM     56  H   UNL     1      19.978  32.466  22.503  1.00  0.00     0.167 HD
ATOM     57  O   UNL     1      18.468  29.691  23.167  1.00  0.00    -0.225 OA
BRANCH  55  58
ATOM     58  O   UNL     1      20.679  29.945  22.844  1.00  0.00    -0.443 OA
BRANCH  58  59
ATOM     59  C   UNL     1      21.240  29.241  21.762  1.00  0.00     0.294 C 
BRANCH  59  60
ATOM     60  C   UNL     1      21.213  27.794  22.067  1.00  0.00     0.120 A 
ATOM     61  C   UNL     1      21.906  27.241  23.105  1.00  0.00     0.138 A 
ATOM     62  N   UNL     1      20.568  26.799  21.447  1.00  0.00    -0.132 NA
ATOM     63  N   UNL     1      21.675  25.908  23.107  1.00  0.00    -0.249 N 
ATOM     64  N   UNL     1      20.856  25.668  22.085  1.00  0.00    -0.067 NA
BRANCH  63  65
ATOM     65  C   UNL     1      22.224  24.947  24.043  1.00  0.00     0.109 C 
ATOM     66  C   UNL     1      22.201  25.637  25.404  1.00  0.00     0.027 C 
ATOM     67  C   UNL     1      23.661  24.632  23.694  1.00  0.00     0.027 C 
ATOM     68  C   UNL     1      22.683  24.651  26.468  1.00  0.00     0.002 C 
ATOM     69  C   UNL     1      24.597  24.805  24.872  1.00  0.00     0.002 C 
ATOM     70  C   UNL     1      24.036  24.140  26.092  1.00  0.00     0.000 C 
ENDBRANCH  63  65
ENDBRANCH  59  60
ENDBRANCH  58  59
ENDBRANCH  55  58
ENDBRANCH  53  54
ENDBRANCH  50  53
ENDBRANCH  47  50
ENDBRANCH   5  47
BRANCH   4  71
ATOM     71  N   UNL     1      13.627  30.746  22.968  1.00  0.00    -0.348 N 
ATOM     72  C   UNL     1      13.295  31.665  23.977  1.00  0.00     0.217 C 
ATOM     73  H   UNL     1      13.494  29.720  23.245  1.00  0.00     0.163 HD
ATOM     74  C   UNL     1      12.783  31.220  25.319  1.00  0.00     0.114 C 
ATOM     75  O   UNL     1      13.409  32.879  23.808  1.00  0.00    -0.275 OA
ENDBRANCH   4  71
TORSDOF 30
