REMARK VINA RESULT:    -6.068      3.927      8.170
REMARK INTER + INTRA:         -22.323
REMARK INTER:                 -16.060
REMARK INTRA:                  -6.263
REMARK UNBOUND:                -7.387
REMARK SMILES CC(=O)N[C@@H]1[C@@H](O)C[C@](OC[C@H]2O[C@@H](O[C@H]3[C@H](O)[C@@H](O)[C@H](OCCN=[N+]=[N-])O[C@@H]3CO)[C@H](O)[C@@H](O)[C@H]2O)(C(=O)O)O[C@H]1C(O)[C@H](O)CNC(=O)OCc1cn(C23CC4CC(CC(C4)C2)C3)nn1
REMARK SMILES IDX 9 1 8 2 6 3 5 4 42 5 41 6 10 7 11 8 12 9 14 10 13 11 32 12
REMARK SMILES IDX 34 13 36 14 15 15 16 16 29 17 28 18 21 19 17 20 19 21 30 22
REMARK SMILES IDX 31 23 22 25 23 26 24 27 25 28 26 29 27 30 18 31 20 33 33 35
REMARK SMILES IDX 35 37 37 39 38 41 39 42 40 43 7 45 43 47 44 48 45 50 46 51
REMARK SMILES IDX 47 53 48 54 49 55 50 57 51 58 52 59 53 60 54 61 67 62 55 63
REMARK SMILES IDX 66 64 56 65 65 66 64 67 57 68 60 69 62 70 58 71 59 72 61 73
REMARK SMILES IDX 63 74 4 75 2 76 1 78 3 79
REMARK H PARENT 31 24 18 32 20 34 33 36 35 38 37 40 40 44 7 46 44 49 46 52
REMARK H PARENT 48 56 4 77
REMARK Flexibility Score: inf
ROOT
ATOM      1  C   UNL     1      21.568  28.456  23.029  1.00  0.00     0.272 C 
ATOM      2  C   UNL     1      21.893  28.829  21.624  1.00  0.00     0.113 C 
ATOM      3  C   UNL     1      21.217  27.887  20.648  1.00  0.00     0.145 C 
ATOM      4  C   UNL     1      22.008  26.575  20.750  1.00  0.00     0.142 C 
ATOM      5  C   UNL     1      22.175  26.323  22.219  1.00  0.00     0.178 C 
ATOM      6  O   UNL     1      21.337  27.033  23.041  1.00  0.00    -0.332 OA
ENDROOT
BRANCH   1   7
ATOM      7  O   UNL     1      20.467  28.964  23.565  1.00  0.00    -0.338 OA
BRANCH   7   8
ATOM      8  C   UNL     1      20.057  30.204  23.646  1.00  0.00     0.199 C 
BRANCH   8   9
ATOM      9  C   UNL     1      18.697  30.662  23.233  1.00  0.00     0.179 C 
ATOM     10  C   UNL     1      16.504  30.185  23.142  1.00  0.00     0.282 C 
ATOM     11  O   UNL     1      17.731  29.652  23.587  1.00  0.00    -0.341 OA
ATOM     12  C   UNL     1      15.979  30.992  24.284  1.00  0.00     0.202 C 
ATOM     13  C   UNL     1      17.165  31.668  24.946  1.00  0.00     0.179 C 
ATOM     14  C   UNL     1      18.276  31.935  23.960  1.00  0.00     0.177 C 
BRANCH  10  15
ATOM     15  O   UNL     1      15.653  29.177  22.704  1.00  0.00    -0.341 OA
BRANCH  15  16
ATOM     16  C   UNL     1      15.314  29.398  21.402  1.00  0.00     0.184 C 
ATOM     17  C   UNL     1      13.871  29.348  21.052  1.00  0.00     0.178 C 
ATOM     18  O   UNL     1      13.747  30.020  19.814  1.00  0.00    -0.341 OA
ATOM     19  C   UNL     1      14.301  29.248  18.767  1.00  0.00     0.281 C 
ATOM     20  C   UNL     1      15.990  28.402  20.454  1.00  0.00     0.180 C 
ATOM     21  C   UNL     1      15.707  28.843  19.060  1.00  0.00     0.202 C 
BRANCH  17  22
ATOM     22  C   UNL     1      12.919  29.879  22.056  1.00  0.00     0.191 C 
BRANCH  22  23
ATOM     23  O   UNL     1      12.987  29.048  23.186  1.00  0.00    -0.394 OA
ATOM     24  H   UNL     1      12.187  29.152  23.764  1.00  0.00     0.210 HD
ENDBRANCH  22  23
ENDBRANCH  17  22
BRANCH  19  25
ATOM     25  O   UNL     1      14.301  30.085  17.674  1.00  0.00    -0.350 OA
BRANCH  25  26
ATOM     26  C   UNL     1      13.353  29.875  16.743  1.00  0.00     0.169 C 
BRANCH  26  27
ATOM     27  C   UNL     1      12.454  31.055  16.548  1.00  0.00     0.119 C 
BRANCH  27  28
ATOM     28  N   UNL     1      11.941  31.086  15.174  1.00  0.00    -0.092 NA
ATOM     29  N   UNL     1      11.018  30.330  14.899  1.00  0.00     0.001 N 
ATOM     30  N   UNL     1      10.279  29.470  14.373  1.00  0.00    -0.003 NA
ENDBRANCH  27  28
ENDBRANCH  26  27
ENDBRANCH  25  26
ENDBRANCH  19  25
BRANCH  20  31
ATOM     31  O   UNL     1      17.371  28.379  20.644  1.00  0.00    -0.387 OA
ATOM     32  H   UNL     1      17.693  29.301  20.754  1.00  0.00     0.211 HD
ENDBRANCH  20  31
BRANCH  21  33
ATOM     33  O   UNL     1      16.061  27.790  18.219  1.00  0.00    -0.385 OA
ATOM     34  H   UNL     1      16.312  28.121  17.335  1.00  0.00     0.211 HD
ENDBRANCH  21  33
ENDBRANCH  15  16
ENDBRANCH  10  15
BRANCH  12  35
ATOM     35  O   UNL     1      14.983  31.885  23.973  1.00  0.00    -0.385 OA
ATOM     36  H   UNL     1      14.926  32.589  24.662  1.00  0.00     0.211 HD
ENDBRANCH  12  35
BRANCH  13  37
ATOM     37  O   UNL     1      17.626  30.970  26.055  1.00  0.00    -0.387 OA
ATOM     38  H   UNL     1      16.902  30.963  26.760  1.00  0.00     0.211 HD
ENDBRANCH  13  37
BRANCH  14  39
ATOM     39  O   UNL     1      19.374  32.398  24.671  1.00  0.00    -0.387 OA
ATOM     40  H   UNL     1      20.223  32.014  24.327  1.00  0.00     0.211 HD
ENDBRANCH  14  39
ENDBRANCH   8   9
ENDBRANCH   7   8
ENDBRANCH   1   7
BRANCH   1  41
ATOM     41  C   UNL     1      22.768  28.576  23.873  1.00  0.00     0.364 C 
ATOM     42  O   UNL     1      23.794  29.214  23.604  1.00  0.00    -0.246 OA
BRANCH  41  43
ATOM     43  O   UNL     1      22.705  27.873  25.112  1.00  0.00    -0.477 OA
ATOM     44  H   UNL     1      23.436  28.018  25.775  1.00  0.00     0.296 HD
ENDBRANCH  41  43
ENDBRANCH   1  41
BRANCH   3  45
ATOM     45  O   UNL     1      19.925  27.621  21.083  1.00  0.00    -0.391 OA
ATOM     46  H   UNL     1      19.895  27.824  22.053  1.00  0.00     0.211 HD
ENDBRANCH   3  45
BRANCH   5  47
ATOM     47  C   UNL     1      21.834  24.824  22.566  1.00  0.00     0.176 C 
BRANCH  47  48
ATOM     48  O   UNL     1      20.424  24.861  22.525  1.00  0.00    -0.388 OA
ATOM     49  H   UNL     1      20.176  25.718  22.950  1.00  0.00     0.211 HD
ENDBRANCH  47  48
BRANCH  47  50
ATOM     50  C   UNL     1      22.287  24.503  23.919  1.00  0.00     0.165 C 
BRANCH  50  51
ATOM     51  O   UNL     1      21.583  25.134  24.960  1.00  0.00    -0.388 OA
ATOM     52  H   UNL     1      22.217  25.314  25.717  1.00  0.00     0.211 HD
ENDBRANCH  50  51
BRANCH  50  53
ATOM     53  C   UNL     1      23.737  24.592  24.205  1.00  0.00     0.154 C 
BRANCH  53  54
ATOM     54  N   UNL     1      24.069  24.775  25.570  1.00  0.00    -0.319 N 
ATOM     55  C   UNL     1      24.954  25.707  26.129  1.00  0.00     0.407 C 
ATOM     56  H   UNL     1      23.563  24.094  26.265  1.00  0.00     0.167 HD
ATOM     57  O   UNL     1      25.584  26.501  25.414  1.00  0.00    -0.225 OA
BRANCH  55  58
ATOM     58  O   UNL     1      25.116  25.725  27.536  1.00  0.00    -0.443 OA
BRANCH  58  59
ATOM     59  C   UNL     1      24.824  26.920  28.215  1.00  0.00     0.294 C 
BRANCH  59  60
ATOM     60  C   UNL     1      23.378  27.003  28.469  1.00  0.00     0.120 A 
ATOM     61  C   UNL     1      22.792  27.654  29.524  1.00  0.00     0.138 A 
ATOM     62  N   UNL     1      22.372  26.477  27.745  1.00  0.00    -0.132 NA
ATOM     63  N   UNL     1      21.470  27.505  29.407  1.00  0.00    -0.246 N 
ATOM     64  N   UNL     1      21.246  26.789  28.323  1.00  0.00    -0.066 NA
BRANCH  63  65
ATOM     65  C   UNL     1      20.519  28.063  30.347  1.00  0.00     0.065 C 
ATOM     66  C   UNL     1      21.214  28.295  31.652  1.00  0.00     0.034 C 
ATOM     67  C   UNL     1      19.895  29.318  29.772  1.00  0.00     0.034 C 
ATOM     68  C   UNL     1      19.393  27.073  30.583  1.00  0.00     0.034 C 
ATOM     69  C   UNL     1      20.268  28.909  32.653  1.00  0.00    -0.008 C 
ATOM     70  C   UNL     1      19.008  29.946  30.806  1.00  0.00    -0.008 C 
ATOM     71  C   UNL     1      18.432  27.703  31.562  1.00  0.00    -0.008 C 
ATOM     72  C   UNL     1      19.114  27.963  32.876  1.00  0.00     0.007 C 
ATOM     73  C   UNL     1      19.763  30.211  32.073  1.00  0.00     0.007 C 
ATOM     74  C   UNL     1      17.849  28.995  31.063  1.00  0.00     0.007 C 
ENDBRANCH  63  65
ENDBRANCH  59  60
ENDBRANCH  58  59
ENDBRANCH  55  58
ENDBRANCH  53  54
ENDBRANCH  50  53
ENDBRANCH  47  50
ENDBRANCH   5  47
BRANCH   4  75
ATOM     75  N   UNL     1      23.316  26.793  20.124  1.00  0.00    -0.348 N 
ATOM     76  C   UNL     1      23.555  26.432  18.769  1.00  0.00     0.217 C 
ATOM     77  H   UNL     1      24.101  27.219  20.678  1.00  0.00     0.163 HD
ATOM     78  C   UNL     1      24.909  26.658  18.146  1.00  0.00     0.114 C 
ATOM     79  O   UNL     1      22.616  25.926  18.117  1.00  0.00    -0.275 OA
ENDBRANCH   4  75
TORSDOF 30
