REMARK VINA RESULT:    -5.669      5.040     13.108
REMARK INTER + INTRA:         -21.480
REMARK INTER:                 -14.604
REMARK INTRA:                  -6.877
REMARK UNBOUND:                -6.864
REMARK SMILES CC(=O)N[C@@H]1[C@@H](O)C[C@](OC[C@H]2O[C@@H](O[C@H]3[C@H](O)[C@@H](O)[C@H](OCCN=[N+]=[N-])O[C@@H]3CO)[C@H](O)[C@@H](O)[C@H]2O)(C(=O)O)O[C@H]1C(O)[C@H](O)CNC(=O)OCc1cn(CCC2OCCO2)nn1
REMARK SMILES IDX 9 1 8 2 6 3 5 4 42 5 41 6 10 7 11 8 12 9 14 10 13 11 32 12
REMARK SMILES IDX 34 13 36 14 15 15 16 16 29 17 28 18 21 19 17 20 19 21 30 22
REMARK SMILES IDX 31 23 22 25 23 26 24 27 25 28 26 29 27 30 18 31 20 33 33 35
REMARK SMILES IDX 35 37 37 39 38 41 39 42 40 43 7 45 43 47 44 48 45 50 46 51
REMARK SMILES IDX 47 53 48 54 49 55 50 57 51 58 52 59 53 60 54 61 64 62 55 63
REMARK SMILES IDX 63 64 56 65 57 66 58 67 59 68 62 69 60 70 61 71 4 72 2 73
REMARK SMILES IDX 1 75 3 76
REMARK H PARENT 31 24 18 32 20 34 33 36 35 38 37 40 40 44 7 46 44 49 46 52
REMARK H PARENT 48 56 4 74
REMARK Flexibility Score: inf
ROOT
ATOM      1  C   UNL     1      23.081  25.950  22.097  1.00  0.00     0.272 C 
ATOM      2  C   UNL     1      21.699  25.221  22.277  1.00  0.00     0.113 C 
ATOM      3  C   UNL     1      21.445  24.901  23.688  1.00  0.00     0.145 C 
ATOM      4  C   UNL     1      21.458  26.173  24.512  1.00  0.00     0.142 C 
ATOM      5  C   UNL     1      22.222  27.269  23.850  1.00  0.00     0.178 C 
ATOM      6  O   UNL     1      23.254  26.921  23.052  1.00  0.00    -0.332 OA
ENDROOT
BRANCH   1   7
ATOM      7  O   UNL     1      22.963  26.495  20.886  1.00  0.00    -0.338 OA
BRANCH   7   8
ATOM      8  C   UNL     1      23.877  27.069  20.138  1.00  0.00     0.199 C 
BRANCH   8   9
ATOM      9  C   UNL     1      24.118  26.658  18.721  1.00  0.00     0.179 C 
ATOM     10  C   UNL     1      25.450  25.208  17.455  1.00  0.00     0.282 C 
ATOM     11  O   UNL     1      25.280  25.929  18.619  1.00  0.00    -0.341 OA
ATOM     12  C   UNL     1      24.518  25.536  16.348  1.00  0.00     0.202 C 
ATOM     13  C   UNL     1      23.078  25.635  16.770  1.00  0.00     0.179 C 
ATOM     14  C   UNL     1      23.003  25.687  18.260  1.00  0.00     0.177 C 
BRANCH  10  15
ATOM     15  O   UNL     1      25.541  23.856  17.787  1.00  0.00    -0.341 OA
BRANCH  15  16
ATOM     16  C   UNL     1      26.844  23.409  17.953  1.00  0.00     0.184 C 
ATOM     17  C   UNL     1      27.185  22.188  17.155  1.00  0.00     0.178 C 
ATOM     18  O   UNL     1      28.539  21.910  17.358  1.00  0.00    -0.341 OA
ATOM     19  C   UNL     1      28.828  21.504  18.653  1.00  0.00     0.281 C 
ATOM     20  C   UNL     1      27.043  22.982  19.435  1.00  0.00     0.180 C 
ATOM     21  C   UNL     1      28.536  22.701  19.553  1.00  0.00     0.202 C 
BRANCH  17  22
ATOM     22  C   UNL     1      27.052  22.501  15.674  1.00  0.00     0.191 C 
BRANCH  22  23
ATOM     23  O   UNL     1      25.692  22.251  15.363  1.00  0.00    -0.394 OA
ATOM     24  H   UNL     1      25.316  22.923  14.757  1.00  0.00     0.210 HD
ENDBRANCH  22  23
ENDBRANCH  17  22
BRANCH  19  25
ATOM     25  O   UNL     1      30.146  21.148  18.720  1.00  0.00    -0.350 OA
BRANCH  25  26
ATOM     26  C   UNL     1      30.417  19.947  19.311  1.00  0.00     0.169 C 
BRANCH  26  27
ATOM     27  C   UNL     1      29.368  18.878  19.092  1.00  0.00     0.119 C 
BRANCH  27  28
ATOM     28  N   UNL     1      28.901  18.367  20.368  1.00  0.00    -0.092 NA
ATOM     29  N   UNL     1      28.659  19.091  21.330  1.00  0.00     0.001 N 
ATOM     30  N   UNL     1      28.241  19.748  22.279  1.00  0.00    -0.003 NA
ENDBRANCH  27  28
ENDBRANCH  26  27
ENDBRANCH  25  26
ENDBRANCH  19  25
BRANCH  20  31
ATOM     31  O   UNL     1      26.692  24.035  20.243  1.00  0.00    -0.387 OA
ATOM     32  H   UNL     1      26.207  24.711  19.694  1.00  0.00     0.211 HD
ENDBRANCH  20  31
BRANCH  21  33
ATOM     33  O   UNL     1      28.801  22.433  20.878  1.00  0.00    -0.385 OA
ATOM     34  H   UNL     1      29.262  21.558  20.933  1.00  0.00     0.211 HD
ENDBRANCH  21  33
ENDBRANCH  15  16
ENDBRANCH  10  15
BRANCH  12  35
ATOM     35  O   UNL     1      24.943  26.736  15.723  1.00  0.00    -0.385 OA
ATOM     36  H   UNL     1      24.992  27.402  16.458  1.00  0.00     0.211 HD
ENDBRANCH  12  35
BRANCH  13  37
ATOM     37  O   UNL     1      22.302  24.615  16.222  1.00  0.00    -0.387 OA
ATOM     38  H   UNL     1      22.808  23.766  16.322  1.00  0.00     0.211 HD
ENDBRANCH  13  37
BRANCH  14  39
ATOM     39  O   UNL     1      23.192  24.469  18.880  1.00  0.00    -0.387 OA
ATOM     40  H   UNL     1      22.975  24.470  19.846  1.00  0.00     0.211 HD
ENDBRANCH  14  39
ENDBRANCH   8   9
ENDBRANCH   7   8
ENDBRANCH   1   7
BRANCH   1  41
ATOM     41  C   UNL     1      24.048  24.884  22.359  1.00  0.00     0.364 C 
ATOM     42  O   UNL     1      24.109  23.872  21.546  1.00  0.00    -0.246 OA
BRANCH  41  43
ATOM     43  O   UNL     1      24.957  24.786  23.388  1.00  0.00    -0.477 OA
ATOM     44  H   UNL     1      25.554  25.570  23.609  1.00  0.00     0.296 HD
ENDBRANCH  41  43
ENDBRANCH   1  41
BRANCH   3  45
ATOM     45  O   UNL     1      20.148  24.313  23.738  1.00  0.00    -0.391 OA
ATOM     46  H   UNL     1      19.523  25.051  24.015  1.00  0.00     0.211 HD
ENDBRANCH   3  45
BRANCH   5  47
ATOM     47  C   UNL     1      21.279  28.276  23.263  1.00  0.00     0.176 C 
BRANCH  47  48
ATOM     48  O   UNL     1      20.314  28.723  24.179  1.00  0.00    -0.388 OA
ATOM     49  H   UNL     1      19.406  28.742  23.758  1.00  0.00     0.211 HD
ENDBRANCH  47  48
BRANCH  47  50
ATOM     50  C   UNL     1      22.053  29.578  22.913  1.00  0.00     0.165 C 
BRANCH  50  51
ATOM     51  O   UNL     1      21.656  30.566  23.783  1.00  0.00    -0.388 OA
ATOM     52  H   UNL     1      21.897  31.468  23.502  1.00  0.00     0.211 HD
ENDBRANCH  50  51
BRANCH  50  53
ATOM     53  C   UNL     1      21.897  29.832  21.470  1.00  0.00     0.154 C 
BRANCH  53  54
ATOM     54  N   UNL     1      20.856  29.044  20.888  1.00  0.00    -0.319 N 
ATOM     55  C   UNL     1      20.700  28.819  19.522  1.00  0.00     0.407 C 
ATOM     56  H   UNL     1      20.169  28.609  21.553  1.00  0.00     0.167 HD
ATOM     57  O   UNL     1      21.477  29.317  18.692  1.00  0.00    -0.225 OA
BRANCH  55  58
ATOM     58  O   UNL     1      19.673  28.029  18.986  1.00  0.00    -0.443 OA
BRANCH  58  59
ATOM     59  C   UNL     1      18.470  28.614  18.522  1.00  0.00     0.294 C 
BRANCH  59  60
ATOM     60  C   UNL     1      17.391  28.587  19.537  1.00  0.00     0.120 A 
ATOM     61  C   UNL     1      17.180  29.572  20.507  1.00  0.00     0.138 A 
ATOM     62  N   UNL     1      16.428  27.679  19.758  1.00  0.00    -0.132 NA
ATOM     63  N   UNL     1      16.107  29.223  21.268  1.00  0.00    -0.252 N 
ATOM     64  N   UNL     1      15.677  28.078  20.793  1.00  0.00    -0.067 NA
BRANCH  63  65
ATOM     65  C   UNL     1      15.622  30.048  22.365  1.00  0.00     0.151 C 
BRANCH  65  66
ATOM     66  C   UNL     1      16.710  30.233  23.414  1.00  0.00     0.086 C 
BRANCH  66  67
ATOM     67  C   UNL     1      16.217  31.037  24.582  1.00  0.00     0.251 C 
ATOM     68  O   UNL     1      14.985  30.533  25.002  1.00  0.00    -0.350 OA
ATOM     69  O   UNL     1      17.042  30.969  25.687  1.00  0.00    -0.350 OA
ATOM     70  C   UNL     1      14.822  31.030  26.290  1.00  0.00     0.192 C 
ATOM     71  C   UNL     1      16.201  31.544  26.668  1.00  0.00     0.192 C 
ENDBRANCH  66  67
ENDBRANCH  65  66
ENDBRANCH  63  65
ENDBRANCH  59  60
ENDBRANCH  58  59
ENDBRANCH  55  58
ENDBRANCH  53  54
ENDBRANCH  50  53
ENDBRANCH  47  50
ENDBRANCH   5  47
BRANCH   4  72
ATOM     72  N   UNL     1      21.912  25.900  25.873  1.00  0.00    -0.348 N 
ATOM     73  C   UNL     1      21.567  26.689  26.975  1.00  0.00     0.217 C 
ATOM     74  H   UNL     1      22.536  25.051  25.998  1.00  0.00     0.163 HD
ATOM     75  C   UNL     1      22.074  26.342  28.342  1.00  0.00     0.114 C 
ATOM     76  O   UNL     1      20.823  27.687  26.770  1.00  0.00    -0.275 OA
ENDBRANCH   4  72
TORSDOF 32
