REMARK VINA RESULT:    -4.833      3.157      5.134
REMARK INTER + INTRA:         -21.644
REMARK INTER:                 -12.051
REMARK INTRA:                  -9.593
REMARK UNBOUND:                -8.334
REMARK SMILES CC[N+](C)(CC)CCCn1cc(COC(=O)NC[C@@H](O)C(O)[C@@H]2O[C@@](OC[C@H]3O[C@@H](O[C@H]4[C@H](O)[C@@H](O)[C@H](OCCN=[N+]=[N-])O[C@@H]4CO)[C@H](O)[C@@H](O)[C@H]3O)(C(=O)O)C[C@H](O)[C@H]2NC(C)=O)nn1
REMARK SMILES IDX 21 1 23 2 25 3 57 4 24 5 58 6 60 7 26 8 27 9 28 10 30 11
REMARK SMILES IDX 29 12 48 13 50 14 52 15 31 16 32 17 45 18 44 19 37 20 33 21
REMARK SMILES IDX 35 22 46 23 47 24 38 26 39 27 40 28 41 29 42 30 43 31 34 32
REMARK SMILES IDX 36 34 49 36 51 38 53 40 54 42 55 43 56 44 59 46 61 48 62 49
REMARK SMILES IDX 63 51 64 52 22 53 19 55 20 56 18 58 17 59 15 60 16 62 14 63
REMARK SMILES IDX 13 64 12 65 11 66 65 67 10 68 66 69 9 70 8 71 7 72 3 73 4 74
REMARK SMILES IDX 2 75 1 76 5 77 6 78
REMARK H PARENT 47 25 34 33 36 35 49 37 51 39 53 41 56 45 59 47 61 50 22 54
REMARK H PARENT 20 57 17 61
REMARK Flexibility Score: inf
ROOT
ATOM      1  C   UNL     1      17.644  30.920  19.932  1.00  0.00     0.176 C 
ENDROOT
BRANCH   1   2
ATOM      2  C   UNL     1      16.163  30.656  19.672  1.00  0.00     0.178 C 
ATOM      3  C   UNL     1      14.077  30.918  20.741  1.00  0.00     0.272 C 
ATOM      4  C   UNL     1      13.718  29.684  19.981  1.00  0.00     0.113 C 
ATOM      5  O   UNL     1      15.495  30.899  20.851  1.00  0.00    -0.332 OA
ATOM      6  C   UNL     1      14.828  28.666  19.972  1.00  0.00     0.145 C 
ATOM      7  C   UNL     1      15.995  29.253  19.184  1.00  0.00     0.142 C 
BRANCH   3   8
ATOM      8  O   UNL     1      13.667  30.907  22.058  1.00  0.00    -0.338 OA
BRANCH   8   9
ATOM      9  C   UNL     1      14.451  31.422  23.019  1.00  0.00     0.199 C 
BRANCH   9  10
ATOM     10  C   UNL     1      14.367  30.579  24.318  1.00  0.00     0.179 C 
ATOM     11  C   UNL     1      16.247  31.345  25.518  1.00  0.00     0.282 C 
ATOM     12  O   UNL     1      15.563  30.327  24.867  1.00  0.00    -0.341 OA
ATOM     13  C   UNL     1      15.367  32.333  26.186  1.00  0.00     0.202 C 
ATOM     14  C   UNL     1      14.107  31.536  26.588  1.00  0.00     0.179 C 
ATOM     15  C   UNL     1      13.399  31.272  25.278  1.00  0.00     0.177 C 
BRANCH  11  16
ATOM     16  O   UNL     1      17.249  31.869  24.689  1.00  0.00    -0.341 OA
BRANCH  16  17
ATOM     17  C   UNL     1      18.491  31.399  24.999  1.00  0.00     0.184 C 
ATOM     18  C   UNL     1      19.607  32.330  25.189  1.00  0.00     0.178 C 
ATOM     19  O   UNL     1      20.673  31.662  25.765  1.00  0.00    -0.341 OA
ATOM     20  C   UNL     1      20.742  30.319  25.680  1.00  0.00     0.281 C 
ATOM     21  C   UNL     1      18.970  30.399  23.921  1.00  0.00     0.180 C 
ATOM     22  C   UNL     1      20.182  29.670  24.439  1.00  0.00     0.202 C 
BRANCH  18  23
ATOM     23  C   UNL     1      19.327  33.556  26.036  1.00  0.00     0.191 C 
BRANCH  23  24
ATOM     24  O   UNL     1      18.624  33.275  27.200  1.00  0.00    -0.394 OA
ATOM     25  H   UNL     1      18.599  34.139  27.725  1.00  0.00     0.210 HD
ENDBRANCH  23  24
ENDBRANCH  18  23
BRANCH  20  26
ATOM     26  O   UNL     1      20.292  29.717  26.841  1.00  0.00    -0.350 OA
BRANCH  26  27
ATOM     27  C   UNL     1      20.686  30.292  28.003  1.00  0.00     0.169 C 
BRANCH  27  28
ATOM     28  C   UNL     1      19.598  30.356  29.055  1.00  0.00     0.119 C 
BRANCH  28  29
ATOM     29  N   UNL     1      18.339  30.719  28.426  1.00  0.00    -0.092 NA
ATOM     30  N   UNL     1      17.256  30.645  29.002  1.00  0.00     0.001 N 
ATOM     31  N   UNL     1      16.163  30.602  29.569  1.00  0.00    -0.003 NA
ENDBRANCH  28  29
ENDBRANCH  27  28
ENDBRANCH  26  27
ENDBRANCH  20  26
BRANCH  21  32
ATOM     32  O   UNL     1      17.892  29.604  23.610  1.00  0.00    -0.387 OA
ATOM     33  H   UNL     1      17.928  28.694  23.942  1.00  0.00     0.211 HD
ENDBRANCH  21  32
BRANCH  22  34
ATOM     34  O   UNL     1      21.111  29.565  23.416  1.00  0.00    -0.385 OA
ATOM     35  H   UNL     1      21.396  30.439  23.039  1.00  0.00     0.211 HD
ENDBRANCH  22  34
ENDBRANCH  16  17
ENDBRANCH  11  16
BRANCH  13  36
ATOM     36  O   UNL     1      15.893  32.840  27.384  1.00  0.00    -0.385 OA
ATOM     37  H   UNL     1      16.814  32.508  27.457  1.00  0.00     0.211 HD
ENDBRANCH  13  36
BRANCH  14  38
ATOM     38  O   UNL     1      13.312  32.319  27.425  1.00  0.00    -0.387 OA
ATOM     39  H   UNL     1      12.417  32.339  27.028  1.00  0.00     0.211 HD
ENDBRANCH  14  38
BRANCH  15  40
ATOM     40  O   UNL     1      13.119  32.524  24.735  1.00  0.00    -0.387 OA
ATOM     41  H   UNL     1      12.800  33.189  25.363  1.00  0.00     0.211 HD
ENDBRANCH  15  40
ENDBRANCH   9  10
ENDBRANCH   8   9
ENDBRANCH   3   8
BRANCH   3  42
ATOM     42  C   UNL     1      13.660  32.178  20.103  1.00  0.00     0.364 C 
ATOM     43  O   UNL     1      12.709  32.224  19.292  1.00  0.00    -0.246 OA
BRANCH  42  44
ATOM     44  O   UNL     1      14.310  33.357  20.376  1.00  0.00    -0.477 OA
ATOM     45  H   UNL     1      14.668  33.980  19.655  1.00  0.00     0.296 HD
ENDBRANCH  42  44
ENDBRANCH   3  42
BRANCH   6  46
ATOM     46  O   UNL     1      15.258  28.310  21.229  1.00  0.00    -0.391 OA
ATOM     47  H   UNL     1      15.547  27.348  21.268  1.00  0.00     0.211 HD
ENDBRANCH   6  46
BRANCH   7  48
ATOM     48  N   UNL     1      15.518  29.293  17.791  1.00  0.00    -0.348 N 
ATOM     49  C   UNL     1      16.365  28.933  16.706  1.00  0.00     0.217 C 
ATOM     50  H   UNL     1      14.556  29.586  17.525  1.00  0.00     0.163 HD
ATOM     51  C   UNL     1      15.926  28.955  15.289  1.00  0.00     0.114 C 
ATOM     52  O   UNL     1      17.529  28.579  16.962  1.00  0.00    -0.275 OA
ENDBRANCH   7  48
ENDBRANCH   1   2
BRANCH   1  53
ATOM     53  O   UNL     1      18.190  29.780  20.613  1.00  0.00    -0.388 OA
ATOM     54  H   UNL     1      17.412  29.262  20.950  1.00  0.00     0.211 HD
ENDBRANCH   1  53
BRANCH   1  55
ATOM     55  C   UNL     1      17.828  32.084  20.851  1.00  0.00     0.165 C 
BRANCH  55  56
ATOM     56  O   UNL     1      17.138  33.159  20.151  1.00  0.00    -0.388 OA
ATOM     57  H   UNL     1      17.850  33.784  19.811  1.00  0.00     0.211 HD
ENDBRANCH  55  56
BRANCH  55  58
ATOM     58  C   UNL     1      19.213  32.547  21.112  1.00  0.00     0.154 C 
BRANCH  58  59
ATOM     59  N   UNL     1      20.295  31.676  21.210  1.00  0.00    -0.319 N 
ATOM     60  C   UNL     1      21.401  31.544  20.338  1.00  0.00     0.407 C 
ATOM     61  H   UNL     1      20.307  30.991  22.072  1.00  0.00     0.167 HD
ATOM     62  O   UNL     1      21.559  32.228  19.315  1.00  0.00    -0.225 OA
BRANCH  60  63
ATOM     63  O   UNL     1      22.401  30.578  20.611  1.00  0.00    -0.443 OA
BRANCH  63  64
ATOM     64  C   UNL     1      22.550  29.514  19.652  1.00  0.00     0.294 C 
BRANCH  64  65
ATOM     65  C   UNL     1      21.889  28.344  20.342  1.00  0.00     0.120 A 
ATOM     66  C   UNL     1      22.460  27.127  20.630  1.00  0.00     0.138 A 
ATOM     67  N   UNL     1      20.655  28.269  20.851  1.00  0.00    -0.132 NA
ATOM     68  N   UNL     1      21.548  26.359  21.307  1.00  0.00    -0.252 N 
ATOM     69  N   UNL     1      20.458  27.096  21.418  1.00  0.00    -0.067 NA
BRANCH  68  70
ATOM     70  C   UNL     1      21.785  25.024  21.827  1.00  0.00     0.152 C 
BRANCH  70  71
ATOM     71  C   UNL     1      22.906  24.971  22.773  1.00  0.00     0.085 C 
BRANCH  71  72
ATOM     72  C   UNL     1      22.694  25.235  24.206  1.00  0.00     0.265 C 
BRANCH  72  73
ATOM     73  N   UNL     1      23.520  26.192  24.862  1.00  0.00    -0.326 N 
ATOM     74  C   UNL     1      24.126  27.071  23.900  1.00  0.00     0.334 C 
BRANCH  73  75
ATOM     75  C   UNL     1      24.501  25.655  25.763  1.00  0.00     0.260 C 
ATOM     76  C   UNL     1      24.198  24.239  26.191  1.00  0.00     0.071 C 
ENDBRANCH  73  75
BRANCH  73  77
ATOM     77  C   UNL     1      22.608  27.044  25.643  1.00  0.00     0.260 C 
ATOM     78  C   UNL     1      23.273  27.798  26.739  1.00  0.00     0.071 C 
ENDBRANCH  73  77
ENDBRANCH  72  73
ENDBRANCH  71  72
ENDBRANCH  70  71
ENDBRANCH  68  70
ENDBRANCH  64  65
ENDBRANCH  63  64
ENDBRANCH  60  63
ENDBRANCH  58  59
ENDBRANCH  55  58
ENDBRANCH   1  55
TORSDOF 35
