REMARK VINA RESULT:    -5.450      3.893      8.071
REMARK INTER + INTRA:         -22.829
REMARK INTER:                 -15.885
REMARK INTRA:                  -6.944
REMARK UNBOUND:                -8.936
REMARK SMILES CC(=O)N[C@@H]1[C@@H](O)C[C@](OC[C@H]2O[C@@H](O[C@H]3[C@H](O)[C@@H](O)[C@H](OCCN=[N+]=[N-])O[C@@H]3CO)[C@H](O)[C@@H](O)[C@H]2O)(C(=O)O)O[C@H]1C(O)[C@H](O)CNC(=O)OCc1cn(-c2ccc(S(N)(=O)=O)cc2)nn1
REMARK SMILES IDX 9 1 8 2 6 3 5 4 42 5 41 6 10 7 11 8 12 9 14 10 13 11 32 12
REMARK SMILES IDX 34 13 36 14 15 15 16 16 29 17 28 18 21 19 17 20 19 21 30 22
REMARK SMILES IDX 31 23 22 25 23 26 24 27 25 28 26 29 27 30 18 31 20 33 33 35
REMARK SMILES IDX 35 37 37 39 38 41 39 42 40 43 7 45 43 47 44 48 45 50 46 51
REMARK SMILES IDX 47 53 48 54 49 55 50 57 51 58 52 59 53 60 54 61 67 62 55 63
REMARK SMILES IDX 66 64 56 65 57 66 65 67 58 68 64 69 59 70 60 71 62 72 63 73
REMARK SMILES IDX 61 74 4 77 2 78 1 80 3 81
REMARK H PARENT 31 24 18 32 20 34 33 36 35 38 37 40 40 44 7 46 44 49 46 52
REMARK H PARENT 48 56 61 75 61 76 4 79
REMARK Flexibility Score: inf
ROOT
ATOM      1  C   UNL     1      24.353  27.915  21.507  1.00  0.00     0.272 C 
ATOM      2  C   UNL     1      24.194  29.416  21.794  1.00  0.00     0.113 C 
ATOM      3  C   UNL     1      23.050  29.695  22.703  1.00  0.00     0.145 C 
ATOM      4  C   UNL     1      21.899  28.792  22.341  1.00  0.00     0.142 C 
ATOM      5  C   UNL     1      22.163  28.366  20.892  1.00  0.00     0.178 C 
ATOM      6  O   UNL     1      23.189  27.425  20.963  1.00  0.00    -0.332 OA
ENDROOT
BRANCH   1   7
ATOM      7  O   UNL     1      24.708  27.340  22.721  1.00  0.00    -0.338 OA
BRANCH   7   8
ATOM      8  C   UNL     1      25.412  26.174  22.613  1.00  0.00     0.199 C 
BRANCH   8   9
ATOM      9  C   UNL     1      24.518  25.045  23.155  1.00  0.00     0.179 C 
ATOM     10  C   UNL     1      22.456  24.895  24.250  1.00  0.00     0.282 C 
ATOM     11  O   UNL     1      23.678  25.612  24.060  1.00  0.00    -0.341 OA
ATOM     12  C   UNL     1      21.758  25.042  22.929  1.00  0.00     0.202 C 
ATOM     13  C   UNL     1      22.490  24.229  21.868  1.00  0.00     0.179 C 
ATOM     14  C   UNL     1      23.956  24.188  22.095  1.00  0.00     0.177 C 
BRANCH  10  15
ATOM     15  O   UNL     1      21.784  25.512  25.246  1.00  0.00    -0.341 OA
BRANCH  15  16
ATOM     16  C   UNL     1      22.572  25.865  26.373  1.00  0.00     0.184 C 
ATOM     17  C   UNL     1      22.603  24.723  27.282  1.00  0.00     0.178 C 
ATOM     18  O   UNL     1      22.509  24.991  28.632  1.00  0.00    -0.341 OA
ATOM     19  C   UNL     1      22.908  26.231  29.044  1.00  0.00     0.281 C 
ATOM     20  C   UNL     1      22.052  27.159  26.956  1.00  0.00     0.180 C 
ATOM     21  C   UNL     1      21.971  27.236  28.430  1.00  0.00     0.202 C 
BRANCH  17  22
ATOM     22  C   UNL     1      23.811  23.825  27.111  1.00  0.00     0.191 C 
BRANCH  22  23
ATOM     23  O   UNL     1      24.895  24.549  26.635  1.00  0.00    -0.394 OA
ATOM     24  H   UNL     1      25.578  24.700  27.335  1.00  0.00     0.210 HD
ENDBRANCH  22  23
ENDBRANCH  17  22
BRANCH  19  25
ATOM     25  O   UNL     1      24.231  26.541  28.839  1.00  0.00    -0.350 OA
BRANCH  25  26
ATOM     26  C   UNL     1      25.023  25.929  29.803  1.00  0.00     0.169 C 
BRANCH  26  27
ATOM     27  C   UNL     1      25.056  26.839  31.027  1.00  0.00     0.119 C 
BRANCH  27  28
ATOM     28  N   UNL     1      25.691  26.126  32.101  1.00  0.00    -0.092 NA
ATOM     29  N   UNL     1      26.890  25.771  32.045  1.00  0.00     0.001 N 
ATOM     30  N   UNL     1      27.785  24.932  31.847  1.00  0.00    -0.003 NA
ENDBRANCH  27  28
ENDBRANCH  26  27
ENDBRANCH  25  26
ENDBRANCH  19  25
BRANCH  20  31
ATOM     31  O   UNL     1      22.807  28.249  26.512  1.00  0.00    -0.387 OA
ATOM     32  H   UNL     1      22.902  28.897  27.247  1.00  0.00     0.211 HD
ENDBRANCH  20  31
BRANCH  21  33
ATOM     33  O   UNL     1      20.691  27.059  28.943  1.00  0.00    -0.385 OA
ATOM     34  H   UNL     1      20.082  27.465  28.246  1.00  0.00     0.211 HD
ENDBRANCH  21  33
ENDBRANCH  15  16
ENDBRANCH  10  15
BRANCH  12  35
ATOM     35  O   UNL     1      20.413  24.816  22.945  1.00  0.00    -0.385 OA
ATOM     36  H   UNL     1      19.903  25.351  23.582  1.00  0.00     0.211 HD
ENDBRANCH  12  35
BRANCH  13  37
ATOM     37  O   UNL     1      22.100  24.595  20.591  1.00  0.00    -0.387 OA
ATOM     38  H   UNL     1      21.417  24.026  20.180  1.00  0.00     0.211 HD
ENDBRANCH  13  37
BRANCH  14  39
ATOM     39  O   UNL     1      24.576  24.562  20.877  1.00  0.00    -0.387 OA
ATOM     40  H   UNL     1      25.007  23.723  20.541  1.00  0.00     0.211 HD
ENDBRANCH  14  39
ENDBRANCH   8   9
ENDBRANCH   7   8
ENDBRANCH   1   7
BRANCH   1  41
ATOM     41  C   UNL     1      25.508  27.854  20.536  1.00  0.00     0.364 C 
ATOM     42  O   UNL     1      25.439  27.164  19.490  1.00  0.00    -0.246 OA
BRANCH  41  43
ATOM     43  O   UNL     1      26.675  28.557  20.766  1.00  0.00    -0.477 OA
ATOM     44  H   UNL     1      27.478  28.346  20.193  1.00  0.00     0.296 HD
ENDBRANCH  41  43
ENDBRANCH   1  41
BRANCH   3  45
ATOM     45  O   UNL     1      23.478  29.543  24.020  1.00  0.00    -0.391 OA
ATOM     46  H   UNL     1      23.962  30.356  24.298  1.00  0.00     0.211 HD
ENDBRANCH   3  45
BRANCH   5  47
ATOM     47  C   UNL     1      20.944  27.719  20.291  1.00  0.00     0.176 C 
BRANCH  47  48
ATOM     48  O   UNL     1      19.765  28.389  20.546  1.00  0.00    -0.388 OA
ATOM     49  H   UNL     1      19.706  29.260  20.080  1.00  0.00     0.211 HD
ENDBRANCH  47  48
BRANCH  47  50
ATOM     50  C   UNL     1      21.122  27.547  18.800  1.00  0.00     0.165 C 
BRANCH  50  51
ATOM     51  O   UNL     1      22.270  26.772  18.532  1.00  0.00    -0.388 OA
ATOM     52  H   UNL     1      22.447  26.750  17.548  1.00  0.00     0.211 HD
ENDBRANCH  50  51
BRANCH  50  53
ATOM     53  C   UNL     1      21.223  28.872  18.087  1.00  0.00     0.154 C 
BRANCH  53  54
ATOM     54  N   UNL     1      19.924  29.409  17.759  1.00  0.00    -0.319 N 
ATOM     55  C   UNL     1      19.329  29.096  16.509  1.00  0.00     0.407 C 
ATOM     56  H   UNL     1      19.396  30.025  18.407  1.00  0.00     0.167 HD
ATOM     57  O   UNL     1      19.960  28.348  15.707  1.00  0.00    -0.225 OA
BRANCH  55  58
ATOM     58  O   UNL     1      18.088  29.556  16.101  1.00  0.00    -0.443 OA
BRANCH  58  59
ATOM     59  C   UNL     1      16.910  28.802  16.260  1.00  0.00     0.294 C 
BRANCH  59  60
ATOM     60  C   UNL     1      16.705  28.523  17.706  1.00  0.00     0.121 A 
ATOM     61  C   UNL     1      15.734  29.111  18.526  1.00  0.00     0.144 A 
ATOM     62  N   UNL     1      17.367  27.689  18.525  1.00  0.00    -0.131 NA
ATOM     63  N   UNL     1      15.854  28.614  19.781  1.00  0.00    -0.220 N 
ATOM     64  N   UNL     1      16.837  27.765  19.755  1.00  0.00    -0.062 NA
BRANCH  63  65
ATOM     65  C   UNL     1      15.053  28.960  20.918  1.00  0.00     0.066 A 
ATOM     66  C   UNL     1      13.693  29.137  20.804  1.00  0.00     0.030 A 
ATOM     67  C   UNL     1      15.620  29.124  22.162  1.00  0.00     0.030 A 
ATOM     68  C   UNL     1      12.917  29.471  21.912  1.00  0.00     0.024 A 
ATOM     69  C   UNL     1      14.853  29.457  23.276  1.00  0.00     0.024 A 
ATOM     70  C   UNL     1      13.489  29.635  23.158  1.00  0.00     0.082 A 
BRANCH  70  71
ATOM     71  S   UNL     1      12.479  30.057  24.540  1.00  0.00     0.238 S 
ATOM     72  O   UNL     1      13.283  30.770  25.599  1.00  0.00    -0.207 OA
ATOM     73  O   UNL     1      11.379  30.984  24.120  1.00  0.00    -0.207 OA
BRANCH  71  74
ATOM     74  N   UNL     1      11.761  28.638  25.238  1.00  0.00    -0.225 NA
ATOM     75  H   UNL     1      12.303  27.802  24.877  1.00  0.00     0.137 HD
ATOM     76  H   UNL     1      10.747  28.547  24.995  1.00  0.00     0.137 HD
ENDBRANCH  71  74
ENDBRANCH  70  71
ENDBRANCH  63  65
ENDBRANCH  59  60
ENDBRANCH  58  59
ENDBRANCH  55  58
ENDBRANCH  53  54
ENDBRANCH  50  53
ENDBRANCH  47  50
ENDBRANCH   5  47
BRANCH   4  77
ATOM     77  N   UNL     1      20.601  29.402  22.467  1.00  0.00    -0.348 N 
ATOM     78  C   UNL     1      20.033  29.606  23.742  1.00  0.00     0.217 C 
ATOM     79  H   UNL     1      20.069  29.701  21.630  1.00  0.00     0.163 HD
ATOM     80  C   UNL     1      18.692  30.237  23.830  1.00  0.00     0.114 C 
ATOM     81  O   UNL     1      20.609  29.278  24.804  1.00  0.00    -0.275 OA
ENDBRANCH   4  77
TORSDOF 32
