REMARK VINA RESULT:    -6.957      1.958      2.875
REMARK INTER + INTRA:         -23.808
REMARK INTER:                 -16.875
REMARK INTRA:                  -6.933
REMARK UNBOUND:                -5.463
REMARK SMILES CC(=O)N[C@@H]1[C@@H](O)C[C@](OC[C@H]2O[C@@H](O[C@H]3[C@H](O)[C@@H](O)[C@H](OCCN=[N+]=[N-])O[C@@H]3CO)[C@H](O)[C@@H](O)[C@H]2O)(C(=O)O)O[C@H]1C(O)[C@H](O)CNC(=O)OCc1cn(COCc2ccccc2)nn1
REMARK SMILES IDX 43 1 42 2 9 3 8 4 41 5 6 6 5 7 10 8 11 9 12 10 14 11 13 12
REMARK SMILES IDX 32 13 34 14 36 15 15 16 16 17 29 18 28 19 21 20 17 21 19 22
REMARK SMILES IDX 30 23 31 24 22 26 23 27 24 28 25 29 26 30 27 31 18 32 20 34
REMARK SMILES IDX 33 36 35 38 37 40 38 42 39 43 40 44 7 46 4 48 2 49 1 51 3 52
REMARK SMILES IDX 44 53 45 55 46 56 47 58 48 59 49 60 50 62 51 63 52 64 53 65
REMARK SMILES IDX 54 66 66 67 55 68 65 69 56 70 57 71 58 72 59 73 60 74 64 75
REMARK SMILES IDX 61 76 63 77 62 78
REMARK H PARENT 31 25 18 33 20 35 33 37 35 39 37 41 40 45 7 47 4 50 44 54
REMARK H PARENT 46 57 48 61
REMARK Flexibility Score: inf
ROOT
ATOM      1  C   UNL     1      15.350  32.489  24.062  1.00  0.00     0.176 C 
ENDROOT
BRANCH   1   2
ATOM      2  C   UNL     1      13.935  32.129  23.557  1.00  0.00     0.178 C 
ATOM      3  C   UNL     1      12.935  30.325  22.487  1.00  0.00     0.272 C 
ATOM      4  C   UNL     1      12.143  31.295  21.616  1.00  0.00     0.113 C 
ATOM      5  O   UNL     1      14.092  30.968  22.799  1.00  0.00    -0.332 OA
ATOM      6  C   UNL     1      12.979  32.519  21.330  1.00  0.00     0.145 C 
ATOM      7  C   UNL     1      13.359  33.197  22.682  1.00  0.00     0.142 C 
BRANCH   3   8
ATOM      8  O   UNL     1      13.192  29.141  21.767  1.00  0.00    -0.338 OA
BRANCH   8   9
ATOM      9  C   UNL     1      14.467  28.882  21.440  1.00  0.00     0.199 C 
BRANCH   9  10
ATOM     10  C   UNL     1      14.611  28.729  19.944  1.00  0.00     0.179 C 
ATOM     11  C   UNL     1      14.420  29.698  17.905  1.00  0.00     0.282 C 
ATOM     12  O   UNL     1      14.301  29.940  19.293  1.00  0.00    -0.341 OA
ATOM     13  C   UNL     1      15.890  29.627  17.505  1.00  0.00     0.202 C 
ATOM     14  C   UNL     1      16.662  29.412  18.815  1.00  0.00     0.179 C 
ATOM     15  C   UNL     1      15.956  28.269  19.513  1.00  0.00     0.177 C 
BRANCH  11  16
ATOM     16  O   UNL     1      13.857  30.757  17.247  1.00  0.00    -0.341 OA
BRANCH  16  17
ATOM     17  C   UNL     1      12.780  30.413  16.442  1.00  0.00     0.184 C 
ATOM     18  C   UNL     1      13.147  29.536  15.299  1.00  0.00     0.178 C 
ATOM     19  O   UNL     1      13.834  30.254  14.367  1.00  0.00    -0.341 OA
ATOM     20  C   UNL     1      13.099  31.212  13.708  1.00  0.00     0.281 C 
ATOM     21  C   UNL     1      12.093  31.656  15.992  1.00  0.00     0.180 C 
ATOM     22  C   UNL     1      12.144  31.970  14.543  1.00  0.00     0.202 C 
BRANCH  18  23
ATOM     23  C   UNL     1      11.913  28.847  14.765  1.00  0.00     0.191 C 
BRANCH  23  24
ATOM     24  O   UNL     1      12.141  27.480  14.566  1.00  0.00    -0.394 OA
ATOM     25  H   UNL     1      12.655  27.352  13.729  1.00  0.00     0.210 HD
ENDBRANCH  23  24
ENDBRANCH  18  23
BRANCH  20  26
ATOM     26  O   UNL     1      12.396  30.556  12.692  1.00  0.00    -0.350 OA
BRANCH  26  27
ATOM     27  C   UNL     1      12.985  30.637  11.456  1.00  0.00     0.169 C 
BRANCH  27  28
ATOM     28  C   UNL     1      12.448  29.475  10.637  1.00  0.00     0.119 C 
BRANCH  28  29
ATOM     29  N   UNL     1      12.403  28.247  11.397  1.00  0.00    -0.092 NA
ATOM     30  N   UNL     1      11.352  27.583  11.453  1.00  0.00     0.001 N 
ATOM     31  N   UNL     1      10.237  27.283  11.922  1.00  0.00    -0.003 NA
ENDBRANCH  28  29
ENDBRANCH  27  28
ENDBRANCH  26  27
ENDBRANCH  20  26
BRANCH  21  32
ATOM     32  O   UNL     1      10.717  31.597  16.346  1.00  0.00    -0.387 OA
ATOM     33  H   UNL     1      10.590  31.359  17.277  1.00  0.00     0.211 HD
ENDBRANCH  21  32
BRANCH  22  34
ATOM     34  O   UNL     1      12.495  33.340  14.412  1.00  0.00    -0.385 OA
ATOM     35  H   UNL     1      13.039  33.554  15.213  1.00  0.00     0.211 HD
ENDBRANCH  22  34
ENDBRANCH  16  17
ENDBRANCH  11  16
BRANCH  13  36
ATOM     36  O   UNL     1      16.163  28.506  16.722  1.00  0.00    -0.385 OA
ATOM     37  H   UNL     1      15.343  27.952  16.706  1.00  0.00     0.211 HD
ENDBRANCH  13  36
BRANCH  14  38
ATOM     38  O   UNL     1      16.457  30.572  19.552  1.00  0.00    -0.387 OA
ATOM     39  H   UNL     1      15.573  30.610  19.995  1.00  0.00     0.211 HD
ENDBRANCH  14  38
BRANCH  15  40
ATOM     40  O   UNL     1      16.721  27.720  20.529  1.00  0.00    -0.387 OA
ATOM     41  H   UNL     1      16.356  26.867  20.880  1.00  0.00     0.211 HD
ENDBRANCH  15  40
ENDBRANCH   9  10
ENDBRANCH   8   9
ENDBRANCH   3   8
BRANCH   3  42
ATOM     42  C   UNL     1      12.206  29.903  23.682  1.00  0.00     0.364 C 
ATOM     43  O   UNL     1      11.016  30.178  23.991  1.00  0.00    -0.246 OA
BRANCH  42  44
ATOM     44  O   UNL     1      12.870  29.091  24.633  1.00  0.00    -0.477 OA
ATOM     45  H   UNL     1      13.122  29.463  25.547  1.00  0.00     0.296 HD
ENDBRANCH  42  44
ENDBRANCH   3  42
BRANCH   6  46
ATOM     46  O   UNL     1      14.127  32.338  20.643  1.00  0.00    -0.391 OA
ATOM     47  H   UNL     1      13.998  31.818  19.791  1.00  0.00     0.211 HD
ENDBRANCH   6  46
BRANCH   7  48
ATOM     48  N   UNL     1      12.103  33.711  23.172  1.00  0.00    -0.348 N 
ATOM     49  C   UNL     1      12.099  34.928  23.886  1.00  0.00     0.217 C 
ATOM     50  H   UNL     1      11.230  33.204  23.012  1.00  0.00     0.163 HD
ATOM     51  C   UNL     1      10.815  35.486  24.389  1.00  0.00     0.114 C 
ATOM     52  O   UNL     1      13.180  35.563  24.102  1.00  0.00    -0.275 OA
ENDBRANCH   7  48
ENDBRANCH   1   2
BRANCH   1  53
ATOM     53  O   UNL     1      16.051  32.992  22.900  1.00  0.00    -0.388 OA
ATOM     54  H   UNL     1      16.341  32.175  22.396  1.00  0.00     0.211 HD
ENDBRANCH   1  53
BRANCH   1  55
ATOM     55  C   UNL     1      16.155  31.337  24.551  1.00  0.00     0.165 C 
BRANCH  55  56
ATOM     56  O   UNL     1      15.481  30.249  25.027  1.00  0.00    -0.388 OA
ATOM     57  H   UNL     1      14.734  29.946  24.466  1.00  0.00     0.211 HD
ENDBRANCH  55  56
BRANCH  55  58
ATOM     58  C   UNL     1      17.425  31.577  25.272  1.00  0.00     0.154 C 
BRANCH  58  59
ATOM     59  N   UNL     1      18.653  31.248  24.605  1.00  0.00    -0.319 N 
ATOM     60  C   UNL     1      19.347  32.114  23.720  1.00  0.00     0.407 C 
ATOM     61  H   UNL     1      19.102  30.320  24.769  1.00  0.00     0.167 HD
ATOM     62  O   UNL     1      18.906  33.245  23.485  1.00  0.00    -0.225 OA
BRANCH  60  63
ATOM     63  O   UNL     1      20.539  31.772  23.072  1.00  0.00    -0.443 OA
BRANCH  63  64
ATOM     64  C   UNL     1      20.526  31.478  21.673  1.00  0.00     0.294 C 
BRANCH  64  65
ATOM     65  C   UNL     1      20.354  30.033  21.400  1.00  0.00     0.120 A 
ATOM     66  C   UNL     1      21.358  29.101  21.559  1.00  0.00     0.141 A 
ATOM     67  N   UNL     1      19.282  29.362  20.966  1.00  0.00    -0.132 NA
ATOM     68  N   UNL     1      20.856  27.890  21.212  1.00  0.00    -0.226 N 
ATOM     69  N   UNL     1      19.594  28.085  20.858  1.00  0.00    -0.065 NA
BRANCH  68  70
ATOM     70  C   UNL     1      21.524  26.608  21.217  1.00  0.00     0.307 C 
BRANCH  70  71
ATOM     71  O   UNL     1      20.881  25.693  22.006  1.00  0.00    -0.355 OA
BRANCH  71  72
ATOM     72  C   UNL     1      21.638  24.537  22.104  1.00  0.00     0.198 C 
BRANCH  72  73
ATOM     73  C   UNL     1      22.396  24.562  23.406  1.00  0.00    -0.022 A 
ATOM     74  C   UNL     1      23.774  24.539  23.350  1.00  0.00     0.006 A 
ATOM     75  C   UNL     1      21.731  24.604  24.604  1.00  0.00     0.006 A 
ATOM     76  C   UNL     1      24.503  24.559  24.520  1.00  0.00     0.000 A 
ATOM     77  C   UNL     1      22.473  24.622  25.749  1.00  0.00     0.000 A 
ATOM     78  C   UNL     1      23.859  24.602  25.738  1.00  0.00     0.000 A 
ENDBRANCH  72  73
ENDBRANCH  71  72
ENDBRANCH  70  71
ENDBRANCH  68  70
ENDBRANCH  64  65
ENDBRANCH  63  64
ENDBRANCH  60  63
ENDBRANCH  58  59
ENDBRANCH  55  58
ENDBRANCH   1  55
TORSDOF 33
