REMARK VINA RESULT:    -6.343      2.465      5.463
REMARK INTER + INTRA:         -22.392
REMARK INTER:                 -12.667
REMARK INTRA:                  -9.725
REMARK UNBOUND:                -6.778
REMARK SMILES CC(=O)N[C@@H]1[C@@H](O)C[C@](OC[C@H]2O[C@@H](O[C@H]3[C@H](O)[C@@H](O)[C@H](OCCN=[N+]=[N-])O[C@@H]3CO)[C@H](O)[C@@H](O)[C@H]2O)(C(=O)O)O[C@H]1C(O)[C@H](O)CNC(=O)OCc1cn(-c2ccc3c(c2)OCO3)nn1
REMARK SMILES IDX 9 1 8 2 6 3 5 4 42 5 41 6 10 7 11 8 12 9 14 10 13 11 32 12
REMARK SMILES IDX 34 13 36 14 15 15 16 16 29 17 28 18 21 19 17 20 19 21 30 22
REMARK SMILES IDX 31 23 22 25 23 26 24 27 25 28 26 29 27 30 18 31 20 33 33 35
REMARK SMILES IDX 35 37 37 39 38 41 39 42 40 43 7 45 43 47 44 48 45 50 46 51
REMARK SMILES IDX 47 53 48 54 49 55 50 57 51 58 52 59 53 60 54 61 66 62 55 63
REMARK SMILES IDX 65 64 56 65 57 66 61 67 58 68 60 69 59 70 62 71 64 72 63 73
REMARK SMILES IDX 4 74 2 75 1 77 3 78
REMARK H PARENT 31 24 18 32 20 34 33 36 35 38 37 40 40 44 7 46 44 49 46 52
REMARK H PARENT 48 56 4 76
REMARK Flexibility Score: inf
ROOT
ATOM      1  C   UNL     1      22.234  31.469  23.667  1.00  0.00     0.272 C 
ATOM      2  C   UNL     1      21.171  32.522  23.810  1.00  0.00     0.113 C 
ATOM      3  C   UNL     1      19.757  31.913  23.836  1.00  0.00     0.145 C 
ATOM      4  C   UNL     1      19.540  31.358  22.444  1.00  0.00     0.142 C 
ATOM      5  C   UNL     1      20.718  30.443  22.181  1.00  0.00     0.178 C 
ATOM      6  O   UNL     1      21.577  30.289  23.216  1.00  0.00    -0.332 OA
ENDROOT
BRANCH   1   7
ATOM      7  O   UNL     1      22.822  31.124  24.801  1.00  0.00    -0.338 OA
BRANCH   7   8
ATOM      8  C   UNL     1      23.973  31.393  25.338  1.00  0.00     0.199 C 
BRANCH   8   9
ATOM      9  C   UNL     1      24.862  30.323  25.912  1.00  0.00     0.179 C 
ATOM     10  C   UNL     1      24.651  28.358  27.143  1.00  0.00     0.282 C 
ATOM     11  O   UNL     1      24.119  29.568  26.782  1.00  0.00    -0.341 OA
ATOM     12  C   UNL     1      26.076  28.171  26.740  1.00  0.00     0.202 C 
ATOM     13  C   UNL     1      26.273  28.386  25.249  1.00  0.00     0.179 C 
ATOM     14  C   UNL     1      25.338  29.432  24.735  1.00  0.00     0.177 C 
BRANCH  10  15
ATOM     15  O   UNL     1      23.909  27.367  26.469  1.00  0.00    -0.341 OA
BRANCH  15  16
ATOM     16  C   UNL     1      23.117  26.623  27.305  1.00  0.00     0.184 C 
ATOM     17  C   UNL     1      22.973  25.229  26.752  1.00  0.00     0.178 C 
ATOM     18  O   UNL     1      21.958  25.095  25.835  1.00  0.00    -0.341 OA
ATOM     19  C   UNL     1      21.696  26.274  25.136  1.00  0.00     0.281 C 
ATOM     20  C   UNL     1      21.788  27.335  27.414  1.00  0.00     0.180 C 
ATOM     21  C   UNL     1      21.156  27.354  26.040  1.00  0.00     0.202 C 
BRANCH  17  22
ATOM     22  C   UNL     1      22.722  24.214  27.858  1.00  0.00     0.191 C 
BRANCH  22  23
ATOM     23  O   UNL     1      23.275  24.631  29.062  1.00  0.00    -0.394 OA
ATOM     24  H   UNL     1      22.573  24.871  29.743  1.00  0.00     0.210 HD
ENDBRANCH  22  23
ENDBRANCH  17  22
BRANCH  19  25
ATOM     25  O   UNL     1      20.709  25.954  24.214  1.00  0.00    -0.350 OA
BRANCH  25  26
ATOM     26  C   UNL     1      20.942  24.668  23.737  1.00  0.00     0.169 C 
BRANCH  26  27
ATOM     27  C   UNL     1      21.303  24.689  22.255  1.00  0.00     0.119 C 
BRANCH  27  28
ATOM     28  N   UNL     1      22.723  24.318  22.166  1.00  0.00    -0.092 NA
ATOM     29  N   UNL     1      23.588  25.201  22.351  1.00  0.00     0.001 N 
ATOM     30  N   UNL     1      24.281  26.221  22.515  1.00  0.00    -0.003 NA
ENDBRANCH  27  28
ENDBRANCH  26  27
ENDBRANCH  25  26
ENDBRANCH  19  25
BRANCH  20  31
ATOM     31  O   UNL     1      20.955  26.796  28.374  1.00  0.00    -0.387 OA
ATOM     32  H   UNL     1      20.007  27.116  28.312  1.00  0.00     0.211 HD
ENDBRANCH  20  31
BRANCH  21  33
ATOM     33  O   UNL     1      21.462  28.584  25.455  1.00  0.00    -0.385 OA
ATOM     34  H   UNL     1      20.897  28.787  24.667  1.00  0.00     0.211 HD
ENDBRANCH  21  33
ENDBRANCH  15  16
ENDBRANCH  10  15
BRANCH  12  35
ATOM     35  O   UNL     1      26.980  28.975  27.428  1.00  0.00    -0.385 OA
ATOM     36  H   UNL     1      27.847  28.467  27.505  1.00  0.00     0.211 HD
ENDBRANCH  12  35
BRANCH  13  37
ATOM     37  O   UNL     1      26.052  27.166  24.607  1.00  0.00    -0.387 OA
ATOM     38  H   UNL     1      25.515  27.237  23.796  1.00  0.00     0.211 HD
ENDBRANCH  13  37
BRANCH  14  39
ATOM     39  O   UNL     1      24.243  28.801  24.153  1.00  0.00    -0.387 OA
ATOM     40  H   UNL     1      23.449  29.356  24.098  1.00  0.00     0.211 HD
ENDBRANCH  14  39
ENDBRANCH   8   9
ENDBRANCH   7   8
ENDBRANCH   1   7
BRANCH   1  41
ATOM     41  C   UNL     1      23.197  31.826  22.575  1.00  0.00     0.364 C 
ATOM     42  O   UNL     1      23.164  33.045  22.185  1.00  0.00    -0.246 OA
BRANCH  41  43
ATOM     43  O   UNL     1      24.079  30.986  21.975  1.00  0.00    -0.477 OA
ATOM     44  H   UNL     1      24.147  30.001  22.173  1.00  0.00     0.296 HD
ENDBRANCH  41  43
ENDBRANCH   1  41
BRANCH   3  45
ATOM     45  O   UNL     1      19.815  30.886  24.787  1.00  0.00    -0.391 OA
ATOM     46  H   UNL     1      19.564  31.224  25.674  1.00  0.00     0.211 HD
ENDBRANCH   3  45
BRANCH   5  47
ATOM     47  C   UNL     1      20.086  29.052  21.966  1.00  0.00     0.176 C 
BRANCH  47  48
ATOM     48  O   UNL     1      18.783  29.112  21.563  1.00  0.00    -0.388 OA
ATOM     49  H   UNL     1      18.191  28.441  21.985  1.00  0.00     0.211 HD
ENDBRANCH  47  48
BRANCH  47  50
ATOM     50  C   UNL     1      20.898  28.230  20.973  1.00  0.00     0.165 C 
BRANCH  50  51
ATOM     51  O   UNL     1      22.171  28.014  21.383  1.00  0.00    -0.388 OA
ATOM     52  H   UNL     1      22.842  28.680  21.126  1.00  0.00     0.211 HD
ENDBRANCH  50  51
BRANCH  50  53
ATOM     53  C   UNL     1      20.843  28.970  19.674  1.00  0.00     0.154 C 
BRANCH  53  54
ATOM     54  N   UNL     1      19.652  28.691  18.933  1.00  0.00    -0.319 N 
ATOM     55  C   UNL     1      19.172  29.432  17.823  1.00  0.00     0.407 C 
ATOM     56  H   UNL     1      19.024  27.852  19.198  1.00  0.00     0.167 HD
ATOM     57  O   UNL     1      19.801  30.420  17.392  1.00  0.00    -0.225 OA
BRANCH  55  58
ATOM     58  O   UNL     1      17.983  29.085  17.176  1.00  0.00    -0.443 OA
BRANCH  58  59
ATOM     59  C   UNL     1      17.237  27.939  17.484  1.00  0.00     0.294 C 
BRANCH  59  60
ATOM     60  C   UNL     1      16.518  28.173  18.781  1.00  0.00     0.121 A 
ATOM     61  C   UNL     1      15.447  29.050  18.973  1.00  0.00     0.144 A 
ATOM     62  N   UNL     1      16.734  27.609  19.976  1.00  0.00    -0.131 NA
ATOM     63  N   UNL     1      15.063  28.983  20.266  1.00  0.00    -0.220 N 
ATOM     64  N   UNL     1      15.870  28.099  20.830  1.00  0.00    -0.062 NA
BRANCH  63  65
ATOM     65  C   UNL     1      14.024  29.686  20.902  1.00  0.00     0.070 A 
ATOM     66  C   UNL     1      13.591  30.885  20.410  1.00  0.00     0.032 A 
ATOM     67  C   UNL     1      13.425  29.174  22.027  1.00  0.00     0.079 A 
ATOM     68  C   UNL     1      12.552  31.573  21.053  1.00  0.00     0.053 A 
ATOM     69  C   UNL     1      12.402  29.836  22.672  1.00  0.00     0.167 A 
ATOM     70  C   UNL     1      11.971  31.039  22.176  1.00  0.00     0.165 A 
ATOM     71  O   UNL     1      11.669  29.516  23.794  1.00  0.00    -0.454 OA
ATOM     72  O   UNL     1      10.945  31.495  22.994  1.00  0.00    -0.454 OA
ATOM     73  C   UNL     1      10.955  30.706  24.152  1.00  0.00     0.468 C 
ENDBRANCH  63  65
ENDBRANCH  59  60
ENDBRANCH  58  59
ENDBRANCH  55  58
ENDBRANCH  53  54
ENDBRANCH  50  53
ENDBRANCH  47  50
ENDBRANCH   5  47
BRANCH   4  74
ATOM     74  N   UNL     1      19.415  32.440  21.516  1.00  0.00    -0.348 N 
ATOM     75  C   UNL     1      18.562  32.347  20.356  1.00  0.00     0.217 C 
ATOM     76  H   UNL     1      19.912  33.352  21.594  1.00  0.00     0.163 HD
ATOM     77  C   UNL     1      18.441  33.479  19.399  1.00  0.00     0.114 C 
ATOM     78  O   UNL     1      17.924  31.307  20.159  1.00  0.00    -0.275 OA
ENDBRANCH   4  74
TORSDOF 30
