REMARK VINA RESULT:    -5.816      8.157     13.720
REMARK INTER + INTRA:         -21.781
REMARK INTER:                 -15.919
REMARK INTRA:                  -5.862
REMARK UNBOUND:                -6.784
REMARK SMILES COc1ccc(Cn2cc(COC(=O)NC[C@@H](O)C(O)[C@@H]3O[C@@](OC[C@H]4O[C@@H](O[C@H]5[C@H](O)[C@@H](O)[C@H](OCCN=[N+]=[N-])O[C@@H]5CO)[C@H](O)[C@@H](O)[C@H]4O)(C(=O)O)C[C@H](O)[C@H]3NC(C)=O)nn2)cc1
REMARK SMILES IDX 23 1 55 2 56 3 58 4 21 5 22 6 24 7 25 8 26 9 28 10 27 11
REMARK SMILES IDX 46 12 48 13 50 14 29 15 30 16 43 17 42 18 35 19 31 20 33 21
REMARK SMILES IDX 44 22 45 23 36 25 37 26 38 27 39 28 40 29 41 30 32 31 34 33
REMARK SMILES IDX 47 35 49 37 51 39 52 41 53 42 54 43 57 45 19 47 20 48 17 50
REMARK SMILES IDX 18 51 16 53 15 54 13 55 14 57 12 58 11 59 10 60 9 61 63 62
REMARK SMILES IDX 8 63 64 64 7 65 6 66 5 67 65 68 4 69 66 70 3 71 2 72 1 73
REMARK SMILES IDX 59 74 60 75 61 77 62 78
REMARK H PARENT 45 24 32 32 34 34 47 36 49 38 51 40 54 44 57 46 20 49 18 52
REMARK H PARENT 15 56 59 76
REMARK Flexibility Score: inf
ROOT
ATOM      1  C   UNL     1      12.888  30.101  23.444  1.00  0.00     0.272 C 
ATOM      2  C   UNL     1      12.787  31.611  23.503  1.00  0.00     0.113 C 
ATOM      3  C   UNL     1      12.926  32.080  24.937  1.00  0.00     0.145 C 
ATOM      4  C   UNL     1      14.063  31.434  25.674  1.00  0.00     0.142 C 
ATOM      5  C   UNL     1      14.781  30.370  24.862  1.00  0.00     0.178 C 
ATOM      6  O   UNL     1      13.899  29.583  24.146  1.00  0.00    -0.332 OA
ENDROOT
BRANCH   1   7
ATOM      7  O   UNL     1      12.657  29.622  22.200  1.00  0.00    -0.338 OA
BRANCH   7   8
ATOM      8  C   UNL     1      13.444  28.731  21.588  1.00  0.00     0.199 C 
BRANCH   8   9
ATOM      9  C   UNL     1      14.586  29.368  20.825  1.00  0.00     0.179 C 
ATOM     10  C   UNL     1      16.192  28.749  19.334  1.00  0.00     0.282 C 
ATOM     11  O   UNL     1      14.813  28.643  19.621  1.00  0.00    -0.341 OA
ATOM     12  C   UNL     1      16.705  30.120  19.580  1.00  0.00     0.202 C 
ATOM     13  C   UNL     1      15.692  31.203  19.738  1.00  0.00     0.179 C 
ATOM     14  C   UNL     1      14.408  30.783  20.424  1.00  0.00     0.177 C 
BRANCH  10  15
ATOM     15  O   UNL     1      16.517  28.153  18.149  1.00  0.00    -0.341 OA
BRANCH  15  16
ATOM     16  C   UNL     1      16.852  28.987  17.103  1.00  0.00     0.184 C 
ATOM     17  C   UNL     1      15.910  28.944  15.925  1.00  0.00     0.178 C 
ATOM     18  O   UNL     1      16.582  29.247  14.741  1.00  0.00    -0.341 OA
ATOM     19  C   UNL     1      17.638  30.155  14.930  1.00  0.00     0.281 C 
ATOM     20  C   UNL     1      18.155  28.400  16.527  1.00  0.00     0.180 C 
ATOM     21  C   UNL     1      18.788  29.497  15.716  1.00  0.00     0.202 C 
BRANCH  17  22
ATOM     22  C   UNL     1      14.742  29.874  16.015  1.00  0.00     0.191 C 
BRANCH  22  23
ATOM     23  O   UNL     1      13.948  29.515  17.103  1.00  0.00    -0.394 OA
ATOM     24  H   UNL     1      14.431  28.790  17.592  1.00  0.00     0.210 HD
ENDBRANCH  22  23
ENDBRANCH  17  22
BRANCH  19  25
ATOM     25  O   UNL     1      17.275  31.335  15.495  1.00  0.00    -0.350 OA
BRANCH  25  26
ATOM     26  C   UNL     1      17.237  32.460  14.731  1.00  0.00     0.169 C 
BRANCH  26  27
ATOM     27  C   UNL     1      17.967  32.450  13.441  1.00  0.00     0.119 C 
BRANCH  27  28
ATOM     28  N   UNL     1      19.295  32.955  13.505  1.00  0.00    -0.092 NA
ATOM     29  N   UNL     1      20.232  32.396  14.093  1.00  0.00     0.001 N 
ATOM     30  N   UNL     1      21.297  31.758  14.257  1.00  0.00    -0.003 NA
ENDBRANCH  27  28
ENDBRANCH  26  27
ENDBRANCH  25  26
ENDBRANCH  19  25
BRANCH  20  31
ATOM     31  O   UNL     1      18.958  27.864  17.494  1.00  0.00    -0.387 OA
ATOM     32  H   UNL     1      18.464  27.724  18.364  1.00  0.00     0.211 HD
ENDBRANCH  20  31
BRANCH  21  33
ATOM     33  O   UNL     1      19.771  29.000  14.861  1.00  0.00    -0.385 OA
ATOM     34  H   UNL     1      20.578  28.774  15.395  1.00  0.00     0.211 HD
ENDBRANCH  21  33
ENDBRANCH  15  16
ENDBRANCH  10  15
BRANCH  12  35
ATOM     35  O   UNL     1      17.626  30.156  20.658  1.00  0.00    -0.385 OA
ATOM     36  H   UNL     1      17.877  29.214  20.907  1.00  0.00     0.211 HD
ENDBRANCH  12  35
BRANCH  13  37
ATOM     37  O   UNL     1      15.420  31.848  18.508  1.00  0.00    -0.387 OA
ATOM     38  H   UNL     1      14.593  31.450  18.134  1.00  0.00     0.211 HD
ENDBRANCH  13  37
BRANCH  14  39
ATOM     39  O   UNL     1      13.299  30.990  19.609  1.00  0.00    -0.387 OA
ATOM     40  H   UNL     1      13.505  31.568  18.835  1.00  0.00     0.211 HD
ENDBRANCH  14  39
ENDBRANCH   8   9
ENDBRANCH   7   8
ENDBRANCH   1   7
BRANCH   1  41
ATOM     41  C   UNL     1      11.545  29.674  24.124  1.00  0.00     0.364 C 
ATOM     42  O   UNL     1      10.504  30.326  23.897  1.00  0.00    -0.246 OA
BRANCH  41  43
ATOM     43  O   UNL     1      11.448  28.615  24.960  1.00  0.00    -0.477 OA
ATOM     44  H   UNL     1      12.132  28.223  25.558  1.00  0.00     0.296 HD
ENDBRANCH  41  43
ENDBRANCH   1  41
BRANCH   3  45
ATOM     45  O   UNL     1      13.170  33.479  24.809  1.00  0.00    -0.391 OA
ATOM     46  H   UNL     1      12.594  33.984  25.438  1.00  0.00     0.211 HD
ENDBRANCH   3  45
BRANCH   5  47
ATOM     47  C   UNL     1      15.880  31.033  24.127  1.00  0.00     0.176 C 
BRANCH  47  48
ATOM     48  O   UNL     1      16.717  30.129  23.410  1.00  0.00    -0.388 OA
ATOM     49  H   UNL     1      17.390  30.664  22.938  1.00  0.00     0.211 HD
ENDBRANCH  47  48
BRANCH  47  50
ATOM     50  C   UNL     1      16.978  31.633  25.054  1.00  0.00     0.165 C 
BRANCH  50  51
ATOM     51  O   UNL     1      16.700  32.776  25.688  1.00  0.00    -0.388 OA
ATOM     52  H   UNL     1      15.757  32.802  25.989  1.00  0.00     0.211 HD
ENDBRANCH  50  51
BRANCH  50  53
ATOM     53  C   UNL     1      18.248  31.768  24.184  1.00  0.00     0.154 C 
BRANCH  53  54
ATOM     54  N   UNL     1      19.446  31.492  24.907  1.00  0.00    -0.319 N 
ATOM     55  C   UNL     1      20.022  30.181  24.846  1.00  0.00     0.407 C 
ATOM     56  H   UNL     1      19.908  32.210  25.474  1.00  0.00     0.167 HD
ATOM     57  O   UNL     1      19.456  29.294  24.149  1.00  0.00    -0.225 OA
BRANCH  55  58
ATOM     58  O   UNL     1      21.183  29.942  25.558  1.00  0.00    -0.443 OA
BRANCH  58  59
ATOM     59  C   UNL     1      21.096  29.423  26.899  1.00  0.00     0.294 C 
BRANCH  59  60
ATOM     60  C   UNL     1      21.830  28.141  26.942  1.00  0.00     0.120 A 
ATOM     61  C   UNL     1      21.481  26.950  26.297  1.00  0.00     0.138 A 
ATOM     62  N   UNL     1      22.956  27.868  27.611  1.00  0.00    -0.132 NA
ATOM     63  N   UNL     1      22.410  26.040  26.616  1.00  0.00    -0.248 N 
ATOM     64  N   UNL     1      23.299  26.611  27.414  1.00  0.00    -0.067 NA
BRANCH  63  65
ATOM     65  C   UNL     1      22.440  24.670  26.170  1.00  0.00     0.181 C 
BRANCH  65  66
ATOM     66  C   UNL     1      22.390  24.641  24.692  1.00  0.00    -0.026 A 
ATOM     67  C   UNL     1      21.158  24.632  24.045  1.00  0.00     0.009 A 
ATOM     68  C   UNL     1      23.515  24.638  23.910  1.00  0.00     0.009 A 
ATOM     69  C   UNL     1      21.053  24.622  22.670  1.00  0.00     0.047 A 
ATOM     70  C   UNL     1      23.407  24.627  22.515  1.00  0.00     0.047 A 
ATOM     71  C   UNL     1      22.195  24.620  21.881  1.00  0.00     0.118 A 
BRANCH  71  72
ATOM     72  O   UNL     1      22.037  24.610  20.508  1.00  0.00    -0.497 OA
ATOM     73  C   UNL     1      23.080  24.695  19.582  1.00  0.00     0.278 C 
ENDBRANCH  71  72
ENDBRANCH  65  66
ENDBRANCH  63  65
ENDBRANCH  59  60
ENDBRANCH  58  59
ENDBRANCH  55  58
ENDBRANCH  53  54
ENDBRANCH  50  53
ENDBRANCH  47  50
ENDBRANCH   5  47
BRANCH   4  74
ATOM     74  N   UNL     1      13.748  30.977  27.010  1.00  0.00    -0.348 N 
ATOM     75  C   UNL     1      14.134  31.645  28.205  1.00  0.00     0.217 C 
ATOM     76  H   UNL     1      13.219  30.100  27.124  1.00  0.00     0.163 HD
ATOM     77  C   UNL     1      13.753  31.070  29.551  1.00  0.00     0.114 C 
ATOM     78  O   UNL     1      14.792  32.710  28.139  1.00  0.00    -0.275 OA
ENDBRANCH   4  74
TORSDOF 32
