REMARK VINA RESULT:    -6.881      8.771     14.345
REMARK INTER + INTRA:         -22.692
REMARK INTER:                 -15.503
REMARK INTRA:                  -7.189
REMARK UNBOUND:                -5.351
REMARK SMILES CC(=O)N[C@@H]1[C@@H](O)C[C@](OC[C@H]2O[C@@H](O[C@H]3[C@H](O)[C@@H](O)[C@H](OCCN=[N+]=[N-])O[C@@H]3CO)[C@H](O)[C@@H](O)[C@H]2O)(C(=O)O)O[C@H]1C(O)[C@H](O)CNC(=O)OCc1cn(-c2ccc([N+](=O)[O-])cc2)nn1
REMARK SMILES IDX 9 1 8 2 6 3 5 4 42 5 41 6 10 7 11 8 12 9 14 10 13 11 32 12
REMARK SMILES IDX 34 13 36 14 15 15 16 16 29 17 28 18 21 19 17 20 19 21 30 22
REMARK SMILES IDX 31 23 22 25 23 26 24 27 25 28 26 29 27 30 18 31 20 33 33 35
REMARK SMILES IDX 35 37 37 39 38 41 39 42 40 43 7 45 43 47 44 48 45 50 46 51
REMARK SMILES IDX 47 53 48 54 49 55 50 57 51 58 52 59 53 60 54 61 66 62 55 63
REMARK SMILES IDX 65 64 56 65 57 66 64 67 58 68 63 69 59 70 60 71 61 72 62 73
REMARK SMILES IDX 4 74 2 75 1 77 3 78
REMARK H PARENT 31 24 18 32 20 34 33 36 35 38 37 40 40 44 7 46 44 49 46 52
REMARK H PARENT 48 56 4 76
REMARK Flexibility Score: inf
ROOT
ATOM      1  C   UNL     1      22.673  25.557  22.335  1.00  0.00     0.272 C 
ATOM      2  C   UNL     1      23.106  24.136  22.180  1.00  0.00     0.113 C 
ATOM      3  C   UNL     1      24.555  24.068  21.949  1.00  0.00     0.145 C 
ATOM      4  C   UNL     1      25.241  25.400  21.599  1.00  0.00     0.142 C 
ATOM      5  C   UNL     1      24.334  26.202  20.789  1.00  0.00     0.178 C 
ATOM      6  O   UNL     1      22.997  26.236  21.173  1.00  0.00    -0.332 OA
ENDROOT
BRANCH   1   7
ATOM      7  O   UNL     1      23.080  26.179  23.473  1.00  0.00    -0.338 OA
BRANCH   7   8
ATOM      8  C   UNL     1      23.051  25.451  24.618  1.00  0.00     0.199 C 
BRANCH   8   9
ATOM      9  C   UNL     1      24.023  25.993  25.659  1.00  0.00     0.179 C 
ATOM     10  C   UNL     1      22.850  27.403  27.111  1.00  0.00     0.282 C 
ATOM     11  O   UNL     1      23.719  27.262  26.075  1.00  0.00    -0.341 OA
ATOM     12  C   UNL     1      22.328  26.190  27.768  1.00  0.00     0.202 C 
ATOM     13  C   UNL     1      23.390  25.131  27.899  1.00  0.00     0.179 C 
ATOM     14  C   UNL     1      24.346  25.051  26.763  1.00  0.00     0.177 C 
BRANCH  10  15
ATOM     15  O   UNL     1      21.868  28.305  26.714  1.00  0.00    -0.341 OA
BRANCH  15  16
ATOM     16  C   UNL     1      22.020  28.895  25.504  1.00  0.00     0.184 C 
ATOM     17  C   UNL     1      22.132  30.402  25.556  1.00  0.00     0.178 C 
ATOM     18  O   UNL     1      22.223  30.883  24.234  1.00  0.00    -0.341 OA
ATOM     19  C   UNL     1      20.973  30.773  23.625  1.00  0.00     0.281 C 
ATOM     20  C   UNL     1      20.708  28.643  24.735  1.00  0.00     0.180 C 
ATOM     21  C   UNL     1      20.807  29.271  23.359  1.00  0.00     0.202 C 
BRANCH  17  22
ATOM     22  C   UNL     1      23.361  30.908  26.266  1.00  0.00     0.191 C 
BRANCH  22  23
ATOM     23  O   UNL     1      23.023  30.897  27.642  1.00  0.00    -0.394 OA
ATOM     24  H   UNL     1      22.319  31.571  27.832  1.00  0.00     0.210 HD
ENDBRANCH  22  23
ENDBRANCH  17  22
BRANCH  19  25
ATOM     25  O   UNL     1      20.966  31.428  22.422  1.00  0.00    -0.350 OA
BRANCH  25  26
ATOM     26  C   UNL     1      20.016  32.407  22.274  1.00  0.00     0.169 C 
BRANCH  26  27
ATOM     27  C   UNL     1      18.887  32.354  23.265  1.00  0.00     0.119 C 
BRANCH  27  28
ATOM     28  N   UNL     1      17.762  31.653  22.641  1.00  0.00    -0.092 NA
ATOM     29  N   UNL     1      17.361  30.606  23.128  1.00  0.00     0.001 N 
ATOM     30  N   UNL     1      16.839  29.704  23.762  1.00  0.00    -0.003 NA
ENDBRANCH  27  28
ENDBRANCH  26  27
ENDBRANCH  25  26
ENDBRANCH  19  25
BRANCH  20  31
ATOM     31  O   UNL     1      20.375  27.318  24.703  1.00  0.00    -0.387 OA
ATOM     32  H   UNL     1      21.007  26.712  25.136  1.00  0.00     0.211 HD
ENDBRANCH  20  31
BRANCH  21  33
ATOM     33  O   UNL     1      19.680  28.992  22.635  1.00  0.00    -0.385 OA
ATOM     34  H   UNL     1      19.937  28.786  21.704  1.00  0.00     0.211 HD
ENDBRANCH  21  33
ENDBRANCH  15  16
ENDBRANCH  10  15
BRANCH  12  35
ATOM     35  O   UNL     1      21.982  26.507  29.096  1.00  0.00    -0.385 OA
ATOM     36  H   UNL     1      21.768  25.710  29.617  1.00  0.00     0.211 HD
ENDBRANCH  12  35
BRANCH  13  37
ATOM     37  O   UNL     1      22.761  23.885  28.139  1.00  0.00    -0.387 OA
ATOM     38  H   UNL     1      22.740  23.404  27.295  1.00  0.00     0.211 HD
ENDBRANCH  13  37
BRANCH  14  39
ATOM     39  O   UNL     1      24.542  23.775  26.253  1.00  0.00    -0.387 OA
ATOM     40  H   UNL     1      24.816  23.196  27.015  1.00  0.00     0.211 HD
ENDBRANCH  14  39
ENDBRANCH   8   9
ENDBRANCH   7   8
ENDBRANCH   1   7
BRANCH   1  41
ATOM     41  C   UNL     1      21.159  25.577  22.302  1.00  0.00     0.364 C 
ATOM     42  O   UNL     1      20.557  26.456  21.656  1.00  0.00    -0.246 OA
BRANCH  41  43
ATOM     43  O   UNL     1      20.456  24.629  22.992  1.00  0.00    -0.477 OA
ATOM     44  H   UNL     1      19.924  24.799  23.841  1.00  0.00     0.296 HD
ENDBRANCH  41  43
ENDBRANCH   1  41
BRANCH   3  45
ATOM     45  O   UNL     1      25.222  23.577  23.069  1.00  0.00    -0.391 OA
ATOM     46  H   UNL     1      26.189  23.578  22.932  1.00  0.00     0.211 HD
ENDBRANCH   3  45
BRANCH   5  47
ATOM     47  C   UNL     1      24.628  27.583  20.399  1.00  0.00     0.176 C 
BRANCH  47  48
ATOM     48  O   UNL     1      24.456  27.898  19.048  1.00  0.00    -0.388 OA
ATOM     49  H   UNL     1      25.126  28.498  18.677  1.00  0.00     0.211 HD
ENDBRANCH  47  48
BRANCH  47  50
ATOM     50  C   UNL     1      24.052  28.734  21.159  1.00  0.00     0.165 C 
BRANCH  50  51
ATOM     51  O   UNL     1      23.715  28.504  22.457  1.00  0.00    -0.388 OA
ATOM     52  H   UNL     1      24.275  29.015  23.098  1.00  0.00     0.211 HD
ENDBRANCH  50  51
BRANCH  50  53
ATOM     53  C   UNL     1      23.109  29.574  20.340  1.00  0.00     0.154 C 
BRANCH  53  54
ATOM     54  N   UNL     1      21.759  29.081  20.271  1.00  0.00    -0.319 N 
ATOM     55  C   UNL     1      21.122  28.651  19.083  1.00  0.00     0.407 C 
ATOM     56  H   UNL     1      21.170  29.021  21.145  1.00  0.00     0.167 HD
ATOM     57  O   UNL     1      21.731  28.693  18.010  1.00  0.00    -0.225 OA
BRANCH  55  58
ATOM     58  O   UNL     1      19.809  28.175  19.084  1.00  0.00    -0.443 OA
BRANCH  58  59
ATOM     59  C   UNL     1      18.727  28.844  18.491  1.00  0.00     0.294 C 
BRANCH  59  60
ATOM     60  C   UNL     1      17.524  28.742  19.342  1.00  0.00     0.121 A 
ATOM     61  C   UNL     1      16.582  29.728  19.630  1.00  0.00     0.144 A 
ATOM     62  N   UNL     1      17.071  27.644  20.017  1.00  0.00    -0.131 NA
ATOM     63  N   UNL     1      15.630  29.220  20.434  1.00  0.00    -0.220 N 
ATOM     64  N   UNL     1      15.955  27.964  20.647  1.00  0.00    -0.062 NA
BRANCH  63  65
ATOM     65  C   UNL     1      14.478  29.897  20.949  1.00  0.00     0.067 A 
ATOM     66  C   UNL     1      14.111  31.169  20.579  1.00  0.00     0.035 A 
ATOM     67  C   UNL     1      13.679  29.257  21.886  1.00  0.00     0.035 A 
ATOM     68  C   UNL     1      12.985  31.786  21.120  1.00  0.00     0.088 A 
ATOM     69  C   UNL     1      12.564  29.866  22.423  1.00  0.00     0.088 A 
ATOM     70  C   UNL     1      12.193  31.141  22.053  1.00  0.00     0.269 A 
BRANCH  70  71
ATOM     71  N   UNL     1      11.048  31.783  22.601  1.00  0.00     0.062 N 
ATOM     72  O   UNL     1      10.345  32.599  21.985  1.00  0.00    -0.258 OA
ATOM     73  O   UNL     1      10.702  31.479  23.894  1.00  0.00    -0.258 OA
ENDBRANCH  70  71
ENDBRANCH  63  65
ENDBRANCH  59  60
ENDBRANCH  58  59
ENDBRANCH  55  58
ENDBRANCH  53  54
ENDBRANCH  50  53
ENDBRANCH  47  50
ENDBRANCH   5  47
BRANCH   4  74
ATOM     74  N   UNL     1      26.353  24.917  20.764  1.00  0.00    -0.348 N 
ATOM     75  C   UNL     1      26.159  24.383  19.478  1.00  0.00     0.217 C 
ATOM     76  H   UNL     1      27.308  24.993  21.155  1.00  0.00     0.163 HD
ATOM     77  C   UNL     1      27.357  23.918  18.716  1.00  0.00     0.114 C 
ATOM     78  O   UNL     1      25.038  24.285  18.957  1.00  0.00    -0.275 OA
ENDBRANCH   4  74
TORSDOF 31
