REMARK VINA RESULT:    -5.989      2.215      3.812
REMARK INTER + INTRA:         -22.588
REMARK INTER:                 -15.014
REMARK INTRA:                  -7.574
REMARK UNBOUND:                -7.496
REMARK SMILES CC(=O)N[C@@H]1[C@@H](O)C[C@](OC[C@H]2O[C@@H](O[C@H]3[C@H](O)[C@@H](O)[C@H](OCCN=[N+]=[N-])O[C@@H]3CO)[C@H](O)[C@@H](O)[C@H]2O)(C(=O)O)O[C@H]1C(O)[C@H](O)CNC(=O)OCc1cn(-c2ccccc2C(N)=O)nn1
REMARK SMILES IDX 9 1 8 2 6 3 5 4 42 5 41 6 10 7 11 8 12 9 14 10 13 11 32 12
REMARK SMILES IDX 34 13 36 14 15 15 16 16 29 17 28 18 21 19 17 20 19 21 30 22
REMARK SMILES IDX 31 23 22 25 23 26 24 27 25 28 26 29 27 30 18 31 20 33 33 35
REMARK SMILES IDX 35 37 37 39 38 41 39 42 40 43 7 45 43 47 44 48 45 50 46 51
REMARK SMILES IDX 47 53 48 54 49 55 50 57 51 58 52 59 53 60 54 61 66 62 55 63
REMARK SMILES IDX 65 64 56 65 61 66 57 67 60 68 58 69 59 70 62 71 64 72 63 73
REMARK SMILES IDX 4 76 2 77 1 79 3 80
REMARK H PARENT 31 24 18 32 20 34 33 36 35 38 37 40 40 44 7 46 44 49 46 52
REMARK H PARENT 48 56 63 74 63 75 4 78
REMARK Flexibility Score: inf
ROOT
ATOM      1  C   UNL     1      16.582  32.323  25.032  1.00  0.00     0.272 C 
ATOM      2  C   UNL     1      17.174  33.512  24.223  1.00  0.00     0.113 C 
ATOM      3  C   UNL     1      17.051  33.108  22.781  1.00  0.00     0.145 C 
ATOM      4  C   UNL     1      18.020  32.035  22.480  1.00  0.00     0.142 C 
ATOM      5  C   UNL     1      18.149  31.193  23.762  1.00  0.00     0.178 C 
ATOM      6  O   UNL     1      16.937  31.131  24.422  1.00  0.00    -0.332 OA
ENDROOT
BRANCH   1   7
ATOM      7  O   UNL     1      15.216  32.519  24.947  1.00  0.00    -0.338 OA
BRANCH   7   8
ATOM      8  C   UNL     1      14.461  31.601  25.613  1.00  0.00     0.199 C 
BRANCH   8   9
ATOM      9  C   UNL     1      13.192  31.229  24.866  1.00  0.00     0.179 C 
ATOM     10  C   UNL     1      12.460  31.026  22.663  1.00  0.00     0.282 C 
ATOM     11  O   UNL     1      13.532  31.243  23.515  1.00  0.00    -0.341 OA
ATOM     12  C   UNL     1      11.181  30.663  23.319  1.00  0.00     0.202 C 
ATOM     13  C   UNL     1      11.293  29.774  24.522  1.00  0.00     0.179 C 
ATOM     14  C   UNL     1      12.671  29.868  25.191  1.00  0.00     0.177 C 
BRANCH  10  15
ATOM     15  O   UNL     1      12.843  30.035  21.777  1.00  0.00    -0.341 OA
BRANCH  15  16
ATOM     16  C   UNL     1      14.033  30.309  21.126  1.00  0.00     0.184 C 
ATOM     17  C   UNL     1      13.745  30.416  19.644  1.00  0.00     0.178 C 
ATOM     18  O   UNL     1      13.993  29.268  18.974  1.00  0.00    -0.341 OA
ATOM     19  C   UNL     1      15.289  28.897  18.956  1.00  0.00     0.281 C 
ATOM     20  C   UNL     1      14.946  29.114  21.379  1.00  0.00     0.180 C 
ATOM     21  C   UNL     1      15.935  28.934  20.283  1.00  0.00     0.202 C 
BRANCH  17  22
ATOM     22  C   UNL     1      14.521  31.560  19.052  1.00  0.00     0.191 C 
BRANCH  22  23
ATOM     23  O   UNL     1      14.871  32.504  20.023  1.00  0.00    -0.394 OA
ATOM     24  H   UNL     1      15.867  32.429  20.128  1.00  0.00     0.210 HD
ENDBRANCH  22  23
ENDBRANCH  17  22
BRANCH  19  25
ATOM     25  O   UNL     1      16.047  29.527  17.958  1.00  0.00    -0.350 OA
BRANCH  25  26
ATOM     26  C   UNL     1      16.737  28.659  17.151  1.00  0.00     0.169 C 
BRANCH  26  27
ATOM     27  C   UNL     1      18.082  29.214  16.823  1.00  0.00     0.119 C 
BRANCH  27  28
ATOM     28  N   UNL     1      19.105  28.334  17.330  1.00  0.00    -0.092 NA
ATOM     29  N   UNL     1      19.443  28.321  18.521  1.00  0.00     0.001 N 
ATOM     30  N   UNL     1      19.469  28.343  19.754  1.00  0.00    -0.003 NA
ENDBRANCH  27  28
ENDBRANCH  26  27
ENDBRANCH  25  26
ENDBRANCH  19  25
BRANCH  20  31
ATOM     31  O   UNL     1      15.624  29.279  22.583  1.00  0.00    -0.387 OA
ATOM     32  H   UNL     1      15.731  28.391  23.049  1.00  0.00     0.211 HD
ENDBRANCH  20  31
BRANCH  21  33
ATOM     33  O   UNL     1      16.592  27.698  20.504  1.00  0.00    -0.385 OA
ATOM     34  H   UNL     1      17.364  27.644  19.869  1.00  0.00     0.211 HD
ENDBRANCH  21  33
ENDBRANCH  15  16
ENDBRANCH  10  15
BRANCH  12  35
ATOM     35  O   UNL     1      10.377  31.791  23.589  1.00  0.00    -0.385 OA
ATOM     36  H   UNL     1      10.973  32.476  23.963  1.00  0.00     0.211 HD
ENDBRANCH  12  35
BRANCH  13  37
ATOM     37  O   UNL     1      11.110  28.437  24.167  1.00  0.00    -0.387 OA
ATOM     38  H   UNL     1      11.987  27.948  24.107  1.00  0.00     0.211 HD
ENDBRANCH  13  37
BRANCH  14  39
ATOM     39  O   UNL     1      13.522  28.920  24.595  1.00  0.00    -0.387 OA
ATOM     40  H   UNL     1      13.309  28.001  24.820  1.00  0.00     0.211 HD
ENDBRANCH  14  39
ENDBRANCH   8   9
ENDBRANCH   7   8
ENDBRANCH   1   7
BRANCH   1  41
ATOM     41  C   UNL     1      17.104  32.362  26.400  1.00  0.00     0.364 C 
ATOM     42  O   UNL     1      17.184  33.470  27.034  1.00  0.00    -0.246 OA
BRANCH  41  43
ATOM     43  O   UNL     1      17.520  31.185  27.029  1.00  0.00    -0.477 OA
ATOM     44  H   UNL     1      18.111  30.567  26.479  1.00  0.00     0.296 HD
ENDBRANCH  41  43
ENDBRANCH   1  41
BRANCH   3  45
ATOM     45  O   UNL     1      15.761  32.534  22.647  1.00  0.00    -0.391 OA
ATOM     46  H   UNL     1      15.863  31.565  22.459  1.00  0.00     0.211 HD
ENDBRANCH   3  45
BRANCH   5  47
ATOM     47  C   UNL     1      18.772  29.862  23.451  1.00  0.00     0.176 C 
BRANCH  47  48
ATOM     48  O   UNL     1      18.577  29.642  22.073  1.00  0.00    -0.388 OA
ATOM     49  H   UNL     1      17.854  30.239  21.737  1.00  0.00     0.211 HD
ENDBRANCH  47  48
BRANCH  47  50
ATOM     50  C   UNL     1      20.293  29.909  23.624  1.00  0.00     0.165 C 
BRANCH  50  51
ATOM     51  O   UNL     1      20.787  28.595  23.588  1.00  0.00    -0.388 OA
ATOM     52  H   UNL     1      21.383  28.555  22.794  1.00  0.00     0.211 HD
ENDBRANCH  50  51
BRANCH  50  53
ATOM     53  C   UNL     1      20.696  30.544  24.911  1.00  0.00     0.154 C 
BRANCH  53  54
ATOM     54  N   UNL     1      21.238  29.578  25.829  1.00  0.00    -0.319 N 
ATOM     55  C   UNL     1      22.542  29.651  26.380  1.00  0.00     0.407 C 
ATOM     56  H   UNL     1      20.614  28.765  26.102  1.00  0.00     0.167 HD
ATOM     57  O   UNL     1      23.367  30.540  26.168  1.00  0.00    -0.225 OA
BRANCH  55  58
ATOM     58  O   UNL     1      22.971  28.627  27.258  1.00  0.00    -0.443 OA
BRANCH  58  59
ATOM     59  C   UNL     1      22.124  27.500  27.492  1.00  0.00     0.294 C 
BRANCH  59  60
ATOM     60  C   UNL     1      22.460  26.392  26.579  1.00  0.00     0.121 A 
ATOM     61  C   UNL     1      22.930  26.457  25.289  1.00  0.00     0.144 A 
ATOM     62  N   UNL     1      22.359  25.079  26.851  1.00  0.00    -0.131 NA
ATOM     63  N   UNL     1      23.104  25.206  24.808  1.00  0.00    -0.220 N 
ATOM     64  N   UNL     1      22.742  24.386  25.799  1.00  0.00    -0.062 NA
BRANCH  63  65
ATOM     65  C   UNL     1      23.563  24.795  23.533  1.00  0.00     0.079 A 
ATOM     66  C   UNL     1      22.660  24.712  22.504  1.00  0.00     0.065 A 
ATOM     67  C   UNL     1      24.889  24.478  23.315  1.00  0.00     0.029 A 
ATOM     68  C   UNL     1      23.054  24.313  21.230  1.00  0.00     0.016 A 
ATOM     69  C   UNL     1      25.304  24.075  22.043  1.00  0.00     0.002 A 
ATOM     70  C   UNL     1      24.382  23.998  21.024  1.00  0.00     0.001 A 
BRANCH  66  71
ATOM     71  C   UNL     1      21.270  25.045  22.741  1.00  0.00     0.250 C 
ATOM     72  O   UNL     1      20.775  26.035  22.146  1.00  0.00    -0.269 OA
ATOM     73  N   UNL     1      20.425  24.323  23.607  1.00  0.00    -0.366 N 
ATOM     74  H   UNL     1      19.563  23.890  23.242  1.00  0.00     0.159 HD
ATOM     75  H   UNL     1      20.671  24.231  24.604  1.00  0.00     0.159 HD
ENDBRANCH  66  71
ENDBRANCH  63  65
ENDBRANCH  59  60
ENDBRANCH  58  59
ENDBRANCH  55  58
ENDBRANCH  53  54
ENDBRANCH  50  53
ENDBRANCH  47  50
ENDBRANCH   5  47
BRANCH   4  76
ATOM     76  N   UNL     1      19.320  32.420  22.091  1.00  0.00    -0.348 N 
ATOM     77  C   UNL     1      19.803  32.295  20.764  1.00  0.00     0.217 C 
ATOM     78  H   UNL     1      19.967  32.819  22.812  1.00  0.00     0.163 HD
ATOM     79  C   UNL     1      21.157  32.687  20.319  1.00  0.00     0.114 C 
ATOM     80  O   UNL     1      18.963  31.805  19.942  1.00  0.00    -0.275 OA
ENDBRANCH   4  76
TORSDOF 31
