REMARK VINA RESULT:    -4.731      3.274      6.439
REMARK INTER + INTRA:         -21.361
REMARK INTER:                 -13.139
REMARK INTRA:                  -8.222
REMARK UNBOUND:                -8.334
REMARK SMILES CC[N+](C)(CC)CCCn1cc(COC(=O)NC[C@@H](O)C(O)[C@@H]2O[C@@](OC[C@H]3O[C@@H](O[C@H]4[C@H](O)[C@@H](O)[C@H](OCCN=[N+]=[N-])O[C@@H]4CO)[C@H](O)[C@@H](O)[C@H]3O)(C(=O)O)C[C@H](O)[C@H]2NC(C)=O)nn1
REMARK SMILES IDX 21 1 23 2 25 3 57 4 24 5 58 6 60 7 26 8 27 9 28 10 30 11
REMARK SMILES IDX 29 12 48 13 50 14 52 15 31 16 32 17 45 18 44 19 37 20 33 21
REMARK SMILES IDX 35 22 46 23 47 24 38 26 39 27 40 28 41 29 42 30 43 31 34 32
REMARK SMILES IDX 36 34 49 36 51 38 53 40 54 42 55 43 56 44 59 46 61 48 62 49
REMARK SMILES IDX 63 51 64 52 22 53 19 55 20 56 18 58 17 59 15 60 16 62 14 63
REMARK SMILES IDX 13 64 12 65 11 66 65 67 10 68 66 69 9 70 8 71 7 72 3 73 4 74
REMARK SMILES IDX 2 75 1 76 5 77 6 78
REMARK H PARENT 47 25 34 33 36 35 49 37 51 39 53 41 56 45 59 47 61 50 22 54
REMARK H PARENT 20 57 17 61
REMARK Flexibility Score: inf
ROOT
ATOM      1  C   UNL     1      20.053  29.592  18.194  1.00  0.00     0.176 C 
ENDROOT
BRANCH   1   2
ATOM      2  C   UNL     1      18.570  29.774  17.886  1.00  0.00     0.178 C 
ATOM      3  C   UNL     1      16.528  30.119  19.016  1.00  0.00     0.272 C 
ATOM      4  C   UNL     1      15.957  29.335  17.883  1.00  0.00     0.113 C 
ATOM      5  O   UNL     1      17.899  29.744  19.088  1.00  0.00    -0.332 OA
ATOM      6  C   UNL     1      16.817  28.158  17.501  1.00  0.00     0.145 C 
ATOM      7  C   UNL     1      18.130  28.700  16.944  1.00  0.00     0.142 C 
BRANCH   3   8
ATOM      8  O   UNL     1      16.045  29.753  20.255  1.00  0.00    -0.338 OA
BRANCH   8   9
ATOM      9  C   UNL     1      14.722  29.670  20.472  1.00  0.00     0.199 C 
BRANCH   9  10
ATOM     10  C   UNL     1      14.424  29.107  21.887  1.00  0.00     0.179 C 
ATOM     11  C   UNL     1      15.348  30.773  23.277  1.00  0.00     0.282 C 
ATOM     12  O   UNL     1      15.332  29.467  22.804  1.00  0.00    -0.341 OA
ATOM     13  C   UNL     1      14.013  31.414  23.327  1.00  0.00     0.202 C 
ATOM     14  C   UNL     1      13.024  30.255  23.578  1.00  0.00     0.179 C 
ATOM     15  C   UNL     1      12.996  29.499  22.268  1.00  0.00     0.177 C 
BRANCH  11  16
ATOM     16  O   UNL     1      16.365  31.507  22.649  1.00  0.00    -0.341 OA
BRANCH  16  17
ATOM     17  C   UNL     1      17.510  31.563  23.388  1.00  0.00     0.184 C 
ATOM     18  C   UNL     1      18.086  32.858  23.762  1.00  0.00     0.178 C 
ATOM     19  O   UNL     1      19.058  32.671  24.727  1.00  0.00    -0.341 OA
ATOM     20  C   UNL     1      19.626  31.457  24.874  1.00  0.00     0.281 C 
ATOM     21  C   UNL     1      18.648  30.799  22.672  1.00  0.00     0.180 C 
ATOM     22  C   UNL     1      19.788  30.610  23.637  1.00  0.00     0.202 C 
BRANCH  18  23
ATOM     23  C   UNL     1      17.119  33.902  24.285  1.00  0.00     0.191 C 
BRANCH  23  24
ATOM     24  O   UNL     1      16.271  33.422  25.273  1.00  0.00    -0.394 OA
ATOM     25  H   UNL     1      16.090  34.204  25.889  1.00  0.00     0.210 HD
ENDBRANCH  23  24
ENDBRANCH  18  23
BRANCH  20  26
ATOM     26  O   UNL     1      19.056  30.758  25.923  1.00  0.00    -0.350 OA
BRANCH  26  27
ATOM     27  C   UNL     1      19.343  31.212  27.168  1.00  0.00     0.169 C 
BRANCH  27  28
ATOM     28  C   UNL     1      18.157  31.822  27.887  1.00  0.00     0.119 C 
BRANCH  28  29
ATOM     29  N   UNL     1      17.091  30.838  27.980  1.00  0.00    -0.092 NA
ATOM     30  N   UNL     1      15.990  30.993  27.456  1.00  0.00     0.001 N 
ATOM     31  N   UNL     1      14.888  31.116  26.919  1.00  0.00    -0.003 NA
ENDBRANCH  28  29
ENDBRANCH  27  28
ENDBRANCH  26  27
ENDBRANCH  20  26
BRANCH  21  32
ATOM     32  O   UNL     1      18.096  29.641  22.176  1.00  0.00    -0.387 OA
ATOM     33  H   UNL     1      17.129  29.631  22.102  1.00  0.00     0.211 HD
ENDBRANCH  21  32
BRANCH  22  34
ATOM     34  O   UNL     1      20.980  30.846  22.971  1.00  0.00    -0.385 OA
ATOM     35  H   UNL     1      20.946  30.643  22.000  1.00  0.00     0.211 HD
ENDBRANCH  22  34
ENDBRANCH  16  17
ENDBRANCH  11  16
BRANCH  13  36
ATOM     36  O   UNL     1      13.848  32.293  24.409  1.00  0.00    -0.385 OA
ATOM     37  H   UNL     1      13.747  33.194  24.034  1.00  0.00     0.211 HD
ENDBRANCH  13  36
BRANCH  14  38
ATOM     38  O   UNL     1      11.764  30.777  23.869  1.00  0.00    -0.387 OA
ATOM     39  H   UNL     1      11.400  30.244  24.606  1.00  0.00     0.211 HD
ENDBRANCH  14  38
BRANCH  15  40
ATOM     40  O   UNL     1      12.558  30.410  21.309  1.00  0.00    -0.387 OA
ATOM     41  H   UNL     1      13.245  30.981  20.933  1.00  0.00     0.211 HD
ENDBRANCH  15  40
ENDBRANCH   9  10
ENDBRANCH   8   9
ENDBRANCH   3   8
BRANCH   3  42
ATOM     42  C   UNL     1      16.437  31.581  18.862  1.00  0.00     0.364 C 
ATOM     43  O   UNL     1      15.985  32.109  17.822  1.00  0.00    -0.246 OA
BRANCH  42  44
ATOM     44  O   UNL     1      16.851  32.424  19.865  1.00  0.00    -0.477 OA
ATOM     45  H   UNL     1      16.232  33.081  20.337  1.00  0.00     0.296 HD
ENDBRANCH  42  44
ENDBRANCH   3  42
BRANCH   6  46
ATOM     46  O   UNL     1      17.080  27.307  18.548  1.00  0.00    -0.391 OA
ATOM     47  H   UNL     1      17.566  27.771  19.296  1.00  0.00     0.211 HD
ENDBRANCH   6  46
BRANCH   7  48
ATOM     48  N   UNL     1      17.761  29.320  15.660  1.00  0.00    -0.348 N 
ATOM     49  C   UNL     1      18.663  29.342  14.560  1.00  0.00     0.217 C 
ATOM     50  H   UNL     1      16.840  29.774  15.490  1.00  0.00     0.163 HD
ATOM     51  C   UNL     1      18.332  29.952  13.249  1.00  0.00     0.114 C 
ATOM     52  O   UNL     1      19.782  28.820  14.707  1.00  0.00    -0.275 OA
ENDBRANCH   7  48
ENDBRANCH   1   2
BRANCH   1  53
ATOM     53  O   UNL     1      20.413  28.238  17.879  1.00  0.00    -0.388 OA
ATOM     54  H   UNL     1      21.137  28.296  17.201  1.00  0.00     0.211 HD
ENDBRANCH   1  53
BRANCH   1  55
ATOM     55  C   UNL     1      20.323  29.767  19.653  1.00  0.00     0.165 C 
BRANCH  55  56
ATOM     56  O   UNL     1      20.832  31.130  19.725  1.00  0.00    -0.388 OA
ATOM     57  H   UNL     1      21.259  31.230  20.631  1.00  0.00     0.211 HD
ENDBRANCH  55  56
BRANCH  55  58
ATOM     58  C   UNL     1      21.338  28.885  20.280  1.00  0.00     0.154 C 
BRANCH  58  59
ATOM     59  N   UNL     1      21.054  28.059  21.365  1.00  0.00    -0.319 N 
ATOM     60  C   UNL     1      21.166  26.652  21.455  1.00  0.00     0.407 C 
ATOM     61  H   UNL     1      20.690  28.549  22.283  1.00  0.00     0.167 HD
ATOM     62  O   UNL     1      21.556  25.931  20.524  1.00  0.00    -0.225 OA
BRANCH  60  63
ATOM     63  O   UNL     1      20.811  25.993  22.658  1.00  0.00    -0.443 OA
BRANCH  63  64
ATOM     64  C   UNL     1      21.178  24.605  22.767  1.00  0.00     0.294 C 
BRANCH  64  65
ATOM     65  C   UNL     1      22.279  24.628  23.801  1.00  0.00     0.120 A 
ATOM     66  C   UNL     1      22.126  24.608  25.167  1.00  0.00     0.138 A 
ATOM     67  N   UNL     1      23.602  24.621  23.606  1.00  0.00    -0.132 NA
ATOM     68  N   UNL     1      23.368  24.587  25.750  1.00  0.00    -0.252 N 
ATOM     69  N   UNL     1      24.239  24.599  24.758  1.00  0.00    -0.067 NA
BRANCH  68  70
ATOM     70  C   UNL     1      23.632  24.516  27.176  1.00  0.00     0.152 C 
BRANCH  70  71
ATOM     71  C   UNL     1      22.666  25.280  27.974  1.00  0.00     0.085 C 
BRANCH  71  72
ATOM     72  C   UNL     1      22.982  26.644  28.431  1.00  0.00     0.265 C 
BRANCH  72  73
ATOM     73  N   UNL     1      22.498  27.754  27.679  1.00  0.00    -0.326 N 
ATOM     74  C   UNL     1      21.164  27.495  27.210  1.00  0.00     0.334 C 
BRANCH  73  75
ATOM     75  C   UNL     1      23.346  28.198  26.610  1.00  0.00     0.260 C 
ATOM     76  C   UNL     1      22.652  29.144  25.659  1.00  0.00     0.071 C 
ENDBRANCH  73  75
BRANCH  73  77
ATOM     77  C   UNL     1      22.362  28.862  28.639  1.00  0.00     0.260 C 
ATOM     78  C   UNL     1      23.233  28.736  29.838  1.00  0.00     0.071 C 
ENDBRANCH  73  77
ENDBRANCH  72  73
ENDBRANCH  71  72
ENDBRANCH  70  71
ENDBRANCH  68  70
ENDBRANCH  64  65
ENDBRANCH  63  64
ENDBRANCH  60  63
ENDBRANCH  58  59
ENDBRANCH  55  58
ENDBRANCH   1  55
TORSDOF 35
