REMARK VINA RESULT:    -6.335     12.301     18.642
REMARK INTER + INTRA:         -22.339
REMARK INTER:                 -16.099
REMARK INTRA:                  -6.240
REMARK UNBOUND:                -5.634
REMARK SMILES CC(=O)N[C@@H]1[C@@H](O)C[C@](OC[C@H]2O[C@@H](O[C@H]3[C@H](O)[C@@H](O)[C@H](OCCN=[N+]=[N-])O[C@@H]3CO)[C@H](O)[C@@H](O)[C@H]2O)(C(=O)O)O[C@H]1C(O)[C@H](O)CNC(=O)OCc1cn(Cc2ccccc2OC(C)=O)nn1
REMARK SMILES IDX 43 1 42 2 9 3 8 4 41 5 6 6 5 7 10 8 11 9 12 10 14 11 13 12
REMARK SMILES IDX 32 13 34 14 36 15 15 16 16 17 29 18 28 19 21 20 17 21 19 22
REMARK SMILES IDX 30 23 31 24 22 26 23 27 24 28 25 29 26 30 27 31 18 32 20 34
REMARK SMILES IDX 33 36 35 38 37 40 38 42 39 43 40 44 7 46 4 48 2 49 1 51 3 52
REMARK SMILES IDX 44 53 45 55 46 56 47 58 48 59 49 60 50 62 51 63 52 64 53 65
REMARK SMILES IDX 54 66 68 67 55 68 67 69 56 70 57 71 62 72 58 73 61 74 59 75
REMARK SMILES IDX 60 76 63 77 64 78 66 79 65 80
REMARK H PARENT 31 25 18 33 20 35 33 37 35 39 37 41 40 45 7 47 4 50 44 54
REMARK H PARENT 46 57 48 61
REMARK Flexibility Score: inf
ROOT
ATOM      1  C   UNL     1       4.830  21.556  32.144  1.00  0.00     0.176 C 
ENDROOT
BRANCH   1   2
ATOM      2  C   UNL     1       3.931  22.529  32.889  1.00  0.00     0.178 C 
ATOM      3  C   UNL     1       3.886  24.731  33.655  1.00  0.00     0.272 C 
ATOM      4  C   UNL     1       2.748  24.111  34.457  1.00  0.00     0.113 C 
ATOM      5  O   UNL     1       4.653  23.684  33.089  1.00  0.00    -0.332 OA
ATOM      6  C   UNL     1       3.349  22.934  35.206  1.00  0.00     0.145 C 
ATOM      7  C   UNL     1       3.604  21.857  34.223  1.00  0.00     0.142 C 
BRANCH   3   8
ATOM      8  O   UNL     1       4.753  25.455  34.419  1.00  0.00    -0.338 OA
BRANCH   8   9
ATOM      9  C   UNL     1       6.087  25.248  34.271  1.00  0.00     0.199 C 
BRANCH   9  10
ATOM     10  C   UNL     1       6.803  26.573  34.584  1.00  0.00     0.179 C 
ATOM     11  C   UNL     1       8.905  27.492  34.732  1.00  0.00     0.282 C 
ATOM     12  O   UNL     1       8.158  26.328  34.340  1.00  0.00    -0.341 OA
ATOM     13  C   UNL     1       8.637  28.496  33.667  1.00  0.00     0.202 C 
ATOM     14  C   UNL     1       7.150  28.870  33.794  1.00  0.00     0.179 C 
ATOM     15  C   UNL     1       6.267  27.670  33.722  1.00  0.00     0.177 C 
BRANCH  11  16
ATOM     16  O   UNL     1      10.191  27.028  34.869  1.00  0.00    -0.341 OA
BRANCH  16  17
ATOM     17  C   UNL     1      10.286  26.086  35.909  1.00  0.00     0.184 C 
ATOM     18  C   UNL     1      11.181  26.499  37.019  1.00  0.00     0.178 C 
ATOM     19  O   UNL     1      12.048  25.483  37.430  1.00  0.00    -0.341 OA
ATOM     20  C   UNL     1      11.435  24.250  37.609  1.00  0.00     0.281 C 
ATOM     21  C   UNL     1      11.008  24.834  35.284  1.00  0.00     0.180 C 
ATOM     22  C   UNL     1      10.829  23.742  36.302  1.00  0.00     0.202 C 
BRANCH  18  23
ATOM     23  C   UNL     1      10.523  27.177  38.180  1.00  0.00     0.191 C 
BRANCH  23  24
ATOM     24  O   UNL     1       9.172  26.866  38.185  1.00  0.00    -0.394 OA
ATOM     25  H   UNL     1       8.734  27.251  38.973  1.00  0.00     0.210 HD
ENDBRANCH  23  24
ENDBRANCH  18  23
BRANCH  20  26
ATOM     26  O   UNL     1      10.445  24.316  38.524  1.00  0.00    -0.350 OA
BRANCH  26  27
ATOM     27  C   UNL     1       9.718  23.231  38.851  1.00  0.00     0.169 C 
BRANCH  27  28
ATOM     28  C   UNL     1       8.236  23.342  38.882  1.00  0.00     0.119 C 
BRANCH  28  29
ATOM     29  N   UNL     1       7.759  24.179  37.835  1.00  0.00    -0.092 NA
ATOM     30  N   UNL     1       6.637  24.636  37.812  1.00  0.00     0.001 N 
ATOM     31  N   UNL     1       5.586  25.244  38.029  1.00  0.00    -0.003 NA
ENDBRANCH  28  29
ENDBRANCH  27  28
ENDBRANCH  26  27
ENDBRANCH  20  26
BRANCH  21  32
ATOM     32  O   UNL     1      10.459  24.557  34.057  1.00  0.00    -0.387 OA
ATOM     33  H   UNL     1      11.091  24.846  33.324  1.00  0.00     0.211 HD
ENDBRANCH  21  32
BRANCH  22  34
ATOM     34  O   UNL     1      11.359  22.540  35.890  1.00  0.00    -0.385 OA
ATOM     35  H   UNL     1      12.153  22.749  35.320  1.00  0.00     0.211 HD
ENDBRANCH  22  34
ENDBRANCH  16  17
ENDBRANCH  11  16
BRANCH  13  36
ATOM     36  O   UNL     1       9.320  29.689  33.840  1.00  0.00    -0.385 OA
ATOM     37  H   UNL     1       9.275  30.056  34.747  1.00  0.00     0.211 HD
ENDBRANCH  13  36
BRANCH  14  38
ATOM     38  O   UNL     1       6.818  29.832  32.838  1.00  0.00    -0.387 OA
ATOM     39  H   UNL     1       6.485  29.327  32.041  1.00  0.00     0.211 HD
ENDBRANCH  14  38
BRANCH  15  40
ATOM     40  O   UNL     1       6.148  27.297  32.385  1.00  0.00    -0.387 OA
ATOM     41  H   UNL     1       5.425  27.753  31.915  1.00  0.00     0.211 HD
ENDBRANCH  15  40
ENDBRANCH   9  10
ENDBRANCH   8   9
ENDBRANCH   3   8
BRANCH   3  42
ATOM     42  C   UNL     1       3.244  25.494  32.562  1.00  0.00     0.364 C 
ATOM     43  O   UNL     1       2.152  26.042  32.691  1.00  0.00    -0.246 OA
BRANCH  42  44
ATOM     44  O   UNL     1       3.909  25.592  31.337  1.00  0.00    -0.477 OA
ATOM     45  H   UNL     1       4.918  25.398  31.257  1.00  0.00     0.296 HD
ENDBRANCH  42  44
ENDBRANCH   3  42
BRANCH   6  46
ATOM     46  O   UNL     1       4.581  23.383  35.690  1.00  0.00    -0.391 OA
ATOM     47  H   UNL     1       4.850  24.262  35.332  1.00  0.00     0.211 HD
ENDBRANCH   6  46
BRANCH   7  48
ATOM     48  N   UNL     1       2.617  20.873  34.054  1.00  0.00    -0.348 N 
ATOM     49  C   UNL     1       2.781  19.505  34.412  1.00  0.00     0.217 C 
ATOM     50  H   UNL     1       1.692  21.171  33.631  1.00  0.00     0.163 HD
ATOM     51  C   UNL     1       1.722  18.501  34.219  1.00  0.00     0.114 C 
ATOM     52  O   UNL     1       3.872  19.187  34.904  1.00  0.00    -0.275 OA
ENDBRANCH   7  48
ENDBRANCH   1   2
BRANCH   1  53
ATOM     53  O   UNL     1       5.486  20.809  33.105  1.00  0.00    -0.388 OA
ATOM     54  H   UNL     1       6.430  21.040  33.231  1.00  0.00     0.211 HD
ENDBRANCH   1  53
BRANCH   1  55
ATOM     55  C   UNL     1       4.121  20.761  31.098  1.00  0.00     0.165 C 
BRANCH  55  56
ATOM     56  O   UNL     1       5.061  20.398  30.129  1.00  0.00    -0.388 OA
ATOM     57  H   UNL     1       5.898  20.875  30.232  1.00  0.00     0.211 HD
ENDBRANCH  55  56
BRANCH  55  58
ATOM     58  C   UNL     1       2.962  21.502  30.477  1.00  0.00     0.154 C 
BRANCH  58  59
ATOM     59  N   UNL     1       3.150  21.862  29.111  1.00  0.00    -0.319 N 
ATOM     60  C   UNL     1       2.779  23.114  28.554  1.00  0.00     0.407 C 
ATOM     61  H   UNL     1       3.594  21.166  28.452  1.00  0.00     0.167 HD
ATOM     62  O   UNL     1       2.246  23.958  29.316  1.00  0.00    -0.225 OA
BRANCH  60  63
ATOM     63  O   UNL     1       2.968  23.449  27.235  1.00  0.00    -0.443 OA
BRANCH  63  64
ATOM     64  C   UNL     1       2.196  24.453  26.579  1.00  0.00     0.294 C 
BRANCH  64  65
ATOM     65  C   UNL     1       3.036  25.575  26.137  1.00  0.00     0.120 A 
ATOM     66  C   UNL     1       3.880  26.276  26.967  1.00  0.00     0.138 A 
ATOM     67  N   UNL     1       3.171  26.129  24.926  1.00  0.00    -0.132 NA
ATOM     68  N   UNL     1       4.496  27.223  26.256  1.00  0.00    -0.248 N 
ATOM     69  N   UNL     1       4.034  27.103  24.997  1.00  0.00    -0.067 NA
BRANCH  68  70
ATOM     70  C   UNL     1       5.464  28.222  26.667  1.00  0.00     0.185 C 
BRANCH  70  71
ATOM     71  C   UNL     1       6.757  28.035  26.001  1.00  0.00     0.016 A 
ATOM     72  C   UNL     1       7.245  28.928  25.112  1.00  0.00     0.135 A 
ATOM     73  C   UNL     1       7.481  26.888  26.339  1.00  0.00     0.009 A 
ATOM     74  C   UNL     1       8.491  28.689  24.530  1.00  0.00     0.047 A 
ATOM     75  C   UNL     1       8.703  26.663  25.761  1.00  0.00     0.001 A 
ATOM     76  C   UNL     1       9.219  27.560  24.853  1.00  0.00     0.004 A 
BRANCH  72  77
ATOM     77  O   UNL     1       6.567  30.073  24.745  1.00  0.00    -0.426 OA
BRANCH  77  78
ATOM     78  C   UNL     1       7.300  31.260  24.634  1.00  0.00     0.308 C 
ATOM     79  O   UNL     1       7.578  31.894  25.675  1.00  0.00    -0.252 OA
ATOM     80  C   UNL     1       7.726  31.734  23.314  1.00  0.00     0.139 C 
ENDBRANCH  77  78
ENDBRANCH  72  77
ENDBRANCH  70  71
ENDBRANCH  68  70
ENDBRANCH  64  65
ENDBRANCH  63  64
ENDBRANCH  60  63
ENDBRANCH  58  59
ENDBRANCH  55  58
ENDBRANCH   1  55
TORSDOF 33
