REMARK VINA RESULT:    -5.753      4.224      7.658
REMARK INTER + INTRA:         -23.581
REMARK INTER:                 -13.622
REMARK INTRA:                  -9.959
REMARK UNBOUND:                -8.074
REMARK SMILES CC(=O)N[C@@H]1[C@@H](O)C[C@](OC[C@H]2O[C@@H](O[C@H]3[C@H](O)[C@@H](O)[C@H](OCCN=[N+]=[N-])O[C@@H]3CO)[C@H](O)[C@@H](O)[C@H]2O)(C(=O)O)O[C@H]1C(O)[C@H](O)CNC(=O)OCc1cn(C[C@@H](C)CN2CCN(c3ccc(Cl)cc3)CC2)nn1
REMARK SMILES IDX 43 1 42 2 9 3 8 4 41 5 6 6 5 7 10 8 11 9 12 10 14 11 13 12
REMARK SMILES IDX 32 13 34 14 36 15 15 16 16 17 29 18 28 19 21 20 17 21 19 22
REMARK SMILES IDX 30 23 31 24 22 26 23 27 24 28 25 29 26 30 27 31 18 32 20 34
REMARK SMILES IDX 33 36 35 38 37 40 38 42 39 43 40 44 7 46 4 48 2 49 1 51 3 52
REMARK SMILES IDX 44 53 45 55 46 56 47 58 48 59 49 60 50 62 51 63 52 64 53 65
REMARK SMILES IDX 54 66 74 67 55 68 73 69 56 70 57 71 58 72 59 73 60 74 61 75
REMARK SMILES IDX 72 76 62 77 71 78 63 79 64 80 65 81 70 82 66 83 69 84 67 85
REMARK SMILES IDX 68 86
REMARK H PARENT 31 25 18 33 20 35 33 37 35 39 37 41 40 45 7 47 4 50 44 54
REMARK H PARENT 46 57 48 61
REMARK Flexibility Score: inf
ROOT
ATOM      1  C   UNL     1      29.438  19.976  22.639  1.00  0.00     0.176 C 
ENDROOT
BRANCH   1   2
ATOM      2  C   UNL     1      30.933  20.079  22.372  1.00  0.00     0.178 C 
ATOM      3  C   UNL     1      32.656  19.422  20.896  1.00  0.00     0.272 C 
ATOM      4  C   UNL     1      33.540  19.652  22.020  1.00  0.00     0.113 C 
ATOM      5  O   UNL     1      31.312  19.265  21.356  1.00  0.00    -0.332 OA
ATOM      6  C   UNL     1      32.974  19.158  23.338  1.00  0.00     0.145 C 
ATOM      7  C   UNL     1      31.731  20.010  23.629  1.00  0.00     0.142 C 
BRANCH   3   8
ATOM      8  O   UNL     1      32.828  18.395  20.067  1.00  0.00    -0.338 OA
BRANCH   8   9
ATOM      9  C   UNL     1      31.986  17.459  19.717  1.00  0.00     0.199 C 
BRANCH   9  10
ATOM     10  C   UNL     1      31.452  17.310  18.322  1.00  0.00     0.179 C 
ATOM     11  C   UNL     1      31.596  18.624  16.399  1.00  0.00     0.282 C 
ATOM     12  O   UNL     1      31.180  18.493  17.696  1.00  0.00    -0.341 OA
ATOM     13  C   UNL     1      33.112  18.577  16.358  1.00  0.00     0.202 C 
ATOM     14  C   UNL     1      33.557  17.273  16.935  1.00  0.00     0.179 C 
ATOM     15  C   UNL     1      32.448  16.464  17.516  1.00  0.00     0.177 C 
BRANCH  11  16
ATOM     16  O   UNL     1      31.204  19.922  15.993  1.00  0.00    -0.341 OA
BRANCH  16  17
ATOM     17  C   UNL     1      29.877  19.914  15.645  1.00  0.00     0.184 C 
ATOM     18  C   UNL     1      29.661  20.099  14.157  1.00  0.00     0.178 C 
ATOM     19  O   UNL     1      29.095  21.285  13.804  1.00  0.00    -0.341 OA
ATOM     20  C   UNL     1      27.892  21.599  14.409  1.00  0.00     0.281 C 
ATOM     21  C   UNL     1      29.075  20.940  16.439  1.00  0.00     0.180 C 
ATOM     22  C   UNL     1      27.715  21.025  15.788  1.00  0.00     0.202 C 
BRANCH  18  23
ATOM     23  C   UNL     1      28.981  18.893  13.526  1.00  0.00     0.191 C 
BRANCH  23  24
ATOM     24  O   UNL     1      28.777  17.879  14.428  1.00  0.00    -0.394 OA
ATOM     25  H   UNL     1      29.578  17.273  14.371  1.00  0.00     0.210 HD
ENDBRANCH  23  24
ENDBRANCH  18  23
BRANCH  20  26
ATOM     26  O   UNL     1      26.798  21.267  13.618  1.00  0.00    -0.350 OA
BRANCH  26  27
ATOM     27  C   UNL     1      26.031  22.314  13.195  1.00  0.00     0.169 C 
BRANCH  27  28
ATOM     28  C   UNL     1      24.687  22.334  13.866  1.00  0.00     0.119 C 
BRANCH  28  29
ATOM     29  N   UNL     1      23.798  21.409  13.182  1.00  0.00    -0.092 NA
ATOM     30  N   UNL     1      23.443  20.364  13.757  1.00  0.00     0.001 N 
ATOM     31  N   UNL     1      23.173  19.378  14.430  1.00  0.00    -0.003 NA
ENDBRANCH  28  29
ENDBRANCH  27  28
ENDBRANCH  26  27
ENDBRANCH  20  26
BRANCH  21  32
ATOM     32  O   UNL     1      28.886  20.510  17.751  1.00  0.00    -0.387 OA
ATOM     33  H   UNL     1      29.593  19.817  17.909  1.00  0.00     0.211 HD
ENDBRANCH  21  32
BRANCH  22  34
ATOM     34  O   UNL     1      26.928  21.935  16.536  1.00  0.00    -0.385 OA
ATOM     35  H   UNL     1      26.455  21.516  17.272  1.00  0.00     0.211 HD
ENDBRANCH  22  34
ENDBRANCH  16  17
ENDBRANCH  11  16
BRANCH  13  36
ATOM     36  O   UNL     1      33.512  18.767  15.047  1.00  0.00    -0.385 OA
ATOM     37  H   UNL     1      32.711  18.586  14.473  1.00  0.00     0.211 HD
ENDBRANCH  13  36
BRANCH  14  38
ATOM     38  O   UNL     1      34.607  17.411  17.853  1.00  0.00    -0.387 OA
ATOM     39  H   UNL     1      35.298  16.725  17.708  1.00  0.00     0.211 HD
ENDBRANCH  14  38
BRANCH  15  40
ATOM     40  O   UNL     1      32.933  15.465  18.324  1.00  0.00    -0.387 OA
ATOM     41  H   UNL     1      32.488  15.439  19.202  1.00  0.00     0.211 HD
ENDBRANCH  15  40
ENDBRANCH   9  10
ENDBRANCH   8   9
ENDBRANCH   3   8
BRANCH   3  42
ATOM     42  C   UNL     1      32.511  20.692  20.081  1.00  0.00     0.364 C 
ATOM     43  O   UNL     1      33.292  21.685  20.287  1.00  0.00    -0.246 OA
BRANCH  42  44
ATOM     44  O   UNL     1      31.569  20.878  19.102  1.00  0.00    -0.477 OA
ATOM     45  H   UNL     1      31.828  21.113  18.151  1.00  0.00     0.296 HD
ENDBRANCH  42  44
ENDBRANCH   3  42
BRANCH   6  46
ATOM     46  O   UNL     1      32.611  17.824  23.152  1.00  0.00    -0.391 OA
ATOM     47  H   UNL     1      32.348  17.397  24.003  1.00  0.00     0.211 HD
ENDBRANCH   6  46
BRANCH   7  48
ATOM     48  N   UNL     1      32.200  21.310  24.067  1.00  0.00    -0.348 N 
ATOM     49  C   UNL     1      31.750  21.850  25.298  1.00  0.00     0.217 C 
ATOM     50  H   UNL     1      32.874  21.892  23.499  1.00  0.00     0.163 HD
ATOM     51  C   UNL     1      32.260  23.204  25.717  1.00  0.00     0.114 C 
ATOM     52  O   UNL     1      30.942  21.251  26.063  1.00  0.00    -0.275 OA
ENDBRANCH   7  48
ENDBRANCH   1   2
BRANCH   1  53
ATOM     53  O   UNL     1      29.084  21.068  23.431  1.00  0.00    -0.388 OA
ATOM     54  H   UNL     1      29.673  21.839  23.262  1.00  0.00     0.211 HD
ENDBRANCH   1  53
BRANCH   1  55
ATOM     55  C   UNL     1      28.589  20.053  21.401  1.00  0.00     0.165 C 
BRANCH  55  56
ATOM     56  O   UNL     1      29.144  19.510  20.273  1.00  0.00    -0.388 OA
ATOM     57  H   UNL     1      29.405  20.178  19.616  1.00  0.00     0.211 HD
ENDBRANCH  55  56
BRANCH  55  58
ATOM     58  C   UNL     1      28.015  21.401  21.125  1.00  0.00     0.154 C 
BRANCH  58  59
ATOM     59  N   UNL     1      28.928  22.119  20.232  1.00  0.00    -0.319 N 
ATOM     60  C   UNL     1      29.728  23.186  20.699  1.00  0.00     0.407 C 
ATOM     61  H   UNL     1      28.983  21.832  19.234  1.00  0.00     0.167 HD
ATOM     62  O   UNL     1      29.633  23.510  21.909  1.00  0.00    -0.225 OA
BRANCH  60  63
ATOM     63  O   UNL     1      30.592  23.848  19.837  1.00  0.00    -0.443 OA
BRANCH  63  64
ATOM     64  C   UNL     1      30.241  25.170  19.427  1.00  0.00     0.294 C 
BRANCH  64  65
ATOM     65  C   UNL     1      29.130  25.180  18.450  1.00  0.00     0.120 A 
ATOM     66  C   UNL     1      28.186  26.166  18.272  1.00  0.00     0.138 A 
ATOM     67  N   UNL     1      28.821  24.223  17.543  1.00  0.00    -0.132 NA
ATOM     68  N   UNL     1      27.374  25.771  17.296  1.00  0.00    -0.252 N 
ATOM     69  N   UNL     1      27.762  24.594  16.857  1.00  0.00    -0.067 NA
BRANCH  68  70
ATOM     70  C   UNL     1      26.227  26.540  16.813  1.00  0.00     0.150 C 
BRANCH  70  71
ATOM     71  C   UNL     1      25.129  26.599  17.880  1.00  0.00     0.022 C 
ATOM     72  C   UNL     1      24.152  27.653  17.407  1.00  0.00     0.011 C 
BRANCH  71  73
ATOM     73  C   UNL     1      24.481  25.254  17.989  1.00  0.00     0.089 C 
BRANCH  73  74
ATOM     74  N   UNL     1      24.279  24.708  19.266  1.00  0.00    -0.299 NA
ATOM     75  C   UNL     1      22.990  24.444  19.750  1.00  0.00     0.106 C 
ATOM     76  C   UNL     1      25.278  25.034  20.232  1.00  0.00     0.106 C 
ATOM     77  C   UNL     1      22.742  25.060  21.127  1.00  0.00     0.132 C 
ATOM     78  C   UNL     1      25.057  24.206  21.485  1.00  0.00     0.132 C 
ATOM     79  N   UNL     1      23.797  24.623  22.040  1.00  0.00    -0.369 N 
BRANCH  79  80
ATOM     80  C   UNL     1      23.555  24.630  23.419  1.00  0.00     0.037 A 
ATOM     81  C   UNL     1      22.265  24.629  23.945  1.00  0.00     0.027 A 
ATOM     82  C   UNL     1      24.576  24.629  24.361  1.00  0.00     0.027 A 
ATOM     83  C   UNL     1      22.000  24.628  25.294  1.00  0.00     0.022 A 
ATOM     84  C   UNL     1      24.313  24.628  25.716  1.00  0.00     0.022 A 
ATOM     85  C   UNL     1      23.025  24.628  26.203  1.00  0.00     0.041 A 
ATOM     86  Cl  UNL     1      22.692  24.626  27.903  1.00  0.00    -0.084 Cl
ENDBRANCH  79  80
ENDBRANCH  73  74
ENDBRANCH  71  73
ENDBRANCH  70  71
ENDBRANCH  68  70
ENDBRANCH  64  65
ENDBRANCH  63  64
ENDBRANCH  60  63
ENDBRANCH  58  59
ENDBRANCH  55  58
ENDBRANCH   1  55
TORSDOF 34
