REMARK VINA RESULT:    -6.465     10.536     16.774
REMARK INTER + INTRA:         -20.931
REMARK INTER:                 -15.619
REMARK INTRA:                  -5.311
REMARK UNBOUND:                -5.017
REMARK SMILES CC(=O)N[C@@H]1[C@@H](O)C[C@](OC[C@H]2O[C@@H](O[C@H]3[C@H](O)[C@@H](O)[C@H](OCCN=[N+]=[N-])O[C@@H]3CO)[C@H](O)[C@@H](O)[C@H]2O)(C(=O)O)O[C@H]1C(O)[C@H](O)CNC(=O)OCc1cn(C2CCCCC2)nn1
REMARK SMILES IDX 9 1 8 2 6 3 5 4 42 5 41 6 10 7 11 8 12 9 14 10 13 11 32 12
REMARK SMILES IDX 34 13 36 14 15 15 16 16 29 17 28 18 21 19 17 20 19 21 30 22
REMARK SMILES IDX 31 23 22 25 23 26 24 27 25 28 26 29 27 30 18 31 20 33 33 35
REMARK SMILES IDX 35 37 37 39 38 41 39 42 40 43 7 45 43 47 44 48 45 50 46 51
REMARK SMILES IDX 47 53 48 54 49 55 50 57 51 58 52 59 53 60 54 61 63 62 55 63
REMARK SMILES IDX 62 64 56 65 57 66 61 67 58 68 60 69 59 70 4 71 2 72 1 74
REMARK SMILES IDX 3 75
REMARK H PARENT 31 24 18 32 20 34 33 36 35 38 37 40 40 44 7 46 44 49 46 52
REMARK H PARENT 48 56 4 73
REMARK Flexibility Score: inf
ROOT
ATOM      1  C   UNL     1      30.078  20.003  21.073  1.00  0.00     0.272 C 
ATOM      2  C   UNL     1      31.219  20.108  19.994  1.00  0.00     0.113 C 
ATOM      3  C   UNL     1      31.699  21.524  19.917  1.00  0.00     0.145 C 
ATOM      4  C   UNL     1      30.561  22.467  19.634  1.00  0.00     0.142 C 
ATOM      5  C   UNL     1      29.295  22.100  20.325  1.00  0.00     0.178 C 
ATOM      6  O   UNL     1      29.105  20.898  20.831  1.00  0.00    -0.332 OA
ENDROOT
BRANCH   1   7
ATOM      7  O   UNL     1      30.724  20.208  22.212  1.00  0.00    -0.338 OA
BRANCH   7   8
ATOM      8  C   UNL     1      30.400  20.219  23.460  1.00  0.00     0.199 C 
BRANCH   8   9
ATOM      9  C   UNL     1      30.957  21.233  24.446  1.00  0.00     0.179 C 
ATOM     10  C   UNL     1      31.605  20.672  26.629  1.00  0.00     0.282 C 
ATOM     11  O   UNL     1      30.591  20.979  25.728  1.00  0.00    -0.341 OA
ATOM     12  C   UNL     1      32.637  21.735  26.596  1.00  0.00     0.202 C 
ATOM     13  C   UNL     1      33.121  22.076  25.208  1.00  0.00     0.179 C 
ATOM     14  C   UNL     1      32.464  21.194  24.216  1.00  0.00     0.177 C 
BRANCH  10  15
ATOM     15  O   UNL     1      31.962  19.391  26.421  1.00  0.00    -0.341 OA
BRANCH  15  16
ATOM     16  C   UNL     1      32.593  18.687  27.393  1.00  0.00     0.184 C 
ATOM     17  C   UNL     1      32.588  17.227  26.990  1.00  0.00     0.178 C 
ATOM     18  O   UNL     1      33.446  16.464  27.758  1.00  0.00    -0.341 OA
ATOM     19  C   UNL     1      33.682  16.960  29.013  1.00  0.00     0.281 C 
ATOM     20  C   UNL     1      31.892  18.723  28.735  1.00  0.00     0.180 C 
ATOM     21  C   UNL     1      32.491  17.631  29.590  1.00  0.00     0.202 C 
BRANCH  17  22
ATOM     22  C   UNL     1      32.769  17.009  25.515  1.00  0.00     0.191 C 
BRANCH  22  23
ATOM     23  O   UNL     1      31.528  17.201  24.906  1.00  0.00    -0.394 OA
ATOM     24  H   UNL     1      31.508  18.015  24.348  1.00  0.00     0.210 HD
ENDBRANCH  22  23
ENDBRANCH  17  22
BRANCH  19  25
ATOM     25  O   UNL     1      34.848  17.679  29.009  1.00  0.00    -0.350 OA
BRANCH  25  26
ATOM     26  C   UNL     1      35.941  16.998  28.496  1.00  0.00     0.169 C 
BRANCH  26  27
ATOM     27  C   UNL     1      36.889  17.867  27.714  1.00  0.00     0.119 C 
BRANCH  27  28
ATOM     28  N   UNL     1      36.152  19.014  27.225  1.00  0.00    -0.092 NA
ATOM     29  N   UNL     1      35.786  18.965  26.043  1.00  0.00     0.001 N 
ATOM     30  N   UNL     1      35.837  19.277  24.839  1.00  0.00    -0.003 NA
ENDBRANCH  27  28
ENDBRANCH  26  27
ENDBRANCH  25  26
ENDBRANCH  19  25
BRANCH  20  31
ATOM     31  O   UNL     1      32.029  19.919  29.398  1.00  0.00    -0.387 OA
ATOM     32  H   UNL     1      31.379  20.605  29.105  1.00  0.00     0.211 HD
ENDBRANCH  20  31
BRANCH  21  33
ATOM     33  O   UNL     1      31.485  16.642  29.714  1.00  0.00    -0.385 OA
ATOM     34  H   UNL     1      30.654  17.036  30.077  1.00  0.00     0.211 HD
ENDBRANCH  21  33
ENDBRANCH  15  16
ENDBRANCH  10  15
BRANCH  12  35
ATOM     35  O   UNL     1      32.005  22.908  27.085  1.00  0.00    -0.385 OA
ATOM     36  H   UNL     1      31.765  22.820  28.033  1.00  0.00     0.211 HD
ENDBRANCH  12  35
BRANCH  13  37
ATOM     37  O   UNL     1      34.521  21.947  25.114  1.00  0.00    -0.387 OA
ATOM     38  H   UNL     1      34.729  21.044  24.826  1.00  0.00     0.211 HD
ENDBRANCH  13  37
BRANCH  14  39
ATOM     39  O   UNL     1      32.968  19.930  24.078  1.00  0.00    -0.387 OA
ATOM     40  H   UNL     1      32.282  19.289  24.383  1.00  0.00     0.211 HD
ENDBRANCH  14  39
ENDBRANCH   8   9
ENDBRANCH   7   8
ENDBRANCH   1   7
BRANCH   1  41
ATOM     41  C   UNL     1      29.506  18.637  20.809  1.00  0.00     0.364 C 
ATOM     42  O   UNL     1      29.959  17.835  20.001  1.00  0.00    -0.246 OA
BRANCH  41  43
ATOM     43  O   UNL     1      28.368  18.213  21.524  1.00  0.00    -0.477 OA
ATOM     44  H   UNL     1      27.834  18.873  22.067  1.00  0.00     0.296 HD
ENDBRANCH  41  43
ENDBRANCH   1  41
BRANCH   3  45
ATOM     45  O   UNL     1      32.411  21.886  21.054  1.00  0.00    -0.391 OA
ATOM     46  H   UNL     1      31.829  21.695  21.846  1.00  0.00     0.211 HD
ENDBRANCH   3  45
BRANCH   5  47
ATOM     47  C   UNL     1      29.001  23.122  21.467  1.00  0.00     0.176 C 
BRANCH  47  48
ATOM     48  O   UNL     1      29.872  24.218  21.316  1.00  0.00    -0.388 OA
ATOM     49  H   UNL     1      30.779  24.003  21.613  1.00  0.00     0.211 HD
ENDBRANCH  47  48
BRANCH  47  50
ATOM     50  C   UNL     1      27.571  23.538  21.480  1.00  0.00     0.165 C 
BRANCH  50  51
ATOM     51  O   UNL     1      26.878  22.566  22.240  1.00  0.00    -0.388 OA
ATOM     52  H   UNL     1      26.633  22.905  23.123  1.00  0.00     0.211 HD
ENDBRANCH  50  51
BRANCH  50  53
ATOM     53  C   UNL     1      26.881  23.622  20.171  1.00  0.00     0.154 C 
BRANCH  53  54
ATOM     54  N   UNL     1      25.601  24.282  20.176  1.00  0.00    -0.319 N 
ATOM     55  C   UNL     1      25.251  25.310  19.260  1.00  0.00     0.407 C 
ATOM     56  H   UNL     1      24.893  23.997  20.875  1.00  0.00     0.167 HD
ATOM     57  O   UNL     1      26.077  25.685  18.391  1.00  0.00    -0.225 OA
BRANCH  55  58
ATOM     58  O   UNL     1      24.029  25.921  19.289  1.00  0.00    -0.443 OA
BRANCH  58  59
ATOM     59  C   UNL     1      22.774  25.294  19.400  1.00  0.00     0.294 C 
BRANCH  59  60
ATOM     60  C   UNL     1      22.067  25.842  20.577  1.00  0.00     0.120 A 
ATOM     61  C   UNL     1      22.250  25.364  21.843  1.00  0.00     0.138 A 
ATOM     62  N   UNL     1      21.171  26.832  20.654  1.00  0.00    -0.132 NA
ATOM     63  N   UNL     1      21.460  26.072  22.683  1.00  0.00    -0.249 N 
ATOM     64  N   UNL     1      20.814  26.959  21.929  1.00  0.00    -0.067 NA
BRANCH  63  65
ATOM     65  C   UNL     1      21.349  25.882  24.115  1.00  0.00     0.109 C 
ATOM     66  C   UNL     1      22.241  26.949  24.744  1.00  0.00     0.027 C 
ATOM     67  C   UNL     1      21.884  24.523  24.510  1.00  0.00     0.027 C 
ATOM     68  C   UNL     1      22.107  26.874  26.265  1.00  0.00     0.002 C 
ATOM     69  C   UNL     1      22.920  24.604  25.613  1.00  0.00     0.002 C 
ATOM     70  C   UNL     1      22.439  25.490  26.722  1.00  0.00     0.000 C 
ENDBRANCH  63  65
ENDBRANCH  59  60
ENDBRANCH  58  59
ENDBRANCH  55  58
ENDBRANCH  53  54
ENDBRANCH  50  53
ENDBRANCH  47  50
ENDBRANCH   5  47
BRANCH   4  71
ATOM     71  N   UNL     1      30.409  22.717  18.224  1.00  0.00    -0.348 N 
ATOM     72  C   UNL     1      29.950  23.924  17.672  1.00  0.00     0.217 C 
ATOM     73  H   UNL     1      30.648  21.964  17.502  1.00  0.00     0.163 HD
ATOM     74  C   UNL     1      29.829  24.121  16.186  1.00  0.00     0.114 C 
ATOM     75  O   UNL     1      29.625  24.876  18.381  1.00  0.00    -0.275 OA
ENDBRANCH   4  71
TORSDOF 30
