REMARK VINA RESULT:    -5.442     14.402     19.289
REMARK INTER + INTRA:         -21.048
REMARK INTER:                 -12.558
REMARK INTRA:                  -8.490
REMARK UNBOUND:                -7.652
REMARK SMILES CC(=O)N[C@@H]1[C@@H](O)C[C@](OC[C@H]2O[C@@H](O[C@H]3[C@H](O)[C@@H](O)[C@H](OCCN=[N+]=[N-])O[C@@H]3CO)[C@H](O)[C@@H](O)[C@H]2O)(C(=O)O)O[C@H]1C(O)[C@H](O)CNC(=O)OCc1cn(-c2ccc(Br)cc2)nn1
REMARK SMILES IDX 9 1 8 2 6 3 5 4 42 5 41 6 10 7 11 8 12 9 14 10 13 11 32 12
REMARK SMILES IDX 34 13 36 14 15 15 16 16 29 17 28 18 21 19 17 20 19 21 30 22
REMARK SMILES IDX 31 23 22 25 23 26 24 27 25 28 26 29 27 30 18 31 20 33 33 35
REMARK SMILES IDX 35 37 37 39 38 41 39 42 40 43 7 45 43 47 44 48 45 50 46 51
REMARK SMILES IDX 47 53 48 54 49 55 50 57 51 58 52 59 53 60 54 61 64 62 55 63
REMARK SMILES IDX 63 64 56 65 57 66 62 67 58 68 61 69 59 70 60 71 4 72 2 73
REMARK SMILES IDX 1 75 3 76
REMARK H PARENT 31 24 18 32 20 34 33 36 35 38 37 40 40 44 7 46 44 49 46 52
REMARK H PARENT 48 56 4 74
REMARK Flexibility Score: inf
ROOT
ATOM      1  C   UNL     1      22.938  26.248  28.713  1.00  0.00     0.272 C 
ATOM      2  C   UNL     1      21.861  26.466  29.811  1.00  0.00     0.113 C 
ATOM      3  C   UNL     1      22.279  27.625  30.636  1.00  0.00     0.145 C 
ATOM      4  C   UNL     1      22.425  28.825  29.679  1.00  0.00     0.142 C 
ATOM      5  C   UNL     1      23.617  28.481  28.816  1.00  0.00     0.178 C 
ATOM      6  O   UNL     1      23.226  27.406  28.050  1.00  0.00    -0.332 OA
ENDROOT
BRANCH   1   7
ATOM      7  O   UNL     1      22.290  25.379  27.829  1.00  0.00    -0.338 OA
BRANCH   7   8
ATOM      8  C   UNL     1      23.060  24.390  27.297  1.00  0.00     0.199 C 
BRANCH   8   9
ATOM      9  C   UNL     1      23.022  24.578  25.766  1.00  0.00     0.179 C 
ATOM     10  C   UNL     1      22.411  26.246  24.266  1.00  0.00     0.282 C 
ATOM     11  O   UNL     1      22.120  25.537  25.406  1.00  0.00    -0.341 OA
ATOM     12  C   UNL     1      23.304  25.550  23.321  1.00  0.00     0.202 C 
ATOM     13  C   UNL     1      24.548  24.957  23.902  1.00  0.00     0.179 C 
ATOM     14  C   UNL     1      24.449  24.949  25.393  1.00  0.00     0.177 C 
BRANCH  10  15
ATOM     15  O   UNL     1      22.808  27.517  24.681  1.00  0.00    -0.341 OA
BRANCH  15  16
ATOM     16  C   UNL     1      21.832  28.468  24.449  1.00  0.00     0.184 C 
ATOM     17  C   UNL     1      22.389  29.697  23.805  1.00  0.00     0.178 C 
ATOM     18  O   UNL     1      21.374  30.540  23.451  1.00  0.00    -0.341 OA
ATOM     19  C   UNL     1      20.152  30.373  24.025  1.00  0.00     0.281 C 
ATOM     20  C   UNL     1      21.233  28.957  25.779  1.00  0.00     0.180 C 
ATOM     21  C   UNL     1      20.159  29.982  25.486  1.00  0.00     0.202 C 
BRANCH  17  22
ATOM     22  C   UNL     1      23.140  29.310  22.545  1.00  0.00     0.191 C 
BRANCH  22  23
ATOM     23  O   UNL     1      22.340  28.569  21.708  1.00  0.00    -0.394 OA
ATOM     24  H   UNL     1      21.467  28.403  22.106  1.00  0.00     0.210 HD
ENDBRANCH  22  23
ENDBRANCH  17  22
BRANCH  19  25
ATOM     25  O   UNL     1      19.298  29.570  23.277  1.00  0.00    -0.350 OA
BRANCH  25  26
ATOM     26  C   UNL     1      18.847  30.155  22.109  1.00  0.00     0.169 C 
BRANCH  26  27
ATOM     27  C   UNL     1      17.363  30.278  22.010  1.00  0.00     0.119 C 
BRANCH  27  28
ATOM     28  N   UNL     1      16.930  29.937  20.666  1.00  0.00    -0.092 NA
ATOM     29  N   UNL     1      16.764  28.740  20.415  1.00  0.00     0.001 N 
ATOM     30  N   UNL     1      16.453  27.570  20.107  1.00  0.00    -0.003 NA
ENDBRANCH  27  28
ENDBRANCH  26  27
ENDBRANCH  25  26
ENDBRANCH  19  25
BRANCH  20  31
ATOM     31  O   UNL     1      20.789  27.883  26.529  1.00  0.00    -0.387 OA
ATOM     32  H   UNL     1      21.031  27.016  26.107  1.00  0.00     0.211 HD
ENDBRANCH  20  31
BRANCH  21  33
ATOM     33  O   UNL     1      20.226  31.102  26.284  1.00  0.00    -0.385 OA
ATOM     34  H   UNL     1      20.224  31.899  25.703  1.00  0.00     0.211 HD
ENDBRANCH  21  33
ENDBRANCH  15  16
ENDBRANCH  10  15
BRANCH  12  35
ATOM     35  O   UNL     1      22.520  24.550  22.682  1.00  0.00    -0.385 OA
ATOM     36  H   UNL     1      21.986  24.061  23.372  1.00  0.00     0.211 HD
ENDBRANCH  12  35
BRANCH  13  37
ATOM     37  O   UNL     1      25.682  25.718  23.530  1.00  0.00    -0.387 OA
ATOM     38  H   UNL     1      25.772  26.411  24.231  1.00  0.00     0.211 HD
ENDBRANCH  13  37
BRANCH  14  39
ATOM     39  O   UNL     1      24.832  26.162  25.960  1.00  0.00    -0.387 OA
ATOM     40  H   UNL     1      25.226  26.024  26.857  1.00  0.00     0.211 HD
ENDBRANCH  14  39
ENDBRANCH   8   9
ENDBRANCH   7   8
ENDBRANCH   1   7
BRANCH   1  41
ATOM     41  C   UNL     1      24.045  25.541  29.354  1.00  0.00     0.364 C 
ATOM     42  O   UNL     1      25.251  25.732  29.068  1.00  0.00    -0.246 OA
BRANCH  41  43
ATOM     43  O   UNL     1      23.798  24.602  30.338  1.00  0.00    -0.477 OA
ATOM     44  H   UNL     1      24.513  24.229  30.960  1.00  0.00     0.296 HD
ENDBRANCH  41  43
ENDBRANCH   1  41
BRANCH   3  45
ATOM     45  O   UNL     1      21.299  28.002  31.543  1.00  0.00    -0.391 OA
ATOM     46  H   UNL     1      21.717  28.237  32.397  1.00  0.00     0.211 HD
ENDBRANCH   3  45
BRANCH   5  47
ATOM     47  C   UNL     1      24.055  29.559  27.885  1.00  0.00     0.176 C 
BRANCH  47  48
ATOM     48  O   UNL     1      24.563  28.878  26.741  1.00  0.00    -0.388 OA
ATOM     49  H   UNL     1      24.134  29.265  25.937  1.00  0.00     0.211 HD
ENDBRANCH  47  48
BRANCH  47  50
ATOM     50  C   UNL     1      25.247  30.370  28.370  1.00  0.00     0.165 C 
BRANCH  50  51
ATOM     51  O   UNL     1      24.870  31.709  28.075  1.00  0.00    -0.388 OA
ATOM     52  H   UNL     1      24.058  31.695  27.476  1.00  0.00     0.211 HD
ENDBRANCH  50  51
BRANCH  50  53
ATOM     53  C   UNL     1      26.473  30.091  27.571  1.00  0.00     0.154 C 
BRANCH  53  54
ATOM     54  N   UNL     1      27.275  29.067  28.159  1.00  0.00    -0.319 N 
ATOM     55  C   UNL     1      27.604  27.822  27.535  1.00  0.00     0.407 C 
ATOM     56  H   UNL     1      27.682  29.196  29.141  1.00  0.00     0.167 HD
ATOM     57  O   UNL     1      27.160  27.590  26.387  1.00  0.00    -0.225 OA
BRANCH  55  58
ATOM     58  O   UNL     1      28.392  26.881  28.155  1.00  0.00    -0.443 OA
BRANCH  58  59
ATOM     59  C   UNL     1      29.099  27.209  29.324  1.00  0.00     0.294 C 
BRANCH  59  60
ATOM     60  C   UNL     1      28.511  26.466  30.461  1.00  0.00     0.121 A 
ATOM     61  C   UNL     1      27.569  27.000  31.349  1.00  0.00     0.144 A 
ATOM     62  N   UNL     1      28.718  25.212  30.891  1.00  0.00    -0.131 NA
ATOM     63  N   UNL     1      27.257  26.061  32.258  1.00  0.00    -0.220 N 
ATOM     64  N   UNL     1      27.967  24.994  31.954  1.00  0.00    -0.062 NA
BRANCH  63  65
ATOM     65  C   UNL     1      26.329  26.270  33.316  1.00  0.00     0.066 A 
ATOM     66  C   UNL     1      26.618  26.161  34.639  1.00  0.00     0.029 A 
ATOM     67  C   UNL     1      25.038  26.621  32.937  1.00  0.00     0.029 A 
ATOM     68  C   UNL     1      25.626  26.401  35.567  1.00  0.00     0.018 A 
ATOM     69  C   UNL     1      24.059  26.857  33.875  1.00  0.00     0.018 A 
ATOM     70  C   UNL     1      24.344  26.748  35.220  1.00  0.00     0.018 A 
ATOM     71  Br  UNL     1      23.002  27.075  36.537  1.00  0.00    -0.051 Br
ENDBRANCH  63  65
ENDBRANCH  59  60
ENDBRANCH  58  59
ENDBRANCH  55  58
ENDBRANCH  53  54
ENDBRANCH  50  53
ENDBRANCH  47  50
ENDBRANCH   5  47
BRANCH   4  72
ATOM     72  N   UNL     1      22.585  29.983  30.505  1.00  0.00    -0.348 N 
ATOM     73  C   UNL     1      21.955  31.222  30.207  1.00  0.00     0.217 C 
ATOM     74  H   UNL     1      23.178  29.926  31.351  1.00  0.00     0.163 HD
ATOM     75  C   UNL     1      22.104  32.437  31.043  1.00  0.00     0.114 C 
ATOM     76  O   UNL     1      21.220  31.318  29.171  1.00  0.00    -0.275 OA
ENDBRANCH   4  72
TORSDOF 30
