REMARK VINA RESULT:    -6.023      6.068      9.369
REMARK INTER + INTRA:         -21.521
REMARK INTER:                 -12.441
REMARK INTRA:                  -9.080
REMARK UNBOUND:                -6.520
REMARK SMILES CC(=O)N[C@@H]1[C@@H](O)C[C@](OC[C@H]2O[C@@H](O[C@H]3[C@H](O)[C@@H](O)[C@H](OCCN=[N+]=[N-])O[C@@H]3CO)[C@H](O)[C@@H](O)[C@H]2O)(C(=O)O)O[C@H]1C(O)[C@H](O)CNC(=O)OCc1cn(-c2nc(C)nc(N)n2)nn1
REMARK SMILES IDX 9 1 8 2 6 3 5 4 42 5 41 6 10 7 11 8 12 9 14 10 13 11 32 12
REMARK SMILES IDX 34 13 36 14 15 15 16 16 29 17 28 18 21 19 17 20 19 21 30 22
REMARK SMILES IDX 31 23 22 25 23 26 24 27 25 28 26 29 27 30 18 31 20 33 33 35
REMARK SMILES IDX 35 37 37 39 38 41 39 42 40 43 7 45 43 47 44 48 45 50 46 51
REMARK SMILES IDX 47 53 48 54 49 55 50 57 51 58 52 59 53 60 54 61 65 62 55 63
REMARK SMILES IDX 64 64 56 65 63 66 57 67 61 68 58 69 60 70 59 71 62 72 4 75
REMARK SMILES IDX 2 76 1 78 3 79
REMARK H PARENT 31 24 18 32 20 34 33 36 35 38 37 40 40 44 7 46 44 49 46 52
REMARK H PARENT 48 56 62 73 62 74 4 77
REMARK Flexibility Score: inf
ROOT
ATOM      1  C   UNL     1      12.028  31.457  15.038  1.00  0.00     0.272 C 
ATOM      2  C   UNL     1      11.271  30.272  15.529  1.00  0.00     0.113 C 
ATOM      3  C   UNL     1      11.997  28.995  15.235  1.00  0.00     0.145 C 
ATOM      4  C   UNL     1      12.259  28.920  13.754  1.00  0.00     0.142 C 
ATOM      5  C   UNL     1      12.785  30.215  13.179  1.00  0.00     0.178 C 
ATOM      6  O   UNL     1      12.174  31.322  13.631  1.00  0.00    -0.332 OA
ENDROOT
BRANCH   1   7
ATOM      7  O   UNL     1      13.096  31.829  15.652  1.00  0.00    -0.338 OA
BRANCH   7   8
ATOM      8  C   UNL     1      13.573  32.173  16.786  1.00  0.00     0.199 C 
BRANCH   8   9
ATOM      9  C   UNL     1      14.295  31.337  17.786  1.00  0.00     0.179 C 
ATOM     10  C   UNL     1      14.211  30.049  19.595  1.00  0.00     0.282 C 
ATOM     11  O   UNL     1      13.443  30.580  18.523  1.00  0.00    -0.341 OA
ATOM     12  C   UNL     1      14.944  28.889  18.971  1.00  0.00     0.202 C 
ATOM     13  C   UNL     1      15.924  29.415  17.951  1.00  0.00     0.179 C 
ATOM     14  C   UNL     1      15.574  30.711  17.334  1.00  0.00     0.177 C 
BRANCH  10  15
ATOM     15  O   UNL     1      13.411  29.641  20.628  1.00  0.00    -0.341 OA
BRANCH  15  16
ATOM     16  C   UNL     1      13.614  30.339  21.807  1.00  0.00     0.184 C 
ATOM     17  C   UNL     1      13.780  29.495  23.025  1.00  0.00     0.178 C 
ATOM     18  O   UNL     1      12.903  29.829  24.049  1.00  0.00    -0.341 OA
ATOM     19  C   UNL     1      12.893  31.179  24.376  1.00  0.00     0.281 C 
ATOM     20  C   UNL     1      12.353  31.208  21.975  1.00  0.00     0.180 C 
ATOM     21  C   UNL     1      12.572  32.058  23.204  1.00  0.00     0.202 C 
BRANCH  17  22
ATOM     22  C   UNL     1      15.194  29.386  23.530  1.00  0.00     0.191 C 
BRANCH  22  23
ATOM     23  O   UNL     1      16.027  29.319  22.391  1.00  0.00    -0.394 OA
ATOM     24  H   UNL     1      15.616  29.734  21.602  1.00  0.00     0.210 HD
ENDBRANCH  22  23
ENDBRANCH  17  22
BRANCH  19  25
ATOM     25  O   UNL     1      14.055  31.609  24.954  1.00  0.00    -0.350 OA
BRANCH  25  26
ATOM     26  C   UNL     1      14.517  32.842  24.598  1.00  0.00     0.169 C 
BRANCH  26  27
ATOM     27  C   UNL     1      15.997  32.879  24.335  1.00  0.00     0.119 C 
BRANCH  27  28
ATOM     28  N   UNL     1      16.221  32.477  22.939  1.00  0.00    -0.092 NA
ATOM     29  N   UNL     1      15.761  33.216  22.072  1.00  0.00     0.001 N 
ATOM     30  N   UNL     1      15.089  33.483  21.052  1.00  0.00    -0.003 NA
ENDBRANCH  27  28
ENDBRANCH  26  27
ENDBRANCH  25  26
ENDBRANCH  19  25
BRANCH  20  31
ATOM     31  O   UNL     1      12.144  31.954  20.835  1.00  0.00    -0.387 OA
ATOM     32  H   UNL     1      11.171  32.091  20.666  1.00  0.00     0.211 HD
ENDBRANCH  20  31
BRANCH  21  33
ATOM     33  O   UNL     1      11.404  32.793  23.406  1.00  0.00    -0.385 OA
ATOM     34  H   UNL     1      11.590  33.765  23.423  1.00  0.00     0.211 HD
ENDBRANCH  21  33
ENDBRANCH  15  16
ENDBRANCH  10  15
BRANCH  12  35
ATOM     35  O   UNL     1      15.586  28.086  19.912  1.00  0.00    -0.385 OA
ATOM     36  H   UNL     1      14.891  27.688  20.494  1.00  0.00     0.211 HD
ENDBRANCH  12  35
BRANCH  13  37
ATOM     37  O   UNL     1      16.135  28.388  17.027  1.00  0.00    -0.387 OA
ATOM     38  H   UNL     1      15.344  27.805  16.912  1.00  0.00     0.211 HD
ENDBRANCH  13  37
BRANCH  14  39
ATOM     39  O   UNL     1      15.745  30.643  15.955  1.00  0.00    -0.387 OA
ATOM     40  H   UNL     1      16.239  31.480  15.701  1.00  0.00     0.211 HD
ENDBRANCH  14  39
ENDBRANCH   8   9
ENDBRANCH   7   8
ENDBRANCH   1   7
BRANCH   1  41
ATOM     41  C   UNL     1      10.949  32.577  15.066  1.00  0.00     0.364 C 
ATOM     42  O   UNL     1      11.026  33.425  14.187  1.00  0.00    -0.246 OA
BRANCH  41  43
ATOM     43  O   UNL     1       9.991  32.582  16.031  1.00  0.00    -0.477 OA
ATOM     44  H   UNL     1      10.186  32.429  17.030  1.00  0.00     0.296 HD
ENDBRANCH  41  43
ENDBRANCH   1  41
BRANCH   3  45
ATOM     45  O   UNL     1      13.215  28.876  15.865  1.00  0.00    -0.391 OA
ATOM     46  H   UNL     1      13.922  29.380  15.426  1.00  0.00     0.211 HD
ENDBRANCH   3  45
BRANCH   5  47
ATOM     47  C   UNL     1      14.292  30.289  13.149  1.00  0.00     0.176 C 
BRANCH  47  48
ATOM     48  O   UNL     1      14.851  29.049  13.404  1.00  0.00    -0.388 OA
ATOM     49  H   UNL     1      14.262  28.287  13.256  1.00  0.00     0.211 HD
ENDBRANCH  47  48
BRANCH  47  50
ATOM     50  C   UNL     1      14.733  30.821  11.822  1.00  0.00     0.165 C 
BRANCH  50  51
ATOM     51  O   UNL     1      13.709  30.594  10.884  1.00  0.00    -0.388 OA
ATOM     52  H   UNL     1      14.092  30.645   9.991  1.00  0.00     0.211 HD
ENDBRANCH  50  51
BRANCH  50  53
ATOM     53  C   UNL     1      15.992  30.232  11.282  1.00  0.00     0.154 C 
BRANCH  53  54
ATOM     54  N   UNL     1      17.154  30.601  12.058  1.00  0.00    -0.319 N 
ATOM     55  C   UNL     1      18.002  29.681  12.706  1.00  0.00     0.407 C 
ATOM     56  H   UNL     1      17.415  31.625  12.169  1.00  0.00     0.167 HD
ATOM     57  O   UNL     1      17.782  28.468  12.635  1.00  0.00    -0.225 OA
BRANCH  55  58
ATOM     58  O   UNL     1      19.106  30.091  13.445  1.00  0.00    -0.443 OA
BRANCH  58  59
ATOM     59  C   UNL     1      19.021  30.732  14.693  1.00  0.00     0.294 C 
BRANCH  59  60
ATOM     60  C   UNL     1      19.125  29.761  15.823  1.00  0.00     0.121 A 
ATOM     61  C   UNL     1      19.438  30.061  17.132  1.00  0.00     0.148 A 
ATOM     62  N   UNL     1      18.933  28.428  15.774  1.00  0.00    -0.131 NA
ATOM     63  N   UNL     1      19.430  28.914  17.834  1.00  0.00    -0.185 N 
ATOM     64  N   UNL     1      19.123  27.949  16.991  1.00  0.00    -0.059 NA
BRANCH  63  65
ATOM     65  C   UNL     1      19.709  28.830  19.224  1.00  0.00     0.257 A 
ATOM     66  N   UNL     1      19.168  29.734  20.063  1.00  0.00    -0.175 NA
ATOM     67  N   UNL     1      20.492  27.886  19.777  1.00  0.00    -0.196 NA
ATOM     68  C   UNL     1      19.398  29.700  21.401  1.00  0.00     0.225 A 
ATOM     69  C   UNL     1      20.741  27.821  21.089  1.00  0.00     0.133 A 
ATOM     70  N   UNL     1      20.194  28.727  21.894  1.00  0.00    -0.198 NA
ATOM     71  C   UNL     1      21.624  26.747  21.664  1.00  0.00     0.090 C 
BRANCH  68  72
ATOM     72  N   UNL     1      18.805  30.673  22.237  1.00  0.00    -0.368 N 
ATOM     73  H   UNL     1      19.371  31.417  22.690  1.00  0.00     0.159 HD
ATOM     74  H   UNL     1      17.783  30.663  22.418  1.00  0.00     0.159 HD
ENDBRANCH  68  72
ENDBRANCH  63  65
ENDBRANCH  59  60
ENDBRANCH  58  59
ENDBRANCH  55  58
ENDBRANCH  53  54
ENDBRANCH  50  53
ENDBRANCH  47  50
ENDBRANCH   5  47
BRANCH   4  75
ATOM     75  N   UNL     1      11.032  28.541  13.085  1.00  0.00    -0.348 N 
ATOM     76  C   UNL     1      11.057  27.972  11.780  1.00  0.00     0.217 C 
ATOM     77  H   UNL     1      10.087  28.667  13.526  1.00  0.00     0.163 HD
ATOM     78  C   UNL     1       9.803  27.594  11.116  1.00  0.00     0.114 C 
ATOM     79  O   UNL     1      12.153  27.798  11.205  1.00  0.00    -0.275 OA
ENDBRANCH   4  75
TORSDOF 31
