REMARK VINA RESULT:    -6.408     10.046     21.771
REMARK INTER + INTRA:         -23.556
REMARK INTER:                 -17.503
REMARK INTRA:                  -6.053
REMARK UNBOUND:                -7.033
REMARK SMILES CC(=O)N[C@@H]1[C@@H](O)C[C@](OC[C@H]2O[C@@H](O[C@H]3[C@H](O)[C@@H](O)[C@H](OCCN=[N+]=[N-])O[C@@H]3CO)[C@H](O)[C@@H](O)[C@H]2O)(C(=O)O)O[C@H]1C(O)[C@H](O)CNC(=O)OCc1cn(C(C)(C)C(=O)c2c[nH]c3ccccc23)nn1
REMARK SMILES IDX 9 1 8 2 6 3 5 4 42 5 41 6 10 7 11 8 12 9 14 10 13 11 32 12
REMARK SMILES IDX 34 13 36 14 15 15 16 16 29 17 28 18 21 19 17 20 19 21 30 22
REMARK SMILES IDX 31 23 22 25 23 26 24 27 25 28 26 29 27 30 18 31 20 33 33 35
REMARK SMILES IDX 35 37 37 39 38 41 39 42 40 43 7 45 43 47 44 48 45 50 46 51
REMARK SMILES IDX 47 53 48 54 49 55 50 57 51 58 52 59 53 60 54 61 71 62 55 63
REMARK SMILES IDX 70 64 56 65 57 66 58 67 59 68 60 69 61 70 62 71 69 72 63 73
REMARK SMILES IDX 64 74 68 75 65 77 67 78 66 79 4 80 2 81 1 83 3 84
REMARK H PARENT 31 24 18 32 20 34 33 36 35 38 37 40 40 44 7 46 44 49 46 52
REMARK H PARENT 48 56 63 76 4 82
REMARK Flexibility Score: inf
ROOT
ATOM      1  C   UNL     1      32.596  20.365  25.792  1.00  0.00     0.272 C 
ATOM      2  C   UNL     1      33.661  19.293  25.951  1.00  0.00     0.113 C 
ATOM      3  C   UNL     1      34.371  19.012  24.651  1.00  0.00     0.145 C 
ATOM      4  C   UNL     1      33.353  18.331  23.671  1.00  0.00     0.142 C 
ATOM      5  C   UNL     1      32.044  18.994  23.955  1.00  0.00     0.178 C 
ATOM      6  O   UNL     1      32.232  20.269  24.447  1.00  0.00    -0.332 OA
ENDROOT
BRANCH   1   7
ATOM      7  O   UNL     1      32.922  21.611  26.143  1.00  0.00    -0.338 OA
BRANCH   7   8
ATOM      8  C   UNL     1      33.791  22.151  26.931  1.00  0.00     0.199 C 
BRANCH   8   9
ATOM      9  C   UNL     1      33.201  22.958  28.090  1.00  0.00     0.179 C 
ATOM     10  C   UNL     1      33.640  21.493  29.904  1.00  0.00     0.282 C 
ATOM     11  O   UNL     1      32.784  22.147  29.091  1.00  0.00    -0.341 OA
ATOM     12  C   UNL     1      34.794  22.330  30.385  1.00  0.00     0.202 C 
ATOM     13  C   UNL     1      34.573  23.787  29.997  1.00  0.00     0.179 C 
ATOM     14  C   UNL     1      34.234  23.944  28.563  1.00  0.00     0.177 C 
BRANCH  10  15
ATOM     15  O   UNL     1      34.138  20.363  29.281  1.00  0.00    -0.341 OA
BRANCH  15  16
ATOM     16  C   UNL     1      33.985  19.219  30.010  1.00  0.00     0.184 C 
ATOM     17  C   UNL     1      35.098  18.235  29.994  1.00  0.00     0.178 C 
ATOM     18  O   UNL     1      34.917  17.408  31.122  1.00  0.00    -0.341 OA
ATOM     19  C   UNL     1      33.757  16.689  31.097  1.00  0.00     0.281 C 
ATOM     20  C   UNL     1      32.713  18.465  29.676  1.00  0.00     0.180 C 
ATOM     21  C   UNL     1      32.507  17.495  30.820  1.00  0.00     0.202 C 
BRANCH  17  22
ATOM     22  C   UNL     1      36.477  18.841  30.159  1.00  0.00     0.191 C 
BRANCH  22  23
ATOM     23  O   UNL     1      36.451  19.617  31.324  1.00  0.00    -0.394 OA
ATOM     24  H   UNL     1      36.330  20.577  31.139  1.00  0.00     0.210 HD
ENDBRANCH  22  23
ENDBRANCH  17  22
BRANCH  19  25
ATOM     25  O   UNL     1      33.576  16.131  32.367  1.00  0.00    -0.350 OA
BRANCH  25  26
ATOM     26  C   UNL     1      34.674  16.450  33.145  1.00  0.00     0.169 C 
BRANCH  26  27
ATOM     27  C   UNL     1      34.293  16.848  34.545  1.00  0.00     0.119 C 
BRANCH  27  28
ATOM     28  N   UNL     1      34.800  18.147  34.932  1.00  0.00    -0.092 NA
ATOM     29  N   UNL     1      34.795  19.102  34.131  1.00  0.00     0.001 N 
ATOM     30  N   UNL     1      34.332  20.065  33.514  1.00  0.00    -0.003 NA
ENDBRANCH  27  28
ENDBRANCH  26  27
ENDBRANCH  25  26
ENDBRANCH  19  25
BRANCH  20  31
ATOM     31  O   UNL     1      31.616  19.284  29.556  1.00  0.00    -0.387 OA
ATOM     32  H   UNL     1      31.047  19.155  30.345  1.00  0.00     0.211 HD
ENDBRANCH  20  31
BRANCH  21  33
ATOM     33  O   UNL     1      31.513  16.595  30.439  1.00  0.00    -0.385 OA
ATOM     34  H   UNL     1      31.894  15.771  30.029  1.00  0.00     0.211 HD
ENDBRANCH  21  33
ENDBRANCH  15  16
ENDBRANCH  10  15
BRANCH  12  35
ATOM     35  O   UNL     1      35.036  22.222  31.754  1.00  0.00    -0.385 OA
ATOM     36  H   UNL     1      35.856  21.706  31.899  1.00  0.00     0.211 HD
ENDBRANCH  12  35
BRANCH  13  37
ATOM     37  O   UNL     1      35.792  24.434  30.310  1.00  0.00    -0.387 OA
ATOM     38  H   UNL     1      36.449  23.789  30.670  1.00  0.00     0.211 HD
ENDBRANCH  13  37
BRANCH  14  39
ATOM     39  O   UNL     1      35.384  23.753  27.758  1.00  0.00    -0.387 OA
ATOM     40  H   UNL     1      36.108  23.360  28.312  1.00  0.00     0.211 HD
ENDBRANCH  14  39
ENDBRANCH   8   9
ENDBRANCH   7   8
ENDBRANCH   1   7
BRANCH   1  41
ATOM     41  C   UNL     1      31.444  19.976  26.634  1.00  0.00     0.364 C 
ATOM     42  O   UNL     1      31.266  18.758  26.891  1.00  0.00    -0.246 OA
BRANCH  41  43
ATOM     43  O   UNL     1      30.550  20.859  27.151  1.00  0.00    -0.477 OA
ATOM     44  H   UNL     1      30.754  21.664  27.740  1.00  0.00     0.296 HD
ENDBRANCH  41  43
ENDBRANCH   1  41
BRANCH   3  45
ATOM     45  O   UNL     1      34.794  20.119  23.952  1.00  0.00    -0.391 OA
ATOM     46  H   UNL     1      35.440  19.904  23.221  1.00  0.00     0.211 HD
ENDBRANCH   3  45
BRANCH   5  47
ATOM     47  C   UNL     1      31.076  19.107  22.836  1.00  0.00     0.176 C 
BRANCH  47  48
ATOM     48  O   UNL     1      29.996  19.912  23.118  1.00  0.00    -0.388 OA
ATOM     49  H   UNL     1      30.124  20.877  22.898  1.00  0.00     0.211 HD
ENDBRANCH  47  48
BRANCH  47  50
ATOM     50  C   UNL     1      31.653  19.307  21.451  1.00  0.00     0.165 C 
BRANCH  50  51
ATOM     51  O   UNL     1      32.281  20.499  21.291  1.00  0.00    -0.388 OA
ATOM     52  H   UNL     1      32.381  20.756  20.363  1.00  0.00     0.211 HD
ENDBRANCH  50  51
BRANCH  50  53
ATOM     53  C   UNL     1      30.607  18.944  20.449  1.00  0.00     0.154 C 
BRANCH  53  54
ATOM     54  N   UNL     1      29.453  19.758  20.381  1.00  0.00    -0.319 N 
ATOM     55  C   UNL     1      29.390  21.000  19.658  1.00  0.00     0.407 C 
ATOM     56  H   UNL     1      28.559  19.468  20.882  1.00  0.00     0.167 HD
ATOM     57  O   UNL     1      30.381  21.453  19.051  1.00  0.00    -0.225 OA
BRANCH  55  58
ATOM     58  O   UNL     1      28.220  21.735  19.616  1.00  0.00    -0.443 OA
BRANCH  58  59
ATOM     59  C   UNL     1      27.978  22.803  20.487  1.00  0.00     0.294 C 
BRANCH  59  60
ATOM     60  C   UNL     1      26.819  23.584  19.953  1.00  0.00     0.120 A 
ATOM     61  C   UNL     1      25.798  24.154  20.736  1.00  0.00     0.139 A 
ATOM     62  N   UNL     1      26.475  23.891  18.696  1.00  0.00    -0.132 NA
ATOM     63  N   UNL     1      24.907  24.759  19.940  1.00  0.00    -0.239 N 
ATOM     64  N   UNL     1      25.327  24.593  18.710  1.00  0.00    -0.066 NA
BRANCH  63  65
ATOM     65  C   UNL     1      23.722  25.455  20.397  1.00  0.00     0.122 C 
ATOM     66  C   UNL     1      22.976  25.938  19.105  1.00  0.00     0.046 C 
ATOM     67  C   UNL     1      24.020  26.742  21.128  1.00  0.00     0.046 C 
BRANCH  65  68
ATOM     68  C   UNL     1      22.803  24.579  21.099  1.00  0.00     0.192 C 
ATOM     69  O   UNL     1      22.320  23.612  20.365  1.00  0.00    -0.291 OA
BRANCH  68  70
ATOM     70  C   UNL     1      22.336  24.597  22.451  1.00  0.00     0.045 A 
ATOM     71  C   UNL     1      20.981  24.627  22.803  1.00  0.00     0.095 A 
ATOM     72  C   UNL     1      23.046  24.613  23.635  1.00  0.00     0.010 A 
ATOM     73  N   UNL     1      20.904  24.659  24.119  1.00  0.00    -0.360 N 
ATOM     74  C   UNL     1      22.115  24.654  24.677  1.00  0.00     0.046 A 
ATOM     75  C   UNL     1      24.373  24.600  23.967  1.00  0.00     0.011 A 
ATOM     76  H   UNL     1      19.982  24.687  24.640  1.00  0.00     0.166 HD
ATOM     77  C   UNL     1      22.519  24.680  26.000  1.00  0.00     0.027 A 
ATOM     78  C   UNL     1      24.775  24.627  25.301  1.00  0.00     0.001 A 
ATOM     79  C   UNL     1      23.849  24.667  26.302  1.00  0.00     0.002 A 
ENDBRANCH  68  70
ENDBRANCH  65  68
ENDBRANCH  63  65
ENDBRANCH  59  60
ENDBRANCH  58  59
ENDBRANCH  55  58
ENDBRANCH  53  54
ENDBRANCH  50  53
ENDBRANCH  47  50
ENDBRANCH   5  47
BRANCH   4  80
ATOM     80  N   UNL     1      33.346  16.948  24.137  1.00  0.00    -0.348 N 
ATOM     81  C   UNL     1      34.195  15.935  23.625  1.00  0.00     0.217 C 
ATOM     82  H   UNL     1      32.668  16.673  24.899  1.00  0.00     0.163 HD
ATOM     83  C   UNL     1      34.182  14.526  24.100  1.00  0.00     0.114 C 
ATOM     84  O   UNL     1      35.006  16.290  22.703  1.00  0.00    -0.275 OA
ENDBRANCH   4  80
TORSDOF 32
