REMARK VINA RESULT:    -5.295     14.519     19.806
REMARK INTER + INTRA:         -22.081
REMARK INTER:                 -15.948
REMARK INTRA:                  -6.134
REMARK UNBOUND:                -8.118
REMARK SMILES CC(=O)N[C@@H]1[C@@H](O)C[C@](OC[C@H]2O[C@@H](O[C@H]3[C@H](O)[C@@H](O)[C@H](OCCN=[N+]=[N-])O[C@@H]3CO)[C@H](O)[C@@H](O)[C@H]2O)(C(=O)O)O[C@H]1C(O)[C@H](O)CNC(=O)OCc1cn(CCOC(C)=O)nn1
REMARK SMILES IDX 43 1 42 2 9 3 8 4 41 5 6 6 5 7 10 8 11 9 12 10 14 11 13 12
REMARK SMILES IDX 32 13 34 14 36 15 15 16 16 17 29 18 28 19 21 20 17 21 19 22
REMARK SMILES IDX 30 23 31 24 22 26 23 27 24 28 25 29 26 30 27 31 18 32 20 34
REMARK SMILES IDX 33 36 35 38 37 40 38 42 39 43 40 44 7 46 4 48 2 49 1 51 3 52
REMARK SMILES IDX 44 53 45 55 46 56 47 58 48 59 49 60 50 62 51 63 52 64 53 65
REMARK SMILES IDX 54 66 63 67 55 68 62 69 56 70 57 71 58 72 59 73 61 74 60 75
REMARK H PARENT 31 25 18 33 20 35 33 37 35 39 37 41 40 45 7 47 4 50 44 54
REMARK H PARENT 46 57 48 61
REMARK Flexibility Score: inf
ROOT
ATOM      1  C   UNL     1      18.368  29.307  19.132  1.00  0.00     0.176 C 
ENDROOT
BRANCH   1   2
ATOM      2  C   UNL     1      19.871  29.327  19.026  1.00  0.00     0.178 C 
ATOM      3  C   UNL     1      21.612  27.846  18.451  1.00  0.00     0.272 C 
ATOM      4  C   UNL     1      22.392  29.123  18.647  1.00  0.00     0.113 C 
ATOM      5  O   UNL     1      20.210  28.079  18.463  1.00  0.00    -0.332 OA
ATOM      6  C   UNL     1      22.049  29.832  19.909  1.00  0.00     0.145 C 
ATOM      7  C   UNL     1      20.617  29.389  20.323  1.00  0.00     0.142 C 
BRANCH   3   8
ATOM      8  O   UNL     1      21.827  26.866  19.295  1.00  0.00    -0.338 OA
BRANCH   8   9
ATOM      9  C   UNL     1      22.873  26.508  19.985  1.00  0.00     0.199 C 
BRANCH   9  10
ATOM     10  C   UNL     1      22.879  25.877  21.312  1.00  0.00     0.179 C 
ATOM     11  C   UNL     1      23.392  26.395  23.499  1.00  0.00     0.282 C 
ATOM     12  O   UNL     1      22.915  26.939  22.298  1.00  0.00    -0.341 OA
ATOM     13  C   UNL     1      22.841  25.072  23.830  1.00  0.00     0.202 C 
ATOM     14  C   UNL     1      21.739  24.546  22.978  1.00  0.00     0.179 C 
ATOM     15  C   UNL     1      21.527  25.231  21.673  1.00  0.00     0.177 C 
BRANCH  11  16
ATOM     16  O   UNL     1      23.254  27.381  24.462  1.00  0.00    -0.341 OA
BRANCH  16  17
ATOM     17  C   UNL     1      23.201  26.891  25.741  1.00  0.00     0.184 C 
ATOM     18  C   UNL     1      22.494  27.881  26.640  1.00  0.00     0.178 C 
ATOM     19  O   UNL     1      22.458  27.278  27.905  1.00  0.00    -0.341 OA
ATOM     20  C   UNL     1      23.683  27.378  28.494  1.00  0.00     0.281 C 
ATOM     21  C   UNL     1      24.584  26.592  26.296  1.00  0.00     0.180 C 
ATOM     22  C   UNL     1      24.864  27.347  27.553  1.00  0.00     0.202 C 
BRANCH  18  23
ATOM     23  C   UNL     1      21.067  28.085  26.165  1.00  0.00     0.191 C 
BRANCH  23  24
ATOM     24  O   UNL     1      20.594  26.922  25.585  1.00  0.00    -0.394 OA
ATOM     25  H   UNL     1      20.239  27.189  24.685  1.00  0.00     0.210 HD
ENDBRANCH  23  24
ENDBRANCH  18  23
BRANCH  20  26
ATOM     26  O   UNL     1      23.776  26.356  29.449  1.00  0.00    -0.350 OA
BRANCH  26  27
ATOM     27  C   UNL     1      23.685  26.860  30.741  1.00  0.00     0.169 C 
BRANCH  27  28
ATOM     28  C   UNL     1      25.111  26.807  31.302  1.00  0.00     0.119 C 
BRANCH  28  29
ATOM     29  N   UNL     1      25.667  25.501  30.996  1.00  0.00    -0.092 NA
ATOM     30  N   UNL     1      26.821  25.182  31.308  1.00  0.00     0.001 N 
ATOM     31  N   UNL     1      28.052  25.000  31.260  1.00  0.00    -0.003 NA
ENDBRANCH  28  29
ENDBRANCH  27  28
ENDBRANCH  26  27
ENDBRANCH  20  26
BRANCH  21  32
ATOM     32  O   UNL     1      24.822  25.233  26.459  1.00  0.00    -0.387 OA
ATOM     33  H   UNL     1      24.376  24.842  27.251  1.00  0.00     0.211 HD
ENDBRANCH  21  32
BRANCH  22  34
ATOM     34  O   UNL     1      25.377  28.599  27.275  1.00  0.00    -0.385 OA
ATOM     35  H   UNL     1      26.305  28.486  26.920  1.00  0.00     0.211 HD
ENDBRANCH  22  34
ENDBRANCH  16  17
ENDBRANCH  11  16
BRANCH  13  36
ATOM     36  O   UNL     1      23.865  24.101  23.996  1.00  0.00    -0.385 OA
ATOM     37  H   UNL     1      24.541  24.393  24.643  1.00  0.00     0.211 HD
ENDBRANCH  13  36
BRANCH  14  38
ATOM     38  O   UNL     1      20.514  24.541  23.662  1.00  0.00    -0.387 OA
ATOM     39  H   UNL     1      20.555  25.250  24.370  1.00  0.00     0.211 HD
ENDBRANCH  14  38
BRANCH  15  40
ATOM     40  O   UNL     1      20.608  26.289  21.910  1.00  0.00    -0.387 OA
ATOM     41  H   UNL     1      20.590  26.907  21.151  1.00  0.00     0.211 HD
ENDBRANCH  15  40
ENDBRANCH   9  10
ENDBRANCH   8   9
ENDBRANCH   3   8
BRANCH   3  42
ATOM     42  C   UNL     1      21.819  27.484  17.021  1.00  0.00     0.364 C 
ATOM     43  O   UNL     1      21.895  28.278  16.065  1.00  0.00    -0.246 OA
BRANCH  42  44
ATOM     44  O   UNL     1      21.947  26.126  16.657  1.00  0.00    -0.477 OA
ATOM     45  H   UNL     1      21.115  25.614  16.403  1.00  0.00     0.296 HD
ENDBRANCH  42  44
ENDBRANCH   3  42
BRANCH   6  46
ATOM     46  O   UNL     1      22.933  29.657  20.948  1.00  0.00    -0.391 OA
ATOM     47  H   UNL     1      22.865  30.356  21.648  1.00  0.00     0.211 HD
ENDBRANCH   6  46
BRANCH   7  48
ATOM     48  N   UNL     1      20.128  30.271  21.329  1.00  0.00    -0.348 N 
ATOM     49  C   UNL     1      20.010  29.877  22.687  1.00  0.00     0.217 C 
ATOM     50  H   UNL     1      19.873  31.238  21.074  1.00  0.00     0.163 HD
ATOM     51  C   UNL     1      19.495  30.810  23.737  1.00  0.00     0.114 C 
ATOM     52  O   UNL     1      20.335  28.714  23.074  1.00  0.00    -0.275 OA
ENDBRANCH   7  48
ENDBRANCH   1   2
BRANCH   1  53
ATOM     53  O   UNL     1      18.100  28.383  20.192  1.00  0.00    -0.388 OA
ATOM     54  H   UNL     1      18.521  28.691  21.021  1.00  0.00     0.211 HD
ENDBRANCH   1  53
BRANCH   1  55
ATOM     55  C   UNL     1      17.767  28.642  17.917  1.00  0.00     0.165 C 
BRANCH  55  56
ATOM     56  O   UNL     1      18.376  29.161  16.763  1.00  0.00    -0.388 OA
ATOM     57  H   UNL     1      17.689  29.616  16.234  1.00  0.00     0.211 HD
ENDBRANCH  55  56
BRANCH  55  58
ATOM     58  C   UNL     1      16.276  28.758  17.855  1.00  0.00     0.154 C 
BRANCH  58  59
ATOM     59  N   UNL     1      15.569  28.245  18.986  1.00  0.00    -0.319 N 
ATOM     60  C   UNL     1      14.540  28.946  19.645  1.00  0.00     0.407 C 
ATOM     61  H   UNL     1      15.789  27.284  19.395  1.00  0.00     0.167 HD
ATOM     62  O   UNL     1      14.153  30.077  19.283  1.00  0.00    -0.225 OA
BRANCH  60  63
ATOM     63  O   UNL     1      13.880  28.412  20.763  1.00  0.00    -0.443 OA
BRANCH  63  64
ATOM     64  C   UNL     1      13.358  29.215  21.783  1.00  0.00     0.294 C 
BRANCH  64  65
ATOM     65  C   UNL     1      14.402  29.611  22.768  1.00  0.00     0.120 A 
ATOM     66  C   UNL     1      14.259  30.662  23.658  1.00  0.00     0.138 A 
ATOM     67  N   UNL     1      15.602  29.093  23.010  1.00  0.00    -0.132 NA
ATOM     68  N   UNL     1      15.377  30.726  24.389  1.00  0.00    -0.249 N 
ATOM     69  N   UNL     1      16.180  29.762  23.978  1.00  0.00    -0.067 NA
BRANCH  68  70
ATOM     70  C   UNL     1      15.689  31.692  25.452  1.00  0.00     0.187 C 
BRANCH  70  71
ATOM     71  C   UNL     1      15.496  31.043  26.805  1.00  0.00     0.256 C 
BRANCH  71  72
ATOM     72  O   UNL     1      14.112  31.100  27.134  1.00  0.00    -0.464 OA
BRANCH  72  73
ATOM     73  C   UNL     1      13.683  31.795  28.261  1.00  0.00     0.302 C 
ATOM     74  O   UNL     1      13.380  33.004  28.126  1.00  0.00    -0.253 OA
ATOM     75  C   UNL     1      13.575  31.147  29.610  1.00  0.00     0.139 C 
ENDBRANCH  72  73
ENDBRANCH  71  72
ENDBRANCH  70  71
ENDBRANCH  68  70
ENDBRANCH  64  65
ENDBRANCH  63  64
ENDBRANCH  60  63
ENDBRANCH  58  59
ENDBRANCH  55  58
ENDBRANCH   1  55
TORSDOF 33
