REMARK VINA RESULT:    -5.404      7.536     15.269
REMARK INTER + INTRA:         -23.811
REMARK INTER:                 -14.627
REMARK INTRA:                  -9.184
REMARK UNBOUND:                -9.245
REMARK SMILES CC(=O)N[C@@H]1[C@@H](O)C[C@](OC[C@H]2O[C@@H](O[C@H]3[C@H](O)[C@@H](O)[C@H](OCCN=[N+]=[N-])O[C@@H]3CO)[C@H](O)[C@@H](O)[C@H]2O)(C(=O)O)O[C@H]1C(O)[C@H](O)CNC(=O)OCc1cn([C@@H](C)C(=O)OCc2ccccc2)nn1
REMARK SMILES IDX 43 1 42 2 9 3 8 4 41 5 6 6 5 7 10 8 11 9 12 10 14 11 13 12
REMARK SMILES IDX 32 13 34 14 36 15 15 16 16 17 29 18 28 19 21 20 17 21 19 22
REMARK SMILES IDX 30 23 31 24 22 26 23 27 24 28 25 29 26 30 27 31 18 32 20 34
REMARK SMILES IDX 33 36 35 38 37 40 38 42 39 43 40 44 7 46 4 48 2 49 1 51 3 52
REMARK SMILES IDX 44 53 45 55 46 56 47 58 48 59 49 60 50 62 51 63 52 64 53 65
REMARK SMILES IDX 54 66 69 67 55 68 68 69 56 70 57 71 58 72 59 73 60 74 61 75
REMARK SMILES IDX 62 76 63 77 67 78 64 79 66 80 65 81
REMARK H PARENT 31 25 18 33 20 35 33 37 35 39 37 41 40 45 7 47 4 50 44 54
REMARK H PARENT 46 57 48 61
REMARK Flexibility Score: inf
ROOT
ATOM      1  C   UNL     1      19.504  33.025  26.150  1.00  0.00     0.176 C 
ENDROOT
BRANCH   1   2
ATOM      2  C   UNL     1      19.248  31.641  26.602  1.00  0.00     0.178 C 
ATOM      3  C   UNL     1      17.209  31.834  27.722  1.00  0.00     0.272 C 
ATOM      4  C   UNL     1      17.905  31.512  28.989  1.00  0.00     0.113 C 
ATOM      5  O   UNL     1      17.937  31.244  26.628  1.00  0.00    -0.332 OA
ATOM      6  C   UNL     1      19.351  31.945  29.018  1.00  0.00     0.145 C 
ATOM      7  C   UNL     1      20.044  31.325  27.842  1.00  0.00     0.142 C 
BRANCH   3   8
ATOM      8  O   UNL     1      16.985  33.070  27.358  1.00  0.00    -0.338 OA
BRANCH   8   9
ATOM      9  C   UNL     1      15.999  33.895  27.557  1.00  0.00     0.199 C 
BRANCH   9  10
ATOM     10  C   UNL     1      15.036  34.309  26.481  1.00  0.00     0.179 C 
ATOM     11  C   UNL     1      14.238  33.508  24.446  1.00  0.00     0.282 C 
ATOM     12  O   UNL     1      15.298  33.600  25.346  1.00  0.00    -0.341 OA
ATOM     13  C   UNL     1      13.241  34.597  24.619  1.00  0.00     0.202 C 
ATOM     14  C   UNL     1      12.597  34.530  25.976  1.00  0.00     0.179 C 
ATOM     15  C   UNL     1      13.594  34.061  26.973  1.00  0.00     0.177 C 
BRANCH  11  16
ATOM     16  O   UNL     1      13.774  32.223  24.503  1.00  0.00    -0.341 OA
BRANCH  16  17
ATOM     17  C   UNL     1      13.597  31.603  23.302  1.00  0.00     0.184 C 
ATOM     18  C   UNL     1      12.968  30.252  23.525  1.00  0.00     0.178 C 
ATOM     19  O   UNL     1      12.922  29.542  22.320  1.00  0.00    -0.341 OA
ATOM     20  C   UNL     1      14.207  28.954  22.201  1.00  0.00     0.281 C 
ATOM     21  C   UNL     1      14.903  31.366  22.561  1.00  0.00     0.180 C 
ATOM     22  C   UNL     1      15.304  29.943  22.437  1.00  0.00     0.202 C 
BRANCH  18  23
ATOM     23  C   UNL     1      11.629  30.295  24.200  1.00  0.00     0.191 C 
BRANCH  23  24
ATOM     24  O   UNL     1      11.137  31.592  24.030  1.00  0.00    -0.394 OA
ATOM     25  H   UNL     1      11.764  32.183  23.549  1.00  0.00     0.210 HD
ENDBRANCH  23  24
ENDBRANCH  18  23
BRANCH  20  26
ATOM     26  O   UNL     1      14.261  28.321  21.001  1.00  0.00    -0.350 OA
BRANCH  26  27
ATOM     27  C   UNL     1      15.039  28.834  20.016  1.00  0.00     0.169 C 
BRANCH  27  28
ATOM     28  C   UNL     1      16.136  27.987  19.479  1.00  0.00     0.119 C 
BRANCH  28  29
ATOM     29  N   UNL     1      17.445  28.221  19.973  1.00  0.00    -0.092 NA
ATOM     30  N   UNL     1      18.178  29.085  19.507  1.00  0.00     0.001 N 
ATOM     31  N   UNL     1      18.902  30.050  19.198  1.00  0.00    -0.003 NA
ENDBRANCH  28  29
ENDBRANCH  27  28
ENDBRANCH  26  27
ENDBRANCH  20  26
BRANCH  21  32
ATOM     32  O   UNL     1      14.876  31.939  21.286  1.00  0.00    -0.387 OA
ATOM     33  H   UNL     1      15.742  32.315  21.013  1.00  0.00     0.211 HD
ENDBRANCH  21  32
BRANCH  22  34
ATOM     34  O   UNL     1      16.127  29.598  23.515  1.00  0.00    -0.385 OA
ATOM     35  H   UNL     1      16.074  28.609  23.606  1.00  0.00     0.211 HD
ENDBRANCH  22  34
ENDBRANCH  16  17
ENDBRANCH  11  16
BRANCH  13  36
ATOM     36  O   UNL     1      13.902  35.835  24.435  1.00  0.00    -0.385 OA
ATOM     37  H   UNL     1      14.639  35.827  25.119  1.00  0.00     0.211 HD
ENDBRANCH  13  36
BRANCH  14  38
ATOM     38  O   UNL     1      11.473  33.733  25.895  1.00  0.00    -0.387 OA
ATOM     39  H   UNL     1      11.637  32.811  26.233  1.00  0.00     0.211 HD
ENDBRANCH  14  38
BRANCH  15  40
ATOM     40  O   UNL     1      13.405  32.736  27.340  1.00  0.00    -0.387 OA
ATOM     41  H   UNL     1      13.147  32.698  28.312  1.00  0.00     0.211 HD
ENDBRANCH  15  40
ENDBRANCH   9  10
ENDBRANCH   8   9
ENDBRANCH   3   8
BRANCH   3  42
ATOM     42  C   UNL     1      15.966  30.969  27.658  1.00  0.00     0.364 C 
ATOM     43  O   UNL     1      15.400  30.569  28.685  1.00  0.00    -0.246 OA
BRANCH  42  44
ATOM     44  O   UNL     1      15.420  30.599  26.430  1.00  0.00    -0.477 OA
ATOM     45  H   UNL     1      14.438  30.705  26.194  1.00  0.00     0.296 HD
ENDBRANCH  42  44
ENDBRANCH   3  42
BRANCH   6  46
ATOM     46  O   UNL     1      19.503  33.328  29.065  1.00  0.00    -0.391 OA
ATOM     47  H   UNL     1      19.946  33.592  28.225  1.00  0.00     0.211 HD
ENDBRANCH   6  46
BRANCH   7  48
ATOM     48  N   UNL     1      20.140  29.888  28.062  1.00  0.00    -0.348 N 
ATOM     49  C   UNL     1      21.144  29.157  27.353  1.00  0.00     0.217 C 
ATOM     50  H   UNL     1      19.518  29.359  28.705  1.00  0.00     0.163 HD
ATOM     51  C   UNL     1      21.242  27.684  27.578  1.00  0.00     0.114 C 
ATOM     52  O   UNL     1      21.923  29.752  26.560  1.00  0.00    -0.275 OA
ENDBRANCH   7  48
ENDBRANCH   1   2
BRANCH   1  53
ATOM     53  O   UNL     1      20.896  33.275  26.228  1.00  0.00    -0.388 OA
ATOM     54  H   UNL     1      21.148  34.017  25.613  1.00  0.00     0.211 HD
ENDBRANCH   1  53
BRANCH   1  55
ATOM     55  C   UNL     1      19.180  33.259  24.666  1.00  0.00     0.165 C 
BRANCH  55  56
ATOM     56  O   UNL     1      17.909  32.897  24.346  1.00  0.00    -0.388 OA
ATOM     57  H   UNL     1      17.901  32.174  23.675  1.00  0.00     0.211 HD
ENDBRANCH  55  56
BRANCH  55  58
ATOM     58  C   UNL     1      20.258  32.704  23.791  1.00  0.00     0.154 C 
BRANCH  58  59
ATOM     59  N   UNL     1      20.425  31.295  24.017  1.00  0.00    -0.319 N 
ATOM     60  C   UNL     1      19.690  30.260  23.395  1.00  0.00     0.407 C 
ATOM     61  H   UNL     1      21.162  30.947  24.709  1.00  0.00     0.167 HD
ATOM     62  O   UNL     1      18.794  30.509  22.585  1.00  0.00    -0.225 OA
BRANCH  60  63
ATOM     63  O   UNL     1      19.956  28.911  23.680  1.00  0.00    -0.443 OA
BRANCH  63  64
ATOM     64  C   UNL     1      21.253  28.374  23.608  1.00  0.00     0.294 C 
BRANCH  64  65
ATOM     65  C   UNL     1      21.467  27.900  22.221  1.00  0.00     0.120 A 
ATOM     66  C   UNL     1      22.654  27.800  21.531  1.00  0.00     0.139 A 
ATOM     67  N   UNL     1      20.506  27.486  21.389  1.00  0.00    -0.132 NA
ATOM     68  N   UNL     1      22.386  27.325  20.283  1.00  0.00    -0.238 N 
ATOM     69  N   UNL     1      21.080  27.143  20.227  1.00  0.00    -0.066 NA
BRANCH  68  70
ATOM     70  C   UNL     1      23.422  27.114  19.302  1.00  0.00     0.215 C 
ATOM     71  C   UNL     1      24.126  28.414  18.959  1.00  0.00     0.046 C 
BRANCH  70  72
ATOM     72  C   UNL     1      24.430  26.116  19.808  1.00  0.00     0.331 C 
ATOM     73  O   UNL     1      25.616  26.467  19.932  1.00  0.00    -0.250 OA
BRANCH  72  74
ATOM     74  O   UNL     1      24.064  24.830  20.133  1.00  0.00    -0.459 OA
BRANCH  74  75
ATOM     75  C   UNL     1      24.351  24.193  21.353  1.00  0.00     0.268 C 
BRANCH  75  76
ATOM     76  C   UNL     1      23.293  24.358  22.372  1.00  0.00    -0.011 A 
ATOM     77  C   UNL     1      21.961  24.244  22.073  1.00  0.00     0.007 A 
ATOM     78  C   UNL     1      23.632  24.639  23.673  1.00  0.00     0.007 A 
ATOM     79  C   UNL     1      20.973  24.400  23.019  1.00  0.00     0.000 A 
ATOM     80  C   UNL     1      22.679  24.803  24.652  1.00  0.00     0.000 A 
ATOM     81  C   UNL     1      21.338  24.680  24.311  1.00  0.00     0.000 A 
ENDBRANCH  75  76
ENDBRANCH  74  75
ENDBRANCH  72  74
ENDBRANCH  70  72
ENDBRANCH  68  70
ENDBRANCH  64  65
ENDBRANCH  63  64
ENDBRANCH  60  63
ENDBRANCH  58  59
ENDBRANCH  55  58
ENDBRANCH   1  55
TORSDOF 34
