REMARK VINA RESULT:    -5.524     25.998     30.020
REMARK INTER + INTRA:         -20.617
REMARK INTER:                  -9.194
REMARK INTRA:                 -11.423
REMARK UNBOUND:                -6.052
REMARK SMILES CC(=O)N[C@@H]1[C@@H](O)C[C@](OC[C@H]2O[C@@H](O[C@H]3[C@H](O)[C@@H](O)[C@H](OCCN=[N+]=[N-])O[C@@H]3CO)[C@H](O)[C@@H](O)[C@H]2O)(C(=O)O)O[C@H]1C(O)[C@H](O)CNC(=O)OCc1cn(CC(O)CO)nn1
REMARK SMILES IDX 43 1 42 2 9 3 8 4 41 5 6 6 5 7 10 8 11 9 12 10 14 11 13 12
REMARK SMILES IDX 32 13 34 14 36 15 15 16 16 17 29 18 28 19 21 20 17 21 19 22
REMARK SMILES IDX 30 23 31 24 22 26 23 27 24 28 25 29 26 30 27 31 18 32 20 34
REMARK SMILES IDX 33 36 35 38 37 40 38 42 39 43 40 44 7 46 4 48 2 49 1 51 3 52
REMARK SMILES IDX 44 53 45 55 46 56 47 58 48 59 49 60 50 62 51 63 52 64 53 65
REMARK SMILES IDX 54 66 62 67 55 68 61 69 56 70 57 71 58 72 59 74 60 75
REMARK H PARENT 31 25 18 33 20 35 33 37 35 39 37 41 40 45 7 47 4 50 44 54
REMARK H PARENT 46 57 48 61 58 73 60 76
REMARK Flexibility Score: inf
ROOT
ATOM      1  C   UNL     1      25.909  19.618   9.600  1.00  0.00     0.176 C 
ENDROOT
BRANCH   1   2
ATOM      2  C   UNL     1      26.269  19.794  11.087  1.00  0.00     0.178 C 
ATOM      3  C   UNL     1      25.319  20.180  13.215  1.00  0.00     0.272 C 
ATOM      4  C   UNL     1      26.292  21.298  13.468  1.00  0.00     0.113 C 
ATOM      5  O   UNL     1      25.185  19.997  11.831  1.00  0.00    -0.332 OA
ATOM      6  C   UNL     1      27.055  21.809  12.305  1.00  0.00     0.145 C 
ATOM      7  C   UNL     1      27.303  20.851  11.200  1.00  0.00     0.142 C 
BRANCH   3   8
ATOM      8  O   UNL     1      24.128  20.474  13.697  1.00  0.00    -0.338 OA
BRANCH   8   9
ATOM      9  C   UNL     1      23.112  21.217  13.573  1.00  0.00     0.199 C 
BRANCH   9  10
ATOM     10  C   UNL     1      21.914  20.906  12.736  1.00  0.00     0.179 C 
ATOM     11  C   UNL     1      20.871  21.563  10.809  1.00  0.00     0.282 C 
ATOM     12  O   UNL     1      22.120  21.457  11.413  1.00  0.00    -0.341 OA
ATOM     13  C   UNL     1      19.838  20.616  11.312  1.00  0.00     0.202 C 
ATOM     14  C   UNL     1      20.355  19.301  11.811  1.00  0.00     0.179 C 
ATOM     15  C   UNL     1      21.753  19.424  12.395  1.00  0.00     0.177 C 
BRANCH  11  16
ATOM     16  O   UNL     1      20.898  21.520   9.430  1.00  0.00    -0.341 OA
BRANCH  16  17
ATOM     17  C   UNL     1      20.701  22.757   8.820  1.00  0.00     0.184 C 
ATOM     18  C   UNL     1      21.656  22.905   7.675  1.00  0.00     0.178 C 
ATOM     19  O   UNL     1      22.568  23.935   7.847  1.00  0.00    -0.341 OA
ATOM     20  C   UNL     1      23.072  23.946   9.159  1.00  0.00     0.281 C 
ATOM     21  C   UNL     1      20.727  23.831   9.826  1.00  0.00     0.180 C 
ATOM     22  C   UNL     1      21.995  24.595   9.994  1.00  0.00     0.202 C 
BRANCH  18  23
ATOM     23  C   UNL     1      20.939  23.146   6.361  1.00  0.00     0.191 C 
BRANCH  23  24
ATOM     24  O   UNL     1      20.040  24.200   6.450  1.00  0.00    -0.394 OA
ATOM     25  H   UNL     1      20.090  24.542   7.399  1.00  0.00     0.210 HD
ENDBRANCH  23  24
ENDBRANCH  18  23
BRANCH  20  26
ATOM     26  O   UNL     1      24.218  24.724   9.126  1.00  0.00    -0.350 OA
BRANCH  26  27
ATOM     27  C   UNL     1      24.070  25.931   8.461  1.00  0.00     0.169 C 
BRANCH  27  28
ATOM     28  C   UNL     1      25.027  26.995   8.950  1.00  0.00     0.119 C 
BRANCH  28  29
ATOM     29  N   UNL     1      24.865  27.280  10.350  1.00  0.00    -0.092 NA
ATOM     30  N   UNL     1      23.809  27.574  10.899  1.00  0.00     0.001 N 
ATOM     31  N   UNL     1      22.708  27.949  11.301  1.00  0.00    -0.003 NA
ENDBRANCH  28  29
ENDBRANCH  27  28
ENDBRANCH  26  27
ENDBRANCH  20  26
BRANCH  21  32
ATOM     32  O   UNL     1      19.685  24.769   9.620  1.00  0.00    -0.387 OA
ATOM     33  H   UNL     1      20.026  25.343   8.861  1.00  0.00     0.211 HD
ENDBRANCH  21  32
BRANCH  22  34
ATOM     34  O   UNL     1      22.386  24.748  11.321  1.00  0.00    -0.385 OA
ATOM     35  H   UNL     1      21.641  24.764  11.944  1.00  0.00     0.211 HD
ENDBRANCH  22  34
ENDBRANCH  16  17
ENDBRANCH  11  16
BRANCH  13  36
ATOM     36  O   UNL     1      18.948  21.235  12.222  1.00  0.00    -0.385 OA
ATOM     37  H   UNL     1      18.926  22.206  12.132  1.00  0.00     0.211 HD
ENDBRANCH  13  36
BRANCH  14  38
ATOM     38  O   UNL     1      20.300  18.285  10.860  1.00  0.00    -0.387 OA
ATOM     39  H   UNL     1      21.101  18.338  10.285  1.00  0.00     0.211 HD
ENDBRANCH  14  38
BRANCH  15  40
ATOM     40  O   UNL     1      22.654  19.172  11.326  1.00  0.00    -0.387 OA
ATOM     41  H   UNL     1      23.461  18.709  11.655  1.00  0.00     0.211 HD
ENDBRANCH  15  40
ENDBRANCH   9  10
ENDBRANCH   8   9
ENDBRANCH   3   8
BRANCH   3  42
ATOM     42  C   UNL     1      25.824  18.887  13.782  1.00  0.00     0.364 C 
ATOM     43  O   UNL     1      26.954  18.931  14.362  1.00  0.00    -0.246 OA
BRANCH  42  44
ATOM     44  O   UNL     1      25.142  17.701  13.702  1.00  0.00    -0.477 OA
ATOM     45  H   UNL     1      24.142  17.634  13.919  1.00  0.00     0.296 HD
ENDBRANCH  42  44
ENDBRANCH   3  42
BRANCH   6  46
ATOM     46  O   UNL     1      26.329  22.906  11.783  1.00  0.00    -0.391 OA
ATOM     47  H   UNL     1      25.610  23.143  12.401  1.00  0.00     0.211 HD
ENDBRANCH   6  46
BRANCH   7  48
ATOM     48  N   UNL     1      28.662  20.328  11.315  1.00  0.00    -0.348 N 
ATOM     49  C   UNL     1      29.689  20.698  10.411  1.00  0.00     0.217 C 
ATOM     50  H   UNL     1      28.925  19.660  12.067  1.00  0.00     0.163 HD
ATOM     51  C   UNL     1      31.073  20.168  10.523  1.00  0.00     0.114 C 
ATOM     52  O   UNL     1      29.394  21.503   9.493  1.00  0.00    -0.275 OA
ENDBRANCH   7  48
ENDBRANCH   1   2
BRANCH   1  53
ATOM     53  O   UNL     1      25.046  18.548   9.466  1.00  0.00    -0.388 OA
ATOM     54  H   UNL     1      25.518  17.695   9.635  1.00  0.00     0.211 HD
ENDBRANCH   1  53
BRANCH   1  55
ATOM     55  C   UNL     1      25.245  20.881   9.075  1.00  0.00     0.165 C 
BRANCH  55  56
ATOM     56  O   UNL     1      23.869  20.709   9.364  1.00  0.00    -0.388 OA
ATOM     57  H   UNL     1      23.611  21.312  10.103  1.00  0.00     0.211 HD
ENDBRANCH  55  56
BRANCH  55  58
ATOM     58  C   UNL     1      25.397  21.079   7.606  1.00  0.00     0.154 C 
BRANCH  58  59
ATOM     59  N   UNL     1      24.263  20.570   6.864  1.00  0.00    -0.319 N 
ATOM     60  C   UNL     1      24.407  19.471   5.987  1.00  0.00     0.407 C 
ATOM     61  H   UNL     1      23.298  20.995   6.953  1.00  0.00     0.167 HD
ATOM     62  O   UNL     1      25.509  18.906   5.804  1.00  0.00    -0.225 OA
BRANCH  60  63
ATOM     63  O   UNL     1      23.326  18.967   5.291  1.00  0.00    -0.443 OA
BRANCH  63  64
ATOM     64  C   UNL     1      22.142  18.469   5.808  1.00  0.00     0.294 C 
BRANCH  64  65
ATOM     65  C   UNL     1      22.253  17.766   7.106  1.00  0.00     0.120 A 
ATOM     66  C   UNL     1      22.368  16.413   7.255  1.00  0.00     0.138 A 
ATOM     67  N   UNL     1      22.247  18.346   8.343  1.00  0.00    -0.132 NA
ATOM     68  N   UNL     1      22.429  16.193   8.581  1.00  0.00    -0.249 N 
ATOM     69  N   UNL     1      22.356  17.343   9.205  1.00  0.00    -0.067 NA
BRANCH  68  70
ATOM     70  C   UNL     1      22.545  14.910   9.240  1.00  0.00     0.180 C 
BRANCH  70  71
ATOM     71  C   UNL     1      23.945  14.858   9.869  1.00  0.00     0.161 C 
BRANCH  71  72
ATOM     72  O   UNL     1      24.739  15.731   9.167  1.00  0.00    -0.389 OA
ATOM     73  H   UNL     1      24.533  15.735   8.200  1.00  0.00     0.211 HD
ENDBRANCH  71  72
BRANCH  71  74
ATOM     74  C   UNL     1      23.857  15.228  11.330  1.00  0.00     0.189 C 
BRANCH  74  75
ATOM     75  O   UNL     1      24.061  16.581  11.490  1.00  0.00    -0.394 OA
ATOM     76  H   UNL     1      24.894  16.847  11.021  1.00  0.00     0.210 HD
ENDBRANCH  74  75
ENDBRANCH  71  74
ENDBRANCH  70  71
ENDBRANCH  68  70
ENDBRANCH  64  65
ENDBRANCH  63  64
ENDBRANCH  60  63
ENDBRANCH  58  59
ENDBRANCH  55  58
ENDBRANCH   1  55
TORSDOF 34
