REMARK VINA RESULT:    -6.597      5.119      7.525
REMARK INTER + INTRA:         -22.110
REMARK INTER:                 -17.635
REMARK INTRA:                  -4.476
REMARK UNBOUND:                -5.485
REMARK SMILES CC(=O)N[C@@H]1[C@@H](O)C[C@](OC[C@H]2O[C@@H](O[C@H]3[C@H](O)[C@@H](O)[C@H](OCCN=[N+]=[N-])O[C@@H]3CO)[C@H](O)[C@@H](O)[C@H]2O)(C(=O)O)O[C@H]1C(O)[C@H](O)CNC(=O)OCc1cn(Cc2ccc(Br)cc2)nn1
REMARK SMILES IDX 9 1 8 2 6 3 5 4 42 5 41 6 10 7 11 8 12 9 14 10 13 11 32 12
REMARK SMILES IDX 34 13 36 14 15 15 16 16 29 17 28 18 21 19 17 20 19 21 30 22
REMARK SMILES IDX 31 23 22 25 23 26 24 27 25 28 26 29 27 30 18 31 20 33 33 35
REMARK SMILES IDX 35 37 37 39 38 41 39 42 40 43 7 45 43 47 44 48 45 50 46 51
REMARK SMILES IDX 47 53 48 54 49 55 50 57 51 58 52 59 53 60 54 61 65 62 55 63
REMARK SMILES IDX 64 64 56 65 57 66 58 67 63 68 59 69 62 70 60 71 61 72 4 73
REMARK SMILES IDX 2 74 1 76 3 77
REMARK H PARENT 31 24 18 32 20 34 33 36 35 38 37 40 40 44 7 46 44 49 46 52
REMARK H PARENT 48 56 4 75
REMARK Flexibility Score: inf
ROOT
ATOM      1  C   UNL     1      20.301  28.437  20.876  1.00  0.00     0.272 C 
ATOM      2  C   UNL     1      20.776  29.656  21.582  1.00  0.00     0.113 C 
ATOM      3  C   UNL     1      19.887  30.295  22.573  1.00  0.00     0.145 C 
ATOM      4  C   UNL     1      18.391  29.914  22.413  1.00  0.00     0.142 C 
ATOM      5  C   UNL     1      18.285  29.650  20.936  1.00  0.00     0.178 C 
ATOM      6  O   UNL     1      18.898  28.372  20.804  1.00  0.00    -0.332 OA
ENDROOT
BRANCH   1   7
ATOM      7  O   UNL     1      20.872  27.258  21.094  1.00  0.00    -0.338 OA
BRANCH   7   8
ATOM      8  C   UNL     1      20.895  26.380  22.024  1.00  0.00     0.199 C 
BRANCH   8   9
ATOM      9  C   UNL     1      22.085  26.411  22.953  1.00  0.00     0.179 C 
ATOM     10  C   UNL     1      22.773  26.622  25.104  1.00  0.00     0.282 C 
ATOM     11  O   UNL     1      21.761  26.797  24.227  1.00  0.00    -0.341 OA
ATOM     12  C   UNL     1      24.143  26.336  24.517  1.00  0.00     0.202 C 
ATOM     13  C   UNL     1      24.089  25.227  23.490  1.00  0.00     0.179 C 
ATOM     14  C   UNL     1      22.648  24.985  23.062  1.00  0.00     0.177 C 
BRANCH  10  15
ATOM     15  O   UNL     1      22.587  25.748  26.123  1.00  0.00    -0.341 OA
BRANCH  15  16
ATOM     16  C   UNL     1      22.641  26.078  27.420  1.00  0.00     0.184 C 
ATOM     17  C   UNL     1      23.095  27.464  27.748  1.00  0.00     0.178 C 
ATOM     18  O   UNL     1      24.274  27.516  28.440  1.00  0.00    -0.341 OA
ATOM     19  C   UNL     1      24.241  26.893  29.679  1.00  0.00     0.281 C 
ATOM     20  C   UNL     1      23.523  25.090  28.154  1.00  0.00     0.180 C 
ATOM     21  C   UNL     1      23.602  25.521  29.597  1.00  0.00     0.202 C 
BRANCH  17  22
ATOM     22  C   UNL     1      21.984  28.197  28.463  1.00  0.00     0.191 C 
BRANCH  22  23
ATOM     23  O   UNL     1      20.807  27.422  28.511  1.00  0.00    -0.394 OA
ATOM     24  H   UNL     1      20.572  27.081  27.630  1.00  0.00     0.210 HD
ENDBRANCH  22  23
ENDBRANCH  17  22
BRANCH  19  25
ATOM     25  O   UNL     1      23.666  27.654  30.683  1.00  0.00    -0.350 OA
BRANCH  25  26
ATOM     26  C   UNL     1      24.543  28.298  31.515  1.00  0.00     0.169 C 
BRANCH  26  27
ATOM     27  C   UNL     1      25.977  28.207  31.081  1.00  0.00     0.119 C 
BRANCH  27  28
ATOM     28  N   UNL     1      26.713  27.320  31.973  1.00  0.00    -0.092 NA
ATOM     29  N   UNL     1      27.061  26.207  31.583  1.00  0.00     0.001 N 
ATOM     30  N   UNL     1      27.279  24.988  31.398  1.00  0.00    -0.003 NA
ENDBRANCH  27  28
ENDBRANCH  26  27
ENDBRANCH  25  26
ENDBRANCH  19  25
BRANCH  20  31
ATOM     31  O   UNL     1      22.846  23.855  28.130  1.00  0.00    -0.387 OA
ATOM     32  H   UNL     1      22.951  23.396  29.010  1.00  0.00     0.211 HD
ENDBRANCH  20  31
BRANCH  21  33
ATOM     33  O   UNL     1      24.266  24.591  30.389  1.00  0.00    -0.385 OA
ATOM     34  H   UNL     1      23.657  23.819  30.507  1.00  0.00     0.211 HD
ENDBRANCH  21  33
ENDBRANCH  15  16
ENDBRANCH  10  15
BRANCH  12  35
ATOM     35  O   UNL     1      24.749  27.446  23.956  1.00  0.00    -0.385 OA
ATOM     36  H   UNL     1      24.464  27.652  23.036  1.00  0.00     0.211 HD
ENDBRANCH  12  35
BRANCH  13  37
ATOM     37  O   UNL     1      24.679  24.047  23.928  1.00  0.00    -0.387 OA
ATOM     38  H   UNL     1      24.996  23.567  23.124  1.00  0.00     0.211 HD
ENDBRANCH  13  37
BRANCH  14  39
ATOM     39  O   UNL     1      21.913  24.355  24.073  1.00  0.00    -0.387 OA
ATOM     40  H   UNL     1      22.244  24.640  24.948  1.00  0.00     0.211 HD
ENDBRANCH  14  39
ENDBRANCH   8   9
ENDBRANCH   7   8
ENDBRANCH   1   7
BRANCH   1  41
ATOM     41  C   UNL     1      20.658  28.679  19.400  1.00  0.00     0.364 C 
ATOM     42  O   UNL     1      20.304  27.838  18.576  1.00  0.00    -0.246 OA
BRANCH  41  43
ATOM     43  O   UNL     1      21.347  29.786  18.978  1.00  0.00    -0.477 OA
ATOM     44  H   UNL     1      20.889  30.456  18.340  1.00  0.00     0.296 HD
ENDBRANCH  41  43
ENDBRANCH   1  41
BRANCH   3  45
ATOM     45  O   UNL     1      20.278  30.210  23.900  1.00  0.00    -0.391 OA
ATOM     46  H   UNL     1      20.681  31.066  24.160  1.00  0.00     0.211 HD
ENDBRANCH   3  45
BRANCH   5  47
ATOM     47  C   UNL     1      16.930  29.610  20.336  1.00  0.00     0.176 C 
BRANCH  47  48
ATOM     48  O   UNL     1      16.913  29.952  19.024  1.00  0.00    -0.388 OA
ATOM     49  H   UNL     1      16.786  29.199  18.436  1.00  0.00     0.211 HD
ENDBRANCH  47  48
BRANCH  47  50
ATOM     50  C   UNL     1      16.005  28.524  20.696  1.00  0.00     0.165 C 
BRANCH  50  51
ATOM     51  O   UNL     1      16.335  27.306  20.079  1.00  0.00    -0.388 OA
ATOM     52  H   UNL     1      17.099  27.344  19.485  1.00  0.00     0.211 HD
ENDBRANCH  50  51
BRANCH  50  53
ATOM     53  C   UNL     1      14.548  28.756  20.681  1.00  0.00     0.154 C 
BRANCH  53  54
ATOM     54  N   UNL     1      13.960  29.096  21.965  1.00  0.00    -0.319 N 
ATOM     55  C   UNL     1      13.003  30.135  22.097  1.00  0.00     0.407 C 
ATOM     56  H   UNL     1      14.208  28.593  22.853  1.00  0.00     0.167 HD
ATOM     57  O   UNL     1      12.631  30.787  21.069  1.00  0.00    -0.225 OA
BRANCH  55  58
ATOM     58  O   UNL     1      12.429  30.501  23.310  1.00  0.00    -0.443 OA
BRANCH  58  59
ATOM     59  C   UNL     1      12.325  29.541  24.378  1.00  0.00     0.294 C 
BRANCH  59  60
ATOM     60  C   UNL     1      10.961  29.006  24.519  1.00  0.00     0.120 A 
ATOM     61  C   UNL     1       9.799  29.727  24.326  1.00  0.00     0.138 A 
ATOM     62  N   UNL     1      10.596  27.768  24.856  1.00  0.00    -0.132 NA
ATOM     63  N   UNL     1       8.765  28.907  24.550  1.00  0.00    -0.248 N 
ATOM     64  N   UNL     1       9.276  27.735  24.868  1.00  0.00    -0.067 NA
BRANCH  63  65
ATOM     65  C   UNL     1       7.347  29.194  24.453  1.00  0.00     0.181 C 
BRANCH  65  66
ATOM     66  C   UNL     1       6.673  29.326  25.764  1.00  0.00    -0.026 A 
ATOM     67  C   UNL     1       6.636  30.591  26.357  1.00  0.00     0.007 A 
ATOM     68  C   UNL     1       6.072  28.295  26.428  1.00  0.00     0.007 A 
ATOM     69  C   UNL     1       6.005  30.770  27.577  1.00  0.00     0.016 A 
ATOM     70  C   UNL     1       5.432  28.462  27.657  1.00  0.00     0.016 A 
ATOM     71  C   UNL     1       5.403  29.706  28.225  1.00  0.00     0.017 A 
ATOM     72  Br  UNL     1       4.532  29.995  29.916  1.00  0.00    -0.051 Br
ENDBRANCH  65  66
ENDBRANCH  63  65
ENDBRANCH  59  60
ENDBRANCH  58  59
ENDBRANCH  55  58
ENDBRANCH  53  54
ENDBRANCH  50  53
ENDBRANCH  47  50
ENDBRANCH   5  47
BRANCH   4  73
ATOM     73  N   UNL     1      17.578  30.944  22.948  1.00  0.00    -0.348 N 
ATOM     74  C   UNL     1      16.496  30.635  23.808  1.00  0.00     0.217 C 
ATOM     75  H   UNL     1      17.776  31.935  22.729  1.00  0.00     0.163 HD
ATOM     76  C   UNL     1      15.598  31.616  24.422  1.00  0.00     0.114 C 
ATOM     77  O   UNL     1      16.279  29.401  24.080  1.00  0.00    -0.275 OA
ENDBRANCH   4  73
TORSDOF 31
