REMARK VINA RESULT:    -5.356      4.766     10.373
REMARK INTER + INTRA:         -20.835
REMARK INTER:                 -14.545
REMARK INTRA:                  -6.291
REMARK UNBOUND:                -7.652
REMARK SMILES CC(=O)N[C@@H]1[C@@H](O)C[C@](OC[C@H]2O[C@@H](O[C@H]3[C@H](O)[C@@H](O)[C@H](OCCN=[N+]=[N-])O[C@@H]3CO)[C@H](O)[C@@H](O)[C@H]2O)(C(=O)O)O[C@H]1C(O)[C@H](O)CNC(=O)OCc1cn(-c2ccc(Br)cc2)nn1
REMARK SMILES IDX 9 1 8 2 6 3 5 4 42 5 41 6 10 7 11 8 12 9 14 10 13 11 32 12
REMARK SMILES IDX 34 13 36 14 15 15 16 16 29 17 28 18 21 19 17 20 19 21 30 22
REMARK SMILES IDX 31 23 22 25 23 26 24 27 25 28 26 29 27 30 18 31 20 33 33 35
REMARK SMILES IDX 35 37 37 39 38 41 39 42 40 43 7 45 43 47 44 48 45 50 46 51
REMARK SMILES IDX 47 53 48 54 49 55 50 57 51 58 52 59 53 60 54 61 64 62 55 63
REMARK SMILES IDX 63 64 56 65 57 66 62 67 58 68 61 69 59 70 60 71 4 72 2 73
REMARK SMILES IDX 1 75 3 76
REMARK H PARENT 31 24 18 32 20 34 33 36 35 38 37 40 40 44 7 46 44 49 46 52
REMARK H PARENT 48 56 4 74
REMARK Flexibility Score: inf
ROOT
ATOM      1  C   UNL     1      30.508  19.266  16.997  1.00  0.00     0.272 C 
ATOM      2  C   UNL     1      30.191  18.248  18.126  1.00  0.00     0.113 C 
ATOM      3  C   UNL     1      30.749  18.784  19.392  1.00  0.00     0.145 C 
ATOM      4  C   UNL     1      30.100  20.165  19.617  1.00  0.00     0.142 C 
ATOM      5  C   UNL     1      30.664  21.033  18.516  1.00  0.00     0.178 C 
ATOM      6  O   UNL     1      30.144  20.535  17.343  1.00  0.00    -0.332 OA
ENDROOT
BRANCH   1   7
ATOM      7  O   UNL     1      29.673  18.831  15.962  1.00  0.00    -0.338 OA
BRANCH   7   8
ATOM      8  C   UNL     1      28.338  19.009  16.161  1.00  0.00     0.199 C 
BRANCH   8   9
ATOM      9  C   UNL     1      27.718  19.283  14.776  1.00  0.00     0.179 C 
ATOM     10  C   UNL     1      25.965  20.540  13.908  1.00  0.00     0.282 C 
ATOM     11  O   UNL     1      26.418  19.687  14.884  1.00  0.00    -0.341 OA
ATOM     12  C   UNL     1      26.708  20.470  12.637  1.00  0.00     0.202 C 
ATOM     13  C   UNL     1      28.198  20.533  12.739  1.00  0.00     0.179 C 
ATOM     14  C   UNL     1      28.611  20.349  14.163  1.00  0.00     0.177 C 
BRANCH  10  15
ATOM     15  O   UNL     1      25.858  21.797  14.501  1.00  0.00    -0.341 OA
BRANCH  15  16
ATOM     16  C   UNL     1      24.841  22.551  13.943  1.00  0.00     0.184 C 
ATOM     17  C   UNL     1      25.202  23.999  13.854  1.00  0.00     0.178 C 
ATOM     18  O   UNL     1      24.243  24.677  13.157  1.00  0.00    -0.341 OA
ATOM     19  C   UNL     1      23.017  24.105  12.999  1.00  0.00     0.281 C 
ATOM     20  C   UNL     1      23.592  22.511  14.838  1.00  0.00     0.180 C 
ATOM     21  C   UNL     1      22.497  23.330  14.189  1.00  0.00     0.202 C 
BRANCH  17  22
ATOM     22  C   UNL     1      26.515  24.147  13.110  1.00  0.00     0.191 C 
BRANCH  22  23
ATOM     23  O   UNL     1      27.580  24.036  13.972  1.00  0.00    -0.394 OA
ATOM     24  H   UNL     1      27.437  24.555  14.783  1.00  0.00     0.210 HD
ENDBRANCH  22  23
ENDBRANCH  17  22
BRANCH  19  25
ATOM     25  O   UNL     1      22.895  23.385  11.816  1.00  0.00    -0.350 OA
BRANCH  25  26
ATOM     26  C   UNL     1      21.632  23.423  11.258  1.00  0.00     0.169 C 
BRANCH  26  27
ATOM     27  C   UNL     1      21.055  22.084  10.939  1.00  0.00     0.119 C 
BRANCH  27  28
ATOM     28  N   UNL     1      20.389  21.542  12.111  1.00  0.00    -0.092 NA
ATOM     29  N   UNL     1      19.556  20.652  11.923  1.00  0.00     0.001 N 
ATOM     30  N   UNL     1      18.793  19.666  11.842  1.00  0.00    -0.003 NA
ENDBRANCH  27  28
ENDBRANCH  26  27
ENDBRANCH  25  26
ENDBRANCH  19  25
BRANCH  20  31
ATOM     31  O   UNL     1      23.228  21.201  15.097  1.00  0.00    -0.387 OA
ATOM     32  H   UNL     1      22.521  21.149  15.794  1.00  0.00     0.211 HD
ENDBRANCH  20  31
BRANCH  21  33
ATOM     33  O   UNL     1      21.838  24.169  15.060  1.00  0.00    -0.385 OA
ATOM     34  H   UNL     1      21.346  23.616  15.712  1.00  0.00     0.211 HD
ENDBRANCH  21  33
ENDBRANCH  15  16
ENDBRANCH  10  15
BRANCH  12  35
ATOM     35  O   UNL     1      26.298  19.270  11.991  1.00  0.00    -0.385 OA
ATOM     36  H   UNL     1      26.482  19.346  11.010  1.00  0.00     0.211 HD
ENDBRANCH  12  35
BRANCH  13  37
ATOM     37  O   UNL     1      28.674  21.789  12.291  1.00  0.00    -0.387 OA
ATOM     38  H   UNL     1      29.502  21.589  11.786  1.00  0.00     0.211 HD
ENDBRANCH  13  37
BRANCH  14  39
ATOM     39  O   UNL     1      28.569  21.538  14.888  1.00  0.00    -0.387 OA
ATOM     40  H   UNL     1      29.386  22.074  14.735  1.00  0.00     0.211 HD
ENDBRANCH  14  39
ENDBRANCH   8   9
ENDBRANCH   7   8
ENDBRANCH   1   7
BRANCH   1  41
ATOM     41  C   UNL     1      31.900  19.040  16.614  1.00  0.00     0.364 C 
ATOM     42  O   UNL     1      32.467  17.924  16.681  1.00  0.00    -0.246 OA
BRANCH  41  43
ATOM     43  O   UNL     1      32.673  20.084  16.144  1.00  0.00    -0.477 OA
ATOM     44  H   UNL     1      33.434  20.511  16.670  1.00  0.00     0.296 HD
ENDBRANCH  41  43
ENDBRANCH   1  41
BRANCH   3  45
ATOM     45  O   UNL     1      30.373  18.024  20.491  1.00  0.00    -0.391 OA
ATOM     46  H   UNL     1      30.259  18.609  21.268  1.00  0.00     0.211 HD
ENDBRANCH   3  45
BRANCH   5  47
ATOM     47  C   UNL     1      30.291  22.474  18.595  1.00  0.00     0.176 C 
BRANCH  47  48
ATOM     48  O   UNL     1      29.034  22.497  19.264  1.00  0.00    -0.388 OA
ATOM     49  H   UNL     1      28.415  23.062  18.737  1.00  0.00     0.211 HD
ENDBRANCH  47  48
BRANCH  47  50
ATOM     50  C   UNL     1      29.987  23.124  17.253  1.00  0.00     0.165 C 
BRANCH  50  51
ATOM     51  O   UNL     1      31.280  23.373  16.714  1.00  0.00    -0.388 OA
ATOM     52  H   UNL     1      31.974  23.012  17.351  1.00  0.00     0.211 HD
ENDBRANCH  50  51
BRANCH  50  53
ATOM     53  C   UNL     1      29.335  24.453  17.413  1.00  0.00     0.154 C 
BRANCH  53  54
ATOM     54  N   UNL     1      27.958  24.423  17.038  1.00  0.00    -0.319 N 
ATOM     55  C   UNL     1      26.858  24.570  17.940  1.00  0.00     0.407 C 
ATOM     56  H   UNL     1      27.680  24.282  16.014  1.00  0.00     0.167 HD
ATOM     57  O   UNL     1      27.098  24.733  19.159  1.00  0.00    -0.225 OA
BRANCH  55  58
ATOM     58  O   UNL     1      25.552  24.542  17.510  1.00  0.00    -0.443 OA
BRANCH  58  59
ATOM     59  C   UNL     1      24.655  25.547  17.907  1.00  0.00     0.294 C 
BRANCH  59  60
ATOM     60  C   UNL     1      23.772  25.008  18.965  1.00  0.00     0.121 A 
ATOM     61  C   UNL     1      23.947  25.244  20.334  1.00  0.00     0.144 A 
ATOM     62  N   UNL     1      22.686  24.224  18.886  1.00  0.00    -0.131 NA
ATOM     63  N   UNL     1      22.976  24.603  21.007  1.00  0.00    -0.220 N 
ATOM     64  N   UNL     1      22.231  23.997  20.105  1.00  0.00    -0.062 NA
BRANCH  63  65
ATOM     65  C   UNL     1      22.856  24.626  22.424  1.00  0.00     0.066 A 
ATOM     66  C   UNL     1      21.683  24.641  23.107  1.00  0.00     0.029 A 
ATOM     67  C   UNL     1      24.050  24.623  23.139  1.00  0.00     0.029 A 
ATOM     68  C   UNL     1      21.705  24.652  24.486  1.00  0.00     0.018 A 
ATOM     69  C   UNL     1      24.056  24.634  24.516  1.00  0.00     0.018 A 
ATOM     70  C   UNL     1      22.867  24.650  25.216  1.00  0.00     0.018 A 
ATOM     71  Br  UNL     1      22.854  24.662  27.124  1.00  0.00    -0.051 Br
ENDBRANCH  63  65
ENDBRANCH  59  60
ENDBRANCH  58  59
ENDBRANCH  55  58
ENDBRANCH  53  54
ENDBRANCH  50  53
ENDBRANCH  47  50
ENDBRANCH   5  47
BRANCH   4  72
ATOM     72  N   UNL     1      30.449  20.562  20.947  1.00  0.00    -0.348 N 
ATOM     73  C   UNL     1      29.469  20.845  21.937  1.00  0.00     0.217 C 
ATOM     74  H   UNL     1      31.447  20.651  21.206  1.00  0.00     0.163 HD
ATOM     75  C   UNL     1      29.800  21.261  23.320  1.00  0.00     0.114 C 
ATOM     76  O   UNL     1      28.233  20.744  21.643  1.00  0.00    -0.275 OA
ENDBRANCH   4  72
TORSDOF 30
