REMARK VINA RESULT:    -5.007      3.391      9.435
REMARK INTER + INTRA:         -22.123
REMARK INTER:                 -15.653
REMARK INTRA:                  -6.470
REMARK UNBOUND:                -8.334
REMARK SMILES CC[N+](C)(CC)CCCn1cc(COC(=O)NC[C@@H](O)C(O)[C@@H]2O[C@@](OC[C@H]3O[C@@H](O[C@H]4[C@H](O)[C@@H](O)[C@H](OCCN=[N+]=[N-])O[C@@H]4CO)[C@H](O)[C@@H](O)[C@H]3O)(C(=O)O)C[C@H](O)[C@H]2NC(C)=O)nn1
REMARK SMILES IDX 21 1 23 2 25 3 57 4 24 5 58 6 60 7 26 8 27 9 28 10 30 11
REMARK SMILES IDX 29 12 48 13 50 14 52 15 31 16 32 17 45 18 44 19 37 20 33 21
REMARK SMILES IDX 35 22 46 23 47 24 38 26 39 27 40 28 41 29 42 30 43 31 34 32
REMARK SMILES IDX 36 34 49 36 51 38 53 40 54 42 55 43 56 44 59 46 61 48 62 49
REMARK SMILES IDX 63 51 64 52 22 53 19 55 20 56 18 58 17 59 15 60 16 62 14 63
REMARK SMILES IDX 13 64 12 65 11 66 65 67 10 68 66 69 9 70 8 71 7 72 3 73 4 74
REMARK SMILES IDX 2 75 1 76 5 77 6 78
REMARK H PARENT 47 25 34 33 36 35 49 37 51 39 53 41 56 45 59 47 61 50 22 54
REMARK H PARENT 20 57 17 61
REMARK Flexibility Score: inf
ROOT
ATOM      1  C   UNL     1      24.646  27.810  22.409  1.00  0.00     0.176 C 
ENDROOT
BRANCH   1   2
ATOM      2  C   UNL     1      23.842  26.520  22.273  1.00  0.00     0.178 C 
ATOM      3  C   UNL     1      22.552  25.058  23.600  1.00  0.00     0.272 C 
ATOM      4  C   UNL     1      23.070  24.016  22.666  1.00  0.00     0.113 C 
ATOM      5  O   UNL     1      23.493  26.124  23.544  1.00  0.00    -0.332 OA
ATOM      6  C   UNL     1      24.528  24.205  22.339  1.00  0.00     0.145 C 
ATOM      7  C   UNL     1      24.666  25.504  21.550  1.00  0.00     0.142 C 
BRANCH   3   8
ATOM      8  O   UNL     1      22.584  24.690  24.929  1.00  0.00    -0.338 OA
BRANCH   8   9
ATOM      9  C   UNL     1      23.302  25.399  25.814  1.00  0.00     0.199 C 
BRANCH   9  10
ATOM     10  C   UNL     1      22.439  25.799  27.040  1.00  0.00     0.179 C 
ATOM     11  C   UNL     1      24.074  26.557  28.561  1.00  0.00     0.282 C 
ATOM     12  O   UNL     1      23.077  25.656  28.209  1.00  0.00    -0.341 OA
ATOM     13  C   UNL     1      23.856  27.929  28.048  1.00  0.00     0.202 C 
ATOM     14  C   UNL     1      22.322  28.089  27.977  1.00  0.00     0.179 C 
ATOM     15  C   UNL     1      21.910  27.215  26.813  1.00  0.00     0.177 C 
BRANCH  11  16
ATOM     16  O   UNL     1      25.340  26.001  28.324  1.00  0.00    -0.341 OA
BRANCH  16  17
ATOM     17  C   UNL     1      26.253  26.343  29.278  1.00  0.00     0.184 C 
ATOM     18  C   UNL     1      27.649  26.597  28.907  1.00  0.00     0.178 C 
ATOM     19  O   UNL     1      28.308  27.192  29.967  1.00  0.00    -0.341 OA
ATOM     20  C   UNL     1      27.808  27.075  31.213  1.00  0.00     0.281 C 
ATOM     21  C   UNL     1      26.312  25.257  30.378  1.00  0.00     0.180 C 
ATOM     22  C   UNL     1      27.080  25.799  31.554  1.00  0.00     0.202 C 
BRANCH  18  23
ATOM     23  C   UNL     1      27.876  27.463  27.684  1.00  0.00     0.191 C 
BRANCH  23  24
ATOM     24  O   UNL     1      27.046  28.575  27.634  1.00  0.00    -0.394 OA
ATOM     25  H   UNL     1      26.182  28.259  27.213  1.00  0.00     0.210 HD
ENDBRANCH  23  24
ENDBRANCH  18  23
BRANCH  20  26
ATOM     26  O   UNL     1      27.096  28.204  31.578  1.00  0.00    -0.350 OA
BRANCH  26  27
ATOM     27  C   UNL     1      27.671  29.395  31.278  1.00  0.00     0.169 C 
BRANCH  27  28
ATOM     28  C   UNL     1      28.092  30.195  32.493  1.00  0.00     0.119 C 
BRANCH  28  29
ATOM     29  N   UNL     1      26.936  30.889  33.038  1.00  0.00    -0.092 NA
ATOM     30  N   UNL     1      26.342  30.512  34.045  1.00  0.00     0.001 N 
ATOM     31  N   UNL     1      25.746  30.164  35.067  1.00  0.00    -0.003 NA
ENDBRANCH  28  29
ENDBRANCH  27  28
ENDBRANCH  26  27
ENDBRANCH  20  26
BRANCH  21  32
ATOM     32  O   UNL     1      25.014  24.888  30.640  1.00  0.00    -0.387 OA
ATOM     33  H   UNL     1      24.363  25.119  29.959  1.00  0.00     0.211 HD
ENDBRANCH  21  32
BRANCH  22  34
ATOM     34  O   UNL     1      27.921  24.808  32.034  1.00  0.00    -0.385 OA
ATOM     35  H   UNL     1      28.779  25.149  32.398  1.00  0.00     0.211 HD
ENDBRANCH  22  34
ENDBRANCH  16  17
ENDBRANCH  11  16
BRANCH  13  36
ATOM     36  O   UNL     1      24.301  28.936  28.919  1.00  0.00    -0.385 OA
ATOM     37  H   UNL     1      24.199  29.790  28.447  1.00  0.00     0.211 HD
ENDBRANCH  13  36
BRANCH  14  38
ATOM     38  O   UNL     1      22.006  29.424  27.723  1.00  0.00    -0.387 OA
ATOM     39  H   UNL     1      21.418  29.718  28.448  1.00  0.00     0.211 HD
ENDBRANCH  14  38
BRANCH  15  40
ATOM     40  O   UNL     1      22.577  27.722  25.700  1.00  0.00    -0.387 OA
ATOM     41  H   UNL     1      22.224  27.445  24.841  1.00  0.00     0.211 HD
ENDBRANCH  15  40
ENDBRANCH   9  10
ENDBRANCH   8   9
ENDBRANCH   3   8
BRANCH   3  42
ATOM     42  C   UNL     1      21.216  25.578  23.263  1.00  0.00     0.364 C 
ATOM     43  O   UNL     1      20.782  26.648  23.745  1.00  0.00    -0.246 OA
BRANCH  42  44
ATOM     44  O   UNL     1      20.390  24.899  22.400  1.00  0.00    -0.477 OA
ATOM     45  H   UNL     1      19.506  25.273  22.059  1.00  0.00     0.296 HD
ENDBRANCH  42  44
ENDBRANCH   3  42
BRANCH   6  46
ATOM     46  O   UNL     1      25.338  24.256  23.449  1.00  0.00    -0.391 OA
ATOM     47  H   UNL     1      25.151  23.500  24.086  1.00  0.00     0.211 HD
ENDBRANCH   6  46
BRANCH   7  48
ATOM     48  N   UNL     1      24.030  25.218  20.252  1.00  0.00    -0.348 N 
ATOM     49  C   UNL     1      24.801  24.859  19.112  1.00  0.00     0.217 C 
ATOM     50  H   UNL     1      23.003  25.266  20.097  1.00  0.00     0.163 HD
ATOM     51  C   UNL     1      24.203  24.559  17.787  1.00  0.00     0.114 C 
ATOM     52  O   UNL     1      26.037  24.790  19.235  1.00  0.00    -0.275 OA
ENDBRANCH   7  48
ENDBRANCH   1   2
BRANCH   1  53
ATOM     53  O   UNL     1      25.093  27.917  23.770  1.00  0.00    -0.388 OA
ATOM     54  H   UNL     1      25.903  27.346  23.840  1.00  0.00     0.211 HD
ENDBRANCH   1  53
BRANCH   1  55
ATOM     55  C   UNL     1      23.788  29.006  22.155  1.00  0.00     0.165 C 
BRANCH  55  56
ATOM     56  O   UNL     1      22.804  28.930  23.227  1.00  0.00    -0.388 OA
ATOM     57  H   UNL     1      22.023  29.496  22.940  1.00  0.00     0.211 HD
ENDBRANCH  55  56
BRANCH  55  58
ATOM     58  C   UNL     1      23.041  29.064  20.875  1.00  0.00     0.154 C 
BRANCH  58  59
ATOM     59  N   UNL     1      21.650  29.020  20.809  1.00  0.00    -0.319 N 
ATOM     60  C   UNL     1      20.820  27.940  20.428  1.00  0.00     0.407 C 
ATOM     61  H   UNL     1      21.109  29.939  21.083  1.00  0.00     0.167 HD
ATOM     62  O   UNL     1      21.249  26.828  20.085  1.00  0.00    -0.225 OA
BRANCH  60  63
ATOM     63  O   UNL     1      19.413  28.105  20.415  1.00  0.00    -0.443 OA
BRANCH  63  64
ATOM     64  C   UNL     1      18.851  28.771  19.267  1.00  0.00     0.294 C 
BRANCH  64  65
ATOM     65  C   UNL     1      17.365  28.691  19.527  1.00  0.00     0.120 A 
ATOM     66  C   UNL     1      16.408  29.589  19.118  1.00  0.00     0.138 A 
ATOM     67  N   UNL     1      16.681  27.725  20.150  1.00  0.00    -0.132 NA
ATOM     68  N   UNL     1      15.175  29.131  19.508  1.00  0.00    -0.252 N 
ATOM     69  N   UNL     1      15.391  27.990  20.136  1.00  0.00    -0.067 NA
BRANCH  68  70
ATOM     70  C   UNL     1      13.905  29.773  19.224  1.00  0.00     0.152 C 
BRANCH  70  71
ATOM     71  C   UNL     1      13.501  30.724  20.266  1.00  0.00     0.085 C 
BRANCH  71  72
ATOM     72  C   UNL     1      12.964  30.246  21.551  1.00  0.00     0.265 C 
BRANCH  72  73
ATOM     73  N   UNL     1      13.690  30.515  22.747  1.00  0.00    -0.326 N 
ATOM     74  C   UNL     1      14.444  31.731  22.609  1.00  0.00     0.334 C 
BRANCH  73  75
ATOM     75  C   UNL     1      14.517  29.445  23.228  1.00  0.00     0.260 C 
ATOM     76  C   UNL     1      15.501  29.887  24.286  1.00  0.00     0.071 C 
ENDBRANCH  73  75
BRANCH  73  77
ATOM     77  C   UNL     1      12.679  30.803  23.778  1.00  0.00     0.260 C 
ATOM     78  C   UNL     1      11.688  29.711  23.976  1.00  0.00     0.071 C 
ENDBRANCH  73  77
ENDBRANCH  72  73
ENDBRANCH  71  72
ENDBRANCH  70  71
ENDBRANCH  68  70
ENDBRANCH  64  65
ENDBRANCH  63  64
ENDBRANCH  60  63
ENDBRANCH  58  59
ENDBRANCH  55  58
ENDBRANCH   1  55
TORSDOF 35
