REMARK VINA RESULT:    -5.334      1.927      2.442
REMARK INTER + INTRA:         -21.485
REMARK INTER:                 -13.569
REMARK INTRA:                  -7.916
REMARK UNBOUND:                -8.354
REMARK SMILES CC(=O)N[C@@H]1[C@@H](O)C[C@](OC[C@H]2O[C@@H](O[C@H]3[C@H](O)[C@@H](O)[C@H](OCCN=[N+]=[N-])O[C@@H]3CO)[C@H](O)[C@@H](O)[C@H]2O)(C(=O)O)O[C@H]1C(O)[C@H](O)CNC(=O)OCc1cn(-c2cccc(Cl)c2)nn1
REMARK SMILES IDX 9 1 8 2 6 3 5 4 42 5 41 6 10 7 11 8 12 9 14 10 13 11 32 12
REMARK SMILES IDX 34 13 36 14 15 15 16 16 29 17 28 18 21 19 17 20 19 21 30 22
REMARK SMILES IDX 31 23 22 25 23 26 24 27 25 28 26 29 27 30 18 31 20 33 33 35
REMARK SMILES IDX 35 37 37 39 38 41 39 42 40 43 7 45 43 47 44 48 45 50 46 51
REMARK SMILES IDX 47 53 48 54 49 55 50 57 51 58 52 59 53 60 54 61 64 62 55 63
REMARK SMILES IDX 63 64 56 65 57 66 62 67 58 68 60 69 59 70 61 71 4 72 2 73
REMARK SMILES IDX 1 75 3 76
REMARK H PARENT 31 24 18 32 20 34 33 36 35 38 37 40 40 44 7 46 44 49 46 52
REMARK H PARENT 48 56 4 74
REMARK Flexibility Score: inf
ROOT
ATOM      1  C   UNL     1      22.939  25.778  23.521  1.00  0.00     0.272 C 
ATOM      2  C   UNL     1      23.913  24.815  23.005  1.00  0.00     0.113 C 
ATOM      3  C   UNL     1      24.832  25.238  21.908  1.00  0.00     0.145 C 
ATOM      4  C   UNL     1      24.581  26.643  21.423  1.00  0.00     0.142 C 
ATOM      5  C   UNL     1      23.057  26.825  21.516  1.00  0.00     0.178 C 
ATOM      6  O   UNL     1      22.814  26.995  22.847  1.00  0.00    -0.332 OA
ENDROOT
BRANCH   1   7
ATOM      7  O   UNL     1      22.918  26.088  24.846  1.00  0.00    -0.338 OA
BRANCH   7   8
ATOM      8  C   UNL     1      23.710  26.991  25.422  1.00  0.00     0.199 C 
BRANCH   8   9
ATOM      9  C   UNL     1      23.207  27.824  26.554  1.00  0.00     0.179 C 
ATOM     10  C   UNL     1      21.877  29.650  27.030  1.00  0.00     0.282 C 
ATOM     11  O   UNL     1      22.264  28.735  26.035  1.00  0.00    -0.341 OA
ATOM     12  C   UNL     1      21.225  28.906  28.155  1.00  0.00     0.202 C 
ATOM     13  C   UNL     1      21.949  27.708  28.683  1.00  0.00     0.179 C 
ATOM     14  C   UNL     1      22.430  26.886  27.508  1.00  0.00     0.177 C 
BRANCH  10  15
ATOM     15  O   UNL     1      20.910  30.418  26.437  1.00  0.00    -0.341 OA
BRANCH  15  16
ATOM     16  C   UNL     1      20.863  30.443  25.044  1.00  0.00     0.184 C 
ATOM     17  C   UNL     1      21.107  31.747  24.441  1.00  0.00     0.178 C 
ATOM     18  O   UNL     1      20.215  32.095  23.456  1.00  0.00    -0.341 OA
ATOM     19  C   UNL     1      18.911  31.653  23.659  1.00  0.00     0.281 C 
ATOM     20  C   UNL     1      19.675  29.629  24.665  1.00  0.00     0.180 C 
ATOM     21  C   UNL     1      19.001  30.148  23.433  1.00  0.00     0.202 C 
BRANCH  17  22
ATOM     22  C   UNL     1      22.481  31.780  23.750  1.00  0.00     0.191 C 
BRANCH  22  23
ATOM     23  O   UNL     1      22.659  33.097  23.257  1.00  0.00    -0.394 OA
ATOM     24  H   UNL     1      21.790  33.538  23.214  1.00  0.00     0.210 HD
ENDBRANCH  22  23
ENDBRANCH  17  22
BRANCH  19  25
ATOM     25  O   UNL     1      18.107  32.223  22.713  1.00  0.00    -0.350 OA
BRANCH  25  26
ATOM     26  C   UNL     1      17.125  33.064  23.169  1.00  0.00     0.169 C 
BRANCH  26  27
ATOM     27  C   UNL     1      15.719  32.663  22.810  1.00  0.00     0.119 C 
BRANCH  27  28
ATOM     28  N   UNL     1      15.004  32.431  24.074  1.00  0.00    -0.092 NA
ATOM     29  N   UNL     1      15.306  31.389  24.693  1.00  0.00     0.001 N 
ATOM     30  N   UNL     1      15.818  30.638  25.543  1.00  0.00    -0.003 NA
ENDBRANCH  27  28
ENDBRANCH  26  27
ENDBRANCH  25  26
ENDBRANCH  19  25
BRANCH  20  31
ATOM     31  O   UNL     1      20.035  28.276  24.517  1.00  0.00    -0.387 OA
ATOM     32  H   UNL     1      20.447  28.207  23.619  1.00  0.00     0.211 HD
ENDBRANCH  20  31
BRANCH  21  33
ATOM     33  O   UNL     1      17.712  29.606  23.384  1.00  0.00    -0.385 OA
ATOM     34  H   UNL     1      17.582  28.907  24.044  1.00  0.00     0.211 HD
ENDBRANCH  21  33
ENDBRANCH  15  16
ENDBRANCH  10  15
BRANCH  12  35
ATOM     35  O   UNL     1      21.019  29.738  29.266  1.00  0.00    -0.385 OA
ATOM     36  H   UNL     1      20.108  30.108  29.283  1.00  0.00     0.211 HD
ENDBRANCH  12  35
BRANCH  13  37
ATOM     37  O   UNL     1      21.039  26.922  29.392  1.00  0.00    -0.387 OA
ATOM     38  H   UNL     1      20.802  27.274  30.267  1.00  0.00     0.211 HD
ENDBRANCH  13  37
BRANCH  14  39
ATOM     39  O   UNL     1      21.268  26.564  26.768  1.00  0.00    -0.387 OA
ATOM     40  H   UNL     1      21.303  26.878  25.852  1.00  0.00     0.211 HD
ENDBRANCH  14  39
ENDBRANCH   8   9
ENDBRANCH   7   8
ENDBRANCH   1   7
BRANCH   1  41
ATOM     41  C   UNL     1      21.560  25.141  23.293  1.00  0.00     0.364 C 
ATOM     42  O   UNL     1      21.369  24.218  22.481  1.00  0.00    -0.246 OA
BRANCH  41  43
ATOM     43  O   UNL     1      20.467  25.616  24.028  1.00  0.00    -0.477 OA
ATOM     44  H   UNL     1      20.169  26.586  23.871  1.00  0.00     0.296 HD
ENDBRANCH  41  43
ENDBRANCH   1  41
BRANCH   3  45
ATOM     45  O   UNL     1      26.174  25.113  22.223  1.00  0.00    -0.391 OA
ATOM     46  H   UNL     1      26.366  25.369  23.154  1.00  0.00     0.211 HD
ENDBRANCH   3  45
BRANCH   5  47
ATOM     47  C   UNL     1      22.579  27.956  20.621  1.00  0.00     0.176 C 
BRANCH  47  48
ATOM     48  O   UNL     1      22.198  27.292  19.425  1.00  0.00    -0.388 OA
ATOM     49  H   UNL     1      21.378  26.754  19.641  1.00  0.00     0.211 HD
ENDBRANCH  47  48
BRANCH  47  50
ATOM     50  C   UNL     1      21.300  28.526  21.197  1.00  0.00     0.165 C 
BRANCH  50  51
ATOM     51  O   UNL     1      20.432  27.496  21.518  1.00  0.00    -0.388 OA
ATOM     52  H   UNL     1      20.838  26.603  21.446  1.00  0.00     0.211 HD
ENDBRANCH  50  51
BRANCH  50  53
ATOM     53  C   UNL     1      20.613  29.379  20.126  1.00  0.00     0.154 C 
BRANCH  53  54
ATOM     54  N   UNL     1      19.484  28.707  19.544  1.00  0.00    -0.319 N 
ATOM     55  C   UNL     1      19.333  28.368  18.191  1.00  0.00     0.407 C 
ATOM     56  H   UNL     1      18.683  28.437  20.198  1.00  0.00     0.167 HD
ATOM     57  O   UNL     1      20.245  28.634  17.372  1.00  0.00    -0.225 OA
BRANCH  55  58
ATOM     58  O   UNL     1      18.160  27.722  17.707  1.00  0.00    -0.443 OA
BRANCH  58  59
ATOM     59  C   UNL     1      16.952  28.432  17.645  1.00  0.00     0.294 C 
BRANCH  59  60
ATOM     60  C   UNL     1      16.226  28.506  18.940  1.00  0.00     0.121 A 
ATOM     61  C   UNL     1      15.180  29.371  19.278  1.00  0.00     0.144 A 
ATOM     62  N   UNL     1      16.415  27.787  20.059  1.00  0.00    -0.131 NA
ATOM     63  N   UNL     1      14.795  29.144  20.546  1.00  0.00    -0.220 N 
ATOM     64  N   UNL     1      15.550  28.182  21.009  1.00  0.00    -0.062 NA
BRANCH  63  65
ATOM     65  C   UNL     1      13.756  29.875  21.184  1.00  0.00     0.068 A 
ATOM     66  C   UNL     1      13.188  31.013  20.658  1.00  0.00     0.028 A 
ATOM     67  C   UNL     1      13.249  29.449  22.423  1.00  0.00     0.049 A 
ATOM     68  C   UNL     1      12.172  31.693  21.321  1.00  0.00     0.004 A 
ATOM     69  C   UNL     1      12.246  30.124  23.076  1.00  0.00     0.043 A 
ATOM     70  C   UNL     1      11.688  31.260  22.537  1.00  0.00     0.020 A 
ATOM     71  Cl  UNL     1      11.623  29.576  24.626  1.00  0.00    -0.084 Cl
ENDBRANCH  63  65
ENDBRANCH  59  60
ENDBRANCH  58  59
ENDBRANCH  55  58
ENDBRANCH  53  54
ENDBRANCH  50  53
ENDBRANCH  47  50
ENDBRANCH   5  47
BRANCH   4  72
ATOM     72  N   UNL     1      25.103  26.892  20.120  1.00  0.00    -0.348 N 
ATOM     73  C   UNL     1      26.210  27.789  19.914  1.00  0.00     0.217 C 
ATOM     74  H   UNL     1      24.745  26.457  19.237  1.00  0.00     0.163 HD
ATOM     75  C   UNL     1      26.768  28.062  18.582  1.00  0.00     0.114 C 
ATOM     76  O   UNL     1      26.706  28.351  20.914  1.00  0.00    -0.275 OA
ENDBRANCH   4  72
TORSDOF 30
