REMARK VINA RESULT:    -4.853      4.291     11.861
REMARK INTER + INTRA:         -22.965
REMARK INTER:                 -15.743
REMARK INTRA:                  -7.222
REMARK UNBOUND:                -9.744
REMARK SMILES CC(=O)N[C@@H]1[C@@H](O)C[C@](OC[C@H]2O[C@@H](O[C@H]3[C@H](O)[C@@H](O)[C@H](OCCN=[N+]=[N-])O[C@@H]3CO)[C@H](O)[C@@H](O)[C@H]2O)(C(=O)O)O[C@H]1C(O)[C@H](O)CNC(=O)OCc1cn(CC(O)Cn2ccnc2[N+](=O)[O-])nn1
REMARK SMILES IDX 43 1 42 2 9 3 8 4 41 5 6 6 5 7 10 8 11 9 12 10 14 11 13 12
REMARK SMILES IDX 32 13 34 14 36 15 15 16 16 17 29 18 28 19 21 20 17 21 19 22
REMARK SMILES IDX 30 23 31 24 22 26 23 27 24 28 25 29 26 30 27 31 18 32 20 34
REMARK SMILES IDX 33 36 35 38 37 40 38 42 39 43 40 44 7 46 4 48 2 49 1 51 3 52
REMARK SMILES IDX 44 53 45 55 46 56 47 58 48 59 49 60 50 62 51 63 52 64 53 65
REMARK SMILES IDX 54 66 69 67 55 68 68 69 56 70 57 71 58 72 59 74 60 75 61 76
REMARK SMILES IDX 64 77 62 78 63 79 65 80 66 81 67 82
REMARK H PARENT 31 25 18 33 20 35 33 37 35 39 37 41 40 45 7 47 4 50 44 54
REMARK H PARENT 46 57 48 61 58 73
REMARK Flexibility Score: inf
ROOT
ATOM      1  C   UNL     1      23.026  28.536  22.488  1.00  0.00     0.176 C 
ENDROOT
BRANCH   1   2
ATOM      2  C   UNL     1      22.711  27.045  22.161  1.00  0.00     0.178 C 
ATOM      3  C   UNL     1      22.700  25.078  23.376  1.00  0.00     0.272 C 
ATOM      4  C   UNL     1      23.347  24.354  22.232  1.00  0.00     0.113 C 
ATOM      5  O   UNL     1      23.054  26.423  23.362  1.00  0.00    -0.332 OA
ATOM      6  C   UNL     1      24.307  25.260  21.473  1.00  0.00     0.145 C 
ATOM      7  C   UNL     1      23.620  26.569  21.106  1.00  0.00     0.142 C 
BRANCH   3   8
ATOM      8  O   UNL     1      23.142  24.639  24.619  1.00  0.00    -0.338 OA
BRANCH   8   9
ATOM      9  C   UNL     1      24.127  25.307  25.241  1.00  0.00     0.199 C 
BRANCH   9  10
ATOM     10  C   UNL     1      23.947  25.394  26.744  1.00  0.00     0.179 C 
ATOM     11  C   UNL     1      24.977  25.933  28.651  1.00  0.00     0.282 C 
ATOM     12  O   UNL     1      24.813  26.367  27.313  1.00  0.00    -0.341 OA
ATOM     13  C   UNL     1      23.648  25.896  29.364  1.00  0.00     0.202 C 
ATOM     14  C   UNL     1      22.649  26.640  28.479  1.00  0.00     0.179 C 
ATOM     15  C   UNL     1      22.571  25.857  27.165  1.00  0.00     0.177 C 
BRANCH  11  16
ATOM     16  O   UNL     1      25.859  26.735  29.347  1.00  0.00    -0.341 OA
BRANCH  16  17
ATOM     17  C   UNL     1      27.113  26.183  29.218  1.00  0.00     0.184 C 
ATOM     18  C   UNL     1      27.799  25.897  30.545  1.00  0.00     0.178 C 
ATOM     19  O   UNL     1      28.826  25.006  30.220  1.00  0.00    -0.341 OA
ATOM     20  C   UNL     1      29.825  25.547  29.458  1.00  0.00     0.281 C 
ATOM     21  C   UNL     1      28.073  27.105  28.479  1.00  0.00     0.180 C 
ATOM     22  C   UNL     1      29.436  26.528  28.413  1.00  0.00     0.202 C 
BRANCH  18  23
ATOM     23  C   UNL     1      26.902  25.331  31.586  1.00  0.00     0.191 C 
BRANCH  23  24
ATOM     24  O   UNL     1      27.685  24.674  32.527  1.00  0.00    -0.394 OA
ATOM     25  H   UNL     1      28.009  25.272  33.246  1.00  0.00     0.210 HD
ENDBRANCH  23  24
ENDBRANCH  18  23
BRANCH  20  26
ATOM     26  O   UNL     1      30.437  24.455  28.785  1.00  0.00    -0.350 OA
BRANCH  26  27
ATOM     27  C   UNL     1      31.796  24.418  28.962  1.00  0.00     0.169 C 
BRANCH  27  28
ATOM     28  C   UNL     1      32.345  23.526  27.840  1.00  0.00     0.119 C 
BRANCH  28  29
ATOM     29  N   UNL     1      33.171  22.471  28.342  1.00  0.00    -0.092 NA
ATOM     30  N   UNL     1      34.291  22.702  28.853  1.00  0.00     0.001 N 
ATOM     31  N   UNL     1      35.168  22.734  29.701  1.00  0.00    -0.003 NA
ENDBRANCH  28  29
ENDBRANCH  27  28
ENDBRANCH  26  27
ENDBRANCH  20  26
BRANCH  21  32
ATOM     32  O   UNL     1      27.598  27.303  27.166  1.00  0.00    -0.387 OA
ATOM     33  H   UNL     1      27.309  28.232  27.121  1.00  0.00     0.211 HD
ENDBRANCH  21  32
BRANCH  22  34
ATOM     34  O   UNL     1      30.331  27.622  28.533  1.00  0.00    -0.385 OA
ATOM     35  H   UNL     1      30.284  28.205  27.731  1.00  0.00     0.211 HD
ENDBRANCH  22  34
ENDBRANCH  16  17
ENDBRANCH  11  16
BRANCH  13  36
ATOM     36  O   UNL     1      23.269  24.564  29.527  1.00  0.00    -0.385 OA
ATOM     37  H   UNL     1      22.281  24.454  29.440  1.00  0.00     0.211 HD
ENDBRANCH  13  36
BRANCH  14  38
ATOM     38  O   UNL     1      23.212  27.863  28.161  1.00  0.00    -0.387 OA
ATOM     39  H   UNL     1      22.718  28.583  28.590  1.00  0.00     0.211 HD
ENDBRANCH  14  38
BRANCH  15  40
ATOM     40  O   UNL     1      21.995  26.716  26.255  1.00  0.00    -0.387 OA
ATOM     41  H   UNL     1      22.620  26.975  25.532  1.00  0.00     0.211 HD
ENDBRANCH  15  40
ENDBRANCH   9  10
ENDBRANCH   8   9
ENDBRANCH   3   8
BRANCH   3  42
ATOM     42  C   UNL     1      21.237  24.970  23.313  1.00  0.00     0.364 C 
ATOM     43  O   UNL     1      20.481  25.441  24.233  1.00  0.00    -0.246 OA
BRANCH  42  44
ATOM     44  O   UNL     1      20.553  24.360  22.280  1.00  0.00    -0.477 OA
ATOM     45  H   UNL     1      21.010  24.003  21.435  1.00  0.00     0.296 HD
ENDBRANCH  42  44
ENDBRANCH   3  42
BRANCH   6  46
ATOM     46  O   UNL     1      25.480  25.472  22.171  1.00  0.00    -0.391 OA
ATOM     47  H   UNL     1      26.185  24.830  21.908  1.00  0.00     0.211 HD
ENDBRANCH   6  46
BRANCH   7  48
ATOM     48  N   UNL     1      23.137  26.526  19.762  1.00  0.00    -0.348 N 
ATOM     49  C   UNL     1      23.859  26.372  18.584  1.00  0.00     0.217 C 
ATOM     50  H   UNL     1      22.044  26.614  19.613  1.00  0.00     0.163 HD
ATOM     51  C   UNL     1      23.161  26.315  17.235  1.00  0.00     0.114 C 
ATOM     52  O   UNL     1      25.087  26.270  18.535  1.00  0.00    -0.275 OA
ENDBRANCH   7  48
ENDBRANCH   1   2
BRANCH   1  53
ATOM     53  O   UNL     1      22.881  28.681  23.891  1.00  0.00    -0.388 OA
ATOM     54  H   UNL     1      22.760  29.604  24.158  1.00  0.00     0.211 HD
ENDBRANCH   1  53
BRANCH   1  55
ATOM     55  C   UNL     1      22.212  29.518  21.785  1.00  0.00     0.165 C 
BRANCH  55  56
ATOM     56  O   UNL     1      22.751  30.118  20.676  1.00  0.00    -0.388 OA
ATOM     57  H   UNL     1      22.539  29.667  19.829  1.00  0.00     0.211 HD
ENDBRANCH  55  56
BRANCH  55  58
ATOM     58  C   UNL     1      21.647  30.615  22.718  1.00  0.00     0.154 C 
BRANCH  58  59
ATOM     59  N   UNL     1      20.204  30.410  22.738  1.00  0.00    -0.319 N 
ATOM     60  C   UNL     1      19.537  29.868  23.885  1.00  0.00     0.407 C 
ATOM     61  H   UNL     1      19.624  30.658  21.905  1.00  0.00     0.167 HD
ATOM     62  O   UNL     1      20.201  29.563  24.899  1.00  0.00    -0.225 OA
BRANCH  60  63
ATOM     63  O   UNL     1      18.172  29.670  23.894  1.00  0.00    -0.443 OA
BRANCH  63  64
ATOM     64  C   UNL     1      17.178  30.648  23.896  1.00  0.00     0.294 C 
BRANCH  64  65
ATOM     65  C   UNL     1      16.178  30.359  22.838  1.00  0.00     0.120 A 
ATOM     66  C   UNL     1      16.401  29.684  21.652  1.00  0.00     0.138 A 
ATOM     67  N   UNL     1      14.875  30.676  22.807  1.00  0.00    -0.132 NA
ATOM     68  N   UNL     1      15.235  29.620  20.962  1.00  0.00    -0.249 N 
ATOM     69  N   UNL     1      14.331  30.229  21.685  1.00  0.00    -0.067 NA
BRANCH  68  70
ATOM     70  C   UNL     1      15.106  28.936  19.679  1.00  0.00     0.181 C 
BRANCH  70  71
ATOM     71  C   UNL     1      16.483  28.339  19.403  1.00  0.00     0.170 C 
BRANCH  71  72
ATOM     72  O   UNL     1      16.354  26.975  19.288  1.00  0.00    -0.388 OA
ATOM     73  H   UNL     1      16.340  26.712  18.337  1.00  0.00     0.211 HD
ENDBRANCH  71  72
BRANCH  71  74
ATOM     74  C   UNL     1      17.100  28.983  18.199  1.00  0.00     0.239 C 
BRANCH  74  75
ATOM     75  N   UNL     1      18.111  29.939  18.620  1.00  0.00    -0.227 N 
ATOM     76  C   UNL     1      17.977  31.285  18.388  1.00  0.00     0.204 A 
ATOM     77  C   UNL     1      19.251  29.714  19.274  1.00  0.00     0.434 A 
ATOM     78  C   UNL     1      19.086  31.899  18.928  1.00  0.00     0.245 A 
ATOM     79  N   UNL     1      19.848  30.924  19.462  1.00  0.00    -0.074 NA
BRANCH  77  80
ATOM     80  N   UNL     1      19.761  28.458  19.686  1.00  0.00    -0.047 N 
ATOM     81  O   UNL     1      19.516  28.005  20.848  1.00  0.00    -0.390 OA
ATOM     82  O   UNL     1      20.541  27.661  18.894  1.00  0.00    -0.390 OA
ENDBRANCH  77  80
ENDBRANCH  74  75
ENDBRANCH  71  74
ENDBRANCH  70  71
ENDBRANCH  68  70
ENDBRANCH  64  65
ENDBRANCH  63  64
ENDBRANCH  60  63
ENDBRANCH  58  59
ENDBRANCH  55  58
ENDBRANCH   1  55
TORSDOF 35
