REMARK VINA RESULT:    -6.067     25.834     30.071
REMARK INTER + INTRA:         -23.820
REMARK INTER:                 -11.726
REMARK INTRA:                 -12.094
REMARK UNBOUND:                -6.934
REMARK SMILES CCOCCc1c(-c2ccccc2)nc(N)nc1-n1cc(COC(=O)NC[C@@H](O)C(O)[C@@H]2O[C@@](OC[C@H]3O[C@@H](O[C@H]4[C@H](O)[C@@H](O)[C@H](OCCN=[N+]=[N-])O[C@@H]4CO)[C@H](O)[C@@H](O)[C@H]3O)(C(=O)O)C[C@H](O)[C@H]2NC(C)=O)nn1
REMARK SMILES IDX 30 1 32 2 34 3 66 4 33 5 67 6 69 7 35 8 36 9 37 10 39 11
REMARK SMILES IDX 38 12 57 13 59 14 61 15 40 16 41 17 54 18 53 19 46 20 42 21
REMARK SMILES IDX 44 22 55 23 56 24 47 26 48 27 49 28 50 29 51 30 52 31 43 32
REMARK SMILES IDX 45 34 58 36 60 38 62 40 63 42 64 43 65 44 68 46 70 48 71 49
REMARK SMILES IDX 72 51 73 52 31 53 28 55 29 56 27 58 26 59 24 60 25 62 23 63
REMARK SMILES IDX 22 64 21 65 20 66 74 67 19 68 75 69 18 70 17 71 6 72 15 73
REMARK SMILES IDX 7 74 14 75 5 76 4 77 3 78 2 79 1 80 16 81 8 84 9 85 13 86
REMARK SMILES IDX 10 87 12 88 11 89
REMARK H PARENT 56 25 43 33 45 35 58 37 60 39 62 41 65 45 68 47 70 50 31 54
REMARK H PARENT 29 57 26 61 16 82 16 83
REMARK Flexibility Score: inf
ROOT
ATOM      1  C   UNL     1      24.206  22.996   6.289  1.00  0.00     0.176 C 
ENDROOT
BRANCH   1   2
ATOM      2  C   UNL     1      22.978  23.405   7.045  1.00  0.00     0.178 C 
ATOM      3  C   UNL     1      22.048  22.919   9.138  1.00  0.00     0.272 C 
ATOM      4  C   UNL     1      21.002  23.923   8.647  1.00  0.00     0.113 C 
ATOM      5  O   UNL     1      23.152  22.887   8.364  1.00  0.00    -0.332 OA
ATOM      6  C   UNL     1      20.566  23.652   7.239  1.00  0.00     0.145 C 
ATOM      7  C   UNL     1      21.676  22.873   6.556  1.00  0.00     0.142 C 
BRANCH   3   8
ATOM      8  O   UNL     1      21.405  21.711   9.293  1.00  0.00    -0.338 OA
BRANCH   8   9
ATOM      9  C   UNL     1      20.403  21.679  10.225  1.00  0.00     0.199 C 
BRANCH   9  10
ATOM     10  C   UNL     1      20.149  20.276  10.754  1.00  0.00     0.179 C 
ATOM     11  C   UNL     1      21.148  18.201  10.377  1.00  0.00     0.282 C 
ATOM     12  O   UNL     1      20.693  19.387   9.874  1.00  0.00    -0.341 OA
ATOM     13  C   UNL     1      22.210  18.559  11.426  1.00  0.00     0.202 C 
ATOM     14  C   UNL     1      21.398  19.082  12.610  1.00  0.00     0.179 C 
ATOM     15  C   UNL     1      20.384  20.091  12.197  1.00  0.00     0.177 C 
BRANCH  11  16
ATOM     16  O   UNL     1      21.653  17.417   9.366  1.00  0.00    -0.341 OA
BRANCH  16  17
ATOM     17  C   UNL     1      21.445  17.973   8.114  1.00  0.00     0.184 C 
ATOM     18  C   UNL     1      20.648  17.064   7.240  1.00  0.00     0.178 C 
ATOM     19  O   UNL     1      21.299  16.496   6.190  1.00  0.00    -0.341 OA
ATOM     20  C   UNL     1      22.130  17.264   5.437  1.00  0.00     0.281 C 
ATOM     21  C   UNL     1      22.729  18.436   7.495  1.00  0.00     0.180 C 
ATOM     22  C   UNL     1      22.546  18.578   6.008  1.00  0.00     0.202 C 
BRANCH  18  23
ATOM     23  C   UNL     1      19.319  17.697   6.829  1.00  0.00     0.191 C 
BRANCH  23  24
ATOM     24  O   UNL     1      19.220  19.002   7.277  1.00  0.00    -0.394 OA
ATOM     25  H   UNL     1      19.314  19.593   6.488  1.00  0.00     0.210 HD
ENDBRANCH  23  24
ENDBRANCH  18  23
BRANCH  20  26
ATOM     26  O   UNL     1      21.513  17.477   4.209  1.00  0.00    -0.350 OA
BRANCH  26  27
ATOM     27  C   UNL     1      21.837  16.553   3.246  1.00  0.00     0.169 C 
BRANCH  27  28
ATOM     28  C   UNL     1      20.681  15.687   2.807  1.00  0.00     0.119 C 
BRANCH  28  29
ATOM     29  N   UNL     1      19.434  16.414   3.038  1.00  0.00    -0.092 NA
ATOM     30  N   UNL     1      18.525  15.934   3.727  1.00  0.00     0.001 N 
ATOM     31  N   UNL     1      17.673  15.277   4.322  1.00  0.00    -0.003 NA
ENDBRANCH  28  29
ENDBRANCH  27  28
ENDBRANCH  26  27
ENDBRANCH  20  26
BRANCH  21  32
ATOM     32  O   UNL     1      23.149  19.671   7.999  1.00  0.00    -0.387 OA
ATOM     33  H   UNL     1      23.218  19.658   8.992  1.00  0.00     0.211 HD
ENDBRANCH  21  32
BRANCH  22  34
ATOM     34  O   UNL     1      23.781  18.925   5.463  1.00  0.00    -0.385 OA
ATOM     35  H   UNL     1      24.357  19.403   6.111  1.00  0.00     0.211 HD
ENDBRANCH  22  34
ENDBRANCH  16  17
ENDBRANCH  11  16
BRANCH  13  36
ATOM     36  O   UNL     1      22.959  17.475  11.814  1.00  0.00    -0.385 OA
ATOM     37  H   UNL     1      22.468  16.899  12.462  1.00  0.00     0.211 HD
ENDBRANCH  13  36
BRANCH  14  38
ATOM     38  O   UNL     1      22.178  19.440  13.685  1.00  0.00    -0.387 OA
ATOM     39  H   UNL     1      22.689  20.287  13.509  1.00  0.00     0.211 HD
ENDBRANCH  14  38
BRANCH  15  40
ATOM     40  O   UNL     1      20.770  21.328  12.756  1.00  0.00    -0.387 OA
ATOM     41  H   UNL     1      20.746  21.258  13.745  1.00  0.00     0.211 HD
ENDBRANCH  15  40
ENDBRANCH   9  10
ENDBRANCH   8   9
ENDBRANCH   3   8
BRANCH   3  42
ATOM     42  C   UNL     1      22.425  23.450  10.486  1.00  0.00     0.364 C 
ATOM     43  O   UNL     1      21.984  24.626  10.740  1.00  0.00    -0.246 OA
BRANCH  42  44
ATOM     44  O   UNL     1      23.172  22.792  11.420  1.00  0.00    -0.477 OA
ATOM     45  H   UNL     1      22.721  22.126  12.042  1.00  0.00     0.296 HD
ENDBRANCH  42  44
ENDBRANCH   3  42
BRANCH   6  46
ATOM     46  O   UNL     1      19.380  22.905   7.314  1.00  0.00    -0.391 OA
ATOM     47  H   UNL     1      18.718  23.207   6.662  1.00  0.00     0.211 HD
ENDBRANCH   6  46
BRANCH   7  48
ATOM     48  N   UNL     1      21.486  22.820   5.139  1.00  0.00    -0.348 N 
ATOM     49  C   UNL     1      20.744  21.808   4.478  1.00  0.00     0.217 C 
ATOM     50  H   UNL     1      21.914  23.590   4.580  1.00  0.00     0.163 HD
ATOM     51  C   UNL     1      20.611  21.854   3.008  1.00  0.00     0.114 C 
ATOM     52  O   UNL     1      20.209  20.893   5.140  1.00  0.00    -0.275 OA
ENDBRANCH   7  48
ENDBRANCH   1   2
BRANCH   1  53
ATOM     53  O   UNL     1      24.005  21.608   5.973  1.00  0.00    -0.388 OA
ATOM     54  H   UNL     1      23.706  21.594   5.040  1.00  0.00     0.211 HD
ENDBRANCH   1  53
BRANCH   1  55
ATOM     55  C   UNL     1      25.518  23.091   6.955  1.00  0.00     0.165 C 
BRANCH  55  56
ATOM     56  O   UNL     1      26.277  23.990   6.151  1.00  0.00    -0.388 OA
ATOM     57  H   UNL     1      25.769  24.822   6.065  1.00  0.00     0.211 HD
ENDBRANCH  55  56
BRANCH  55  58
ATOM     58  C   UNL     1      26.297  21.856   7.132  1.00  0.00     0.154 C 
BRANCH  58  59
ATOM     59  N   UNL     1      25.789  20.922   8.059  1.00  0.00    -0.319 N 
ATOM     60  C   UNL     1      26.427  19.741   8.481  1.00  0.00     0.407 C 
ATOM     61  H   UNL     1      24.818  21.065   8.528  1.00  0.00     0.167 HD
ATOM     62  O   UNL     1      27.551  19.396   8.053  1.00  0.00    -0.225 OA
BRANCH  60  63
ATOM     63  O   UNL     1      25.851  18.871   9.413  1.00  0.00    -0.443 OA
BRANCH  63  64
ATOM     64  C   UNL     1      26.580  18.353  10.506  1.00  0.00     0.294 C 
BRANCH  64  65
ATOM     65  C   UNL     1      26.012  18.797  11.801  1.00  0.00     0.121 A 
ATOM     66  C   UNL     1      25.826  20.087  12.224  1.00  0.00     0.146 A 
ATOM     67  N   UNL     1      25.590  18.024  12.827  1.00  0.00    -0.131 NA
ATOM     68  N   UNL     1      25.294  20.076  13.504  1.00  0.00    -0.202 N 
ATOM     69  N   UNL     1      25.179  18.816  13.800  1.00  0.00    -0.060 NA
BRANCH  68  70
ATOM     70  C   UNL     1      25.041  21.300  14.147  1.00  0.00     0.164 A 
ATOM     71  N   UNL     1      23.808  21.853  14.026  1.00  0.00    -0.193 NA
ATOM     72  C   UNL     1      25.956  21.962  14.978  1.00  0.00     0.026 A 
ATOM     73  C   UNL     1      23.436  22.971  14.651  1.00  0.00     0.222 A 
ATOM     74  C   UNL     1      25.597  23.103  15.630  1.00  0.00     0.081 A 
ATOM     75  N   UNL     1      24.322  23.581  15.441  1.00  0.00    -0.213 NA
BRANCH  72  76
ATOM     76  C   UNL     1      27.317  21.412  14.992  1.00  0.00     0.070 C 
BRANCH  76  77
ATOM     77  C   UNL     1      27.604  20.490  16.159  1.00  0.00     0.165 C 
BRANCH  77  78
ATOM     78  O   UNL     1      27.891  19.192  15.867  1.00  0.00    -0.381 OA
BRANCH  78  79
ATOM     79  C   UNL     1      28.609  18.930  14.739  1.00  0.00     0.156 C 
ATOM     80  C   UNL     1      30.073  18.596  15.074  1.00  0.00     0.035 C 
ENDBRANCH  78  79
ENDBRANCH  77  78
ENDBRANCH  76  77
ENDBRANCH  72  76
BRANCH  73  81
ATOM     81  N   UNL     1      22.123  23.516  14.488  1.00  0.00    -0.368 N 
ATOM     82  H   UNL     1      21.648  23.986  15.286  1.00  0.00     0.159 HD
ATOM     83  H   UNL     1      21.604  23.470  13.596  1.00  0.00     0.159 HD
ENDBRANCH  73  81
BRANCH  74  84
ATOM     84  C   UNL     1      26.472  23.830  16.524  1.00  0.00     0.001 A 
ATOM     85  C   UNL     1      26.432  23.510  17.879  1.00  0.00     0.010 A 
ATOM     86  C   UNL     1      27.353  24.799  16.078  1.00  0.00     0.010 A 
ATOM     87  C   UNL     1      27.261  24.145  18.795  1.00  0.00     0.001 A 
ATOM     88  C   UNL     1      28.163  25.415  17.001  1.00  0.00     0.001 A 
ATOM     89  C   UNL     1      28.132  25.106  18.338  1.00  0.00     0.000 A 
ENDBRANCH  74  84
ENDBRANCH  68  70
ENDBRANCH  64  65
ENDBRANCH  63  64
ENDBRANCH  60  63
ENDBRANCH  58  59
ENDBRANCH  55  58
ENDBRANCH   1  55
TORSDOF 36
