REMARK VINA RESULT:    -6.379      1.443      1.852
REMARK INTER + INTRA:         -23.834
REMARK INTER:                 -14.213
REMARK INTRA:                  -9.621
REMARK UNBOUND:                -7.759
REMARK SMILES CC(=O)N[C@@H]1[C@@H](O)C[C@](OC[C@H]2O[C@@H](O[C@H]3[C@H](O)[C@@H](O)[C@H](OCCN=[N+]=[N-])O[C@@H]3CO)[C@H](O)[C@@H](O)[C@H]2O)(C(=O)O)O[C@H]1C(O)[C@H](O)CNC(=O)OCc1cn(-c2cc(Cl)ccc2C(=O)N(C)C)nn1
REMARK SMILES IDX 9 1 8 2 6 3 5 4 42 5 41 6 10 7 11 8 12 9 14 10 13 11 32 12
REMARK SMILES IDX 34 13 36 14 15 15 16 16 29 17 28 18 21 19 17 20 19 21 30 22
REMARK SMILES IDX 31 23 22 25 23 26 24 27 25 28 26 29 27 30 18 31 20 33 33 35
REMARK SMILES IDX 35 37 37 39 38 41 39 42 40 43 7 45 43 47 44 48 45 50 46 51
REMARK SMILES IDX 47 53 48 54 49 55 50 57 51 58 52 59 53 60 54 61 69 62 55 63
REMARK SMILES IDX 68 64 56 65 57 66 62 67 58 68 61 69 59 70 60 71 63 72 64 73
REMARK SMILES IDX 65 74 66 75 67 76 4 77 2 78 1 80 3 81
REMARK H PARENT 31 24 18 32 20 34 33 36 35 38 37 40 40 44 7 46 44 49 46 52
REMARK H PARENT 48 56 4 79
REMARK Flexibility Score: inf
ROOT
ATOM      1  C   UNL     1      15.414  30.000  19.875  1.00  0.00     0.272 C 
ATOM      2  C   UNL     1      15.134  28.917  18.903  1.00  0.00     0.113 C 
ATOM      3  C   UNL     1      16.264  27.920  18.895  1.00  0.00     0.145 C 
ATOM      4  C   UNL     1      17.510  28.680  18.508  1.00  0.00     0.142 C 
ATOM      5  C   UNL     1      17.745  29.825  19.401  1.00  0.00     0.178 C 
ATOM      6  O   UNL     1      16.703  30.386  20.066  1.00  0.00    -0.332 OA
ENDROOT
BRANCH   1   7
ATOM      7  O   UNL     1      14.891  29.715  21.126  1.00  0.00    -0.338 OA
BRANCH   7   8
ATOM      8  C   UNL     1      13.683  29.117  21.205  1.00  0.00     0.199 C 
BRANCH   8   9
ATOM      9  C   UNL     1      13.074  29.372  22.593  1.00  0.00     0.179 C 
ATOM     10  C   UNL     1      13.835  30.120  24.637  1.00  0.00     0.282 C 
ATOM     11  O   UNL     1      14.055  29.222  23.528  1.00  0.00    -0.341 OA
ATOM     12  C   UNL     1      12.363  30.043  24.972  1.00  0.00     0.202 C 
ATOM     13  C   UNL     1      11.518  30.684  23.891  1.00  0.00     0.179 C 
ATOM     14  C   UNL     1      12.278  30.609  22.578  1.00  0.00     0.177 C 
BRANCH  10  15
ATOM     15  O   UNL     1      14.285  31.305  24.237  1.00  0.00    -0.341 OA
BRANCH  15  16
ATOM     16  C   UNL     1      15.480  31.835  24.690  1.00  0.00     0.184 C 
ATOM     17  C   UNL     1      15.325  33.320  24.644  1.00  0.00     0.178 C 
ATOM     18  O   UNL     1      16.510  33.944  25.072  1.00  0.00    -0.341 OA
ATOM     19  C   UNL     1      17.350  33.775  23.918  1.00  0.00     0.281 C 
ATOM     20  C   UNL     1      16.621  31.396  23.808  1.00  0.00     0.180 C 
ATOM     21  C   UNL     1      17.772  32.353  23.865  1.00  0.00     0.202 C 
BRANCH  17  22
ATOM     22  C   UNL     1      14.167  33.780  25.505  1.00  0.00     0.191 C 
BRANCH  22  23
ATOM     23  O   UNL     1      14.126  32.998  26.639  1.00  0.00    -0.394 OA
ATOM     24  H   UNL     1      14.472  32.092  26.440  1.00  0.00     0.210 HD
ENDBRANCH  22  23
ENDBRANCH  17  22
BRANCH  19  25
ATOM     25  O   UNL     1      18.358  34.653  24.009  1.00  0.00    -0.350 OA
BRANCH  25  26
ATOM     26  C   UNL     1      18.189  35.835  23.308  1.00  0.00     0.169 C 
BRANCH  26  27
ATOM     27  C   UNL     1      19.191  36.027  22.189  1.00  0.00     0.119 C 
BRANCH  27  28
ATOM     28  N   UNL     1      18.560  35.861  20.897  1.00  0.00    -0.092 NA
ATOM     29  N   UNL     1      18.286  34.744  20.475  1.00  0.00     0.001 N 
ATOM     30  N   UNL     1      18.002  33.547  20.257  1.00  0.00    -0.003 NA
ENDBRANCH  27  28
ENDBRANCH  26  27
ENDBRANCH  25  26
ENDBRANCH  19  25
BRANCH  20  31
ATOM     31  O   UNL     1      17.115  30.144  24.191  1.00  0.00    -0.387 OA
ATOM     32  H   UNL     1      16.376  29.467  24.209  1.00  0.00     0.211 HD
ENDBRANCH  20  31
BRANCH  21  33
ATOM     33  O   UNL     1      18.585  32.143  22.753  1.00  0.00    -0.385 OA
ATOM     34  H   UNL     1      18.528  31.234  22.391  1.00  0.00     0.211 HD
ENDBRANCH  21  33
ENDBRANCH  15  16
ENDBRANCH  10  15
BRANCH  12  35
ATOM     35  O   UNL     1      12.031  28.673  24.986  1.00  0.00    -0.385 OA
ATOM     36  H   UNL     1      11.383  28.463  25.732  1.00  0.00     0.211 HD
ENDBRANCH  12  35
BRANCH  13  37
ATOM     37  O   UNL     1      11.181  31.990  24.128  1.00  0.00    -0.387 OA
ATOM     38  H   UNL     1      11.931  32.622  24.009  1.00  0.00     0.211 HD
ENDBRANCH  13  37
BRANCH  14  39
ATOM     39  O   UNL     1      12.890  31.771  22.206  1.00  0.00    -0.387 OA
ATOM     40  H   UNL     1      13.842  31.837  22.441  1.00  0.00     0.211 HD
ENDBRANCH  14  39
ENDBRANCH   8   9
ENDBRANCH   7   8
ENDBRANCH   1   7
BRANCH   1  41
ATOM     41  C   UNL     1      14.621  31.245  19.433  1.00  0.00     0.364 C 
ATOM     42  O   UNL     1      14.814  32.282  20.108  1.00  0.00    -0.246 OA
BRANCH  41  43
ATOM     43  O   UNL     1      13.757  31.253  18.384  1.00  0.00    -0.477 OA
ATOM     44  H   UNL     1      13.996  31.426  17.433  1.00  0.00     0.296 HD
ENDBRANCH  41  43
ENDBRANCH   1  41
BRANCH   3  45
ATOM     45  O   UNL     1      16.327  27.276  20.097  1.00  0.00    -0.391 OA
ATOM     46  H   UNL     1      15.690  27.518  20.776  1.00  0.00     0.211 HD
ENDBRANCH   3  45
BRANCH   5  47
ATOM     47  C   UNL     1      18.850  29.632  20.432  1.00  0.00     0.176 C 
BRANCH  47  48
ATOM     48  O   UNL     1      18.413  29.473  21.717  1.00  0.00    -0.388 OA
ATOM     49  H   UNL     1      17.843  28.674  21.871  1.00  0.00     0.211 HD
ENDBRANCH  47  48
BRANCH  47  50
ATOM     50  C   UNL     1      19.878  28.615  20.098  1.00  0.00     0.165 C 
BRANCH  50  51
ATOM     51  O   UNL     1      20.188  27.779  21.196  1.00  0.00    -0.388 OA
ATOM     52  H   UNL     1      19.662  28.028  21.993  1.00  0.00     0.211 HD
ENDBRANCH  50  51
BRANCH  50  53
ATOM     53  C   UNL     1      21.196  29.395  19.889  1.00  0.00     0.154 C 
BRANCH  53  54
ATOM     54  N   UNL     1      21.311  30.445  20.862  1.00  0.00    -0.319 N 
ATOM     55  C   UNL     1      22.496  30.636  21.601  1.00  0.00     0.407 C 
ATOM     56  H   UNL     1      20.508  31.113  21.057  1.00  0.00     0.167 HD
ATOM     57  O   UNL     1      23.497  29.906  21.415  1.00  0.00    -0.225 OA
BRANCH  55  58
ATOM     58  O   UNL     1      22.592  31.644  22.568  1.00  0.00    -0.443 OA
BRANCH  58  59
ATOM     59  C   UNL     1      21.790  31.645  23.716  1.00  0.00     0.294 C 
BRANCH  59  60
ATOM     60  C   UNL     1      21.350  30.260  24.066  1.00  0.00     0.121 A 
ATOM     61  C   UNL     1      22.169  29.310  24.711  1.00  0.00     0.144 A 
ATOM     62  N   UNL     1      20.190  29.652  23.874  1.00  0.00    -0.131 NA
ATOM     63  N   UNL     1      21.475  28.193  24.875  1.00  0.00    -0.219 N 
ATOM     64  N   UNL     1      20.266  28.435  24.350  1.00  0.00    -0.062 NA
BRANCH  63  65
ATOM     65  C   UNL     1      21.799  26.944  25.458  1.00  0.00     0.081 A 
ATOM     66  C   UNL     1      21.885  26.843  26.853  1.00  0.00     0.049 A 
ATOM     67  C   UNL     1      22.073  25.803  24.761  1.00  0.00     0.065 A 
ATOM     68  C   UNL     1      22.224  25.678  27.461  1.00  0.00     0.043 A 
ATOM     69  C   UNL     1      22.426  24.595  25.391  1.00  0.00     0.017 A 
ATOM     70  Cl  UNL     1      22.315  25.620  29.216  1.00  0.00    -0.084 Cl
ATOM     71  C   UNL     1      22.501  24.536  26.760  1.00  0.00     0.021 A 
BRANCH  67  72
ATOM     72  C   UNL     1      21.971  25.752  23.299  1.00  0.00     0.255 C 
ATOM     73  O   UNL     1      20.880  25.427  22.788  1.00  0.00    -0.269 OA
ATOM     74  N   UNL     1      23.076  26.062  22.502  1.00  0.00    -0.345 N 
ATOM     75  C   UNL     1      24.347  26.439  23.115  1.00  0.00     0.146 C 
ATOM     76  C   UNL     1      22.998  26.029  21.044  1.00  0.00     0.146 C 
ENDBRANCH  67  72
ENDBRANCH  63  65
ENDBRANCH  59  60
ENDBRANCH  58  59
ENDBRANCH  55  58
ENDBRANCH  53  54
ENDBRANCH  50  53
ENDBRANCH  47  50
ENDBRANCH   5  47
BRANCH   4  77
ATOM     77  N   UNL     1      17.335  29.068  17.105  1.00  0.00    -0.348 N 
ATOM     78  C   UNL     1      18.280  28.751  16.107  1.00  0.00     0.217 C 
ATOM     79  H   UNL     1      16.490  29.600  16.821  1.00  0.00     0.163 HD
ATOM     80  C   UNL     1      18.111  29.142  14.687  1.00  0.00     0.114 C 
ATOM     81  O   UNL     1      19.313  28.108  16.435  1.00  0.00    -0.275 OA
ENDBRANCH   4  77
TORSDOF 31
