REMARK VINA RESULT:    -5.345      2.659      8.350
REMARK INTER + INTRA:         -20.989
REMARK INTER:                 -14.908
REMARK INTRA:                  -6.081
REMARK UNBOUND:                -7.364
REMARK SMILES CC(=O)N[C@@H]1[C@@H](O)C[C@](OC[C@H]2O[C@@H](O[C@H]3[C@H](O)[C@@H](O)[C@H](OCCN=[N+]=[N-])O[C@@H]3CO)[C@H](O)[C@@H](O)[C@H]2O)(C(=O)O)O[C@H]1C(O)[C@H](O)CNC(=O)OCc1cn([C@@H](C)C(=O)O)nn1
REMARK SMILES IDX 9 1 8 2 6 3 5 4 42 5 41 6 10 7 11 8 12 9 14 10 13 11 32 12
REMARK SMILES IDX 34 13 36 14 15 15 16 16 29 17 28 18 21 19 17 20 19 21 30 22
REMARK SMILES IDX 31 23 22 25 23 26 24 27 25 28 26 29 27 30 18 31 20 33 33 35
REMARK SMILES IDX 35 37 37 39 38 41 39 42 40 43 7 45 43 47 44 48 45 50 46 51
REMARK SMILES IDX 47 53 48 54 49 55 50 57 51 58 52 59 53 60 54 61 62 62 55 63
REMARK SMILES IDX 61 64 56 65 57 66 58 67 59 68 60 69 4 71 2 72 1 74 3 75
REMARK H PARENT 31 24 18 32 20 34 33 36 35 38 37 40 40 44 7 46 44 49 46 52
REMARK H PARENT 48 56 60 70 4 73
REMARK Flexibility Score: inf
ROOT
ATOM      1  C   UNL     1       4.228  22.533  33.083  1.00  0.00     0.272 C 
ATOM      2  C   UNL     1       3.699  23.786  33.665  1.00  0.00     0.113 C 
ATOM      3  C   UNL     1       4.423  24.929  32.990  1.00  0.00     0.145 C 
ATOM      4  C   UNL     1       5.856  24.851  33.627  1.00  0.00     0.142 C 
ATOM      5  C   UNL     1       6.312  23.473  33.696  1.00  0.00     0.178 C 
ATOM      6  O   UNL     1       5.623  22.530  32.981  1.00  0.00    -0.332 OA
ENDROOT
BRANCH   1   7
ATOM      7  O   UNL     1       3.650  22.217  31.892  1.00  0.00    -0.338 OA
BRANCH   7   8
ATOM      8  C   UNL     1       2.316  22.063  31.822  1.00  0.00     0.199 C 
BRANCH   8   9
ATOM      9  C   UNL     1       1.781  22.473  30.428  1.00  0.00     0.179 C 
ATOM     10  C   UNL     1       1.747  24.306  29.026  1.00  0.00     0.282 C 
ATOM     11  O   UNL     1       2.276  23.724  30.173  1.00  0.00    -0.341 OA
ATOM     12  C   UNL     1       0.934  23.345  28.210  1.00  0.00     0.202 C 
ATOM     13  C   UNL     1       1.660  22.023  28.054  1.00  0.00     0.179 C 
ATOM     14  C   UNL     1       2.195  21.500  29.377  1.00  0.00     0.177 C 
BRANCH  10  15
ATOM     15  O   UNL     1       2.733  24.834  28.181  1.00  0.00    -0.341 OA
BRANCH  15  16
ATOM     16  C   UNL     1       2.372  26.077  27.682  1.00  0.00     0.184 C 
ATOM     17  C   UNL     1       2.766  26.191  26.244  1.00  0.00     0.178 C 
ATOM     18  O   UNL     1       3.810  27.096  26.050  1.00  0.00    -0.341 OA
ATOM     19  C   UNL     1       4.885  26.817  26.899  1.00  0.00     0.281 C 
ATOM     20  C   UNL     1       3.073  27.127  28.510  1.00  0.00     0.180 C 
ATOM     21  C   UNL     1       4.565  27.139  28.332  1.00  0.00     0.202 C 
BRANCH  17  22
ATOM     22  C   UNL     1       1.611  26.626  25.372  1.00  0.00     0.191 C 
BRANCH  22  23
ATOM     23  O   UNL     1       1.196  27.924  25.663  1.00  0.00    -0.394 OA
ATOM     24  H   UNL     1       1.597  28.551  25.027  1.00  0.00     0.210 HD
ENDBRANCH  22  23
ENDBRANCH  17  22
BRANCH  19  25
ATOM     25  O   UNL     1       5.928  27.625  26.483  1.00  0.00    -0.350 OA
BRANCH  25  26
ATOM     26  C   UNL     1       6.033  27.565  25.109  1.00  0.00     0.169 C 
BRANCH  26  27
ATOM     27  C   UNL     1       7.183  28.422  24.623  1.00  0.00     0.119 C 
BRANCH  27  28
ATOM     28  N   UNL     1       8.342  27.557  24.411  1.00  0.00    -0.092 NA
ATOM     29  N   UNL     1       8.887  26.951  25.335  1.00  0.00     0.001 N 
ATOM     30  N   UNL     1       9.197  26.215  26.254  1.00  0.00    -0.003 NA
ENDBRANCH  27  28
ENDBRANCH  26  27
ENDBRANCH  25  26
ENDBRANCH  19  25
BRANCH  20  31
ATOM     31  O   UNL     1       2.568  28.405  28.272  1.00  0.00    -0.387 OA
ATOM     32  H   UNL     1       1.646  28.410  27.937  1.00  0.00     0.211 HD
ENDBRANCH  20  31
BRANCH  21  33
ATOM     33  O   UNL     1       5.154  26.169  29.141  1.00  0.00    -0.385 OA
ATOM     34  H   UNL     1       4.562  25.917  29.887  1.00  0.00     0.211 HD
ENDBRANCH  21  33
ENDBRANCH  15  16
ENDBRANCH  10  15
BRANCH  12  35
ATOM     35  O   UNL     1      -0.368  23.204  28.626  1.00  0.00    -0.385 OA
ATOM     36  H   UNL     1      -0.873  22.613  27.985  1.00  0.00     0.211 HD
ENDBRANCH  12  35
BRANCH  13  37
ATOM     37  O   UNL     1       2.750  22.261  27.189  1.00  0.00    -0.387 OA
ATOM     38  H   UNL     1       3.008  21.430  26.709  1.00  0.00     0.211 HD
ENDBRANCH  13  37
BRANCH  14  39
ATOM     39  O   UNL     1       3.581  21.357  29.332  1.00  0.00    -0.387 OA
ATOM     40  H   UNL     1       3.831  20.448  29.639  1.00  0.00     0.211 HD
ENDBRANCH  14  39
ENDBRANCH   8   9
ENDBRANCH   7   8
ENDBRANCH   1   7
BRANCH   1  41
ATOM     41  C   UNL     1       3.966  21.442  34.059  1.00  0.00     0.364 C 
ATOM     42  O   UNL     1       4.393  20.298  33.843  1.00  0.00    -0.246 OA
BRANCH  41  43
ATOM     43  O   UNL     1       3.247  21.674  35.222  1.00  0.00    -0.477 OA
ATOM     44  H   UNL     1       2.287  21.314  35.329  1.00  0.00     0.296 HD
ENDBRANCH  41  43
ENDBRANCH   1  41
BRANCH   3  45
ATOM     45  O   UNL     1       4.610  24.588  31.656  1.00  0.00    -0.391 OA
ATOM     46  H   UNL     1       5.507  24.272  31.457  1.00  0.00     0.211 HD
ENDBRANCH   3  45
BRANCH   5  47
ATOM     47  C   UNL     1       7.788  23.232  33.425  1.00  0.00     0.176 C 
BRANCH  47  48
ATOM     48  O   UNL     1       8.072  21.894  33.878  1.00  0.00    -0.388 OA
ATOM     49  H   UNL     1       7.706  21.258  33.243  1.00  0.00     0.211 HD
ENDBRANCH  47  48
BRANCH  47  50
ATOM     50  C   UNL     1       8.716  24.076  34.277  1.00  0.00     0.165 C 
BRANCH  50  51
ATOM     51  O   UNL     1       9.767  24.643  33.627  1.00  0.00    -0.388 OA
ATOM     52  H   UNL     1       9.626  24.923  32.696  1.00  0.00     0.211 HD
ENDBRANCH  50  51
BRANCH  50  53
ATOM     53  C   UNL     1       9.022  23.435  35.587  1.00  0.00     0.154 C 
BRANCH  53  54
ATOM     54  N   UNL     1       8.391  23.967  36.736  1.00  0.00    -0.319 N 
ATOM     55  C   UNL     1       8.589  23.578  38.087  1.00  0.00     0.407 C 
ATOM     56  H   UNL     1       7.686  24.751  36.566  1.00  0.00     0.167 HD
ATOM     57  O   UNL     1       9.402  22.681  38.344  1.00  0.00    -0.225 OA
BRANCH  55  58
ATOM     58  O   UNL     1       7.863  24.212  39.109  1.00  0.00    -0.443 OA
BRANCH  58  59
ATOM     59  C   UNL     1       7.054  23.468  39.981  1.00  0.00     0.294 C 
BRANCH  59  60
ATOM     60  C   UNL     1       5.859  22.910  39.336  1.00  0.00     0.120 A 
ATOM     61  C   UNL     1       4.870  22.115  39.870  1.00  0.00     0.139 A 
ATOM     62  N   UNL     1       5.549  23.124  38.030  1.00  0.00    -0.132 NA
ATOM     63  N   UNL     1       3.999  21.872  38.889  1.00  0.00    -0.238 N 
ATOM     64  N   UNL     1       4.403  22.477  37.779  1.00  0.00    -0.066 NA
BRANCH  63  65
ATOM     65  C   UNL     1       2.797  21.071  39.006  1.00  0.00     0.215 C 
ATOM     66  C   UNL     1       1.618  21.855  38.519  1.00  0.00     0.046 C 
BRANCH  65  67
ATOM     67  C   UNL     1       2.918  19.805  38.246  1.00  0.00     0.328 C 
ATOM     68  O   UNL     1       2.062  18.907  38.437  1.00  0.00    -0.250 OA
BRANCH  67  69
ATOM     69  O   UNL     1       3.939  19.578  37.335  1.00  0.00    -0.480 OA
ATOM     70  H   UNL     1       4.635  20.285  37.126  1.00  0.00     0.296 HD
ENDBRANCH  67  69
ENDBRANCH  65  67
ENDBRANCH  63  65
ENDBRANCH  59  60
ENDBRANCH  58  59
ENDBRANCH  55  58
ENDBRANCH  53  54
ENDBRANCH  50  53
ENDBRANCH  47  50
ENDBRANCH   5  47
BRANCH   4  71
ATOM     71  N   UNL     1       5.805  25.577  34.883  1.00  0.00    -0.348 N 
ATOM     72  C   UNL     1       6.464  26.766  35.192  1.00  0.00     0.217 C 
ATOM     73  H   UNL     1       5.198  25.144  35.637  1.00  0.00     0.163 HD
ATOM     74  C   UNL     1       6.334  27.412  36.520  1.00  0.00     0.114 C 
ATOM     75  O   UNL     1       7.184  27.302  34.329  1.00  0.00    -0.275 OA
ENDBRANCH   4  71
TORSDOF 32
