REMARK VINA RESULT:    -5.877      1.739      2.655
REMARK INTER + INTRA:         -25.085
REMARK INTER:                 -16.713
REMARK INTRA:                  -8.372
REMARK UNBOUND:                -9.245
REMARK SMILES CC(=O)N[C@@H]1[C@@H](O)C[C@](OC[C@H]2O[C@@H](O[C@H]3[C@H](O)[C@@H](O)[C@H](OCCN=[N+]=[N-])O[C@@H]3CO)[C@H](O)[C@@H](O)[C@H]2O)(C(=O)O)O[C@H]1C(O)[C@H](O)CNC(=O)OCc1cn([C@@H](C)C(=O)OCc2ccccc2)nn1
REMARK SMILES IDX 43 1 42 2 9 3 8 4 41 5 6 6 5 7 10 8 11 9 12 10 14 11 13 12
REMARK SMILES IDX 32 13 34 14 36 15 15 16 16 17 29 18 28 19 21 20 17 21 19 22
REMARK SMILES IDX 30 23 31 24 22 26 23 27 24 28 25 29 26 30 27 31 18 32 20 34
REMARK SMILES IDX 33 36 35 38 37 40 38 42 39 43 40 44 7 46 4 48 2 49 1 51 3 52
REMARK SMILES IDX 44 53 45 55 46 56 47 58 48 59 49 60 50 62 51 63 52 64 53 65
REMARK SMILES IDX 54 66 69 67 55 68 68 69 56 70 57 71 58 72 59 73 60 74 61 75
REMARK SMILES IDX 62 76 63 77 67 78 64 79 66 80 65 81
REMARK H PARENT 31 25 18 33 20 35 33 37 35 39 37 41 40 45 7 47 4 50 44 54
REMARK H PARENT 46 57 48 61
REMARK Flexibility Score: inf
ROOT
ATOM      1  C   UNL     1      28.232  21.145  21.372  1.00  0.00     0.176 C 
ENDROOT
BRANCH   1   2
ATOM      2  C   UNL     1      29.677  20.910  21.577  1.00  0.00     0.178 C 
ATOM      3  C   UNL     1      30.279  19.699  19.676  1.00  0.00     0.272 C 
ATOM      4  C   UNL     1      30.547  18.527  20.539  1.00  0.00     0.113 C 
ATOM      5  O   UNL     1      30.456  20.899  20.452  1.00  0.00    -0.332 OA
ATOM      6  C   UNL     1      29.699  18.483  21.789  1.00  0.00     0.145 C 
ATOM      7  C   UNL     1      29.905  19.768  22.533  1.00  0.00     0.142 C 
BRANCH   3   8
ATOM      8  O   UNL     1      29.133  19.852  19.064  1.00  0.00    -0.338 OA
BRANCH   8   9
ATOM      9  C   UNL     1      28.593  19.289  18.023  1.00  0.00     0.199 C 
BRANCH   9  10
ATOM     10  C   UNL     1      28.746  19.816  16.624  1.00  0.00     0.179 C 
ATOM     11  C   UNL     1      27.492  19.981  14.671  1.00  0.00     0.282 C 
ATOM     12  O   UNL     1      27.788  19.263  15.827  1.00  0.00    -0.341 OA
ATOM     13  C   UNL     1      28.596  20.886  14.257  1.00  0.00     0.202 C 
ATOM     14  C   UNL     1      28.854  21.936  15.303  1.00  0.00     0.179 C 
ATOM     15  C   UNL     1      28.629  21.355  16.652  1.00  0.00     0.177 C 
BRANCH  11  16
ATOM     16  O   UNL     1      26.258  20.544  14.853  1.00  0.00    -0.341 OA
BRANCH  16  17
ATOM     17  C   UNL     1      25.515  20.718  13.724  1.00  0.00     0.184 C 
ATOM     18  C   UNL     1      24.442  21.745  13.987  1.00  0.00     0.178 C 
ATOM     19  O   UNL     1      23.577  21.822  12.890  1.00  0.00    -0.341 OA
ATOM     20  C   UNL     1      22.652  20.765  13.088  1.00  0.00     0.281 C 
ATOM     21  C   UNL     1      24.811  19.448  13.277  1.00  0.00     0.180 C 
ATOM     22  C   UNL     1      23.333  19.471  13.405  1.00  0.00     0.202 C 
BRANCH  18  23
ATOM     23  C   UNL     1      24.960  23.094  14.386  1.00  0.00     0.191 C 
BRANCH  23  24
ATOM     24  O   UNL     1      25.333  22.998  15.730  1.00  0.00    -0.394 OA
ATOM     25  H   UNL     1      24.882  22.259  16.204  1.00  0.00     0.210 HD
ENDBRANCH  23  24
ENDBRANCH  18  23
BRANCH  20  26
ATOM     26  O   UNL     1      21.833  20.726  12.005  1.00  0.00    -0.350 OA
BRANCH  26  27
ATOM     27  C   UNL     1      20.718  19.956  12.047  1.00  0.00     0.169 C 
BRANCH  27  28
ATOM     28  C   UNL     1      20.452  19.046  10.903  1.00  0.00     0.119 C 
BRANCH  28  29
ATOM     29  N   UNL     1      21.555  18.677  10.090  1.00  0.00    -0.092 NA
ATOM     30  N   UNL     1      22.392  17.858  10.450  1.00  0.00     0.001 N 
ATOM     31  N   UNL     1      23.172  16.916  10.682  1.00  0.00    -0.003 NA
ENDBRANCH  28  29
ENDBRANCH  27  28
ENDBRANCH  26  27
ENDBRANCH  20  26
BRANCH  21  32
ATOM     32  O   UNL     1      25.144  19.118  11.960  1.00  0.00    -0.387 OA
ATOM     33  H   UNL     1      24.678  19.671  11.294  1.00  0.00     0.211 HD
ENDBRANCH  21  32
BRANCH  22  34
ATOM     34  O   UNL     1      22.967  18.953  14.652  1.00  0.00    -0.385 OA
ATOM     35  H   UNL     1      22.599  18.045  14.484  1.00  0.00     0.211 HD
ENDBRANCH  22  34
ENDBRANCH  16  17
ENDBRANCH  11  16
BRANCH  13  36
ATOM     36  O   UNL     1      29.752  20.101  14.035  1.00  0.00    -0.385 OA
ATOM     37  H   UNL     1      29.886  20.132  13.039  1.00  0.00     0.211 HD
ENDBRANCH  13  36
BRANCH  14  38
ATOM     38  O   UNL     1      28.067  23.036  15.032  1.00  0.00    -0.387 OA
ATOM     39  H   UNL     1      28.482  23.644  14.360  1.00  0.00     0.211 HD
ENDBRANCH  14  38
BRANCH  15  40
ATOM     40  O   UNL     1      27.429  21.762  17.218  1.00  0.00    -0.387 OA
ATOM     41  H   UNL     1      27.432  22.765  17.310  1.00  0.00     0.211 HD
ENDBRANCH  15  40
ENDBRANCH   9  10
ENDBRANCH   8   9
ENDBRANCH   3   8
BRANCH   3  42
ATOM     42  C   UNL     1      31.465  19.853  18.745  1.00  0.00     0.364 C 
ATOM     43  O   UNL     1      31.878  20.969  18.399  1.00  0.00    -0.246 OA
BRANCH  42  44
ATOM     44  O   UNL     1      32.130  18.734  18.248  1.00  0.00    -0.477 OA
ATOM     45  H   UNL     1      31.698  18.043  17.641  1.00  0.00     0.296 HD
ENDBRANCH  42  44
ENDBRANCH   3  42
BRANCH   6  46
ATOM     46  O   UNL     1      28.358  18.222  21.526  1.00  0.00    -0.391 OA
ATOM     47  H   UNL     1      28.223  18.379  20.562  1.00  0.00     0.211 HD
ENDBRANCH   6  46
BRANCH   7  48
ATOM     48  N   UNL     1      31.259  19.784  23.070  1.00  0.00    -0.348 N 
ATOM     49  C   UNL     1      31.489  20.447  24.316  1.00  0.00     0.217 C 
ATOM     50  H   UNL     1      32.073  19.341  22.599  1.00  0.00     0.163 HD
ATOM     51  C   UNL     1      32.877  20.464  24.867  1.00  0.00     0.114 C 
ATOM     52  O   UNL     1      30.534  21.000  24.927  1.00  0.00    -0.275 OA
ENDBRANCH   7  48
ENDBRANCH   1   2
BRANCH   1  53
ATOM     53  O   UNL     1      27.552  20.858  22.580  1.00  0.00    -0.388 OA
ATOM     54  H   UNL     1      26.589  21.099  22.499  1.00  0.00     0.211 HD
ENDBRANCH   1  53
BRANCH   1  55
ATOM     55  C   UNL     1      27.879  22.616  21.101  1.00  0.00     0.165 C 
BRANCH  55  56
ATOM     56  O   UNL     1      27.140  22.776  19.971  1.00  0.00    -0.388 OA
ATOM     57  H   UNL     1      27.659  23.230  19.266  1.00  0.00     0.211 HD
ENDBRANCH  55  56
BRANCH  55  58
ATOM     58  C   UNL     1      29.088  23.486  21.221  1.00  0.00     0.154 C 
BRANCH  58  59
ATOM     59  N   UNL     1      29.410  24.090  19.958  1.00  0.00    -0.319 N 
ATOM     60  C   UNL     1      29.595  25.472  19.719  1.00  0.00     0.407 C 
ATOM     61  H   UNL     1      29.533  23.481  19.087  1.00  0.00     0.167 HD
ATOM     62  O   UNL     1      29.468  26.299  20.625  1.00  0.00    -0.225 OA
BRANCH  60  63
ATOM     63  O   UNL     1      29.929  25.948  18.442  1.00  0.00    -0.443 OA
BRANCH  63  64
ATOM     64  C   UNL     1      29.002  26.625  17.631  1.00  0.00     0.294 C 
BRANCH  64  65
ATOM     65  C   UNL     1      27.684  25.973  17.815  1.00  0.00     0.120 A 
ATOM     66  C   UNL     1      26.492  26.554  18.184  1.00  0.00     0.139 A 
ATOM     67  N   UNL     1      27.438  24.668  17.651  1.00  0.00    -0.132 NA
ATOM     68  N   UNL     1      25.539  25.582  18.239  1.00  0.00    -0.238 N 
ATOM     69  N   UNL     1      26.140  24.454  17.911  1.00  0.00    -0.066 NA
BRANCH  68  70
ATOM     70  C   UNL     1      24.174  25.865  18.608  1.00  0.00     0.215 C 
ATOM     71  C   UNL     1      23.251  24.728  18.211  1.00  0.00     0.046 C 
BRANCH  70  72
ATOM     72  C   UNL     1      24.069  26.101  20.092  1.00  0.00     0.331 C 
ATOM     73  O   UNL     1      23.298  26.982  20.508  1.00  0.00    -0.250 OA
BRANCH  72  74
ATOM     74  O   UNL     1      24.806  25.364  20.989  1.00  0.00    -0.459 OA
BRANCH  74  75
ATOM     75  C   UNL     1      24.380  24.170  21.597  1.00  0.00     0.268 C 
BRANCH  75  76
ATOM     76  C   UNL     1      23.679  24.375  22.882  1.00  0.00    -0.011 A 
ATOM     77  C   UNL     1      22.317  24.501  22.963  1.00  0.00     0.007 A 
ATOM     78  C   UNL     1      24.396  24.448  24.050  1.00  0.00     0.007 A 
ATOM     79  C   UNL     1      21.660  24.696  24.157  1.00  0.00     0.000 A 
ATOM     80  C   UNL     1      23.783  24.640  25.267  1.00  0.00     0.000 A 
ATOM     81  C   UNL     1      22.400  24.765  25.310  1.00  0.00     0.000 A 
ENDBRANCH  75  76
ENDBRANCH  74  75
ENDBRANCH  72  74
ENDBRANCH  70  72
ENDBRANCH  68  70
ENDBRANCH  64  65
ENDBRANCH  63  64
ENDBRANCH  60  63
ENDBRANCH  58  59
ENDBRANCH  55  58
ENDBRANCH   1  55
TORSDOF 34
