REMARK VINA RESULT:    -4.974      2.899      8.400
REMARK INTER + INTRA:         -23.297
REMARK INTER:                 -15.143
REMARK INTRA:                  -8.155
REMARK UNBOUND:                -9.744
REMARK SMILES CC(=O)N[C@@H]1[C@@H](O)C[C@](OC[C@H]2O[C@@H](O[C@H]3[C@H](O)[C@@H](O)[C@H](OCCN=[N+]=[N-])O[C@@H]3CO)[C@H](O)[C@@H](O)[C@H]2O)(C(=O)O)O[C@H]1C(O)[C@H](O)CNC(=O)OCc1cn(CC(O)Cn2ccnc2[N+](=O)[O-])nn1
REMARK SMILES IDX 43 1 42 2 9 3 8 4 41 5 6 6 5 7 10 8 11 9 12 10 14 11 13 12
REMARK SMILES IDX 32 13 34 14 36 15 15 16 16 17 29 18 28 19 21 20 17 21 19 22
REMARK SMILES IDX 30 23 31 24 22 26 23 27 24 28 25 29 26 30 27 31 18 32 20 34
REMARK SMILES IDX 33 36 35 38 37 40 38 42 39 43 40 44 7 46 4 48 2 49 1 51 3 52
REMARK SMILES IDX 44 53 45 55 46 56 47 58 48 59 49 60 50 62 51 63 52 64 53 65
REMARK SMILES IDX 54 66 69 67 55 68 68 69 56 70 57 71 58 72 59 74 60 75 61 76
REMARK SMILES IDX 64 77 62 78 63 79 65 80 66 81 67 82
REMARK H PARENT 31 25 18 33 20 35 33 37 35 39 37 41 40 45 7 47 4 50 44 54
REMARK H PARENT 46 57 48 61 58 73
REMARK Flexibility Score: inf
ROOT
ATOM      1  C   UNL     1      16.736  28.316  17.996  1.00  0.00     0.176 C 
ENDROOT
BRANCH   1   2
ATOM      2  C   UNL     1      18.020  29.173  17.781  1.00  0.00     0.178 C 
ATOM      3  C   UNL     1      20.293  28.760  17.902  1.00  0.00     0.272 C 
ATOM      4  C   UNL     1      20.506  30.073  18.595  1.00  0.00     0.113 C 
ATOM      5  O   UNL     1      19.016  28.273  18.166  1.00  0.00    -0.332 OA
ATOM      6  C   UNL     1      19.327  30.426  19.493  1.00  0.00     0.145 C 
ATOM      7  C   UNL     1      18.020  30.306  18.719  1.00  0.00     0.142 C 
BRANCH   3   8
ATOM      8  O   UNL     1      21.127  27.753  18.372  1.00  0.00    -0.338 OA
BRANCH   8   9
ATOM      9  C   UNL     1      22.433  28.012  18.556  1.00  0.00     0.199 C 
BRANCH   9  10
ATOM     10  C   UNL     1      23.283  26.767  18.718  1.00  0.00     0.179 C 
ATOM     11  C   UNL     1      23.809  25.118  20.130  1.00  0.00     0.282 C 
ATOM     12  O   UNL     1      22.704  25.863  19.650  1.00  0.00    -0.341 OA
ATOM     13  C   UNL     1      24.486  24.384  18.999  1.00  0.00     0.202 C 
ATOM     14  C   UNL     1      23.546  24.459  17.797  1.00  0.00     0.179 C 
ATOM     15  C   UNL     1      23.400  25.945  17.455  1.00  0.00     0.177 C 
BRANCH  11  16
ATOM     16  O   UNL     1      23.439  24.224  21.113  1.00  0.00    -0.341 OA
BRANCH  16  17
ATOM     17  C   UNL     1      23.494  24.885  22.319  1.00  0.00     0.184 C 
ATOM     18  C   UNL     1      24.701  24.515  23.167  1.00  0.00     0.178 C 
ATOM     19  O   UNL     1      24.791  25.544  24.110  1.00  0.00    -0.341 OA
ATOM     20  C   UNL     1      23.765  25.573  25.015  1.00  0.00     0.281 C 
ATOM     21  C   UNL     1      22.294  24.573  23.201  1.00  0.00     0.180 C 
ATOM     22  C   UNL     1      22.406  25.234  24.523  1.00  0.00     0.202 C 
BRANCH  18  23
ATOM     23  C   UNL     1      25.966  24.375  22.400  1.00  0.00     0.191 C 
BRANCH  23  24
ATOM     24  O   UNL     1      26.175  23.025  22.144  1.00  0.00    -0.394 OA
ATOM     25  H   UNL     1      25.405  22.459  22.402  1.00  0.00     0.210 HD
ENDBRANCH  23  24
ENDBRANCH  18  23
BRANCH  20  26
ATOM     26  O   UNL     1      23.705  26.909  25.493  1.00  0.00    -0.350 OA
BRANCH  26  27
ATOM     27  C   UNL     1      22.716  27.645  24.892  1.00  0.00     0.169 C 
BRANCH  27  28
ATOM     28  C   UNL     1      23.430  28.735  24.082  1.00  0.00     0.119 C 
BRANCH  28  29
ATOM     29  N   UNL     1      22.735  29.054  22.873  1.00  0.00    -0.092 NA
ATOM     30  N   UNL     1      21.984  28.225  22.310  1.00  0.00     0.001 N 
ATOM     31  N   UNL     1      20.959  27.749  21.851  1.00  0.00    -0.003 NA
ENDBRANCH  28  29
ENDBRANCH  27  28
ENDBRANCH  26  27
ENDBRANCH  20  26
BRANCH  21  32
ATOM     32  O   UNL     1      21.124  25.031  22.561  1.00  0.00    -0.387 OA
ATOM     33  H   UNL     1      20.493  24.290  22.588  1.00  0.00     0.211 HD
ENDBRANCH  21  32
BRANCH  22  34
ATOM     34  O   UNL     1      21.850  24.329  25.462  1.00  0.00    -0.385 OA
ATOM     35  H   UNL     1      21.946  23.392  25.149  1.00  0.00     0.211 HD
ENDBRANCH  22  34
ENDBRANCH  16  17
ENDBRANCH  11  16
BRANCH  13  36
ATOM     36  O   UNL     1      25.697  25.017  18.720  1.00  0.00    -0.385 OA
ATOM     37  H   UNL     1      25.658  25.990  18.937  1.00  0.00     0.211 HD
ENDBRANCH  13  36
BRANCH  14  38
ATOM     38  O   UNL     1      22.299  24.041  18.223  1.00  0.00    -0.387 OA
ATOM     39  H   UNL     1      21.853  24.753  18.714  1.00  0.00     0.211 HD
ENDBRANCH  14  38
BRANCH  15  40
ATOM     40  O   UNL     1      22.284  26.032  16.654  1.00  0.00    -0.387 OA
ATOM     41  H   UNL     1      21.881  25.147  16.468  1.00  0.00     0.211 HD
ENDBRANCH  15  40
ENDBRANCH   9  10
ENDBRANCH   8   9
ENDBRANCH   3   8
BRANCH   3  42
ATOM     42  C   UNL     1      20.461  28.893  16.449  1.00  0.00     0.364 C 
ATOM     43  O   UNL     1      20.584  30.034  15.882  1.00  0.00    -0.246 OA
BRANCH  42  44
ATOM     44  O   UNL     1      20.498  27.822  15.577  1.00  0.00    -0.477 OA
ATOM     45  H   UNL     1      19.674  27.270  15.327  1.00  0.00     0.296 HD
ENDBRANCH  42  44
ENDBRANCH   3  42
BRANCH   6  46
ATOM     46  O   UNL     1      19.312  29.670  20.649  1.00  0.00    -0.391 OA
ATOM     47  H   UNL     1      18.393  29.397  20.897  1.00  0.00     0.211 HD
ENDBRANCH   6  46
BRANCH   7  48
ATOM     48  N   UNL     1      17.598  31.584  18.240  1.00  0.00    -0.348 N 
ATOM     49  C   UNL     1      16.578  32.399  18.720  1.00  0.00     0.217 C 
ATOM     50  H   UNL     1      18.149  32.010  17.380  1.00  0.00     0.163 HD
ATOM     51  C   UNL     1      16.296  33.756  18.096  1.00  0.00     0.114 C 
ATOM     52  O   UNL     1      15.843  32.100  19.663  1.00  0.00    -0.275 OA
ENDBRANCH   7  48
ENDBRANCH   1   2
BRANCH   1  53
ATOM     53  O   UNL     1      15.801  28.738  17.018  1.00  0.00    -0.388 OA
ATOM     54  H   UNL     1      16.103  28.559  16.114  1.00  0.00     0.211 HD
ENDBRANCH   1  53
BRANCH   1  55
ATOM     55  C   UNL     1      16.151  28.387  19.328  1.00  0.00     0.165 C 
BRANCH  55  56
ATOM     56  O   UNL     1      16.340  27.319  20.166  1.00  0.00    -0.388 OA
ATOM     57  H   UNL     1      16.647  27.561  21.068  1.00  0.00     0.211 HD
ENDBRANCH  55  56
BRANCH  55  58
ATOM     58  C   UNL     1      14.646  28.744  19.309  1.00  0.00     0.154 C 
BRANCH  58  59
ATOM     59  N   UNL     1      14.193  28.608  20.689  1.00  0.00    -0.319 N 
ATOM     60  C   UNL     1      13.366  29.600  21.310  1.00  0.00     0.407 C 
ATOM     61  H   UNL     1      14.467  27.774  21.255  1.00  0.00     0.167 HD
ATOM     62  O   UNL     1      13.017  30.608  20.659  1.00  0.00    -0.225 OA
BRANCH  60  63
ATOM     63  O   UNL     1      12.946  29.468  22.617  1.00  0.00    -0.443 OA
BRANCH  63  64
ATOM     64  C   UNL     1      13.417  30.167  23.728  1.00  0.00     0.294 C 
BRANCH  64  65
ATOM     65  C   UNL     1      14.901  30.181  23.727  1.00  0.00     0.120 A 
ATOM     66  C   UNL     1      15.717  31.296  23.665  1.00  0.00     0.138 A 
ATOM     67  N   UNL     1      15.750  29.144  23.790  1.00  0.00    -0.132 NA
ATOM     68  N   UNL     1      17.012  30.890  23.694  1.00  0.00    -0.249 N 
ATOM     69  N   UNL     1      17.000  29.584  23.769  1.00  0.00    -0.067 NA
BRANCH  68  70
ATOM     70  C   UNL     1      18.137  31.819  23.685  1.00  0.00     0.181 C 
BRANCH  70  71
ATOM     71  C   UNL     1      19.331  31.006  24.181  1.00  0.00     0.170 C 
BRANCH  71  72
ATOM     72  O   UNL     1      20.084  30.628  23.095  1.00  0.00    -0.388 OA
ATOM     73  H   UNL     1      19.519  30.166  22.431  1.00  0.00     0.211 HD
ENDBRANCH  71  72
BRANCH  71  74
ATOM     74  C   UNL     1      20.104  31.784  25.201  1.00  0.00     0.239 C 
BRANCH  74  75
ATOM     75  N   UNL     1      20.096  31.071  26.469  1.00  0.00    -0.227 N 
ATOM     76  C   UNL     1      21.162  30.311  26.881  1.00  0.00     0.204 A 
ATOM     77  C   UNL     1      19.143  31.039  27.401  1.00  0.00     0.434 A 
ATOM     78  C   UNL     1      20.838  29.800  28.118  1.00  0.00     0.245 A 
ATOM     79  N   UNL     1      19.605  30.256  28.415  1.00  0.00    -0.074 NA
BRANCH  77  80
ATOM     80  N   UNL     1      17.881  31.681  27.350  1.00  0.00    -0.047 N 
ATOM     81  O   UNL     1      17.772  32.924  27.597  1.00  0.00    -0.390 OA
ATOM     82  O   UNL     1      16.714  31.035  27.048  1.00  0.00    -0.390 OA
ENDBRANCH  77  80
ENDBRANCH  74  75
ENDBRANCH  71  74
ENDBRANCH  70  71
ENDBRANCH  68  70
ENDBRANCH  64  65
ENDBRANCH  63  64
ENDBRANCH  60  63
ENDBRANCH  58  59
ENDBRANCH  55  58
ENDBRANCH   1  55
TORSDOF 35
