REMARK VINA RESULT:    -5.238      5.100     10.780
REMARK INTER + INTRA:         -21.627
REMARK INTER:                 -13.385
REMARK INTRA:                  -8.242
REMARK UNBOUND:                -8.275
REMARK SMILES CC(=O)N[C@@H]1[C@@H](O)C[C@](OC[C@H]2O[C@@H](O[C@H]3[C@H](O)[C@@H](O)[C@H](OCCN=[N+]=[N-])O[C@@H]3CO)[C@H](O)[C@@H](O)[C@H]2O)(C(=O)O)O[C@H]1C(O)[C@H](O)CNC(=O)OCc1cn(C(C)(C)C(=O)O)nn1
REMARK SMILES IDX 9 1 8 2 6 3 5 4 42 5 41 6 10 7 11 8 12 9 14 10 13 11 32 12
REMARK SMILES IDX 34 13 36 14 15 15 16 16 29 17 28 18 21 19 17 20 19 21 30 22
REMARK SMILES IDX 31 23 22 25 23 26 24 27 25 28 26 29 27 30 18 31 20 33 33 35
REMARK SMILES IDX 35 37 37 39 38 41 39 42 40 43 7 45 43 47 44 48 45 50 46 51
REMARK SMILES IDX 47 53 48 54 49 55 50 57 51 58 52 59 53 60 54 61 63 62 55 63
REMARK SMILES IDX 62 64 56 65 57 66 58 67 59 68 60 69 61 70 4 72 2 73 1 75
REMARK SMILES IDX 3 76
REMARK H PARENT 31 24 18 32 20 34 33 36 35 38 37 40 40 44 7 46 44 49 46 52
REMARK H PARENT 48 56 61 71 4 74
REMARK Flexibility Score: inf
ROOT
ATOM      1  C   UNL     1      14.904  29.527  20.744  1.00  0.00     0.272 C 
ATOM      2  C   UNL     1      13.821  28.827  21.456  1.00  0.00     0.113 C 
ATOM      3  C   UNL     1      13.290  29.539  22.668  1.00  0.00     0.145 C 
ATOM      4  C   UNL     1      14.346  30.437  23.239  1.00  0.00     0.142 C 
ATOM      5  C   UNL     1      15.688  29.767  22.891  1.00  0.00     0.178 C 
ATOM      6  O   UNL     1      15.928  30.018  21.560  1.00  0.00    -0.332 OA
ENDROOT
BRANCH   1   7
ATOM      7  O   UNL     1      14.496  30.545  19.938  1.00  0.00    -0.338 OA
BRANCH   7   8
ATOM      8  C   UNL     1      15.278  31.653  19.839  1.00  0.00     0.199 C 
BRANCH   8   9
ATOM      9  C   UNL     1      15.419  32.103  18.402  1.00  0.00     0.179 C 
ATOM     10  C   UNL     1      16.582  31.601  16.473  1.00  0.00     0.282 C 
ATOM     11  O   UNL     1      16.167  31.115  17.766  1.00  0.00    -0.341 OA
ATOM     12  C   UNL     1      15.357  31.651  15.640  1.00  0.00     0.202 C 
ATOM     13  C   UNL     1      14.093  31.418  16.465  1.00  0.00     0.179 C 
ATOM     14  C   UNL     1      14.105  32.259  17.733  1.00  0.00     0.177 C 
BRANCH  10  15
ATOM     15  O   UNL     1      17.580  30.744  16.119  1.00  0.00    -0.341 OA
BRANCH  15  16
ATOM     16  C   UNL     1      18.224  30.121  17.174  1.00  0.00     0.184 C 
ATOM     17  C   UNL     1      19.598  30.692  17.335  1.00  0.00     0.178 C 
ATOM     18  O   UNL     1      20.444  29.809  18.022  1.00  0.00    -0.341 OA
ATOM     19  C   UNL     1      20.825  28.722  17.249  1.00  0.00     0.281 C 
ATOM     20  C   UNL     1      18.383  28.627  16.893  1.00  0.00     0.180 C 
ATOM     21  C   UNL     1      19.730  28.366  16.267  1.00  0.00     0.202 C 
BRANCH  17  22
ATOM     22  C   UNL     1      19.582  31.960  18.206  1.00  0.00     0.191 C 
BRANCH  22  23
ATOM     23  O   UNL     1      18.791  31.694  19.305  1.00  0.00    -0.394 OA
ATOM     24  H   UNL     1      18.341  32.546  19.584  1.00  0.00     0.210 HD
ENDBRANCH  22  23
ENDBRANCH  17  22
BRANCH  19  25
ATOM     25  O   UNL     1      21.065  27.677  18.140  1.00  0.00    -0.350 OA
BRANCH  25  26
ATOM     26  C   UNL     1      21.858  28.001  19.210  1.00  0.00     0.169 C 
BRANCH  26  27
ATOM     27  C   UNL     1      21.264  27.264  20.419  1.00  0.00     0.119 C 
BRANCH  27  28
ATOM     28  N   UNL     1      20.061  27.898  20.904  1.00  0.00    -0.092 NA
ATOM     29  N   UNL     1      20.105  29.105  21.184  1.00  0.00     0.001 N 
ATOM     30  N   UNL     1      20.233  30.217  21.677  1.00  0.00    -0.003 NA
ENDBRANCH  27  28
ENDBRANCH  26  27
ENDBRANCH  25  26
ENDBRANCH  19  25
BRANCH  20  31
ATOM     31  O   UNL     1      18.326  27.925  18.093  1.00  0.00    -0.387 OA
ATOM     32  H   UNL     1      17.495  27.399  18.196  1.00  0.00     0.211 HD
ENDBRANCH  20  31
BRANCH  21  33
ATOM     33  O   UNL     1      19.817  29.117  15.101  1.00  0.00    -0.385 OA
ATOM     34  H   UNL     1      20.408  29.902  15.181  1.00  0.00     0.211 HD
ENDBRANCH  21  33
ENDBRANCH  15  16
ENDBRANCH  10  15
BRANCH  12  35
ATOM     35  O   UNL     1      15.215  32.965  15.143  1.00  0.00    -0.385 OA
ATOM     36  H   UNL     1      14.861  33.011  14.243  1.00  0.00     0.211 HD
ENDBRANCH  12  35
BRANCH  13  37
ATOM     37  O   UNL     1      13.942  30.073  16.747  1.00  0.00    -0.387 OA
ATOM     38  H   UNL     1      12.985  29.816  16.715  1.00  0.00     0.211 HD
ENDBRANCH  13  37
BRANCH  14  39
ATOM     39  O   UNL     1      13.073  31.795  18.533  1.00  0.00    -0.387 OA
ATOM     40  H   UNL     1      12.887  30.849  18.268  1.00  0.00     0.211 HD
ENDBRANCH  14  39
ENDBRANCH   8   9
ENDBRANCH   7   8
ENDBRANCH   1   7
BRANCH   1  41
ATOM     41  C   UNL     1      15.627  28.467  19.904  1.00  0.00     0.364 C 
ATOM     42  O   UNL     1      15.373  28.349  18.686  1.00  0.00    -0.246 OA
BRANCH  41  43
ATOM     43  O   UNL     1      16.566  27.627  20.469  1.00  0.00    -0.477 OA
ATOM     44  H   UNL     1      17.501  27.506  20.114  1.00  0.00     0.296 HD
ENDBRANCH  41  43
ENDBRANCH   1  41
BRANCH   3  45
ATOM     45  O   UNL     1      12.198  30.299  22.305  1.00  0.00    -0.391 OA
ATOM     46  H   UNL     1      11.778  30.756  23.080  1.00  0.00     0.211 HD
ENDBRANCH   3  45
BRANCH   5  47
ATOM     47  C   UNL     1      16.805  30.294  23.747  1.00  0.00     0.176 C 
BRANCH  47  48
ATOM     48  O   UNL     1      17.933  29.495  23.582  1.00  0.00    -0.388 OA
ATOM     49  H   UNL     1      18.400  29.713  22.721  1.00  0.00     0.211 HD
ENDBRANCH  47  48
BRANCH  47  50
ATOM     50  C   UNL     1      17.160  31.699  23.321  1.00  0.00     0.165 C 
BRANCH  50  51
ATOM     51  O   UNL     1      17.887  31.691  22.122  1.00  0.00    -0.388 OA
ATOM     52  H   UNL     1      17.263  31.877  21.386  1.00  0.00     0.211 HD
ENDBRANCH  50  51
BRANCH  50  53
ATOM     53  C   UNL     1      17.963  32.440  24.357  1.00  0.00     0.154 C 
BRANCH  53  54
ATOM     54  N   UNL     1      19.371  32.146  24.245  1.00  0.00    -0.319 N 
ATOM     55  C   UNL     1      20.021  31.271  25.149  1.00  0.00     0.407 C 
ATOM     56  H   UNL     1      19.936  32.581  23.489  1.00  0.00     0.167 HD
ATOM     57  O   UNL     1      19.408  30.706  26.089  1.00  0.00    -0.225 OA
BRANCH  55  58
ATOM     58  O   UNL     1      21.392  30.997  25.033  1.00  0.00    -0.443 OA
BRANCH  58  59
ATOM     59  C   UNL     1      21.968  30.002  25.885  1.00  0.00     0.294 C 
BRANCH  59  60
ATOM     60  C   UNL     1      22.214  28.758  25.158  1.00  0.00     0.120 A 
ATOM     61  C   UNL     1      22.093  27.485  25.654  1.00  0.00     0.139 A 
ATOM     62  N   UNL     1      22.603  28.647  23.885  1.00  0.00    -0.132 NA
ATOM     63  N   UNL     1      22.411  26.619  24.672  1.00  0.00    -0.235 N 
ATOM     64  N   UNL     1      22.715  27.374  23.612  1.00  0.00    -0.066 NA
BRANCH  63  65
ATOM     65  C   UNL     1      22.438  25.171  24.694  1.00  0.00     0.155 C 
ATOM     66  C   UNL     1      21.178  24.617  24.099  1.00  0.00     0.049 C 
ATOM     67  C   UNL     1      22.550  24.655  26.124  1.00  0.00     0.049 C 
BRANCH  65  68
ATOM     68  C   UNL     1      23.644  24.728  23.960  1.00  0.00     0.331 C 
ATOM     69  O   UNL     1      24.712  24.585  24.575  1.00  0.00    -0.250 OA
BRANCH  68  70
ATOM     70  O   UNL     1      23.551  24.483  22.601  1.00  0.00    -0.479 OA
ATOM     71  H   UNL     1      22.664  24.392  22.120  1.00  0.00     0.296 HD
ENDBRANCH  68  70
ENDBRANCH  65  68
ENDBRANCH  63  65
ENDBRANCH  59  60
ENDBRANCH  58  59
ENDBRANCH  55  58
ENDBRANCH  53  54
ENDBRANCH  50  53
ENDBRANCH  47  50
ENDBRANCH   5  47
BRANCH   4  72
ATOM     72  N   UNL     1      14.300  30.508  24.676  1.00  0.00    -0.348 N 
ATOM     73  C   UNL     1      13.471  31.408  25.404  1.00  0.00     0.217 C 
ATOM     74  H   UNL     1      14.905  29.862  25.220  1.00  0.00     0.163 HD
ATOM     75  C   UNL     1      13.484  31.418  26.900  1.00  0.00     0.114 C 
ATOM     76  O   UNL     1      12.722  32.201  24.774  1.00  0.00    -0.275 OA
ENDBRANCH   4  72
TORSDOF 32
