REMARK VINA RESULT:    -6.061     11.088     15.815
REMARK INTER + INTRA:         -23.476
REMARK INTER:                 -15.534
REMARK INTRA:                  -7.942
REMARK UNBOUND:                -7.494
REMARK SMILES CC(=O)N[C@@H]1[C@@H](O)C[C@](OC[C@H]2O[C@@H](O[C@H]3[C@H](O)[C@@H](O)[C@H](OCCN=[N+]=[N-])O[C@@H]3CO)[C@H](O)[C@@H](O)[C@H]2O)(C(=O)O)O[C@H]1C(O)[C@H](O)CNC(=O)OCc1cn(C(C)CC(=O)c2ccccc2)nn1
REMARK SMILES IDX 43 1 42 2 9 3 8 4 41 5 6 6 5 7 10 8 11 9 12 10 14 11 13 12
REMARK SMILES IDX 32 13 34 14 36 15 15 16 16 17 29 18 28 19 21 20 17 21 19 22
REMARK SMILES IDX 30 23 31 24 22 26 23 27 24 28 25 29 26 30 27 31 18 32 20 34
REMARK SMILES IDX 33 36 35 38 37 40 38 42 39 43 40 44 7 46 4 48 2 49 1 51 3 52
REMARK SMILES IDX 44 53 45 55 46 56 47 58 48 59 49 60 50 62 51 63 52 64 53 65
REMARK SMILES IDX 54 66 68 67 55 68 67 69 56 70 57 71 58 72 59 73 60 74 61 75
REMARK SMILES IDX 62 76 66 77 63 78 65 79 64 80
REMARK H PARENT 31 25 18 33 20 35 33 37 35 39 37 41 40 45 7 47 4 50 44 54
REMARK H PARENT 46 57 48 61
REMARK Flexibility Score: inf
ROOT
ATOM      1  C   UNL     1      21.037  22.169   8.451  1.00  0.00     0.176 C 
ENDROOT
BRANCH   1   2
ATOM      2  C   UNL     1      20.050  21.098   8.604  1.00  0.00     0.178 C 
ATOM      3  C   UNL     1      20.311  19.590  10.400  1.00  0.00     0.272 C 
ATOM      4  C   UNL     1      19.719  18.445   9.651  1.00  0.00     0.113 C 
ATOM      5  O   UNL     1      19.665  20.753   9.840  1.00  0.00    -0.332 OA
ATOM      6  C   UNL     1      19.498  18.788   8.191  1.00  0.00     0.145 C 
ATOM      7  C   UNL     1      20.410  19.867   7.742  1.00  0.00     0.142 C 
BRANCH   3   8
ATOM      8  O   UNL     1      21.588  19.833  10.415  1.00  0.00    -0.338 OA
BRANCH   8   9
ATOM      9  C   UNL     1      22.705  19.220  10.240  1.00  0.00     0.199 C 
BRANCH   9  10
ATOM     10  C   UNL     1      23.893  19.190  11.147  1.00  0.00     0.179 C 
ATOM     11  C   UNL     1      25.208  20.813  12.260  1.00  0.00     0.282 C 
ATOM     12  O   UNL     1      24.368  20.433  11.282  1.00  0.00    -0.341 OA
ATOM     13  C   UNL     1      24.696  20.421  13.606  1.00  0.00     0.202 C 
ATOM     14  C   UNL     1      24.131  19.074  13.646  1.00  0.00     0.179 C 
ATOM     15  C   UNL     1      23.802  18.372  12.372  1.00  0.00     0.177 C 
BRANCH  11  16
ATOM     16  O   UNL     1      25.287  22.228  12.148  1.00  0.00    -0.341 OA
BRANCH  16  17
ATOM     17  C   UNL     1      26.422  22.566  11.453  1.00  0.00     0.184 C 
ATOM     18  C   UNL     1      27.618  21.808  11.950  1.00  0.00     0.178 C 
ATOM     19  O   UNL     1      27.938  22.148  13.255  1.00  0.00    -0.341 OA
ATOM     20  C   UNL     1      28.130  23.467  13.526  1.00  0.00     0.281 C 
ATOM     21  C   UNL     1      26.673  24.078  11.636  1.00  0.00     0.180 C 
ATOM     22  C   UNL     1      27.074  24.393  13.030  1.00  0.00     0.202 C 
BRANCH  18  23
ATOM     23  C   UNL     1      28.805  21.965  11.022  1.00  0.00     0.191 C 
BRANCH  23  24
ATOM     24  O   UNL     1      29.978  21.455  11.563  1.00  0.00    -0.394 OA
ATOM     25  H   UNL     1      30.712  22.111  11.423  1.00  0.00     0.210 HD
ENDBRANCH  23  24
ENDBRANCH  18  23
BRANCH  20  26
ATOM     26  O   UNL     1      29.382  23.944  13.227  1.00  0.00    -0.350 OA
BRANCH  26  27
ATOM     27  C   UNL     1      30.147  24.301  14.304  1.00  0.00     0.169 C 
BRANCH  27  28
ATOM     28  C   UNL     1      29.736  23.601  15.571  1.00  0.00     0.119 C 
BRANCH  28  29
ATOM     29  N   UNL     1      30.715  22.570  15.865  1.00  0.00    -0.092 NA
ATOM     30  N   UNL     1      30.755  21.558  15.169  1.00  0.00     0.001 N 
ATOM     31  N   UNL     1      30.915  20.654  14.347  1.00  0.00    -0.003 NA
ENDBRANCH  28  29
ENDBRANCH  27  28
ENDBRANCH  26  27
ENDBRANCH  20  26
BRANCH  21  32
ATOM     32  O   UNL     1      27.566  24.547  10.681  1.00  0.00    -0.387 OA
ATOM     33  H   UNL     1      27.238  25.354  10.217  1.00  0.00     0.211 HD
ENDBRANCH  21  32
BRANCH  22  34
ATOM     34  O   UNL     1      25.977  24.486  13.888  1.00  0.00    -0.385 OA
ATOM     35  H   UNL     1      26.022  23.681  14.465  1.00  0.00     0.211 HD
ENDBRANCH  22  34
ENDBRANCH  16  17
ENDBRANCH  11  16
BRANCH  13  36
ATOM     36  O   UNL     1      25.753  20.492  14.560  1.00  0.00    -0.385 OA
ATOM     37  H   UNL     1      25.447  19.922  15.315  1.00  0.00     0.211 HD
ENDBRANCH  13  36
BRANCH  14  38
ATOM     38  O   UNL     1      22.975  19.115  14.477  1.00  0.00    -0.387 OA
ATOM     39  H   UNL     1      23.134  19.649  15.290  1.00  0.00     0.211 HD
ENDBRANCH  14  38
BRANCH  15  40
ATOM     40  O   UNL     1      22.619  17.685  12.555  1.00  0.00    -0.387 OA
ATOM     41  H   UNL     1      22.344  17.059  11.881  1.00  0.00     0.211 HD
ENDBRANCH  15  40
ENDBRANCH   9  10
ENDBRANCH   8   9
ENDBRANCH   3   8
BRANCH   3  42
ATOM     42  C   UNL     1      19.715  19.559  11.807  1.00  0.00     0.364 C 
ATOM     43  O   UNL     1      18.498  19.722  11.959  1.00  0.00    -0.246 OA
BRANCH  42  44
ATOM     44  O   UNL     1      20.516  19.348  12.906  1.00  0.00    -0.477 OA
ATOM     45  H   UNL     1      20.391  18.479  13.413  1.00  0.00     0.296 HD
ENDBRANCH  42  44
ENDBRANCH   3  42
BRANCH   6  46
ATOM     46  O   UNL     1      19.550  17.654   7.389  1.00  0.00    -0.391 OA
ATOM     47  H   UNL     1      18.677  17.152   7.511  1.00  0.00     0.211 HD
ENDBRANCH   6  46
BRANCH   7  48
ATOM     48  N   UNL     1      20.119  20.239   6.361  1.00  0.00    -0.348 N 
ATOM     49  C   UNL     1      21.105  20.254   5.337  1.00  0.00     0.217 C 
ATOM     50  H   UNL     1      19.150  20.504   6.110  1.00  0.00     0.163 HD
ATOM     51  C   UNL     1      20.809  20.630   3.953  1.00  0.00     0.114 C 
ATOM     52  O   UNL     1      22.304  19.928   5.638  1.00  0.00    -0.275 OA
ENDBRANCH   7  48
ENDBRANCH   1   2
BRANCH   1  53
ATOM     53  O   UNL     1      22.347  21.718   8.162  1.00  0.00    -0.388 OA
ATOM     54  H   UNL     1      22.797  22.474   7.673  1.00  0.00     0.211 HD
ENDBRANCH   1  53
BRANCH   1  55
ATOM     55  C   UNL     1      21.181  23.159   9.587  1.00  0.00     0.165 C 
BRANCH  55  56
ATOM     56  O   UNL     1      20.717  24.406   9.321  1.00  0.00    -0.388 OA
ATOM     57  H   UNL     1      21.016  24.692   8.426  1.00  0.00     0.211 HD
ENDBRANCH  55  56
BRANCH  55  58
ATOM     58  C   UNL     1      22.680  23.217   9.917  1.00  0.00     0.154 C 
BRANCH  58  59
ATOM     59  N   UNL     1      22.877  23.421  11.335  1.00  0.00    -0.319 N 
ATOM     60  C   UNL     1      22.919  24.669  11.995  1.00  0.00     0.407 C 
ATOM     61  H   UNL     1      22.999  22.579  11.980  1.00  0.00     0.167 HD
ATOM     62  O   UNL     1      22.733  25.731  11.370  1.00  0.00    -0.225 OA
BRANCH  60  63
ATOM     63  O   UNL     1      23.175  24.757  13.378  1.00  0.00    -0.443 OA
BRANCH  63  64
ATOM     64  C   UNL     1      22.478  23.853  14.261  1.00  0.00     0.294 C 
BRANCH  64  65
ATOM     65  C   UNL     1      22.687  24.464  15.626  1.00  0.00     0.120 A 
ATOM     66  C   UNL     1      23.731  24.070  16.485  1.00  0.00     0.138 A 
ATOM     67  N   UNL     1      22.001  25.369  16.296  1.00  0.00    -0.132 NA
ATOM     68  N   UNL     1      23.623  24.752  17.635  1.00  0.00    -0.249 N 
ATOM     69  N   UNL     1      22.578  25.531  17.506  1.00  0.00    -0.067 NA
BRANCH  68  70
ATOM     70  C   UNL     1      24.530  24.575  18.772  1.00  0.00     0.114 C 
ATOM     71  C   UNL     1      25.926  24.878  18.328  1.00  0.00     0.034 C 
BRANCH  70  72
ATOM     72  C   UNL     1      24.045  25.343  19.958  1.00  0.00     0.108 C 
BRANCH  72  73
ATOM     73  C   UNL     1      24.285  24.512  21.167  1.00  0.00     0.164 C 
ATOM     74  O   UNL     1      25.293  23.811  21.278  1.00  0.00    -0.294 OA
BRANCH  73  75
ATOM     75  C   UNL     1      23.270  24.560  22.231  1.00  0.00     0.018 A 
ATOM     76  C   UNL     1      23.584  24.575  23.540  1.00  0.00     0.012 A 
ATOM     77  C   UNL     1      21.927  24.596  21.821  1.00  0.00     0.012 A 
ATOM     78  C   UNL     1      22.570  24.631  24.512  1.00  0.00     0.001 A 
ATOM     79  C   UNL     1      20.957  24.649  22.780  1.00  0.00     0.001 A 
ATOM     80  C   UNL     1      21.253  24.667  24.117  1.00  0.00     0.000 A 
ENDBRANCH  73  75
ENDBRANCH  72  73
ENDBRANCH  70  72
ENDBRANCH  68  70
ENDBRANCH  64  65
ENDBRANCH  63  64
ENDBRANCH  60  63
ENDBRANCH  58  59
ENDBRANCH  55  58
ENDBRANCH   1  55
TORSDOF 33
