REMARK VINA RESULT:    -6.616      6.312      9.390
REMARK INTER + INTRA:         -24.091
REMARK INTER:                 -19.300
REMARK INTRA:                  -4.791
REMARK UNBOUND:                -7.033
REMARK SMILES CC(=O)N[C@@H]1[C@@H](O)C[C@](OC[C@H]2O[C@@H](O[C@H]3[C@H](O)[C@@H](O)[C@H](OCCN=[N+]=[N-])O[C@@H]3CO)[C@H](O)[C@@H](O)[C@H]2O)(C(=O)O)O[C@H]1C(O)[C@H](O)CNC(=O)OCc1cn(C(C)(C)C(=O)c2c[nH]c3ccccc23)nn1
REMARK SMILES IDX 9 1 8 2 6 3 5 4 42 5 41 6 10 7 11 8 12 9 14 10 13 11 32 12
REMARK SMILES IDX 34 13 36 14 15 15 16 16 29 17 28 18 21 19 17 20 19 21 30 22
REMARK SMILES IDX 31 23 22 25 23 26 24 27 25 28 26 29 27 30 18 31 20 33 33 35
REMARK SMILES IDX 35 37 37 39 38 41 39 42 40 43 7 45 43 47 44 48 45 50 46 51
REMARK SMILES IDX 47 53 48 54 49 55 50 57 51 58 52 59 53 60 54 61 71 62 55 63
REMARK SMILES IDX 70 64 56 65 57 66 58 67 59 68 60 69 61 70 62 71 69 72 63 73
REMARK SMILES IDX 64 74 68 75 65 77 67 78 66 79 4 80 2 81 1 83 3 84
REMARK H PARENT 31 24 18 32 20 34 33 36 35 38 37 40 40 44 7 46 44 49 46 52
REMARK H PARENT 48 56 63 76 4 82
REMARK Flexibility Score: inf
ROOT
ATOM      1  C   UNL     1      11.426  30.905  24.228  1.00  0.00     0.272 C 
ATOM      2  C   UNL     1      12.199  32.149  24.631  1.00  0.00     0.113 C 
ATOM      3  C   UNL     1      12.236  33.169  23.520  1.00  0.00     0.145 C 
ATOM      4  C   UNL     1      13.113  32.593  22.354  1.00  0.00     0.142 C 
ATOM      5  C   UNL     1      12.816  31.128  22.337  1.00  0.00     0.178 C 
ATOM      6  O   UNL     1      11.557  30.873  22.837  1.00  0.00    -0.332 OA
ENDROOT
BRANCH   1   7
ATOM      7  O   UNL     1      10.153  30.818  24.621  1.00  0.00    -0.338 OA
BRANCH   7   8
ATOM      8  C   UNL     1       9.021  30.595  24.043  1.00  0.00     0.199 C 
BRANCH   8   9
ATOM      9  C   UNL     1       7.855  30.302  24.990  1.00  0.00     0.179 C 
ATOM     10  C   UNL     1       6.045  30.290  23.458  1.00  0.00     0.282 C 
ATOM     11  O   UNL     1       6.696  30.816  24.516  1.00  0.00    -0.341 OA
ATOM     12  C   UNL     1       5.959  28.788  23.471  1.00  0.00     0.202 C 
ATOM     13  C   UNL     1       6.448  28.255  24.812  1.00  0.00     0.179 C 
ATOM     14  C   UNL     1       7.764  28.815  25.196  1.00  0.00     0.177 C 
BRANCH  10  15
ATOM     15  O   UNL     1       6.634  30.692  22.272  1.00  0.00    -0.341 OA
BRANCH  15  16
ATOM     16  C   UNL     1       5.774  31.311  21.412  1.00  0.00     0.184 C 
ATOM     17  C   UNL     1       5.791  30.880  19.990  1.00  0.00     0.178 C 
ATOM     18  O   UNL     1       4.568  31.304  19.429  1.00  0.00    -0.341 OA
ATOM     19  C   UNL     1       4.403  32.659  19.427  1.00  0.00     0.281 C 
ATOM     20  C   UNL     1       5.901  32.821  21.425  1.00  0.00     0.180 C 
ATOM     21  C   UNL     1       4.645  33.338  20.758  1.00  0.00     0.202 C 
BRANCH  17  22
ATOM     22  C   UNL     1       5.826  29.379  19.787  1.00  0.00     0.191 C 
BRANCH  22  23
ATOM     23  O   UNL     1       4.766  29.052  18.933  1.00  0.00    -0.394 OA
ATOM     24  H   UNL     1       4.029  29.704  18.973  1.00  0.00     0.210 HD
ENDBRANCH  22  23
ENDBRANCH  17  22
BRANCH  19  25
ATOM     25  O   UNL     1       3.069  32.923  19.101  1.00  0.00    -0.350 OA
BRANCH  25  26
ATOM     26  C   UNL     1       2.956  32.970  17.724  1.00  0.00     0.169 C 
BRANCH  26  27
ATOM     27  C   UNL     1       1.963  31.972  17.192  1.00  0.00     0.119 C 
BRANCH  27  28
ATOM     28  N   UNL     1       1.837  31.997  15.751  1.00  0.00    -0.092 NA
ATOM     29  N   UNL     1       2.844  31.928  15.018  1.00  0.00     0.001 N 
ATOM     30  N   UNL     1       3.756  31.385  14.389  1.00  0.00    -0.003 NA
ENDBRANCH  27  28
ENDBRANCH  26  27
ENDBRANCH  25  26
ENDBRANCH  19  25
BRANCH  20  31
ATOM     31  O   UNL     1       6.003  33.343  22.693  1.00  0.00    -0.387 OA
ATOM     32  H   UNL     1       6.008  34.322  22.624  1.00  0.00     0.211 HD
ENDBRANCH  20  31
BRANCH  21  33
ATOM     33  O   UNL     1       4.828  34.695  20.499  1.00  0.00    -0.385 OA
ATOM     34  H   UNL     1       4.216  35.264  21.039  1.00  0.00     0.211 HD
ENDBRANCH  21  33
ENDBRANCH  15  16
ENDBRANCH  10  15
BRANCH  12  35
ATOM     35  O   UNL     1       4.686  28.294  23.186  1.00  0.00    -0.385 OA
ATOM     36  H   UNL     1       4.606  28.142  22.221  1.00  0.00     0.211 HD
ENDBRANCH  12  35
BRANCH  13  37
ATOM     37  O   UNL     1       6.518  26.852  24.640  1.00  0.00    -0.387 OA
ATOM     38  H   UNL     1       5.680  26.504  24.248  1.00  0.00     0.211 HD
ENDBRANCH  13  37
BRANCH  14  39
ATOM     39  O   UNL     1       8.798  28.229  24.422  1.00  0.00    -0.387 OA
ATOM     40  H   UNL     1       9.301  28.946  23.955  1.00  0.00     0.211 HD
ENDBRANCH  14  39
ENDBRANCH   8   9
ENDBRANCH   7   8
ENDBRANCH   1   7
BRANCH   1  41
ATOM     41  C   UNL     1      12.129  29.738  24.806  1.00  0.00     0.364 C 
ATOM     42  O   UNL     1      13.355  29.839  25.067  1.00  0.00    -0.246 OA
BRANCH  41  43
ATOM     43  O   UNL     1      11.530  28.548  25.074  1.00  0.00    -0.477 OA
ATOM     44  H   UNL     1      10.626  28.227  24.735  1.00  0.00     0.296 HD
ENDBRANCH  41  43
ENDBRANCH   1  41
BRANCH   3  45
ATOM     45  O   UNL     1      11.032  33.432  22.912  1.00  0.00    -0.391 OA
ATOM     46  H   UNL     1      10.286  33.589  23.559  1.00  0.00     0.211 HD
ENDBRANCH   3  45
BRANCH   5  47
ATOM     47  C   UNL     1      12.907  30.426  21.033  1.00  0.00     0.176 C 
BRANCH  47  48
ATOM     48  O   UNL     1      13.430  31.200  20.023  1.00  0.00    -0.388 OA
ATOM     49  H   UNL     1      14.424  31.166  19.941  1.00  0.00     0.211 HD
ENDBRANCH  47  48
BRANCH  47  50
ATOM     50  C   UNL     1      13.427  29.005  21.058  1.00  0.00     0.165 C 
BRANCH  50  51
ATOM     51  O   UNL     1      13.731  28.559  22.302  1.00  0.00    -0.388 OA
ATOM     52  H   UNL     1      13.823  29.272  22.951  1.00  0.00     0.211 HD
ENDBRANCH  50  51
BRANCH  50  53
ATOM     53  C   UNL     1      14.480  28.871  20.007  1.00  0.00     0.154 C 
BRANCH  53  54
ATOM     54  N   UNL     1      15.830  28.974  20.414  1.00  0.00    -0.319 N 
ATOM     55  C   UNL     1      16.898  28.188  19.855  1.00  0.00     0.407 C 
ATOM     56  H   UNL     1      16.111  29.662  21.176  1.00  0.00     0.167 HD
ATOM     57  O   UNL     1      16.686  27.334  18.971  1.00  0.00    -0.225 OA
BRANCH  55  58
ATOM     58  O   UNL     1      18.200  28.357  20.285  1.00  0.00    -0.443 OA
BRANCH  58  59
ATOM     59  C   UNL     1      19.137  29.095  19.554  1.00  0.00     0.294 C 
BRANCH  59  60
ATOM     60  C   UNL     1      20.280  28.190  19.218  1.00  0.00     0.120 A 
ATOM     61  C   UNL     1      21.148  27.600  20.155  1.00  0.00     0.139 A 
ATOM     62  N   UNL     1      20.745  27.769  18.034  1.00  0.00    -0.132 NA
ATOM     63  N   UNL     1      22.072  26.872  19.516  1.00  0.00    -0.239 N 
ATOM     64  N   UNL     1      21.817  26.982  18.234  1.00  0.00    -0.066 NA
BRANCH  63  65
ATOM     65  C   UNL     1      23.130  26.121  20.159  1.00  0.00     0.122 C 
ATOM     66  C   UNL     1      23.771  27.088  21.214  1.00  0.00     0.046 C 
ATOM     67  C   UNL     1      24.284  25.794  19.241  1.00  0.00     0.046 C 
BRANCH  65  68
ATOM     68  C   UNL     1      22.627  24.980  20.900  1.00  0.00     0.192 C 
ATOM     69  O   UNL     1      22.544  23.881  20.197  1.00  0.00    -0.291 OA
BRANCH  68  70
ATOM     70  C   UNL     1      22.208  24.855  22.261  1.00  0.00     0.045 A 
ATOM     71  C   UNL     1      20.866  24.873  22.663  1.00  0.00     0.095 A 
ATOM     72  C   UNL     1      22.957  24.724  23.413  1.00  0.00     0.010 A 
ATOM     73  N   UNL     1      20.834  24.759  23.976  1.00  0.00    -0.360 N 
ATOM     74  C   UNL     1      22.063  24.667  24.486  1.00  0.00     0.046 A 
ATOM     75  C   UNL     1      24.294  24.648  23.693  1.00  0.00     0.011 A 
ATOM     76  H   UNL     1      19.931  24.747  24.530  1.00  0.00     0.166 HD
ATOM     77  C   UNL     1      22.512  24.537  25.789  1.00  0.00     0.027 A 
ATOM     78  C   UNL     1      24.741  24.517  25.007  1.00  0.00     0.001 A 
ATOM     79  C   UNL     1      23.851  24.464  26.038  1.00  0.00     0.002 A 
ENDBRANCH  68  70
ENDBRANCH  65  68
ENDBRANCH  63  65
ENDBRANCH  59  60
ENDBRANCH  58  59
ENDBRANCH  55  58
ENDBRANCH  53  54
ENDBRANCH  50  53
ENDBRANCH  47  50
ENDBRANCH   5  47
BRANCH   4  80
ATOM     80  N   UNL     1      14.471  32.841  22.829  1.00  0.00    -0.348 N 
ATOM     81  C   UNL     1      15.567  33.132  21.979  1.00  0.00     0.217 C 
ATOM     82  H   UNL     1      14.660  32.801  23.867  1.00  0.00     0.163 HD
ATOM     83  C   UNL     1      16.950  33.381  22.467  1.00  0.00     0.114 C 
ATOM     84  O   UNL     1      15.315  33.175  20.726  1.00  0.00    -0.275 OA
ENDBRANCH   4  80
TORSDOF 32
