REMARK VINA RESULT:    -5.894      0.000      0.000
REMARK INTER + INTRA:         -23.960
REMARK INTER:                 -17.367
REMARK INTRA:                  -6.593
REMARK UNBOUND:                -8.936
REMARK SMILES CC(=O)N[C@@H]1[C@@H](O)C[C@](OC[C@H]2O[C@@H](O[C@H]3[C@H](O)[C@@H](O)[C@H](OCCN=[N+]=[N-])O[C@@H]3CO)[C@H](O)[C@@H](O)[C@H]2O)(C(=O)O)O[C@H]1C(O)[C@H](O)CNC(=O)OCc1cn(-c2ccc(S(N)(=O)=O)cc2)nn1
REMARK SMILES IDX 9 1 8 2 6 3 5 4 42 5 41 6 10 7 11 8 12 9 14 10 13 11 32 12
REMARK SMILES IDX 34 13 36 14 15 15 16 16 29 17 28 18 21 19 17 20 19 21 30 22
REMARK SMILES IDX 31 23 22 25 23 26 24 27 25 28 26 29 27 30 18 31 20 33 33 35
REMARK SMILES IDX 35 37 37 39 38 41 39 42 40 43 7 45 43 47 44 48 45 50 46 51
REMARK SMILES IDX 47 53 48 54 49 55 50 57 51 58 52 59 53 60 54 61 67 62 55 63
REMARK SMILES IDX 66 64 56 65 57 66 65 67 58 68 64 69 59 70 60 71 62 72 63 73
REMARK SMILES IDX 61 74 4 77 2 78 1 80 3 81
REMARK H PARENT 31 24 18 32 20 34 33 36 35 38 37 40 40 44 7 46 44 49 46 52
REMARK H PARENT 48 56 61 75 61 76 4 79
REMARK Flexibility Score: inf
ROOT
ATOM      1  C   UNL     1      15.859  29.946  22.036  1.00  0.00     0.272 C 
ATOM      2  C   UNL     1      15.039  28.789  21.443  1.00  0.00     0.113 C 
ATOM      3  C   UNL     1      15.469  28.448  20.060  1.00  0.00     0.145 C 
ATOM      4  C   UNL     1      15.775  29.719  19.310  1.00  0.00     0.142 C 
ATOM      5  C   UNL     1      15.017  30.821  20.060  1.00  0.00     0.178 C 
ATOM      6  O   UNL     1      15.750  31.049  21.223  1.00  0.00    -0.332 OA
ENDROOT
BRANCH   1   7
ATOM      7  O   UNL     1      17.151  29.455  22.170  1.00  0.00    -0.338 OA
BRANCH   7   8
ATOM      8  C   UNL     1      18.046  30.345  22.695  1.00  0.00     0.199 C 
BRANCH   8   9
ATOM      9  C   UNL     1      19.378  30.152  21.949  1.00  0.00     0.179 C 
ATOM     10  C   UNL     1      20.413  28.432  20.748  1.00  0.00     0.282 C 
ATOM     11  O   UNL     1      19.576  28.812  21.843  1.00  0.00    -0.341 OA
ATOM     12  C   UNL     1      19.598  28.800  19.542  1.00  0.00     0.202 C 
ATOM     13  C   UNL     1      19.515  30.317  19.421  1.00  0.00     0.179 C 
ATOM     14  C   UNL     1      19.496  30.992  20.743  1.00  0.00     0.177 C 
BRANCH  10  15
ATOM     15  O   UNL     1      20.604  27.098  20.839  1.00  0.00    -0.341 OA
BRANCH  15  16
ATOM     16  C   UNL     1      21.479  26.686  21.878  1.00  0.00     0.184 C 
ATOM     17  C   UNL     1      22.819  27.172  21.565  1.00  0.00     0.178 C 
ATOM     18  O   UNL     1      23.874  26.320  21.824  1.00  0.00    -0.341 OA
ATOM     19  C   UNL     1      23.675  25.368  22.783  1.00  0.00     0.281 C 
ATOM     20  C   UNL     1      21.346  25.194  22.076  1.00  0.00     0.180 C 
ATOM     21  C   UNL     1      22.600  24.439  22.285  1.00  0.00     0.202 C 
BRANCH  17  22
ATOM     22  C   UNL     1      23.171  28.493  22.217  1.00  0.00     0.191 C 
BRANCH  22  23
ATOM     23  O   UNL     1      22.452  28.665  23.392  1.00  0.00    -0.394 OA
ATOM     24  H   UNL     1      21.696  28.030  23.461  1.00  0.00     0.210 HD
ENDBRANCH  22  23
ENDBRANCH  17  22
BRANCH  19  25
ATOM     25  O   UNL     1      23.434  25.830  24.054  1.00  0.00    -0.350 OA
BRANCH  25  26
ATOM     26  C   UNL     1      23.573  24.798  24.975  1.00  0.00     0.169 C 
BRANCH  26  27
ATOM     27  C   UNL     1      22.508  24.985  26.051  1.00  0.00     0.119 C 
BRANCH  27  28
ATOM     28  N   UNL     1      22.183  26.382  26.123  1.00  0.00    -0.092 NA
ATOM     29  N   UNL     1      21.035  26.811  25.867  1.00  0.00     0.001 N 
ATOM     30  N   UNL     1      20.194  27.336  25.118  1.00  0.00    -0.003 NA
ENDBRANCH  27  28
ENDBRANCH  26  27
ENDBRANCH  25  26
ENDBRANCH  19  25
BRANCH  20  31
ATOM     31  O   UNL     1      20.490  24.902  23.141  1.00  0.00    -0.387 OA
ATOM     32  H   UNL     1      20.926  24.250  23.737  1.00  0.00     0.211 HD
ENDBRANCH  20  31
BRANCH  21  33
ATOM     33  O   UNL     1      23.053  23.758  21.160  1.00  0.00    -0.385 OA
ATOM     34  H   UNL     1      22.270  23.181  20.883  1.00  0.00     0.211 HD
ENDBRANCH  21  33
ENDBRANCH  15  16
ENDBRANCH  10  15
BRANCH  12  35
ATOM     35  O   UNL     1      19.958  28.188  18.378  1.00  0.00    -0.385 OA
ATOM     36  H   UNL     1      20.872  27.844  18.347  1.00  0.00     0.211 HD
ENDBRANCH  12  35
BRANCH  13  37
ATOM     37  O   UNL     1      18.513  30.702  18.546  1.00  0.00    -0.387 OA
ATOM     38  H   UNL     1      17.801  30.044  18.406  1.00  0.00     0.211 HD
ENDBRANCH  13  37
BRANCH  14  39
ATOM     39  O   UNL     1      18.394  31.883  20.738  1.00  0.00    -0.387 OA
ATOM     40  H   UNL     1      18.212  32.061  19.770  1.00  0.00     0.211 HD
ENDBRANCH  14  39
ENDBRANCH   8   9
ENDBRANCH   7   8
ENDBRANCH   1   7
BRANCH   1  41
ATOM     41  C   UNL     1      15.235  30.170  23.394  1.00  0.00     0.364 C 
ATOM     42  O   UNL     1      15.263  31.299  23.940  1.00  0.00    -0.246 OA
BRANCH  41  43
ATOM     43  O   UNL     1      14.613  29.142  24.075  1.00  0.00    -0.477 OA
ATOM     44  H   UNL     1      14.132  28.438  23.537  1.00  0.00     0.296 HD
ENDBRANCH  41  43
ENDBRANCH   1  41
BRANCH   3  45
ATOM     45  O   UNL     1      16.552  27.574  20.131  1.00  0.00    -0.391 OA
ATOM     46  H   UNL     1      17.325  28.049  20.517  1.00  0.00     0.211 HD
ENDBRANCH   3  45
BRANCH   5  47
ATOM     47  C   UNL     1      14.972  32.089  19.251  1.00  0.00     0.176 C 
BRANCH  47  48
ATOM     48  O   UNL     1      16.088  32.301  18.469  1.00  0.00    -0.388 OA
ATOM     49  H   UNL     1      15.868  32.484  17.521  1.00  0.00     0.211 HD
ENDBRANCH  47  48
BRANCH  47  50
ATOM     50  C   UNL     1      13.731  32.117  18.389  1.00  0.00     0.165 C 
BRANCH  50  51
ATOM     51  O   UNL     1      14.065  32.473  17.065  1.00  0.00    -0.388 OA
ATOM     52  H   UNL     1      14.909  33.008  17.056  1.00  0.00     0.211 HD
ENDBRANCH  50  51
BRANCH  50  53
ATOM     53  C   UNL     1      12.692  33.068  18.926  1.00  0.00     0.154 C 
BRANCH  53  54
ATOM     54  N   UNL     1      11.828  32.434  19.894  1.00  0.00    -0.319 N 
ATOM     55  C   UNL     1      11.970  32.741  21.272  1.00  0.00     0.407 C 
ATOM     56  H   UNL     1      11.094  31.751  19.622  1.00  0.00     0.167 HD
ATOM     57  O   UNL     1      12.862  33.569  21.620  1.00  0.00    -0.225 OA
BRANCH  55  58
ATOM     58  O   UNL     1      11.191  32.191  22.276  1.00  0.00    -0.443 OA
BRANCH  58  59
ATOM     59  C   UNL     1      11.719  31.817  23.526  1.00  0.00     0.294 C 
BRANCH  59  60
ATOM     60  C   UNL     1      11.094  30.536  23.951  1.00  0.00     0.121 A 
ATOM     61  C   UNL     1       9.725  30.314  24.142  1.00  0.00     0.144 A 
ATOM     62  N   UNL     1      11.664  29.354  24.241  1.00  0.00    -0.131 NA
ATOM     63  N   UNL     1       9.535  29.029  24.532  1.00  0.00    -0.220 N 
ATOM     64  N   UNL     1      10.709  28.476  24.583  1.00  0.00    -0.062 NA
BRANCH  63  65
ATOM     65  C   UNL     1       8.281  28.404  24.833  1.00  0.00     0.066 A 
ATOM     66  C   UNL     1       7.147  29.152  25.055  1.00  0.00     0.030 A 
ATOM     67  C   UNL     1       8.172  27.034  24.907  1.00  0.00     0.030 A 
ATOM     68  C   UNL     1       5.929  28.540  25.345  1.00  0.00     0.024 A 
ATOM     69  C   UNL     1       6.959  26.412  25.196  1.00  0.00     0.024 A 
ATOM     70  C   UNL     1       5.823  27.166  25.418  1.00  0.00     0.082 A 
BRANCH  70  71
ATOM     71  S   UNL     1       4.267  26.423  25.786  1.00  0.00     0.238 S 
ATOM     72  O   UNL     1       3.537  27.199  26.854  1.00  0.00    -0.207 OA
ATOM     73  O   UNL     1       3.392  26.413  24.570  1.00  0.00    -0.207 OA
BRANCH  71  74
ATOM     74  N   UNL     1       4.475  24.785  26.323  1.00  0.00    -0.225 NA
ATOM     75  H   UNL     1       4.427  24.792  27.381  1.00  0.00     0.137 HD
ATOM     76  H   UNL     1       5.383  24.375  26.002  1.00  0.00     0.137 HD
ENDBRANCH  71  74
ENDBRANCH  70  71
ENDBRANCH  63  65
ENDBRANCH  59  60
ENDBRANCH  58  59
ENDBRANCH  55  58
ENDBRANCH  53  54
ENDBRANCH  50  53
ENDBRANCH  47  50
ENDBRANCH   5  47
BRANCH   4  77
ATOM     77  N   UNL     1      15.402  29.695  17.921  1.00  0.00    -0.348 N 
ATOM     78  C   UNL     1      16.212  29.027  16.978  1.00  0.00     0.217 C 
ATOM     79  H   UNL     1      14.537  30.163  17.593  1.00  0.00     0.163 HD
ATOM     80  C   UNL     1      15.793  29.026  15.555  1.00  0.00     0.114 C 
ATOM     81  O   UNL     1      17.270  28.435  17.290  1.00  0.00    -0.275 OA
ENDBRANCH   4  77
TORSDOF 32
