REMARK VINA RESULT:    -4.722      1.935      2.335
REMARK INTER + INTRA:         -20.238
REMARK INTER:                 -12.817
REMARK INTRA:                  -7.421
REMARK UNBOUND:                -8.339
REMARK SMILES CC(=O)N[C@@H]1[C@@H](O)C[C@](OC[C@H]2O[C@@H](O[C@H]3[C@H](O)[C@@H](O)[C@H](OCCN=[N+]=[N-])O[C@@H]3CO)[C@H](O)[C@@H](O)[C@H]2O)(C(=O)O)O[C@H]1C(O)[C@H](O)CNC(=O)OCc1cn(Cc2ccccc2)nn1
REMARK SMILES IDX 9 1 8 2 6 3 5 4 42 5 41 6 10 7 11 8 12 9 14 10 13 11 32 12
REMARK SMILES IDX 34 13 36 14 15 15 16 16 29 17 28 18 21 19 17 20 19 21 30 22
REMARK SMILES IDX 31 23 22 25 23 26 24 27 25 28 26 29 27 30 18 31 20 33 33 35
REMARK SMILES IDX 35 37 37 39 38 41 39 42 40 43 7 45 43 47 44 48 45 50 46 51
REMARK SMILES IDX 47 53 48 54 49 55 50 57 51 58 52 59 53 60 54 61 64 62 55 63
REMARK SMILES IDX 63 64 56 65 57 66 58 67 62 68 59 69 61 70 60 71 4 72 2 73
REMARK SMILES IDX 1 75 3 76
REMARK H PARENT 31 24 18 32 20 34 33 36 35 38 37 40 40 44 7 46 44 49 46 52
REMARK H PARENT 48 56 4 74
REMARK Flexibility Score: inf
ROOT
ATOM      1  C   UNL     1      16.021  29.477  20.613  1.00  0.00     0.272 C 
ATOM      2  C   UNL     1      14.558  29.568  20.382  1.00  0.00     0.113 C 
ATOM      3  C   UNL     1      13.977  30.582  21.292  1.00  0.00     0.145 C 
ATOM      4  C   UNL     1      14.980  31.175  22.295  1.00  0.00     0.142 C 
ATOM      5  C   UNL     1      15.855  30.134  22.851  1.00  0.00     0.178 C 
ATOM      6  O   UNL     1      16.199  29.103  21.958  1.00  0.00    -0.332 OA
ENDROOT
BRANCH   1   7
ATOM      7  O   UNL     1      16.760  30.599  20.298  1.00  0.00    -0.338 OA
BRANCH   7   8
ATOM      8  C   UNL     1      16.572  30.937  18.969  1.00  0.00     0.199 C 
BRANCH   8   9
ATOM      9  C   UNL     1      17.875  31.228  18.260  1.00  0.00     0.179 C 
ATOM     10  C   UNL     1      20.137  30.677  18.408  1.00  0.00     0.282 C 
ATOM     11  O   UNL     1      18.971  31.061  19.075  1.00  0.00    -0.341 OA
ATOM     12  C   UNL     1      20.306  31.347  17.096  1.00  0.00     0.202 C 
ATOM     13  C   UNL     1      19.188  30.980  16.172  1.00  0.00     0.179 C 
ATOM     14  C   UNL     1      17.994  30.486  16.955  1.00  0.00     0.177 C 
BRANCH  10  15
ATOM     15  O   UNL     1      20.206  29.300  18.273  1.00  0.00    -0.341 OA
BRANCH  15  16
ATOM     16  C   UNL     1      21.283  28.726  18.937  1.00  0.00     0.184 C 
ATOM     17  C   UNL     1      21.915  27.679  18.097  1.00  0.00     0.178 C 
ATOM     18  O   UNL     1      22.964  27.112  18.852  1.00  0.00    -0.341 OA
ATOM     19  C   UNL     1      22.329  26.240  19.760  1.00  0.00     0.281 C 
ATOM     20  C   UNL     1      20.664  28.038  20.164  1.00  0.00     0.180 C 
ATOM     21  C   UNL     1      21.591  27.061  20.808  1.00  0.00     0.202 C 
BRANCH  17  22
ATOM     22  C   UNL     1      22.480  28.239  16.795  1.00  0.00     0.191 C 
BRANCH  22  23
ATOM     23  O   UNL     1      21.506  28.007  15.799  1.00  0.00    -0.394 OA
ATOM     24  H   UNL     1      21.932  27.524  15.052  1.00  0.00     0.210 HD
ENDBRANCH  22  23
ENDBRANCH  17  22
BRANCH  19  25
ATOM     25  O   UNL     1      23.275  25.448  20.361  1.00  0.00    -0.350 OA
BRANCH  25  26
ATOM     26  C   UNL     1      24.327  25.229  19.493  1.00  0.00     0.169 C 
BRANCH  26  27
ATOM     27  C   UNL     1      25.683  25.544  20.049  1.00  0.00     0.119 C 
BRANCH  27  28
ATOM     28  N   UNL     1      25.460  26.089  21.397  1.00  0.00    -0.092 NA
ATOM     29  N   UNL     1      26.068  27.119  21.684  1.00  0.00     0.001 N 
ATOM     30  N   UNL     1      26.385  28.194  22.213  1.00  0.00    -0.003 NA
ENDBRANCH  27  28
ENDBRANCH  26  27
ENDBRANCH  25  26
ENDBRANCH  19  25
BRANCH  20  31
ATOM     31  O   UNL     1      20.418  29.089  21.072  1.00  0.00    -0.387 OA
ATOM     32  H   UNL     1      20.145  29.925  20.609  1.00  0.00     0.211 HD
ENDBRANCH  20  31
BRANCH  21  33
ATOM     33  O   UNL     1      20.856  26.173  21.592  1.00  0.00    -0.385 OA
ATOM     34  H   UNL     1      21.188  26.123  22.528  1.00  0.00     0.211 HD
ENDBRANCH  21  33
ENDBRANCH  15  16
ENDBRANCH  10  15
BRANCH  12  35
ATOM     35  O   UNL     1      20.440  32.741  17.220  1.00  0.00    -0.385 OA
ATOM     36  H   UNL     1      21.399  32.906  17.402  1.00  0.00     0.211 HD
ENDBRANCH  12  35
BRANCH  13  37
ATOM     37  O   UNL     1      19.633  29.999  15.295  1.00  0.00    -0.387 OA
ATOM     38  H   UNL     1      20.383  30.314  14.721  1.00  0.00     0.211 HD
ENDBRANCH  13  37
BRANCH  14  39
ATOM     39  O   UNL     1      17.912  29.124  17.049  1.00  0.00    -0.387 OA
ATOM     40  H   UNL     1      17.375  28.757  17.778  1.00  0.00     0.211 HD
ENDBRANCH  14  39
ENDBRANCH   8   9
ENDBRANCH   7   8
ENDBRANCH   1   7
BRANCH   1  41
ATOM     41  C   UNL     1      16.640  28.320  19.877  1.00  0.00     0.364 C 
ATOM     42  O   UNL     1      17.798  27.988  20.132  1.00  0.00    -0.246 OA
BRANCH  41  43
ATOM     43  O   UNL     1      15.910  27.641  18.927  1.00  0.00    -0.477 OA
ATOM     44  H   UNL     1      16.324  27.296  18.060  1.00  0.00     0.296 HD
ENDBRANCH  41  43
ENDBRANCH   1  41
BRANCH   3  45
ATOM     45  O   UNL     1      13.409  31.689  20.634  1.00  0.00    -0.391 OA
ATOM     46  H   UNL     1      13.246  32.443  21.220  1.00  0.00     0.211 HD
ENDBRANCH   3  45
BRANCH   5  47
ATOM     47  C   UNL     1      17.111  30.509  23.520  1.00  0.00     0.176 C 
BRANCH  47  48
ATOM     48  O   UNL     1      17.970  29.469  23.802  1.00  0.00    -0.388 OA
ATOM     49  H   UNL     1      17.850  28.667  23.248  1.00  0.00     0.211 HD
ENDBRANCH  47  48
BRANCH  47  50
ATOM     50  C   UNL     1      17.896  31.663  22.966  1.00  0.00     0.165 C 
BRANCH  50  51
ATOM     51  O   UNL     1      18.885  31.304  22.103  1.00  0.00    -0.388 OA
ATOM     52  H   UNL     1      19.192  30.381  22.193  1.00  0.00     0.211 HD
ENDBRANCH  50  51
BRANCH  50  53
ATOM     53  C   UNL     1      18.218  32.696  24.006  1.00  0.00     0.154 C 
BRANCH  53  54
ATOM     54  N   UNL     1      19.409  32.426  24.768  1.00  0.00    -0.319 N 
ATOM     55  C   UNL     1      19.441  31.705  26.006  1.00  0.00     0.407 C 
ATOM     56  H   UNL     1      20.370  32.755  24.448  1.00  0.00     0.167 HD
ATOM     57  O   UNL     1      18.372  31.269  26.491  1.00  0.00    -0.225 OA
BRANCH  55  58
ATOM     58  O   UNL     1      20.626  31.481  26.682  1.00  0.00    -0.443 OA
BRANCH  58  59
ATOM     59  C   UNL     1      21.709  30.895  26.002  1.00  0.00     0.294 C 
BRANCH  59  60
ATOM     60  C   UNL     1      21.290  29.683  25.266  1.00  0.00     0.120 A 
ATOM     61  C   UNL     1      21.279  28.396  25.822  1.00  0.00     0.138 A 
ATOM     62  N   UNL     1      20.855  29.520  24.012  1.00  0.00    -0.132 NA
ATOM     63  N   UNL     1      20.843  27.535  24.889  1.00  0.00    -0.248 N 
ATOM     64  N   UNL     1      20.594  28.220  23.812  1.00  0.00    -0.067 NA
BRANCH  63  65
ATOM     65  C   UNL     1      20.684  26.110  25.079  1.00  0.00     0.181 C 
BRANCH  65  66
ATOM     66  C   UNL     1      22.014  25.492  25.306  1.00  0.00    -0.026 A 
ATOM     67  C   UNL     1      22.450  25.135  26.570  1.00  0.00     0.005 A 
ATOM     68  C   UNL     1      22.839  25.268  24.215  1.00  0.00     0.005 A 
ATOM     69  C   UNL     1      23.700  24.562  26.731  1.00  0.00     0.000 A 
ATOM     70  C   UNL     1      24.085  24.695  24.387  1.00  0.00     0.000 A 
ATOM     71  C   UNL     1      24.509  24.345  25.643  1.00  0.00     0.000 A 
ENDBRANCH  65  66
ENDBRANCH  63  65
ENDBRANCH  59  60
ENDBRANCH  58  59
ENDBRANCH  55  58
ENDBRANCH  53  54
ENDBRANCH  50  53
ENDBRANCH  47  50
ENDBRANCH   5  47
BRANCH   4  72
ATOM     72  N   UNL     1      14.064  31.680  23.337  1.00  0.00    -0.348 N 
ATOM     73  C   UNL     1      13.441  30.844  24.290  1.00  0.00     0.217 C 
ATOM     74  H   UNL     1      13.859  32.702  23.376  1.00  0.00     0.163 HD
ATOM     75  C   UNL     1      12.514  31.383  25.330  1.00  0.00     0.114 C 
ATOM     76  O   UNL     1      13.682  29.612  24.254  1.00  0.00    -0.275 OA
ENDBRANCH   4  72
TORSDOF 31
