REMARK VINA RESULT:    -6.849      4.212     11.486
REMARK INTER + INTRA:         -22.452
REMARK INTER:                 -15.122
REMARK INTRA:                  -7.330
REMARK UNBOUND:                -5.593
REMARK SMILES CC(=O)N[C@@H]1[C@@H](O)C[C@](OC[C@H]2O[C@@H](O[C@H]3[C@H](O)[C@@H](O)[C@H](OCCN=[N+]=[N-])O[C@@H]3CO)[C@H](O)[C@@H](O)[C@H]2O)(C(=O)O)O[C@H]1C(O)[C@H](O)CNC(=O)OCc1cn(C2c3ccccc3-c3ccccc32)nn1
REMARK SMILES IDX 9 1 8 2 6 3 5 4 42 5 41 6 10 7 11 8 12 9 14 10 13 11 32 12
REMARK SMILES IDX 34 13 36 14 15 15 16 16 29 17 28 18 21 19 17 20 19 21 30 22
REMARK SMILES IDX 31 23 22 25 23 26 24 27 25 28 26 29 27 30 18 31 20 33 33 35
REMARK SMILES IDX 35 37 37 39 38 41 39 42 40 43 7 45 43 47 44 48 45 50 46 51
REMARK SMILES IDX 47 53 48 54 49 55 50 57 51 58 52 59 53 60 54 61 70 62 55 63
REMARK SMILES IDX 69 64 56 65 57 66 68 67 58 68 62 69 63 70 67 71 59 72 61 73
REMARK SMILES IDX 64 74 66 75 60 76 65 77 4 78 2 79 1 81 3 82
REMARK H PARENT 31 24 18 32 20 34 33 36 35 38 37 40 40 44 7 46 44 49 46 52
REMARK H PARENT 48 56 4 80
REMARK Flexibility Score: inf
ROOT
ATOM      1  C   UNL     1      14.373  30.357  22.761  1.00  0.00     0.272 C 
ATOM      2  C   UNL     1      14.775  30.322  24.179  1.00  0.00     0.113 C 
ATOM      3  C   UNL     1      16.142  30.846  24.410  1.00  0.00     0.145 C 
ATOM      4  C   UNL     1      17.017  30.836  23.187  1.00  0.00     0.142 C 
ATOM      5  C   UNL     1      16.581  29.731  22.290  1.00  0.00     0.178 C 
ATOM      6  O   UNL     1      15.280  29.723  21.898  1.00  0.00    -0.332 OA
ENDROOT
BRANCH   1   7
ATOM      7  O   UNL     1      14.149  31.622  22.287  1.00  0.00    -0.338 OA
BRANCH   7   8
ATOM      8  C   UNL     1      13.001  32.242  22.698  1.00  0.00     0.199 C 
BRANCH   8   9
ATOM      9  C   UNL     1      13.144  33.742  22.559  1.00  0.00     0.179 C 
ATOM     10  C   UNL     1      12.124  33.782  20.448  1.00  0.00     0.282 C 
ATOM     11  O   UNL     1      13.223  34.041  21.218  1.00  0.00    -0.341 OA
ATOM     12  C   UNL     1      10.882  34.245  21.106  1.00  0.00     0.202 C 
ATOM     13  C   UNL     1      11.323  35.322  22.115  1.00  0.00     0.179 C 
ATOM     14  C   UNL     1      12.021  34.495  23.217  1.00  0.00     0.177 C 
BRANCH  10  15
ATOM     15  O   UNL     1      12.143  32.514  19.933  1.00  0.00    -0.341 OA
BRANCH  15  16
ATOM     16  C   UNL     1      12.748  32.348  18.717  1.00  0.00     0.184 C 
ATOM     17  C   UNL     1      11.754  32.026  17.666  1.00  0.00     0.178 C 
ATOM     18  O   UNL     1      12.199  31.075  16.754  1.00  0.00    -0.341 OA
ATOM     19  C   UNL     1      13.532  31.130  16.505  1.00  0.00     0.281 C 
ATOM     20  C   UNL     1      13.756  31.223  18.939  1.00  0.00     0.180 C 
ATOM     21  C   UNL     1      14.258  30.565  17.721  1.00  0.00     0.202 C 
BRANCH  17  22
ATOM     22  C   UNL     1      11.349  33.248  16.870  1.00  0.00     0.191 C 
BRANCH  22  23
ATOM     23  O   UNL     1      12.151  34.358  17.229  1.00  0.00    -0.394 OA
ATOM     24  H   UNL     1      11.771  35.191  16.817  1.00  0.00     0.210 HD
ENDBRANCH  22  23
ENDBRANCH  17  22
BRANCH  19  25
ATOM     25  O   UNL     1      14.070  32.381  16.271  1.00  0.00    -0.350 OA
BRANCH  25  26
ATOM     26  C   UNL     1      15.133  32.389  15.413  1.00  0.00     0.169 C 
BRANCH  26  27
ATOM     27  C   UNL     1      14.897  31.838  14.049  1.00  0.00     0.119 C 
BRANCH  27  28
ATOM     28  N   UNL     1      15.892  30.866  13.643  1.00  0.00    -0.092 NA
ATOM     29  N   UNL     1      16.094  29.929  14.425  1.00  0.00     0.001 N 
ATOM     30  N   UNL     1      16.426  29.022  15.197  1.00  0.00    -0.003 NA
ENDBRANCH  27  28
ENDBRANCH  26  27
ENDBRANCH  25  26
ENDBRANCH  19  25
BRANCH  20  31
ATOM     31  O   UNL     1      14.873  31.742  19.646  1.00  0.00    -0.387 OA
ATOM     32  H   UNL     1      15.674  31.186  19.474  1.00  0.00     0.211 HD
ENDBRANCH  20  31
BRANCH  21  33
ATOM     33  O   UNL     1      13.975  29.193  17.755  1.00  0.00    -0.385 OA
ATOM     34  H   UNL     1      13.483  28.926  18.574  1.00  0.00     0.211 HD
ENDBRANCH  21  33
ENDBRANCH  15  16
ENDBRANCH  10  15
BRANCH  12  35
ATOM     35  O   UNL     1      10.004  34.901  20.244  1.00  0.00    -0.385 OA
ATOM     36  H   UNL     1      10.411  34.929  19.346  1.00  0.00     0.211 HD
ENDBRANCH  12  35
BRANCH  13  37
ATOM     37  O   UNL     1      10.245  35.941  22.702  1.00  0.00    -0.387 OA
ATOM     38  H   UNL     1       9.451  35.800  22.130  1.00  0.00     0.211 HD
ENDBRANCH  13  37
BRANCH  14  39
ATOM     39  O   UNL     1      11.069  33.599  23.666  1.00  0.00    -0.387 OA
ATOM     40  H   UNL     1      11.402  32.669  23.705  1.00  0.00     0.211 HD
ENDBRANCH  14  39
ENDBRANCH   8   9
ENDBRANCH   7   8
ENDBRANCH   1   7
BRANCH   1  41
ATOM     41  C   UNL     1      13.114  29.516  22.555  1.00  0.00     0.364 C 
ATOM     42  O   UNL     1      12.890  29.088  21.418  1.00  0.00    -0.246 OA
BRANCH  41  43
ATOM     43  O   UNL     1      12.254  29.241  23.590  1.00  0.00    -0.477 OA
ATOM     44  H   UNL     1      12.521  28.609  24.354  1.00  0.00     0.296 HD
ENDBRANCH  41  43
ENDBRANCH   1  41
BRANCH   3  45
ATOM     45  O   UNL     1      16.195  32.112  24.993  1.00  0.00    -0.391 OA
ATOM     46  H   UNL     1      15.719  32.170  25.834  1.00  0.00     0.211 HD
ENDBRANCH   3  45
BRANCH   5  47
ATOM     47  C   UNL     1      17.465  29.738  21.045  1.00  0.00     0.176 C 
BRANCH  47  48
ATOM     48  O   UNL     1      17.718  31.033  20.672  1.00  0.00    -0.388 OA
ATOM     49  H   UNL     1      18.687  31.166  20.444  1.00  0.00     0.211 HD
ENDBRANCH  47  48
BRANCH  47  50
ATOM     50  C   UNL     1      16.766  28.965  19.968  1.00  0.00     0.165 C 
BRANCH  50  51
ATOM     51  O   UNL     1      16.760  27.598  20.299  1.00  0.00    -0.388 OA
ATOM     52  H   UNL     1      16.765  27.478  21.275  1.00  0.00     0.211 HD
ENDBRANCH  50  51
BRANCH  50  53
ATOM     53  C   UNL     1      17.640  29.065  18.713  1.00  0.00     0.154 C 
BRANCH  53  54
ATOM     54  N   UNL     1      18.969  28.672  19.068  1.00  0.00    -0.319 N 
ATOM     55  C   UNL     1      20.053  29.559  18.899  1.00  0.00     0.407 C 
ATOM     56  H   UNL     1      19.141  27.716  19.461  1.00  0.00     0.167 HD
ATOM     57  O   UNL     1      19.886  30.711  18.423  1.00  0.00    -0.225 OA
BRANCH  55  58
ATOM     58  O   UNL     1      21.343  29.210  19.247  1.00  0.00    -0.443 OA
BRANCH  58  59
ATOM     59  C   UNL     1      21.803  29.193  20.590  1.00  0.00     0.294 C 
BRANCH  59  60
ATOM     60  C   UNL     1      21.605  27.816  21.108  1.00  0.00     0.120 A 
ATOM     61  C   UNL     1      22.571  26.866  21.409  1.00  0.00     0.139 A 
ATOM     62  N   UNL     1      20.432  27.229  21.390  1.00  0.00    -0.132 NA
ATOM     63  N   UNL     1      21.968  25.753  21.856  1.00  0.00    -0.240 N 
ATOM     64  N   UNL     1      20.669  26.007  21.832  1.00  0.00    -0.066 NA
BRANCH  63  65
ATOM     65  C   UNL     1      22.619  24.513  22.283  1.00  0.00     0.170 C 
ATOM     66  C   UNL     1      22.819  24.579  23.733  1.00  0.00    -0.011 A 
ATOM     67  C   UNL     1      23.985  24.434  21.737  1.00  0.00    -0.011 A 
ATOM     68  C   UNL     1      21.923  24.663  24.792  1.00  0.00     0.007 A 
ATOM     69  C   UNL     1      24.152  24.547  24.044  1.00  0.00    -0.012 A 
ATOM     70  C   UNL     1      24.880  24.456  22.780  1.00  0.00    -0.012 A 
ATOM     71  C   UNL     1      24.477  24.345  20.448  1.00  0.00     0.007 A 
ATOM     72  C   UNL     1      22.372  24.711  26.093  1.00  0.00     0.000 A 
ATOM     73  C   UNL     1      24.602  24.596  25.355  1.00  0.00     0.009 A 
ATOM     74  C   UNL     1      26.236  24.391  22.555  1.00  0.00     0.009 A 
ATOM     75  C   UNL     1      25.829  24.279  20.201  1.00  0.00     0.000 A 
ATOM     76  C   UNL     1      23.722  24.679  26.408  1.00  0.00     0.001 A 
ATOM     77  C   UNL     1      26.712  24.302  21.259  1.00  0.00     0.001 A 
ENDBRANCH  63  65
ENDBRANCH  59  60
ENDBRANCH  58  59
ENDBRANCH  55  58
ENDBRANCH  53  54
ENDBRANCH  50  53
ENDBRANCH  47  50
ENDBRANCH   5  47
BRANCH   4  78
ATOM     78  N   UNL     1      18.370  30.476  23.653  1.00  0.00    -0.348 N 
ATOM     79  C   UNL     1      19.462  31.373  23.533  1.00  0.00     0.217 C 
ATOM     80  H   UNL     1      18.498  29.543  24.069  1.00  0.00     0.163 HD
ATOM     81  C   UNL     1      20.829  30.992  24.011  1.00  0.00     0.114 C 
ATOM     82  O   UNL     1      19.246  32.503  23.013  1.00  0.00    -0.275 OA
ENDBRANCH   4  78
TORSDOF 30
