REMARK VINA RESULT:    -6.695      0.000      0.000
REMARK INTER + INTRA:         -23.418
REMARK INTER:                 -17.968
REMARK INTRA:                  -5.450
REMARK UNBOUND:                -6.939
REMARK SMILES CC(=O)N[C@@H]1[C@@H](O)C[C@](OC[C@H]2O[C@@H](O[C@H]3[C@H](O)[C@@H](O)[C@H](OCCN=[N+]=[N-])O[C@@H]3CO)[C@H](O)[C@@H](O)[C@H]2O)(C(=O)O)O[C@H]1C(O)[C@H](O)CNC(=O)OCc1cn([C@H]2C[C@H]3CC[C@@H](C2)N3C)nn1
REMARK SMILES IDX 9 1 8 2 6 3 5 4 42 5 41 6 10 7 11 8 12 9 14 10 13 11 32 12
REMARK SMILES IDX 34 13 36 14 15 15 16 16 29 17 28 18 21 19 17 20 19 21 30 22
REMARK SMILES IDX 31 23 22 25 23 26 24 27 25 28 26 29 27 30 18 31 20 33 33 35
REMARK SMILES IDX 35 37 37 39 38 41 39 42 40 43 7 45 43 47 44 48 45 50 46 51
REMARK SMILES IDX 47 53 48 54 49 55 50 57 51 58 52 59 53 60 54 61 66 62 55 63
REMARK SMILES IDX 65 64 56 65 62 66 57 67 61 68 58 69 63 70 60 71 59 72 64 73
REMARK SMILES IDX 4 74 2 75 1 77 3 78
REMARK H PARENT 31 24 18 32 20 34 33 36 35 38 37 40 40 44 7 46 44 49 46 52
REMARK H PARENT 48 56 4 76
REMARK Flexibility Score: inf
ROOT
ATOM      1  C   UNL     1      16.180  29.558  21.489  1.00  0.00     0.272 C 
ATOM      2  C   UNL     1      15.222  28.468  21.043  1.00  0.00     0.113 C 
ATOM      3  C   UNL     1      14.959  28.427  19.568  1.00  0.00     0.145 C 
ATOM      4  C   UNL     1      15.046  29.809  19.036  1.00  0.00     0.142 C 
ATOM      5  C   UNL     1      14.668  30.763  20.172  1.00  0.00     0.178 C 
ATOM      6  O   UNL     1      15.902  30.781  20.943  1.00  0.00    -0.332 OA
ENDROOT
BRANCH   1   7
ATOM      7  O   UNL     1      17.451  29.117  21.273  1.00  0.00    -0.338 OA
BRANCH   7   8
ATOM      8  C   UNL     1      18.360  29.923  20.689  1.00  0.00     0.199 C 
BRANCH   8   9
ATOM      9  C   UNL     1      19.514  29.319  19.980  1.00  0.00     0.179 C 
ATOM     10  C   UNL     1      21.099  27.757  20.358  1.00  0.00     0.282 C 
ATOM     11  O   UNL     1      19.729  28.005  20.505  1.00  0.00    -0.341 OA
ATOM     12  C   UNL     1      21.595  27.931  18.985  1.00  0.00     0.202 C 
ATOM     13  C   UNL     1      20.735  28.630  18.003  1.00  0.00     0.179 C 
ATOM     14  C   UNL     1      19.382  29.078  18.512  1.00  0.00     0.177 C 
BRANCH  10  15
ATOM     15  O   UNL     1      21.318  26.501  20.871  1.00  0.00    -0.341 OA
BRANCH  15  16
ATOM     16  C   UNL     1      21.091  26.438  22.249  1.00  0.00     0.184 C 
ATOM     17  C   UNL     1      22.161  27.054  23.088  1.00  0.00     0.178 C 
ATOM     18  O   UNL     1      23.304  26.341  23.262  1.00  0.00    -0.341 OA
ATOM     19  C   UNL     1      23.134  25.024  23.517  1.00  0.00     0.281 C 
ATOM     20  C   UNL     1      20.931  24.966  22.555  1.00  0.00     0.180 C 
ATOM     21  C   UNL     1      22.328  24.371  22.396  1.00  0.00     0.202 C 
BRANCH  17  22
ATOM     22  C   UNL     1      21.584  27.646  24.380  1.00  0.00     0.191 C 
BRANCH  22  23
ATOM     23  O   UNL     1      20.239  27.402  24.546  1.00  0.00    -0.394 OA
ATOM     24  H   UNL     1      19.706  28.223  24.608  1.00  0.00     0.210 HD
ENDBRANCH  22  23
ENDBRANCH  17  22
BRANCH  19  25
ATOM     25  O   UNL     1      22.694  24.661  24.755  1.00  0.00    -0.350 OA
BRANCH  25  26
ATOM     26  C   UNL     1      23.542  24.803  25.810  1.00  0.00     0.169 C 
BRANCH  26  27
ATOM     27  C   UNL     1      22.930  24.369  27.098  1.00  0.00     0.119 C 
BRANCH  27  28
ATOM     28  N   UNL     1      22.864  25.473  28.065  1.00  0.00    -0.092 NA
ATOM     29  N   UNL     1      22.161  26.470  27.822  1.00  0.00     0.001 N 
ATOM     30  N   UNL     1      21.089  27.095  27.702  1.00  0.00    -0.003 NA
ENDBRANCH  27  28
ENDBRANCH  26  27
ENDBRANCH  25  26
ENDBRANCH  19  25
BRANCH  20  31
ATOM     31  O   UNL     1      20.472  24.709  23.824  1.00  0.00    -0.387 OA
ATOM     32  H   UNL     1      19.517  24.539  23.865  1.00  0.00     0.211 HD
ENDBRANCH  20  31
BRANCH  21  33
ATOM     33  O   UNL     1      22.878  24.707  21.161  1.00  0.00    -0.385 OA
ATOM     34  H   UNL     1      22.169  25.183  20.652  1.00  0.00     0.211 HD
ENDBRANCH  21  33
ENDBRANCH  15  16
ENDBRANCH  10  15
BRANCH  12  35
ATOM     35  O   UNL     1      22.816  28.648  19.069  1.00  0.00    -0.385 OA
ATOM     36  H   UNL     1      23.440  28.409  18.350  1.00  0.00     0.211 HD
ENDBRANCH  12  35
BRANCH  13  37
ATOM     37  O   UNL     1      20.479  27.815  16.872  1.00  0.00    -0.387 OA
ATOM     38  H   UNL     1      20.935  26.929  17.042  1.00  0.00     0.211 HD
ENDBRANCH  13  37
BRANCH  14  39
ATOM     39  O   UNL     1      18.511  27.985  18.293  1.00  0.00    -0.387 OA
ATOM     40  H   UNL     1      17.867  28.338  17.601  1.00  0.00     0.211 HD
ENDBRANCH  14  39
ENDBRANCH   8   9
ENDBRANCH   7   8
ENDBRANCH   1   7
BRANCH   1  41
ATOM     41  C   UNL     1      15.924  29.678  22.959  1.00  0.00     0.364 C 
ATOM     42  O   UNL     1      16.735  29.289  23.794  1.00  0.00    -0.246 OA
BRANCH  41  43
ATOM     43  O   UNL     1      14.732  30.247  23.428  1.00  0.00    -0.477 OA
ATOM     44  H   UNL     1      14.819  30.949  24.176  1.00  0.00     0.296 HD
ENDBRANCH  41  43
ENDBRANCH   1  41
BRANCH   3  45
ATOM     45  O   UNL     1      15.941  27.573  19.013  1.00  0.00    -0.391 OA
ATOM     46  H   UNL     1      16.842  27.965  19.134  1.00  0.00     0.211 HD
ENDBRANCH   3  45
BRANCH   5  47
ATOM     47  C   UNL     1      14.417  32.156  19.753  1.00  0.00     0.176 C 
BRANCH  47  48
ATOM     48  O   UNL     1      15.679  32.867  19.950  1.00  0.00    -0.388 OA
ATOM     49  H   UNL     1      15.488  33.834  19.846  1.00  0.00     0.211 HD
ENDBRANCH  47  48
BRANCH  47  50
ATOM     50  C   UNL     1      13.548  32.984  20.690  1.00  0.00     0.165 C 
BRANCH  50  51
ATOM     51  O   UNL     1      14.254  33.033  21.916  1.00  0.00    -0.388 OA
ATOM     52  H   UNL     1      15.118  33.501  21.814  1.00  0.00     0.211 HD
ENDBRANCH  50  51
BRANCH  50  53
ATOM     53  C   UNL     1      12.162  32.534  20.916  1.00  0.00     0.154 C 
BRANCH  53  54
ATOM     54  N   UNL     1      12.145  31.856  22.229  1.00  0.00    -0.319 N 
ATOM     55  C   UNL     1      10.967  31.795  23.013  1.00  0.00     0.407 C 
ATOM     56  H   UNL     1      13.022  31.423  22.570  1.00  0.00     0.167 HD
ATOM     57  O   UNL     1       9.903  32.326  22.561  1.00  0.00    -0.225 OA
BRANCH  55  58
ATOM     58  O   UNL     1      10.973  31.166  24.248  1.00  0.00    -0.443 OA
BRANCH  58  59
ATOM     59  C   UNL     1      11.436  29.836  24.320  1.00  0.00     0.294 C 
BRANCH  59  60
ATOM     60  C   UNL     1      10.363  28.849  24.553  1.00  0.00     0.120 A 
ATOM     61  C   UNL     1       9.014  29.113  24.436  1.00  0.00     0.138 A 
ATOM     62  N   UNL     1      10.445  27.568  24.928  1.00  0.00    -0.132 NA
ATOM     63  N   UNL     1       8.317  28.010  24.736  1.00  0.00    -0.249 N 
ATOM     64  N   UNL     1       9.211  27.067  25.036  1.00  0.00    -0.067 NA
BRANCH  63  65
ATOM     65  C   UNL     1       6.864  27.929  24.727  1.00  0.00     0.112 C 
ATOM     66  C   UNL     1       6.347  29.302  24.461  1.00  0.00     0.046 C 
ATOM     67  C   UNL     1       6.421  27.300  26.007  1.00  0.00     0.046 C 
ATOM     68  C   UNL     1       5.190  29.715  25.312  1.00  0.00     0.058 C 
ATOM     69  C   UNL     1       5.201  27.904  26.632  1.00  0.00     0.058 C 
ATOM     70  N   UNL     1       4.365  28.608  25.683  1.00  0.00    -0.300 NA
ATOM     71  C   UNL     1       5.724  30.200  26.658  1.00  0.00     0.021 C 
ATOM     72  C   UNL     1       5.642  29.004  27.575  1.00  0.00     0.021 C 
ATOM     73  C   UNL     1       3.935  27.774  24.587  1.00  0.00     0.105 C 
ENDBRANCH  63  65
ENDBRANCH  59  60
ENDBRANCH  58  59
ENDBRANCH  55  58
ENDBRANCH  53  54
ENDBRANCH  50  53
ENDBRANCH  47  50
ENDBRANCH   5  47
BRANCH   4  74
ATOM     74  N   UNL     1      14.526  30.039  17.755  1.00  0.00    -0.348 N 
ATOM     75  C   UNL     1      15.253  29.730  16.555  1.00  0.00     0.217 C 
ATOM     76  H   UNL     1      13.562  30.417  17.618  1.00  0.00     0.163 HD
ATOM     77  C   UNL     1      14.605  30.000  15.228  1.00  0.00     0.114 C 
ATOM     78  O   UNL     1      16.391  29.250  16.594  1.00  0.00    -0.275 OA
ENDBRANCH   4  74
TORSDOF 30
