REMARK VINA RESULT:    -5.747      2.885      7.693
REMARK INTER + INTRA:         -23.298
REMARK INTER:                 -11.634
REMARK INTRA:                 -11.664
REMARK UNBOUND:                -7.304
REMARK SMILES CC(=O)N[C@@H]1[C@@H](O)C[C@](OC[C@H]2O[C@@H](O[C@H]3[C@H](O)[C@@H](O)[C@H](OCCN=[N+]=[N-])O[C@@H]3CO)[C@H](O)[C@@H](O)[C@H]2O)(C(=O)O)O[C@H]1C(O)[C@H](O)CNC(=O)OCc1cn(CCCCCC(=O)O)nn1
REMARK SMILES IDX 47 1 45 2 43 3 42 4 9 5 8 6 41 7 6 8 5 9 10 10 11 11 12 12
REMARK SMILES IDX 14 13 13 14 32 15 34 16 36 17 15 18 16 19 29 20 28 21 21 22
REMARK SMILES IDX 17 23 19 24 30 25 31 26 22 28 23 29 24 30 25 31 26 32 27 33
REMARK SMILES IDX 18 34 20 36 33 38 35 40 37 42 38 44 39 45 40 46 7 48 4 50
REMARK SMILES IDX 2 51 1 53 3 54 44 55 46 57 48 59 49 60 50 62 51 63 52 64
REMARK SMILES IDX 53 65 54 66 65 67 55 68 64 69 56 70 57 71 58 72 59 73 60 74
REMARK SMILES IDX 61 75 62 76 63 77
REMARK H PARENT 31 27 18 35 20 37 33 39 35 41 37 43 40 47 7 49 4 52 44 56
REMARK H PARENT 46 58 48 61 63 78
REMARK Flexibility Score: inf
ROOT
ATOM      1  C   UNL     1      22.955  31.848  24.463  1.00  0.00     0.154 C 
ENDROOT
BRANCH   1   2
ATOM      2  C   UNL     1      23.156  31.038  23.205  1.00  0.00     0.165 C 
BRANCH   2   3
ATOM      3  C   UNL     1      22.247  31.616  22.169  1.00  0.00     0.176 C 
BRANCH   3   4
ATOM      4  C   UNL     1      20.807  31.713  22.540  1.00  0.00     0.178 C 
ATOM      5  C   UNL     1      19.055  30.654  23.479  1.00  0.00     0.272 C 
ATOM      6  C   UNL     1      18.521  32.044  23.603  1.00  0.00     0.113 C 
ATOM      7  O   UNL     1      20.140  30.502  22.627  1.00  0.00    -0.332 OA
ATOM      8  C   UNL     1      18.771  32.981  22.484  1.00  0.00     0.145 C 
ATOM      9  C   UNL     1      19.967  32.567  21.617  1.00  0.00     0.142 C 
BRANCH   5  10
ATOM     10  O   UNL     1      18.058  29.715  23.216  1.00  0.00    -0.338 OA
BRANCH  10  11
ATOM     11  C   UNL     1      17.009  30.116  22.454  1.00  0.00     0.199 C 
BRANCH  11  12
ATOM     12  C   UNL     1      17.392  29.848  21.010  1.00  0.00     0.179 C 
ATOM     13  C   UNL     1      18.884  29.034  19.557  1.00  0.00     0.282 C 
ATOM     14  O   UNL     1      18.324  28.834  20.853  1.00  0.00    -0.341 OA
ATOM     15  C   UNL     1      17.943  29.516  18.548  1.00  0.00     0.202 C 
ATOM     16  C   UNL     1      16.477  29.344  18.832  1.00  0.00     0.179 C 
ATOM     17  C   UNL     1      16.144  29.355  20.300  1.00  0.00     0.177 C 
BRANCH  13  18
ATOM     18  O   UNL     1      19.713  27.961  19.239  1.00  0.00    -0.341 OA
BRANCH  18  19
ATOM     19  C   UNL     1      20.970  28.031  19.714  1.00  0.00     0.184 C 
ATOM     20  C   UNL     1      21.986  27.433  18.789  1.00  0.00     0.178 C 
ATOM     21  O   UNL     1      23.228  27.937  19.227  1.00  0.00    -0.341 OA
ATOM     22  C   UNL     1      23.571  27.415  20.427  1.00  0.00     0.281 C 
ATOM     23  C   UNL     1      21.115  27.136  20.993  1.00  0.00     0.180 C 
ATOM     24  C   UNL     1      22.516  26.581  21.050  1.00  0.00     0.202 C 
BRANCH  20  25
ATOM     25  C   UNL     1      21.825  27.852  17.351  1.00  0.00     0.191 C 
BRANCH  25  26
ATOM     26  O   UNL     1      21.562  29.201  17.257  1.00  0.00    -0.394 OA
ATOM     27  H   UNL     1      20.959  29.443  18.009  1.00  0.00     0.210 HD
ENDBRANCH  25  26
ENDBRANCH  20  25
BRANCH  22  28
ATOM     28  O   UNL     1      24.048  28.369  21.336  1.00  0.00    -0.350 OA
BRANCH  28  29
ATOM     29  C   UNL     1      25.373  28.191  21.646  1.00  0.00     0.169 C 
BRANCH  29  30
ATOM     30  C   UNL     1      25.496  27.299  22.873  1.00  0.00     0.119 C 
BRANCH  30  31
ATOM     31  N   UNL     1      25.237  28.054  24.088  1.00  0.00    -0.092 NA
ATOM     32  N   UNL     1      25.859  27.771  25.130  1.00  0.00     0.001 N 
ATOM     33  N   UNL     1      26.065  27.287  26.244  1.00  0.00    -0.003 NA
ENDBRANCH  30  31
ENDBRANCH  29  30
ENDBRANCH  28  29
ENDBRANCH  22  28
BRANCH  23  34
ATOM     34  O   UNL     1      20.936  27.944  22.115  1.00  0.00    -0.387 OA
ATOM     35  H   UNL     1      21.710  28.575  22.183  1.00  0.00     0.211 HD
ENDBRANCH  23  34
BRANCH  24  36
ATOM     36  O   UNL     1      22.577  25.226  20.701  1.00  0.00    -0.385 OA
ATOM     37  H   UNL     1      23.468  24.965  20.357  1.00  0.00     0.211 HD
ENDBRANCH  24  36
ENDBRANCH  18  19
ENDBRANCH  13  18
BRANCH  15  38
ATOM     38  O   UNL     1      18.109  30.909  18.295  1.00  0.00    -0.385 OA
ATOM     39  H   UNL     1      18.151  31.403  19.133  1.00  0.00     0.211 HD
ENDBRANCH  15  38
BRANCH  16  40
ATOM     40  O   UNL     1      15.963  28.145  18.307  1.00  0.00    -0.387 OA
ATOM     41  H   UNL     1      15.591  27.559  18.990  1.00  0.00     0.211 HD
ENDBRANCH  16  40
BRANCH  17  42
ATOM     42  O   UNL     1      15.951  28.021  20.740  1.00  0.00    -0.387 OA
ATOM     43  H   UNL     1      14.956  27.939  20.882  1.00  0.00     0.211 HD
ENDBRANCH  17  42
ENDBRANCH  11  12
ENDBRANCH  10  11
ENDBRANCH   5  10
BRANCH   5  44
ATOM     44  C   UNL     1      19.574  30.282  24.825  1.00  0.00     0.364 C 
ATOM     45  O   UNL     1      19.370  31.018  25.815  1.00  0.00    -0.246 OA
BRANCH  44  46
ATOM     46  O   UNL     1      20.288  29.121  24.993  1.00  0.00    -0.477 OA
ATOM     47  H   UNL     1      20.586  28.769  25.919  1.00  0.00     0.296 HD
ENDBRANCH  44  46
ENDBRANCH   5  44
BRANCH   8  48
ATOM     48  O   UNL     1      17.657  33.306  21.716  1.00  0.00    -0.391 OA
ATOM     49  H   UNL     1      17.880  34.104  21.186  1.00  0.00     0.211 HD
ENDBRANCH   8  48
BRANCH   9  50
ATOM     50  N   UNL     1      20.634  33.695  21.067  1.00  0.00    -0.348 N 
ATOM     51  C   UNL     1      20.308  34.135  19.761  1.00  0.00     0.217 C 
ATOM     52  H   UNL     1      21.352  34.203  21.602  1.00  0.00     0.163 HD
ATOM     53  C   UNL     1      20.988  35.314  19.164  1.00  0.00     0.114 C 
ATOM     54  O   UNL     1      19.435  33.554  19.053  1.00  0.00    -0.275 OA
ENDBRANCH   9  50
ENDBRANCH   3   4
BRANCH   3  55
ATOM     55  O   UNL     1      22.353  30.912  20.948  1.00  0.00    -0.388 OA
ATOM     56  H   UNL     1      22.936  30.128  21.065  1.00  0.00     0.211 HD
ENDBRANCH   3  55
ENDBRANCH   2   3
BRANCH   2  57
ATOM     57  O   UNL     1      22.811  29.721  23.483  1.00  0.00    -0.388 OA
ATOM     58  H   UNL     1      21.916  29.567  23.088  1.00  0.00     0.211 HD
ENDBRANCH   2  57
ENDBRANCH   1   2
BRANCH   1  59
ATOM     59  N   UNL     1      22.787  31.066  25.646  1.00  0.00    -0.319 N 
ATOM     60  C   UNL     1      23.621  31.353  26.773  1.00  0.00     0.407 C 
ATOM     61  H   UNL     1      22.094  30.305  25.725  1.00  0.00     0.167 HD
ATOM     62  O   UNL     1      24.476  32.272  26.715  1.00  0.00    -0.225 OA
BRANCH  60  63
ATOM     63  O   UNL     1      23.527  30.646  27.949  1.00  0.00    -0.443 OA
BRANCH  63  64
ATOM     64  C   UNL     1      22.361  30.091  28.448  1.00  0.00     0.294 C 
BRANCH  64  65
ATOM     65  C   UNL     1      22.188  28.643  28.277  1.00  0.00     0.120 A 
ATOM     66  C   UNL     1      23.022  27.645  28.710  1.00  0.00     0.138 A 
ATOM     67  N   UNL     1      21.159  28.047  27.634  1.00  0.00    -0.132 NA
ATOM     68  N   UNL     1      22.491  26.482  28.328  1.00  0.00    -0.252 N 
ATOM     69  N   UNL     1      21.375  26.760  27.686  1.00  0.00    -0.067 NA
BRANCH  68  70
ATOM     70  C   UNL     1      23.049  25.163  28.590  1.00  0.00     0.146 C 
BRANCH  70  71
ATOM     71  C   UNL     1      22.820  24.297  27.351  1.00  0.00     0.024 C 
BRANCH  71  72
ATOM     72  C   UNL     1      24.024  24.292  26.457  1.00  0.00     0.002 C 
BRANCH  72  73
ATOM     73  C   UNL     1      23.639  24.749  25.079  1.00  0.00     0.012 C 
BRANCH  73  74
ATOM     74  C   UNL     1      22.175  24.640  24.806  1.00  0.00     0.122 C 
BRANCH  74  75
ATOM     75  C   UNL     1      21.605  26.000  24.599  1.00  0.00     0.303 C 
ATOM     76  O   UNL     1      20.402  26.131  24.283  1.00  0.00    -0.252 OA
BRANCH  75  77
ATOM     77  O   UNL     1      22.390  27.138  24.751  1.00  0.00    -0.481 OA
ATOM     78  H   UNL     1      22.484  27.794  23.973  1.00  0.00     0.296 HD
ENDBRANCH  75  77
ENDBRANCH  74  75
ENDBRANCH  73  74
ENDBRANCH  72  73
ENDBRANCH  71  72
ENDBRANCH  70  71
ENDBRANCH  68  70
ENDBRANCH  64  65
ENDBRANCH  63  64
ENDBRANCH  60  63
ENDBRANCH   1  59
TORSDOF 36
