REMARK VINA RESULT:    -5.994      3.483      9.059
REMARK INTER + INTRA:         -22.218
REMARK INTER:                 -15.273
REMARK INTRA:                  -6.944
REMARK UNBOUND:                -6.938
REMARK SMILES CC(=O)N[C@@H]1[C@@H](O)C[C@](OC[C@H]2O[C@@H](O[C@H]3[C@H](O)[C@@H](O)[C@H](OCCN=[N+]=[N-])O[C@@H]3CO)[C@H](O)[C@@H](O)[C@H]2O)(C(=O)O)O[C@H]1C(O)[C@H](O)CNC(=O)OCc1cn(Cc2cc(Br)cc(Br)c2O)nn1
REMARK SMILES IDX 9 1 8 2 6 3 5 4 42 5 41 6 10 7 11 8 12 9 14 10 13 11 32 12
REMARK SMILES IDX 34 13 36 14 15 15 16 16 29 17 28 18 21 19 17 20 19 21 30 22
REMARK SMILES IDX 31 23 22 25 23 26 24 27 25 28 26 29 27 30 18 31 20 33 33 35
REMARK SMILES IDX 35 37 37 39 38 41 39 42 40 43 7 45 43 47 44 48 45 50 46 51
REMARK SMILES IDX 47 53 48 54 49 55 50 57 51 58 52 59 53 60 54 61 67 62 55 63
REMARK SMILES IDX 66 64 56 65 57 66 58 67 64 68 59 69 62 70 60 71 61 72 63 73
REMARK SMILES IDX 65 74 4 76 2 77 1 79 3 80
REMARK H PARENT 31 24 18 32 20 34 33 36 35 38 37 40 40 44 7 46 44 49 46 52
REMARK H PARENT 48 56 65 75 4 78
REMARK Flexibility Score: inf
ROOT
ATOM      1  C   UNL     1      25.822  23.358  16.118  1.00  0.00     0.272 C 
ATOM      2  C   UNL     1      26.219  24.462  15.026  1.00  0.00     0.113 C 
ATOM      3  C   UNL     1      25.462  24.236  13.781  1.00  0.00     0.145 C 
ATOM      4  C   UNL     1      23.983  24.219  14.065  1.00  0.00     0.142 C 
ATOM      5  C   UNL     1      23.605  23.948  15.490  1.00  0.00     0.178 C 
ATOM      6  O   UNL     1      24.501  23.495  16.358  1.00  0.00    -0.332 OA
ENDROOT
BRANCH   1   7
ATOM      7  O   UNL     1      26.557  23.804  17.163  1.00  0.00    -0.338 OA
BRANCH   7   8
ATOM      8  C   UNL     1      26.125  24.026  18.389  1.00  0.00     0.199 C 
BRANCH   8   9
ATOM      9  C   UNL     1      27.030  24.520  19.464  1.00  0.00     0.179 C 
ATOM     10  C   UNL     1      25.419  24.871  21.111  1.00  0.00     0.282 C 
ATOM     11  O   UNL     1      26.427  25.354  20.342  1.00  0.00    -0.341 OA
ATOM     12  C   UNL     1      25.713  23.514  21.662  1.00  0.00     0.202 C 
ATOM     13  C   UNL     1      27.183  23.208  21.572  1.00  0.00     0.179 C 
ATOM     14  C   UNL     1      27.735  23.370  20.186  1.00  0.00     0.177 C 
BRANCH  10  15
ATOM     15  O   UNL     1      24.188  24.948  20.440  1.00  0.00    -0.341 OA
BRANCH  15  16
ATOM     16  C   UNL     1      23.359  25.947  20.895  1.00  0.00     0.184 C 
ATOM     17  C   UNL     1      21.936  25.461  21.049  1.00  0.00     0.178 C 
ATOM     18  O   UNL     1      21.018  26.452  21.250  1.00  0.00    -0.341 OA
ATOM     19  C   UNL     1      21.522  27.696  21.586  1.00  0.00     0.281 C 
ATOM     20  C   UNL     1      23.255  27.091  19.880  1.00  0.00     0.180 C 
ATOM     21  C   UNL     1      22.536  28.207  20.599  1.00  0.00     0.202 C 
BRANCH  17  22
ATOM     22  C   UNL     1      21.796  24.393  22.113  1.00  0.00     0.191 C 
BRANCH  22  23
ATOM     23  O   UNL     1      22.616  24.644  23.192  1.00  0.00    -0.394 OA
ATOM     24  H   UNL     1      22.629  23.842  23.766  1.00  0.00     0.210 HD
ENDBRANCH  22  23
ENDBRANCH  17  22
BRANCH  19  25
ATOM     25  O   UNL     1      22.011  27.646  22.881  1.00  0.00    -0.350 OA
BRANCH  25  26
ATOM     26  C   UNL     1      21.953  28.875  23.482  1.00  0.00     0.169 C 
BRANCH  26  27
ATOM     27  C   UNL     1      21.155  28.952  24.738  1.00  0.00     0.119 C 
BRANCH  27  28
ATOM     28  N   UNL     1      19.741  29.155  24.497  1.00  0.00    -0.092 NA
ATOM     29  N   UNL     1      19.316  29.747  23.525  1.00  0.00     0.001 N 
ATOM     30  N   UNL     1      18.738  30.079  22.493  1.00  0.00    -0.003 NA
ENDBRANCH  27  28
ENDBRANCH  26  27
ENDBRANCH  25  26
ENDBRANCH  19  25
BRANCH  20  31
ATOM     31  O   UNL     1      24.460  27.470  19.355  1.00  0.00    -0.387 OA
ATOM     32  H   UNL     1      24.513  28.472  19.470  1.00  0.00     0.211 HD
ENDBRANCH  20  31
BRANCH  21  33
ATOM     33  O   UNL     1      21.916  29.076  19.708  1.00  0.00    -0.385 OA
ATOM     34  H   UNL     1      20.978  29.193  19.938  1.00  0.00     0.211 HD
ENDBRANCH  21  33
ENDBRANCH  15  16
ENDBRANCH  10  15
BRANCH  12  35
ATOM     35  O   UNL     1      25.302  23.508  23.017  1.00  0.00    -0.385 OA
ATOM     36  H   UNL     1      25.305  24.457  23.285  1.00  0.00     0.211 HD
ENDBRANCH  12  35
BRANCH  13  37
ATOM     37  O   UNL     1      27.488  21.950  22.089  1.00  0.00    -0.387 OA
ATOM     38  H   UNL     1      28.357  21.695  21.688  1.00  0.00     0.211 HD
ENDBRANCH  13  37
BRANCH  14  39
ATOM     39  O   UNL     1      27.552  22.200  19.471  1.00  0.00    -0.387 OA
ATOM     40  H   UNL     1      27.627  22.369  18.493  1.00  0.00     0.211 HD
ENDBRANCH  14  39
ENDBRANCH   8   9
ENDBRANCH   7   8
ENDBRANCH   1   7
BRANCH   1  41
ATOM     41  C   UNL     1      26.193  22.081  15.517  1.00  0.00     0.364 C 
ATOM     42  O   UNL     1      27.429  21.757  15.358  1.00  0.00    -0.246 OA
BRANCH  41  43
ATOM     43  O   UNL     1      25.303  21.133  15.086  1.00  0.00    -0.477 OA
ATOM     44  H   UNL     1      25.106  21.012  14.103  1.00  0.00     0.296 HD
ENDBRANCH  41  43
ENDBRANCH   1  41
BRANCH   3  45
ATOM     45  O   UNL     1      25.797  25.246  12.860  1.00  0.00    -0.391 OA
ATOM     46  H   UNL     1      26.650  25.026  12.421  1.00  0.00     0.211 HD
ENDBRANCH   3  45
BRANCH   5  47
ATOM     47  C   UNL     1      22.796  25.133  15.982  1.00  0.00     0.176 C 
BRANCH  47  48
ATOM     48  O   UNL     1      22.318  24.861  17.289  1.00  0.00    -0.388 OA
ATOM     49  H   UNL     1      21.522  24.293  17.256  1.00  0.00     0.211 HD
ENDBRANCH  47  48
BRANCH  47  50
ATOM     50  C   UNL     1      23.458  26.445  15.902  1.00  0.00     0.165 C 
BRANCH  50  51
ATOM     51  O   UNL     1      24.507  26.567  16.786  1.00  0.00    -0.388 OA
ATOM     52  H   UNL     1      24.566  27.458  17.212  1.00  0.00     0.211 HD
ENDBRANCH  50  51
BRANCH  50  53
ATOM     53  C   UNL     1      22.604  27.666  15.930  1.00  0.00     0.154 C 
BRANCH  53  54
ATOM     54  N   UNL     1      21.469  27.634  16.786  1.00  0.00    -0.319 N 
ATOM     55  C   UNL     1      20.236  28.164  16.272  1.00  0.00     0.407 C 
ATOM     56  H   UNL     1      21.473  27.280  17.755  1.00  0.00     0.167 HD
ATOM     57  O   UNL     1      20.215  28.632  15.082  1.00  0.00    -0.225 OA
BRANCH  55  58
ATOM     58  O   UNL     1      19.112  28.158  17.048  1.00  0.00    -0.443 OA
BRANCH  58  59
ATOM     59  C   UNL     1      19.041  28.811  18.290  1.00  0.00     0.294 C 
BRANCH  59  60
ATOM     60  C   UNL     1      17.715  28.602  18.912  1.00  0.00     0.120 A 
ATOM     61  C   UNL     1      16.454  28.960  18.449  1.00  0.00     0.138 A 
ATOM     62  N   UNL     1      17.473  27.995  20.086  1.00  0.00    -0.132 NA
ATOM     63  N   UNL     1      15.513  28.576  19.325  1.00  0.00    -0.248 N 
ATOM     64  N   UNL     1      16.176  27.984  20.322  1.00  0.00    -0.067 NA
BRANCH  63  65
ATOM     65  C   UNL     1      14.056  28.737  19.270  1.00  0.00     0.185 C 
BRANCH  65  66
ATOM     66  C   UNL     1      13.694  29.824  20.208  1.00  0.00     0.018 A 
ATOM     67  C   UNL     1      13.699  31.127  19.751  1.00  0.00     0.025 A 
ATOM     68  C   UNL     1      13.349  29.580  21.533  1.00  0.00     0.134 A 
ATOM     69  C   UNL     1      13.369  32.194  20.574  1.00  0.00     0.019 A 
ATOM     70  C   UNL     1      13.014  30.624  22.380  1.00  0.00     0.061 A 
ATOM     71  Br  UNL     1      13.390  33.974  19.900  1.00  0.00    -0.051 Br
ATOM     72  C   UNL     1      13.031  31.926  21.878  1.00  0.00     0.035 A 
ATOM     73  Br  UNL     1      12.547  30.267  24.174  1.00  0.00    -0.047 Br
BRANCH  68  74
ATOM     74  O   UNL     1      13.364  28.257  21.927  1.00  0.00    -0.506 OA
ATOM     75  H   UNL     1      12.965  28.000  22.815  1.00  0.00     0.293 HD
ENDBRANCH  68  74
ENDBRANCH  65  66
ENDBRANCH  63  65
ENDBRANCH  59  60
ENDBRANCH  58  59
ENDBRANCH  55  58
ENDBRANCH  53  54
ENDBRANCH  50  53
ENDBRANCH  47  50
ENDBRANCH   5  47
BRANCH   4  76
ATOM     76  N   UNL     1      23.310  23.376  13.100  1.00  0.00    -0.348 N 
ATOM     77  C   UNL     1      22.715  23.974  11.960  1.00  0.00     0.217 C 
ATOM     78  H   UNL     1      23.236  22.337  13.202  1.00  0.00     0.163 HD
ATOM     79  C   UNL     1      22.020  23.102  10.962  1.00  0.00     0.114 C 
ATOM     80  O   UNL     1      22.778  25.239  11.797  1.00  0.00    -0.275 OA
ENDBRANCH   4  76
TORSDOF 32
