REMARK VINA RESULT:    -4.653     17.859     22.122
REMARK INTER + INTRA:         -22.422
REMARK INTER:                 -13.482
REMARK INTRA:                  -8.939
REMARK UNBOUND:                -9.744
REMARK SMILES CC(=O)N[C@@H]1[C@@H](O)C[C@](OC[C@H]2O[C@@H](O[C@H]3[C@H](O)[C@@H](O)[C@H](OCCN=[N+]=[N-])O[C@@H]3CO)[C@H](O)[C@@H](O)[C@H]2O)(C(=O)O)O[C@H]1C(O)[C@H](O)CNC(=O)OCc1cn(CC(O)Cn2ccnc2[N+](=O)[O-])nn1
REMARK SMILES IDX 43 1 42 2 9 3 8 4 41 5 6 6 5 7 10 8 11 9 12 10 14 11 13 12
REMARK SMILES IDX 32 13 34 14 36 15 15 16 16 17 29 18 28 19 21 20 17 21 19 22
REMARK SMILES IDX 30 23 31 24 22 26 23 27 24 28 25 29 26 30 27 31 18 32 20 34
REMARK SMILES IDX 33 36 35 38 37 40 38 42 39 43 40 44 7 46 4 48 2 49 1 51 3 52
REMARK SMILES IDX 44 53 45 55 46 56 47 58 48 59 49 60 50 62 51 63 52 64 53 65
REMARK SMILES IDX 54 66 69 67 55 68 68 69 56 70 57 71 58 72 59 74 60 75 61 76
REMARK SMILES IDX 64 77 62 78 63 79 65 80 66 81 67 82
REMARK H PARENT 31 25 18 33 20 35 33 37 35 39 37 41 40 45 7 47 4 50 44 54
REMARK H PARENT 46 57 48 61 58 73
REMARK Flexibility Score: inf
ROOT
ATOM      1  C   UNL     1       5.389  21.925  32.441  1.00  0.00     0.176 C 
ENDROOT
BRANCH   1   2
ATOM      2  C   UNL     1       3.850  21.836  32.208  1.00  0.00     0.178 C 
ATOM      3  C   UNL     1       2.023  21.372  33.549  1.00  0.00     0.272 C 
ATOM      4  C   UNL     1       1.425  20.529  32.461  1.00  0.00     0.113 C 
ATOM      5  O   UNL     1       3.411  21.377  33.451  1.00  0.00    -0.332 OA
ATOM      6  C   UNL     1       2.502  19.814  31.655  1.00  0.00     0.145 C 
ATOM      7  C   UNL     1       3.563  20.806  31.196  1.00  0.00     0.142 C 
BRANCH   3   8
ATOM      8  O   UNL     1       1.789  20.867  34.822  1.00  0.00    -0.338 OA
BRANCH   8   9
ATOM      9  C   UNL     1       2.807  20.327  35.514  1.00  0.00     0.199 C 
BRANCH   9  10
ATOM     10  C   UNL     1       2.776  20.653  36.994  1.00  0.00     0.179 C 
ATOM     11  C   UNL     1       3.461  19.961  39.004  1.00  0.00     0.282 C 
ATOM     12  O   UNL     1       3.904  20.110  37.667  1.00  0.00    -0.341 OA
ATOM     13  C   UNL     1       3.065  21.296  39.584  1.00  0.00     0.202 C 
ATOM     14  C   UNL     1       3.581  22.367  38.625  1.00  0.00     0.179 C 
ATOM     15  C   UNL     1       2.866  22.133  37.291  1.00  0.00     0.177 C 
BRANCH  11  16
ATOM     16  O   UNL     1       4.421  19.371  39.801  1.00  0.00    -0.341 OA
BRANCH  16  17
ATOM     17  C   UNL     1       4.185  18.016  39.802  1.00  0.00     0.184 C 
ATOM     18  C   UNL     1       3.792  17.461  41.162  1.00  0.00     0.178 C 
ATOM     19  O   UNL     1       3.221  16.216  40.879  1.00  0.00    -0.341 OA
ATOM     20  C   UNL     1       4.102  15.286  40.400  1.00  0.00     0.281 C 
ATOM     21  C   UNL     1       5.416  17.217  39.402  1.00  0.00     0.180 C 
ATOM     22  C   UNL     1       5.166  15.758  39.480  1.00  0.00     0.202 C 
BRANCH  18  23
ATOM     23  C   UNL     1       2.853  18.324  41.925  1.00  0.00     0.191 C 
BRANCH  23  24
ATOM     24  O   UNL     1       1.682  18.456  41.188  1.00  0.00    -0.394 OA
ATOM     25  H   UNL     1       1.477  17.656  40.643  1.00  0.00     0.210 HD
ENDBRANCH  23  24
ENDBRANCH  18  23
BRANCH  20  26
ATOM     26  O   UNL     1       3.320  14.347  39.675  1.00  0.00    -0.350 OA
BRANCH  26  27
ATOM     27  C   UNL     1       2.132  14.873  39.235  1.00  0.00     0.169 C 
BRANCH  27  28
ATOM     28  C   UNL     1       2.218  14.892  37.702  1.00  0.00     0.119 C 
BRANCH  28  29
ATOM     29  N   UNL     1       2.357  16.218  37.184  1.00  0.00    -0.092 NA
ATOM     30  N   UNL     1       2.597  16.427  35.973  1.00  0.00     0.001 N 
ATOM     31  N   UNL     1       2.434  16.842  34.838  1.00  0.00    -0.003 NA
ENDBRANCH  28  29
ENDBRANCH  27  28
ENDBRANCH  26  27
ENDBRANCH  20  26
BRANCH  21  32
ATOM     32  O   UNL     1       5.767  17.549  38.077  1.00  0.00    -0.387 OA
ATOM     33  H   UNL     1       5.764  18.521  38.032  1.00  0.00     0.211 HD
ENDBRANCH  21  32
BRANCH  22  34
ATOM     34  O   UNL     1       6.378  15.175  39.930  1.00  0.00    -0.385 OA
ATOM     35  H   UNL     1       6.294  14.870  40.871  1.00  0.00     0.211 HD
ENDBRANCH  22  34
ENDBRANCH  16  17
ENDBRANCH  11  16
BRANCH  13  36
ATOM     36  O   UNL     1       1.674  21.345  39.677  1.00  0.00    -0.385 OA
ATOM     37  H   UNL     1       1.278  20.429  39.685  1.00  0.00     0.211 HD
ENDBRANCH  13  36
BRANCH  14  38
ATOM     38  O   UNL     1       4.919  22.101  38.393  1.00  0.00    -0.387 OA
ATOM     39  H   UNL     1       5.253  21.459  39.042  1.00  0.00     0.211 HD
ENDBRANCH  14  38
BRANCH  15  40
ATOM     40  O   UNL     1       3.599  22.823  36.351  1.00  0.00    -0.387 OA
ATOM     41  H   UNL     1       4.033  23.629  36.728  1.00  0.00     0.211 HD
ENDBRANCH  15  40
ENDBRANCH   9  10
ENDBRANCH   8   9
ENDBRANCH   3   8
BRANCH   3  42
ATOM     42  C   UNL     1       1.536  22.756  33.476  1.00  0.00     0.364 C 
ATOM     43  O   UNL     1       2.024  23.686  34.208  1.00  0.00    -0.246 OA
BRANCH  42  44
ATOM     44  O   UNL     1       0.525  23.173  32.633  1.00  0.00    -0.477 OA
ATOM     45  H   UNL     1       0.652  23.310  31.626  1.00  0.00     0.296 HD
ENDBRANCH  42  44
ENDBRANCH   3  42
BRANCH   6  46
ATOM     46  O   UNL     1       3.053  18.756  32.352  1.00  0.00    -0.391 OA
ATOM     47  H   UNL     1       2.413  18.373  33.002  1.00  0.00     0.211 HD
ENDBRANCH   6  46
BRANCH   7  48
ATOM     48  N   UNL     1       3.317  21.224  29.853  1.00  0.00    -0.348 N 
ATOM     49  C   UNL     1       2.481  22.237  29.397  1.00  0.00     0.217 C 
ATOM     50  H   UNL     1       3.860  20.692  29.049  1.00  0.00     0.163 HD
ATOM     51  C   UNL     1       2.373  22.562  27.917  1.00  0.00     0.114 C 
ATOM     52  O   UNL     1       1.782  22.938  30.133  1.00  0.00    -0.275 OA
ENDBRANCH   7  48
ENDBRANCH   1   2
BRANCH   1  53
ATOM     53  O   UNL     1       5.751  20.773  33.183  1.00  0.00    -0.388 OA
ATOM     54  H   UNL     1       5.772  20.938  34.138  1.00  0.00     0.211 HD
ENDBRANCH   1  53
BRANCH   1  55
ATOM     55  C   UNL     1       5.851  23.133  33.112  1.00  0.00     0.165 C 
BRANCH  55  56
ATOM     56  O   UNL     1       5.948  23.107  34.479  1.00  0.00    -0.388 OA
ATOM     57  H   UNL     1       6.868  23.031  34.818  1.00  0.00     0.211 HD
ENDBRANCH  55  56
BRANCH  55  58
ATOM     58  C   UNL     1       5.060  24.396  32.694  1.00  0.00     0.154 C 
BRANCH  58  59
ATOM     59  N   UNL     1       4.896  25.178  33.914  1.00  0.00    -0.319 N 
ATOM     60  C   UNL     1       5.341  26.537  34.002  1.00  0.00     0.407 C 
ATOM     61  H   UNL     1       4.445  24.754  34.756  1.00  0.00     0.167 HD
ATOM     62  O   UNL     1       5.881  27.075  33.012  1.00  0.00    -0.225 OA
BRANCH  60  63
ATOM     63  O   UNL     1       5.188  27.268  35.161  1.00  0.00    -0.443 OA
BRANCH  63  64
ATOM     64  C   UNL     1       5.045  26.774  36.458  1.00  0.00     0.294 C 
BRANCH  64  65
ATOM     65  C   UNL     1       6.072  25.736  36.722  1.00  0.00     0.120 A 
ATOM     66  C   UNL     1       7.440  25.926  36.791  1.00  0.00     0.138 A 
ATOM     67  N   UNL     1       5.901  24.425  36.949  1.00  0.00    -0.132 NA
ATOM     68  N   UNL     1       8.033  24.735  37.057  1.00  0.00    -0.249 N 
ATOM     69  N   UNL     1       7.077  23.847  37.146  1.00  0.00    -0.067 NA
BRANCH  68  70
ATOM     70  C   UNL     1       9.473  24.585  37.238  1.00  0.00     0.181 C 
BRANCH  70  71
ATOM     71  C   UNL     1       9.642  23.314  38.066  1.00  0.00     0.170 C 
BRANCH  71  72
ATOM     72  O   UNL     1      10.050  22.299  37.233  1.00  0.00    -0.388 OA
ATOM     73  H   UNL     1       9.330  22.068  36.597  1.00  0.00     0.211 HD
ENDBRANCH  71  72
BRANCH  71  74
ATOM     74  C   UNL     1      10.577  23.557  39.211  1.00  0.00     0.239 C 
BRANCH  74  75
ATOM     75  N   UNL     1       9.857  23.427  40.467  1.00  0.00    -0.227 N 
ATOM     76  C   UNL     1       9.394  24.521  41.154  1.00  0.00     0.204 A 
ATOM     77  C   UNL     1       9.518  22.317  41.123  1.00  0.00     0.434 A 
ATOM     78  C   UNL     1       8.746  24.049  42.274  1.00  0.00     0.245 A 
ATOM     79  N   UNL     1       8.833  22.705  42.235  1.00  0.00    -0.074 NA
BRANCH  77  80
ATOM     80  N   UNL     1       9.820  20.983  40.751  1.00  0.00    -0.047 N 
ATOM     81  O   UNL     1       9.387  20.498  39.659  1.00  0.00    -0.390 OA
ATOM     82  O   UNL     1      10.571  20.136  41.517  1.00  0.00    -0.390 OA
ENDBRANCH  77  80
ENDBRANCH  74  75
ENDBRANCH  71  74
ENDBRANCH  70  71
ENDBRANCH  68  70
ENDBRANCH  64  65
ENDBRANCH  63  64
ENDBRANCH  60  63
ENDBRANCH  58  59
ENDBRANCH  55  58
ENDBRANCH   1  55
TORSDOF 35
