REMARK VINA RESULT:    -6.843      0.000      0.000
REMARK INTER + INTRA:         -23.841
REMARK INTER:                 -17.764
REMARK INTRA:                  -6.076
REMARK UNBOUND:                -6.197
REMARK SMILES CC(=O)N[C@@H]1[C@@H](O)C[C@](OC[C@H]2O[C@@H](O[C@H]3[C@H](O)[C@@H](O)[C@H](OCCN=[N+]=[N-])O[C@@H]3CO)[C@H](O)[C@@H](O)[C@H]2O)(C(=O)O)O[C@H]1C(O)[C@H](O)CNC(=O)OCc1cn(Cc2cccc(C#N)c2)nn1
REMARK SMILES IDX 9 1 8 2 6 3 5 4 42 5 41 6 10 7 11 8 12 9 14 10 13 11 32 12
REMARK SMILES IDX 34 13 36 14 15 15 16 16 29 17 28 18 21 19 17 20 19 21 30 22
REMARK SMILES IDX 31 23 22 25 23 26 24 27 25 28 26 29 27 30 18 31 20 33 33 35
REMARK SMILES IDX 35 37 37 39 38 41 39 42 40 43 7 45 43 47 44 48 45 50 46 51
REMARK SMILES IDX 47 53 48 54 49 55 50 57 51 58 52 59 53 60 54 61 66 62 55 63
REMARK SMILES IDX 65 64 56 65 57 66 58 67 64 68 59 69 61 70 60 71 62 72 63 73
REMARK SMILES IDX 4 74 2 75 1 77 3 78
REMARK H PARENT 31 24 18 32 20 34 33 36 35 38 37 40 40 44 7 46 44 49 46 52
REMARK H PARENT 48 56 4 76
REMARK Flexibility Score: inf
ROOT
ATOM      1  C   UNL     1      14.815  31.160  15.288  1.00  0.00     0.272 C 
ATOM      2  C   UNL     1      13.857  30.176  14.660  1.00  0.00     0.113 C 
ATOM      3  C   UNL     1      14.420  29.173  13.745  1.00  0.00     0.145 C 
ATOM      4  C   UNL     1      15.644  29.704  12.992  1.00  0.00     0.142 C 
ATOM      5  C   UNL     1      16.595  30.398  13.860  1.00  0.00     0.178 C 
ATOM      6  O   UNL     1      16.127  31.032  14.964  1.00  0.00    -0.332 OA
ENDROOT
BRANCH   1   7
ATOM      7  O   UNL     1      14.700  31.083  16.601  1.00  0.00    -0.338 OA
BRANCH   7   8
ATOM      8  C   UNL     1      14.734  30.402  17.643  1.00  0.00     0.199 C 
BRANCH   8   9
ATOM      9  C   UNL     1      15.907  30.144  18.546  1.00  0.00     0.179 C 
ATOM     10  C   UNL     1      16.425  29.399  20.609  1.00  0.00     0.282 C 
ATOM     11  O   UNL     1      15.458  29.266  19.604  1.00  0.00    -0.341 OA
ATOM     12  C   UNL     1      17.721  28.778  20.214  1.00  0.00     0.202 C 
ATOM     13  C   UNL     1      18.096  29.080  18.775  1.00  0.00     0.179 C 
ATOM     14  C   UNL     1      16.927  29.215  17.860  1.00  0.00     0.177 C 
BRANCH  10  15
ATOM     15  O   UNL     1      15.950  28.805  21.776  1.00  0.00    -0.341 OA
BRANCH  15  16
ATOM     16  C   UNL     1      15.198  29.659  22.539  1.00  0.00     0.184 C 
ATOM     17  C   UNL     1      15.770  29.884  23.891  1.00  0.00     0.178 C 
ATOM     18  O   UNL     1      14.988  30.672  24.703  1.00  0.00    -0.341 OA
ATOM     19  C   UNL     1      13.664  30.305  24.807  1.00  0.00     0.281 C 
ATOM     20  C   UNL     1      13.866  28.887  22.810  1.00  0.00     0.180 C 
ATOM     21  C   UNL     1      13.003  29.906  23.527  1.00  0.00     0.202 C 
BRANCH  17  22
ATOM     22  C   UNL     1      17.117  30.562  23.793  1.00  0.00     0.191 C 
BRANCH  22  23
ATOM     23  O   UNL     1      18.133  29.602  23.819  1.00  0.00    -0.394 OA
ATOM     24  H   UNL     1      18.175  29.064  23.011  1.00  0.00     0.210 HD
ENDBRANCH  22  23
ENDBRANCH  17  22
BRANCH  19  25
ATOM     25  O   UNL     1      12.970  31.443  25.267  1.00  0.00    -0.350 OA
BRANCH  25  26
ATOM     26  C   UNL     1      13.724  32.105  26.200  1.00  0.00     0.169 C 
BRANCH  26  27
ATOM     27  C   UNL     1      13.618  31.498  27.571  1.00  0.00     0.119 C 
BRANCH  27  28
ATOM     28  N   UNL     1      14.825  31.639  28.350  1.00  0.00    -0.092 NA
ATOM     29  N   UNL     1      15.908  31.344  27.826  1.00  0.00     0.001 N 
ATOM     30  N   UNL     1      17.049  30.995  27.445  1.00  0.00    -0.003 NA
ENDBRANCH  27  28
ENDBRANCH  26  27
ENDBRANCH  25  26
ENDBRANCH  19  25
BRANCH  20  31
ATOM     31  O   UNL     1      13.367  28.485  21.600  1.00  0.00    -0.387 OA
ATOM     32  H   UNL     1      14.021  27.925  21.092  1.00  0.00     0.211 HD
ENDBRANCH  20  31
BRANCH  21  33
ATOM     33  O   UNL     1      11.790  29.289  23.823  1.00  0.00    -0.385 OA
ATOM     34  H   UNL     1      11.440  28.921  22.960  1.00  0.00     0.211 HD
ENDBRANCH  21  33
ENDBRANCH  15  16
ENDBRANCH  10  15
BRANCH  12  35
ATOM     35  O   UNL     1      18.742  29.380  20.984  1.00  0.00    -0.385 OA
ATOM     36  H   UNL     1      18.418  30.290  21.196  1.00  0.00     0.211 HD
ENDBRANCH  12  35
BRANCH  13  37
ATOM     37  O   UNL     1      18.844  27.977  18.335  1.00  0.00    -0.387 OA
ATOM     38  H   UNL     1      19.658  27.831  18.855  1.00  0.00     0.211 HD
ENDBRANCH  13  37
BRANCH  14  39
ATOM     39  O   UNL     1      16.334  27.946  17.763  1.00  0.00    -0.387 OA
ATOM     40  H   UNL     1      16.469  27.411  18.569  1.00  0.00     0.211 HD
ENDBRANCH  14  39
ENDBRANCH   8   9
ENDBRANCH   7   8
ENDBRANCH   1   7
BRANCH   1  41
ATOM     41  C   UNL     1      14.414  32.514  14.761  1.00  0.00     0.364 C 
ATOM     42  O   UNL     1      13.800  32.623  13.646  1.00  0.00    -0.246 OA
BRANCH  41  43
ATOM     43  O   UNL     1      14.687  33.666  15.446  1.00  0.00    -0.477 OA
ATOM     44  H   UNL     1      14.770  34.534  14.891  1.00  0.00     0.296 HD
ENDBRANCH  41  43
ENDBRANCH   1  41
BRANCH   3  45
ATOM     45  O   UNL     1      14.786  28.035  14.447  1.00  0.00    -0.391 OA
ATOM     46  H   UNL     1      14.496  28.046  15.390  1.00  0.00     0.211 HD
ENDBRANCH   3  45
BRANCH   5  47
ATOM     47  C   UNL     1      17.711  29.535  14.414  1.00  0.00     0.176 C 
BRANCH  47  48
ATOM     48  O   UNL     1      18.169  28.793  13.274  1.00  0.00    -0.388 OA
ATOM     49  H   UNL     1      18.092  27.840  13.508  1.00  0.00     0.211 HD
ENDBRANCH  47  48
BRANCH  47  50
ATOM     50  C   UNL     1      18.915  30.189  14.952  1.00  0.00     0.165 C 
BRANCH  50  51
ATOM     51  O   UNL     1      19.157  31.245  13.969  1.00  0.00    -0.388 OA
ATOM     52  H   UNL     1      19.568  32.013  14.468  1.00  0.00     0.211 HD
ENDBRANCH  50  51
BRANCH  50  53
ATOM     53  C   UNL     1      20.194  29.435  14.956  1.00  0.00     0.154 C 
BRANCH  53  54
ATOM     54  N   UNL     1      20.307  28.348  15.874  1.00  0.00    -0.319 N 
ATOM     55  C   UNL     1      21.520  28.170  16.620  1.00  0.00     0.407 C 
ATOM     56  H   UNL     1      19.556  27.669  16.044  1.00  0.00     0.167 HD
ATOM     57  O   UNL     1      22.437  28.999  16.423  1.00  0.00    -0.225 OA
BRANCH  55  58
ATOM     58  O   UNL     1      21.706  27.159  17.517  1.00  0.00    -0.443 OA
BRANCH  58  59
ATOM     59  C   UNL     1      22.616  27.288  18.629  1.00  0.00     0.294 C 
BRANCH  59  60
ATOM     60  C   UNL     1      21.918  26.862  19.876  1.00  0.00     0.120 A 
ATOM     61  C   UNL     1      22.064  25.665  20.540  1.00  0.00     0.138 A 
ATOM     62  N   UNL     1      21.018  27.560  20.577  1.00  0.00    -0.132 NA
ATOM     63  N   UNL     1      21.251  25.656  21.634  1.00  0.00    -0.248 N 
ATOM     64  N   UNL     1      20.629  26.825  21.627  1.00  0.00    -0.067 NA
BRANCH  63  65
ATOM     65  C   UNL     1      21.108  24.584  22.576  1.00  0.00     0.181 C 
BRANCH  65  66
ATOM     66  C   UNL     1      22.246  24.608  23.524  1.00  0.00    -0.025 A 
ATOM     67  C   UNL     1      23.557  24.598  23.125  1.00  0.00     0.006 A 
ATOM     68  C   UNL     1      21.988  24.640  24.890  1.00  0.00     0.025 A 
ATOM     69  C   UNL     1      24.603  24.616  24.009  1.00  0.00     0.002 A 
ATOM     70  C   UNL     1      23.037  24.658  25.776  1.00  0.00     0.052 A 
ATOM     71  C   UNL     1      24.374  24.647  25.378  1.00  0.00     0.019 A 
BRANCH  70  72
ATOM     72  C   UNL     1      22.762  24.695  27.188  1.00  0.00     0.099 C 
ATOM     73  N   UNL     1      22.551  24.717  28.338  1.00  0.00    -0.192 NA
ENDBRANCH  70  72
ENDBRANCH  65  66
ENDBRANCH  63  65
ENDBRANCH  59  60
ENDBRANCH  58  59
ENDBRANCH  55  58
ENDBRANCH  53  54
ENDBRANCH  50  53
ENDBRANCH  47  50
ENDBRANCH   5  47
BRANCH   4  74
ATOM     74  N   UNL     1      15.181  30.444  11.819  1.00  0.00    -0.348 N 
ATOM     75  C   UNL     1      15.808  30.228  10.575  1.00  0.00     0.217 C 
ATOM     76  H   UNL     1      14.404  31.132  11.829  1.00  0.00     0.163 HD
ATOM     77  C   UNL     1      15.403  30.937   9.328  1.00  0.00     0.114 C 
ATOM     78  O   UNL     1      16.742  29.411  10.511  1.00  0.00    -0.275 OA
ENDBRANCH   4  74
TORSDOF 32
