REMARK VINA RESULT:    -4.940      3.388      6.617
REMARK INTER + INTRA:         -21.145
REMARK INTER:                 -13.182
REMARK INTRA:                  -7.962
REMARK UNBOUND:                -8.118
REMARK SMILES CC(=O)N[C@@H]1[C@@H](O)C[C@](OC[C@H]2O[C@@H](O[C@H]3[C@H](O)[C@@H](O)[C@H](OCCN=[N+]=[N-])O[C@@H]3CO)[C@H](O)[C@@H](O)[C@H]2O)(C(=O)O)O[C@H]1C(O)[C@H](O)CNC(=O)OCc1cn(CCOC(C)=O)nn1
REMARK SMILES IDX 43 1 42 2 9 3 8 4 41 5 6 6 5 7 10 8 11 9 12 10 14 11 13 12
REMARK SMILES IDX 32 13 34 14 36 15 15 16 16 17 29 18 28 19 21 20 17 21 19 22
REMARK SMILES IDX 30 23 31 24 22 26 23 27 24 28 25 29 26 30 27 31 18 32 20 34
REMARK SMILES IDX 33 36 35 38 37 40 38 42 39 43 40 44 7 46 4 48 2 49 1 51 3 52
REMARK SMILES IDX 44 53 45 55 46 56 47 58 48 59 49 60 50 62 51 63 52 64 53 65
REMARK SMILES IDX 54 66 63 67 55 68 62 69 56 70 57 71 58 72 59 73 61 74 60 75
REMARK H PARENT 31 25 18 33 20 35 33 37 35 39 37 41 40 45 7 47 4 50 44 54
REMARK H PARENT 46 57 48 61
REMARK Flexibility Score: inf
ROOT
ATOM      1  C   UNL     1       2.984  22.839  31.059  1.00  0.00     0.176 C 
ENDROOT
BRANCH   1   2
ATOM      2  C   UNL     1       1.865  22.626  30.072  1.00  0.00     0.178 C 
ATOM      3  C   UNL     1       1.361  23.190  27.840  1.00  0.00     0.272 C 
ATOM      4  C   UNL     1       0.179  22.312  28.175  1.00  0.00     0.113 C 
ATOM      5  O   UNL     1       2.355  23.143  28.854  1.00  0.00    -0.332 OA
ATOM      6  C   UNL     1      -0.462  22.661  29.470  1.00  0.00     0.145 C 
ATOM      7  C   UNL     1       0.603  23.385  30.342  1.00  0.00     0.142 C 
BRANCH   3   8
ATOM      8  O   UNL     1       1.130  24.460  27.612  1.00  0.00    -0.338 OA
BRANCH   8   9
ATOM      9  C   UNL     1       1.419  25.245  26.612  1.00  0.00     0.199 C 
BRANCH   9  10
ATOM     10  C   UNL     1       2.449  26.293  26.585  1.00  0.00     0.179 C 
ATOM     11  C   UNL     1       3.107  28.139  27.798  1.00  0.00     0.282 C 
ATOM     12  O   UNL     1       2.514  26.873  27.911  1.00  0.00    -0.341 OA
ATOM     13  C   UNL     1       4.263  28.192  26.890  1.00  0.00     0.202 C 
ATOM     14  C   UNL     1       4.775  26.905  26.344  1.00  0.00     0.179 C 
ATOM     15  C   UNL     1       3.877  25.725  26.477  1.00  0.00     0.177 C 
BRANCH  11  16
ATOM     16  O   UNL     1       3.313  28.596  29.089  1.00  0.00    -0.341 OA
BRANCH  16  17
ATOM     17  C   UNL     1       3.467  27.590  30.007  1.00  0.00     0.184 C 
ATOM     18  C   UNL     1       2.681  27.912  31.257  1.00  0.00     0.178 C 
ATOM     19  O   UNL     1       2.872  26.817  32.111  1.00  0.00    -0.341 OA
ATOM     20  C   UNL     1       4.108  26.890  32.680  1.00  0.00     0.281 C 
ATOM     21  C   UNL     1       4.927  27.361  30.363  1.00  0.00     0.180 C 
ATOM     22  C   UNL     1       5.183  27.519  31.826  1.00  0.00     0.202 C 
BRANCH  18  23
ATOM     23  C   UNL     1       1.203  28.013  30.929  1.00  0.00     0.191 C 
BRANCH  23  24
ATOM     24  O   UNL     1       0.906  29.292  30.494  1.00  0.00    -0.394 OA
ATOM     25  H   UNL     1       1.428  29.421  29.646  1.00  0.00     0.210 HD
ENDBRANCH  23  24
ENDBRANCH  18  23
BRANCH  20  26
ATOM     26  O   UNL     1       4.470  25.592  33.067  1.00  0.00    -0.350 OA
BRANCH  26  27
ATOM     27  C   UNL     1       3.542  25.048  33.947  1.00  0.00     0.169 C 
BRANCH  27  28
ATOM     28  C   UNL     1       4.367  24.338  35.026  1.00  0.00     0.119 C 
BRANCH  28  29
ATOM     29  N   UNL     1       3.859  22.983  35.161  1.00  0.00    -0.092 NA
ATOM     30  N   UNL     1       2.774  22.631  34.681  1.00  0.00     0.001 N 
ATOM     31  N   UNL     1       1.560  22.383  34.557  1.00  0.00    -0.003 NA
ENDBRANCH  28  29
ENDBRANCH  27  28
ENDBRANCH  26  27
ENDBRANCH  20  26
BRANCH  21  32
ATOM     32  O   UNL     1       5.419  26.150  29.892  1.00  0.00    -0.387 OA
ATOM     33  H   UNL     1       5.523  25.462  30.594  1.00  0.00     0.211 HD
ENDBRANCH  21  32
BRANCH  22  34
ATOM     34  O   UNL     1       5.435  28.838  32.145  1.00  0.00    -0.385 OA
ATOM     35  H   UNL     1       6.193  29.159  31.577  1.00  0.00     0.211 HD
ENDBRANCH  22  34
ENDBRANCH  16  17
ENDBRANCH  11  16
BRANCH  13  36
ATOM     36  O   UNL     1       4.077  29.147  25.855  1.00  0.00    -0.385 OA
ATOM     37  H   UNL     1       3.331  29.752  26.049  1.00  0.00     0.211 HD
ENDBRANCH  13  36
BRANCH  14  38
ATOM     38  O   UNL     1       6.016  26.563  26.903  1.00  0.00    -0.387 OA
ATOM     39  H   UNL     1       6.668  27.288  26.671  1.00  0.00     0.211 HD
ENDBRANCH  14  38
BRANCH  15  40
ATOM     40  O   UNL     1       4.180  25.118  27.726  1.00  0.00    -0.387 OA
ATOM     41  H   UNL     1       4.922  24.486  27.632  1.00  0.00     0.211 HD
ENDBRANCH  15  40
ENDBRANCH   9  10
ENDBRANCH   8   9
ENDBRANCH   3   8
BRANCH   3  42
ATOM     42  C   UNL     1       2.064  22.483  26.733  1.00  0.00     0.364 C 
ATOM     43  O   UNL     1       1.550  21.688  25.924  1.00  0.00    -0.246 OA
BRANCH  42  44
ATOM     44  O   UNL     1       3.445  22.697  26.536  1.00  0.00    -0.477 OA
ATOM     45  H   UNL     1       4.076  22.517  27.303  1.00  0.00     0.296 HD
ENDBRANCH  42  44
ENDBRANCH   3  42
BRANCH   6  46
ATOM     46  O   UNL     1      -1.612  23.410  29.382  1.00  0.00    -0.391 OA
ATOM     47  H   UNL     1      -1.488  24.272  28.908  1.00  0.00     0.211 HD
ENDBRANCH   6  46
BRANCH   7  48
ATOM     48  N   UNL     1       0.140  23.447  31.688  1.00  0.00    -0.348 N 
ATOM     49  C   UNL     1      -0.633  24.534  32.171  1.00  0.00     0.217 C 
ATOM     50  H   UNL     1       0.349  22.668  32.332  1.00  0.00     0.163 HD
ATOM     51  C   UNL     1      -1.115  24.591  33.586  1.00  0.00     0.114 C 
ATOM     52  O   UNL     1      -0.953  25.509  31.425  1.00  0.00    -0.275 OA
ENDBRANCH   7  48
ENDBRANCH   1   2
BRANCH   1  53
ATOM     53  O   UNL     1       3.567  24.086  30.670  1.00  0.00    -0.388 OA
ATOM     54  H   UNL     1       4.528  23.975  30.518  1.00  0.00     0.211 HD
ENDBRANCH   1  53
BRANCH   1  55
ATOM     55  C   UNL     1       4.088  21.837  30.820  1.00  0.00     0.165 C 
BRANCH  55  56
ATOM     56  O   UNL     1       3.701  20.963  29.792  1.00  0.00    -0.388 OA
ATOM     57  H   UNL     1       3.200  20.224  30.192  1.00  0.00     0.211 HD
ENDBRANCH  55  56
BRANCH  55  58
ATOM     58  C   UNL     1       4.491  21.094  32.055  1.00  0.00     0.154 C 
BRANCH  58  59
ATOM     59  N   UNL     1       5.516  21.707  32.840  1.00  0.00    -0.319 N 
ATOM     60  C   UNL     1       6.883  21.395  32.715  1.00  0.00     0.407 C 
ATOM     61  H   UNL     1       5.290  22.448  33.573  1.00  0.00     0.167 HD
ATOM     62  O   UNL     1       7.315  20.558  31.895  1.00  0.00    -0.225 OA
BRANCH  60  63
ATOM     63  O   UNL     1       7.858  22.010  33.517  1.00  0.00    -0.443 OA
BRANCH  63  64
ATOM     64  C   UNL     1       7.775  23.350  33.911  1.00  0.00     0.294 C 
BRANCH  64  65
ATOM     65  C   UNL     1       9.046  23.830  34.521  1.00  0.00     0.120 A 
ATOM     66  C   UNL     1       9.764  24.915  34.048  1.00  0.00     0.138 A 
ATOM     67  N   UNL     1       9.723  23.378  35.571  1.00  0.00    -0.132 NA
ATOM     68  N   UNL     1      10.835  25.062  34.833  1.00  0.00    -0.249 N 
ATOM     69  N   UNL     1      10.791  24.117  35.754  1.00  0.00    -0.067 NA
BRANCH  68  70
ATOM     70  C   UNL     1      11.896  26.073  34.709  1.00  0.00     0.187 C 
BRANCH  70  71
ATOM     71  C   UNL     1      12.700  26.130  35.988  1.00  0.00     0.256 C 
BRANCH  71  72
ATOM     72  O   UNL     1      13.944  25.476  35.764  1.00  0.00    -0.464 OA
BRANCH  72  73
ATOM     73  C   UNL     1      15.134  26.057  36.195  1.00  0.00     0.302 C 
ATOM     74  O   UNL     1      16.094  26.098  35.389  1.00  0.00    -0.253 OA
ATOM     75  C   UNL     1      15.296  26.624  37.574  1.00  0.00     0.139 C 
ENDBRANCH  72  73
ENDBRANCH  71  72
ENDBRANCH  70  71
ENDBRANCH  68  70
ENDBRANCH  64  65
ENDBRANCH  63  64
ENDBRANCH  60  63
ENDBRANCH  58  59
ENDBRANCH  55  58
ENDBRANCH   1  55
TORSDOF 33
