REMARK VINA RESULT:    -5.853      0.000      0.000
REMARK INTER + INTRA:         -22.283
REMARK INTER:                 -14.446
REMARK INTRA:                  -7.837
REMARK UNBOUND:                -7.364
REMARK SMILES CC(=O)N[C@@H]1[C@@H](O)C[C@](OC[C@H]2O[C@@H](O[C@H]3[C@H](O)[C@@H](O)[C@H](OCCN=[N+]=[N-])O[C@@H]3CO)[C@H](O)[C@@H](O)[C@H]2O)(C(=O)O)O[C@H]1C(O)[C@H](O)CNC(=O)OCc1cn([C@@H](C)C(=O)O)nn1
REMARK SMILES IDX 9 1 8 2 6 3 5 4 42 5 41 6 10 7 11 8 12 9 14 10 13 11 32 12
REMARK SMILES IDX 34 13 36 14 15 15 16 16 29 17 28 18 21 19 17 20 19 21 30 22
REMARK SMILES IDX 31 23 22 25 23 26 24 27 25 28 26 29 27 30 18 31 20 33 33 35
REMARK SMILES IDX 35 37 37 39 38 41 39 42 40 43 7 45 43 47 44 48 45 50 46 51
REMARK SMILES IDX 47 53 48 54 49 55 50 57 51 58 52 59 53 60 54 61 62 62 55 63
REMARK SMILES IDX 61 64 56 65 57 66 58 67 59 68 60 69 4 71 2 72 1 74 3 75
REMARK H PARENT 31 24 18 32 20 34 33 36 35 38 37 40 40 44 7 46 44 49 46 52
REMARK H PARENT 48 56 60 70 4 73
REMARK Flexibility Score: inf
ROOT
ATOM      1  C   UNL     1       1.921  25.926  26.878  1.00  0.00     0.272 C 
ATOM      2  C   UNL     1       2.782  25.719  25.694  1.00  0.00     0.113 C 
ATOM      3  C   UNL     1       4.142  25.298  26.201  1.00  0.00     0.145 C 
ATOM      4  C   UNL     1       4.716  26.634  26.793  1.00  0.00     0.142 C 
ATOM      5  C   UNL     1       3.699  27.334  27.558  1.00  0.00     0.178 C 
ATOM      6  O   UNL     1       2.559  26.652  27.890  1.00  0.00    -0.332 OA
ENDROOT
BRANCH   1   7
ATOM      7  O   UNL     1       1.399  24.767  27.363  1.00  0.00    -0.338 OA
BRANCH   7   8
ATOM      8  C   UNL     1       0.175  24.774  27.921  1.00  0.00     0.199 C 
BRANCH   8   9
ATOM      9  C   UNL     1       0.242  24.366  29.414  1.00  0.00     0.179 C 
ATOM     10  C   UNL     1       1.635  23.237  30.867  1.00  0.00     0.282 C 
ATOM     11  O   UNL     1       1.479  23.812  29.610  1.00  0.00    -0.341 OA
ATOM     12  C   UNL     1       0.501  23.557  31.796  1.00  0.00     0.202 C 
ATOM     13  C   UNL     1       0.156  25.032  31.737  1.00  0.00     0.179 C 
ATOM     14  C   UNL     1       0.022  25.536  30.310  1.00  0.00     0.177 C 
BRANCH  10  15
ATOM     15  O   UNL     1       2.817  23.640  31.506  1.00  0.00    -0.341 OA
BRANCH  15  16
ATOM     16  C   UNL     1       3.808  22.675  31.409  1.00  0.00     0.184 C 
ATOM     17  C   UNL     1       3.201  21.308  31.423  1.00  0.00     0.178 C 
ATOM     18  O   UNL     1       3.490  20.612  32.597  1.00  0.00    -0.341 OA
ATOM     19  C   UNL     1       3.171  21.371  33.727  1.00  0.00     0.281 C 
ATOM     20  C   UNL     1       4.742  22.854  32.583  1.00  0.00     0.180 C 
ATOM     21  C   UNL     1       4.113  22.527  33.909  1.00  0.00     0.202 C 
BRANCH  17  22
ATOM     22  C   UNL     1       3.674  20.466  30.260  1.00  0.00     0.191 C 
BRANCH  22  23
ATOM     23  O   UNL     1       5.063  20.439  30.164  1.00  0.00    -0.394 OA
ATOM     24  H   UNL     1       5.341  20.762  29.283  1.00  0.00     0.210 HD
ENDBRANCH  22  23
ENDBRANCH  17  22
BRANCH  19  25
ATOM     25  O   UNL     1       3.292  20.522  34.813  1.00  0.00    -0.350 OA
BRANCH  25  26
ATOM     26  C   UNL     1       2.678  19.322  34.524  1.00  0.00     0.169 C 
BRANCH  26  27
ATOM     27  C   UNL     1       3.118  18.249  35.499  1.00  0.00     0.119 C 
BRANCH  27  28
ATOM     28  N   UNL     1       3.809  18.896  36.613  1.00  0.00    -0.092 NA
ATOM     29  N   UNL     1       4.439  18.256  37.455  1.00  0.00     0.001 N 
ATOM     30  N   UNL     1       5.226  17.572  38.084  1.00  0.00    -0.003 NA
ENDBRANCH  27  28
ENDBRANCH  26  27
ENDBRANCH  25  26
ENDBRANCH  19  25
BRANCH  20  31
ATOM     31  O   UNL     1       5.917  22.119  32.434  1.00  0.00    -0.387 OA
ATOM     32  H   UNL     1       6.633  22.390  33.048  1.00  0.00     0.211 HD
ENDBRANCH  20  31
BRANCH  21  33
ATOM     33  O   UNL     1       3.383  23.618  34.377  1.00  0.00    -0.385 OA
ATOM     34  H   UNL     1       3.779  24.469  34.078  1.00  0.00     0.211 HD
ENDBRANCH  21  33
ENDBRANCH  15  16
ENDBRANCH  10  15
BRANCH  12  35
ATOM     35  O   UNL     1      -0.594  22.737  31.660  1.00  0.00    -0.385 OA
ATOM     36  H   UNL     1      -0.912  22.433  32.567  1.00  0.00     0.211 HD
ENDBRANCH  12  35
BRANCH  13  37
ATOM     37  O   UNL     1       1.220  25.720  32.361  1.00  0.00    -0.387 OA
ATOM     38  H   UNL     1       1.366  25.382  33.283  1.00  0.00     0.211 HD
ENDBRANCH  13  37
BRANCH  14  39
ATOM     39  O   UNL     1       0.938  26.555  30.054  1.00  0.00    -0.387 OA
ATOM     40  H   UNL     1       1.685  26.200  29.506  1.00  0.00     0.211 HD
ENDBRANCH  14  39
ENDBRANCH   8   9
ENDBRANCH   7   8
ENDBRANCH   1   7
BRANCH   1  41
ATOM     41  C   UNL     1       0.813  26.831  26.472  1.00  0.00     0.364 C 
ATOM     42  O   UNL     1       0.333  26.754  25.332  1.00  0.00    -0.246 OA
BRANCH  41  43
ATOM     43  O   UNL     1       0.294  27.773  27.349  1.00  0.00    -0.477 OA
ATOM     44  H   UNL     1       0.471  27.704  28.362  1.00  0.00     0.296 HD
ENDBRANCH  41  43
ENDBRANCH   1  41
BRANCH   3  45
ATOM     45  O   UNL     1       3.950  24.476  27.305  1.00  0.00    -0.391 OA
ATOM     46  H   UNL     1       3.513  24.920  28.050  1.00  0.00     0.211 HD
ENDBRANCH   3  45
BRANCH   5  47
ATOM     47  C   UNL     1       4.165  28.043  28.820  1.00  0.00     0.176 C 
BRANCH  47  48
ATOM     48  O   UNL     1       5.353  28.776  28.460  1.00  0.00    -0.388 OA
ATOM     49  H   UNL     1       6.134  28.238  28.668  1.00  0.00     0.211 HD
ENDBRANCH  47  48
BRANCH  47  50
ATOM     50  C   UNL     1       4.666  27.107  29.901  1.00  0.00     0.165 C 
BRANCH  50  51
ATOM     51  O   UNL     1       3.907  26.002  30.129  1.00  0.00    -0.388 OA
ATOM     52  H   UNL     1       3.534  25.888  31.031  1.00  0.00     0.211 HD
ENDBRANCH  50  51
BRANCH  50  53
ATOM     53  C   UNL     1       5.141  27.839  31.110  1.00  0.00     0.154 C 
BRANCH  53  54
ATOM     54  N   UNL     1       5.665  27.069  32.174  1.00  0.00    -0.319 N 
ATOM     55  C   UNL     1       4.941  26.431  33.215  1.00  0.00     0.407 C 
ATOM     56  H   UNL     1       6.726  26.955  32.195  1.00  0.00     0.167 HD
ATOM     57  O   UNL     1       3.707  26.522  33.235  1.00  0.00    -0.225 OA
BRANCH  55  58
ATOM     58  O   UNL     1       5.630  25.711  34.205  1.00  0.00    -0.443 OA
BRANCH  58  59
ATOM     59  C   UNL     1       6.802  26.225  34.780  1.00  0.00     0.294 C 
BRANCH  59  60
ATOM     60  C   UNL     1       7.914  25.267  34.796  1.00  0.00     0.120 A 
ATOM     61  C   UNL     1       9.178  25.405  35.326  1.00  0.00     0.139 A 
ATOM     62  N   UNL     1       7.833  24.024  34.252  1.00  0.00    -0.132 NA
ATOM     63  N   UNL     1       9.820  24.259  35.093  1.00  0.00    -0.238 N 
ATOM     64  N   UNL     1       9.016  23.424  34.447  1.00  0.00    -0.066 NA
BRANCH  63  65
ATOM     65  C   UNL     1      11.185  23.962  35.478  1.00  0.00     0.215 C 
ATOM     66  C   UNL     1      11.733  25.085  36.302  1.00  0.00     0.046 C 
BRANCH  65  67
ATOM     67  C   UNL     1      11.268  22.688  36.230  1.00  0.00     0.328 C 
ATOM     68  O   UNL     1      12.354  22.060  36.227  1.00  0.00    -0.250 OA
BRANCH  67  69
ATOM     69  O   UNL     1      10.192  22.169  36.934  1.00  0.00    -0.480 OA
ATOM     70  H   UNL     1       9.305  22.656  36.990  1.00  0.00     0.296 HD
ENDBRANCH  67  69
ENDBRANCH  65  67
ENDBRANCH  63  65
ENDBRANCH  59  60
ENDBRANCH  58  59
ENDBRANCH  55  58
ENDBRANCH  53  54
ENDBRANCH  50  53
ENDBRANCH  47  50
ENDBRANCH   5  47
BRANCH   4  71
ATOM     71  N   UNL     1       5.314  27.367  25.693  1.00  0.00    -0.348 N 
ATOM     72  C   UNL     1       6.672  27.475  25.396  1.00  0.00     0.217 C 
ATOM     73  H   UNL     1       4.633  27.870  25.055  1.00  0.00     0.163 HD
ATOM     74  C   UNL     1       7.162  28.261  24.238  1.00  0.00     0.114 C 
ATOM     75  O   UNL     1       7.499  26.897  26.125  1.00  0.00    -0.275 OA
ENDBRANCH   4  71
TORSDOF 32
