REMARK VINA RESULT:    -5.739      4.827     13.345
REMARK INTER + INTRA:         -23.088
REMARK INTER:                 -16.197
REMARK INTRA:                  -6.891
REMARK UNBOUND:                -8.458
REMARK SMILES CC(=O)N[C@@H]1[C@@H](O)C[C@](OC[C@H]2O[C@@H](O[C@H]3[C@H](O)[C@@H](O)[C@H](OCCN=[N+]=[N-])O[C@@H]3CO)[C@H](O)[C@@H](O)[C@H]2O)(C(=O)O)O[C@H]1C(O)[C@H](O)CNC(=O)OCc1cn(-c2ccc(O)c([N+](=O)[O-])c2)nn1
REMARK SMILES IDX 9 1 8 2 6 3 5 4 42 5 41 6 10 7 11 8 12 9 14 10 13 11 32 12
REMARK SMILES IDX 34 13 36 14 15 15 16 16 29 17 28 18 21 19 17 20 19 21 30 22
REMARK SMILES IDX 31 23 22 25 23 26 24 27 25 28 26 29 27 30 18 31 20 33 33 35
REMARK SMILES IDX 35 37 37 39 38 41 39 42 40 43 7 45 43 47 44 48 45 50 46 51
REMARK SMILES IDX 47 53 48 54 49 55 50 57 51 58 52 59 53 60 54 61 67 62 55 63
REMARK SMILES IDX 66 64 56 65 57 66 65 67 58 68 61 69 59 70 62 71 63 72 64 73
REMARK SMILES IDX 60 74 4 76 2 77 1 79 3 80
REMARK H PARENT 31 24 18 32 20 34 33 36 35 38 37 40 40 44 7 46 44 49 46 52
REMARK H PARENT 48 56 60 75 4 78
REMARK Flexibility Score: inf
ROOT
ATOM      1  C   UNL     1      24.678  26.135  22.064  1.00  0.00     0.272 C 
ATOM      2  C   UNL     1      25.346  27.522  22.119  1.00  0.00     0.113 C 
ATOM      3  C   UNL     1      24.265  28.594  22.033  1.00  0.00     0.145 C 
ATOM      4  C   UNL     1      23.720  28.464  20.587  1.00  0.00     0.142 C 
ATOM      5  C   UNL     1      23.588  27.010  20.229  1.00  0.00     0.178 C 
ATOM      6  O   UNL     1      23.481  26.218  21.387  1.00  0.00    -0.332 OA
ENDROOT
BRANCH   1   7
ATOM      7  O   UNL     1      24.434  25.814  23.386  1.00  0.00    -0.338 OA
BRANCH   7   8
ATOM      8  C   UNL     1      24.148  24.511  23.662  1.00  0.00     0.199 C 
BRANCH   8   9
ATOM      9  C   UNL     1      22.928  24.548  24.615  1.00  0.00     0.179 C 
ATOM     10  C   UNL     1      21.957  26.070  25.988  1.00  0.00     0.282 C 
ATOM     11  O   UNL     1      23.155  25.609  25.438  1.00  0.00    -0.341 OA
ATOM     12  C   UNL     1      21.219  26.766  24.898  1.00  0.00     0.202 C 
ATOM     13  C   UNL     1      20.857  25.766  23.830  1.00  0.00     0.179 C 
ATOM     14  C   UNL     1      21.694  24.542  23.803  1.00  0.00     0.177 C 
BRANCH  10  15
ATOM     15  O   UNL     1      22.231  26.879  27.098  1.00  0.00    -0.341 OA
BRANCH  15  16
ATOM     16  C   UNL     1      23.584  26.812  27.366  1.00  0.00     0.184 C 
ATOM     17  C   UNL     1      23.944  26.417  28.757  1.00  0.00     0.178 C 
ATOM     18  O   UNL     1      25.299  26.111  28.764  1.00  0.00    -0.341 OA
ATOM     19  C   UNL     1      26.073  27.301  28.621  1.00  0.00     0.281 C 
ATOM     20  C   UNL     1      24.213  28.218  27.176  1.00  0.00     0.180 C 
ATOM     21  C   UNL     1      25.713  28.023  27.376  1.00  0.00     0.202 C 
BRANCH  17  22
ATOM     22  C   UNL     1      23.169  25.281  29.335  1.00  0.00     0.191 C 
BRANCH  22  23
ATOM     23  O   UNL     1      23.146  24.199  28.472  1.00  0.00    -0.394 OA
ATOM     24  H   UNL     1      23.193  23.363  29.036  1.00  0.00     0.210 HD
ENDBRANCH  22  23
ENDBRANCH  17  22
BRANCH  19  25
ATOM     25  O   UNL     1      27.377  26.825  28.549  1.00  0.00    -0.350 OA
BRANCH  25  26
ATOM     26  C   UNL     1      28.086  26.963  29.727  1.00  0.00     0.169 C 
BRANCH  26  27
ATOM     27  C   UNL     1      28.026  25.723  30.564  1.00  0.00     0.119 C 
BRANCH  27  28
ATOM     28  N   UNL     1      29.120  24.845  30.157  1.00  0.00    -0.092 NA
ATOM     29  N   UNL     1      30.295  25.275  30.194  1.00  0.00     0.001 N 
ATOM     30  N   UNL     1      31.480  25.360  30.562  1.00  0.00    -0.003 NA
ENDBRANCH  27  28
ENDBRANCH  26  27
ENDBRANCH  25  26
ENDBRANCH  19  25
BRANCH  20  31
ATOM     31  O   UNL     1      24.023  28.671  25.881  1.00  0.00    -0.387 OA
ATOM     32  H   UNL     1      24.733  28.349  25.261  1.00  0.00     0.211 HD
ENDBRANCH  20  31
BRANCH  21  33
ATOM     33  O   UNL     1      26.243  29.311  27.395  1.00  0.00    -0.385 OA
ATOM     34  H   UNL     1      26.265  29.707  26.503  1.00  0.00     0.211 HD
ENDBRANCH  21  33
ENDBRANCH  15  16
ENDBRANCH  10  15
BRANCH  12  35
ATOM     35  O   UNL     1      20.075  27.425  25.337  1.00  0.00    -0.385 OA
ATOM     36  H   UNL     1      19.261  27.084  24.868  1.00  0.00     0.211 HD
ENDBRANCH  12  35
BRANCH  13  37
ATOM     37  O   UNL     1      20.814  26.464  22.618  1.00  0.00    -0.387 OA
ATOM     38  H   UNL     1      21.527  26.078  22.040  1.00  0.00     0.211 HD
ENDBRANCH  13  37
BRANCH  14  39
ATOM     39  O   UNL     1      21.941  24.211  22.454  1.00  0.00    -0.387 OA
ATOM     40  H   UNL     1      21.459  23.407  22.170  1.00  0.00     0.211 HD
ENDBRANCH  14  39
ENDBRANCH   8   9
ENDBRANCH   7   8
ENDBRANCH   1   7
BRANCH   1  41
ATOM     41  C   UNL     1      25.683  25.233  21.512  1.00  0.00     0.364 C 
ATOM     42  O   UNL     1      26.916  25.252  21.767  1.00  0.00    -0.246 OA
BRANCH  41  43
ATOM     43  O   UNL     1      25.285  24.239  20.615  1.00  0.00    -0.477 OA
ATOM     44  H   UNL     1      24.652  24.418  19.843  1.00  0.00     0.296 HD
ENDBRANCH  41  43
ENDBRANCH   1  41
BRANCH   3  45
ATOM     45  O   UNL     1      23.265  28.377  22.944  1.00  0.00    -0.391 OA
ATOM     46  H   UNL     1      23.172  27.408  23.103  1.00  0.00     0.211 HD
ENDBRANCH   3  45
BRANCH   5  47
ATOM     47  C   UNL     1      22.310  26.799  19.455  1.00  0.00     0.176 C 
BRANCH  47  48
ATOM     48  O   UNL     1      21.602  25.775  20.063  1.00  0.00    -0.388 OA
ATOM     49  H   UNL     1      21.553  24.959  19.505  1.00  0.00     0.211 HD
ENDBRANCH  47  48
BRANCH  47  50
ATOM     50  C   UNL     1      21.431  28.020  19.367  1.00  0.00     0.165 C 
BRANCH  50  51
ATOM     51  O   UNL     1      20.156  27.568  19.802  1.00  0.00    -0.388 OA
ATOM     52  H   UNL     1      20.180  27.306  20.764  1.00  0.00     0.211 HD
ENDBRANCH  50  51
BRANCH  50  53
ATOM     53  C   UNL     1      21.244  28.475  17.947  1.00  0.00     0.154 C 
BRANCH  53  54
ATOM     54  N   UNL     1      19.919  29.002  17.762  1.00  0.00    -0.319 N 
ATOM     55  C   UNL     1      19.233  29.097  16.534  1.00  0.00     0.407 C 
ATOM     56  H   UNL     1      19.385  29.360  18.613  1.00  0.00     0.167 HD
ATOM     57  O   UNL     1      19.817  28.700  15.517  1.00  0.00    -0.225 OA
BRANCH  55  58
ATOM     58  O   UNL     1      17.961  29.598  16.384  1.00  0.00    -0.443 OA
BRANCH  58  59
ATOM     59  C   UNL     1      16.836  28.764  16.494  1.00  0.00     0.294 C 
BRANCH  59  60
ATOM     60  C   UNL     1      16.620  28.466  17.942  1.00  0.00     0.121 A 
ATOM     61  C   UNL     1      15.755  29.153  18.798  1.00  0.00     0.144 A 
ATOM     62  N   UNL     1      17.170  27.536  18.733  1.00  0.00    -0.131 NA
ATOM     63  N   UNL     1      15.833  28.615  20.010  1.00  0.00    -0.220 N 
ATOM     64  N   UNL     1      16.711  27.626  19.930  1.00  0.00    -0.062 NA
BRANCH  63  65
ATOM     65  C   UNL     1      15.111  29.028  21.183  1.00  0.00     0.073 A 
ATOM     66  C   UNL     1      13.750  29.020  21.209  1.00  0.00     0.033 A 
ATOM     67  C   UNL     1      15.760  29.442  22.315  1.00  0.00     0.118 A 
ATOM     68  C   UNL     1      13.016  29.403  22.307  1.00  0.00     0.056 A 
ATOM     69  C   UNL     1      15.035  29.841  23.456  1.00  0.00     0.312 A 
ATOM     70  C   UNL     1      13.666  29.832  23.486  1.00  0.00     0.194 A 
BRANCH  69  71
ATOM     71  N   UNL     1      15.781  30.246  24.576  1.00  0.00     0.066 N 
ATOM     72  O   UNL     1      17.028  30.428  24.409  1.00  0.00    -0.258 OA
ATOM     73  O   UNL     1      15.210  30.435  25.792  1.00  0.00    -0.258 OA
ENDBRANCH  69  71
BRANCH  70  74
ATOM     74  O   UNL     1      12.879  30.204  24.563  1.00  0.00    -0.502 OA
ATOM     75  H   UNL     1      13.239  30.457  25.426  1.00  0.00     0.293 HD
ENDBRANCH  70  74
ENDBRANCH  63  65
ENDBRANCH  59  60
ENDBRANCH  58  59
ENDBRANCH  55  58
ENDBRANCH  53  54
ENDBRANCH  50  53
ENDBRANCH  47  50
ENDBRANCH   5  47
BRANCH   4  76
ATOM     76  N   UNL     1      24.706  29.151  19.777  1.00  0.00    -0.348 N 
ATOM     77  C   UNL     1      24.470  30.476  19.283  1.00  0.00     0.217 C 
ATOM     78  H   UNL     1      25.607  28.702  19.532  1.00  0.00     0.163 HD
ATOM     79  C   UNL     1      25.493  31.160  18.456  1.00  0.00     0.114 C 
ATOM     80  O   UNL     1      23.373  31.042  19.573  1.00  0.00    -0.275 OA
ENDBRANCH   4  76
TORSDOF 32
