REMARK VINA RESULT:    -5.760     14.911     18.988
REMARK INTER + INTRA:         -20.616
REMARK INTER:                 -13.438
REMARK INTRA:                  -7.178
REMARK UNBOUND:                -5.091
REMARK SMILES C=CCCCCn1cc(COC(=O)NC[C@@H](O)C(O)[C@@H]2O[C@@](OC[C@H]3O[C@@H](O[C@H]4[C@H](O)[C@@H](O)[C@H](OCCN=[N+]=[N-])O[C@@H]4CO)[C@H](O)[C@@H](O)[C@H]3O)(C(=O)O)C[C@H](O)[C@H]2NC(C)=O)nn1
REMARK SMILES IDX 18 1 20 2 22 3 54 4 21 5 55 6 57 7 23 8 24 9 25 10 27 11
REMARK SMILES IDX 26 12 45 13 47 14 49 15 28 16 29 17 42 18 41 19 34 20 30 21
REMARK SMILES IDX 32 22 43 23 44 24 35 26 36 27 37 28 38 29 39 30 40 31 31 32
REMARK SMILES IDX 33 34 46 36 48 38 50 40 51 42 52 43 53 44 56 46 58 48 59 49
REMARK SMILES IDX 60 51 61 52 19 53 16 55 17 56 15 58 14 59 12 60 13 62 11 63
REMARK SMILES IDX 10 64 9 65 8 66 62 67 7 68 63 69 6 70 5 71 4 72 3 73 2 74
REMARK SMILES IDX 1 75
REMARK H PARENT 44 25 31 33 33 35 46 37 48 39 50 41 53 45 56 47 58 50 19 54
REMARK H PARENT 17 57 14 61
REMARK Flexibility Score: inf
ROOT
ATOM      1  C   UNL     1       4.589  26.370  32.151  1.00  0.00     0.176 C 
ENDROOT
BRANCH   1   2
ATOM      2  C   UNL     1       5.341  25.668  33.285  1.00  0.00     0.178 C 
ATOM      3  C   UNL     1       5.372  23.698  34.472  1.00  0.00     0.272 C 
ATOM      4  C   UNL     1       5.659  24.434  35.713  1.00  0.00     0.113 C 
ATOM      5  O   UNL     1       4.603  24.593  33.635  1.00  0.00    -0.332 OA
ATOM      6  C   UNL     1       6.351  25.717  35.551  1.00  0.00     0.145 C 
ATOM      7  C   UNL     1       5.982  26.491  34.296  1.00  0.00     0.142 C 
BRANCH   3   8
ATOM      8  O   UNL     1       4.443  22.679  34.622  1.00  0.00    -0.338 OA
BRANCH   8   9
ATOM      9  C   UNL     1       3.224  22.728  34.122  1.00  0.00     0.199 C 
BRANCH   9  10
ATOM     10  C   UNL     1       2.770  21.790  33.071  1.00  0.00     0.179 C 
ATOM     11  C   UNL     1       1.482  21.785  31.115  1.00  0.00     0.282 C 
ATOM     12  O   UNL     1       1.692  22.347  32.343  1.00  0.00    -0.341 OA
ATOM     13  C   UNL     1       2.121  20.465  30.926  1.00  0.00     0.202 C 
ATOM     14  C   UNL     1       3.592  20.429  31.246  1.00  0.00     0.179 C 
ATOM     15  C   UNL     1       3.921  21.626  32.085  1.00  0.00     0.177 C 
BRANCH  11  16
ATOM     16  O   UNL     1       1.697  22.751  30.168  1.00  0.00    -0.341 OA
BRANCH  16  17
ATOM     17  C   UNL     1       1.782  22.343  28.870  1.00  0.00     0.184 C 
ATOM     18  C   UNL     1       2.058  23.542  27.994  1.00  0.00     0.178 C 
ATOM     19  O   UNL     1       1.338  23.464  26.791  1.00  0.00    -0.341 OA
ATOM     20  C   UNL     1       0.022  23.812  27.079  1.00  0.00     0.281 C 
ATOM     21  C   UNL     1       0.434  21.771  28.373  1.00  0.00     0.180 C 
ATOM     22  C   UNL     1      -0.541  22.900  28.128  1.00  0.00     0.202 C 
BRANCH  18  23
ATOM     23  C   UNL     1       3.538  23.745  27.717  1.00  0.00     0.191 C 
BRANCH  23  24
ATOM     24  O   UNL     1       3.837  23.461  26.395  1.00  0.00    -0.394 OA
ATOM     25  H   UNL     1       3.058  23.020  25.980  1.00  0.00     0.210 HD
ENDBRANCH  23  24
ENDBRANCH  18  23
BRANCH  20  26
ATOM     26  O   UNL     1      -0.693  23.689  25.886  1.00  0.00    -0.350 OA
BRANCH  26  27
ATOM     27  C   UNL     1       0.059  23.964  24.759  1.00  0.00     0.169 C 
BRANCH  27  28
ATOM     28  C   UNL     1      -0.250  22.887  23.735  1.00  0.00     0.119 C 
BRANCH  28  29
ATOM     29  N   UNL     1      -0.345  23.423  22.403  1.00  0.00    -0.092 NA
ATOM     30  N   UNL     1       0.189  22.871  21.449  1.00  0.00     0.001 N 
ATOM     31  N   UNL     1       0.612  22.129  20.562  1.00  0.00    -0.003 NA
ENDBRANCH  28  29
ENDBRANCH  27  28
ENDBRANCH  26  27
ENDBRANCH  20  26
BRANCH  21  32
ATOM     32  O   UNL     1       0.706  21.182  27.140  1.00  0.00    -0.387 OA
ATOM     33  H   UNL     1       0.128  21.486  26.412  1.00  0.00     0.211 HD
ENDBRANCH  21  32
BRANCH  22  34
ATOM     34  O   UNL     1      -0.848  23.549  29.321  1.00  0.00    -0.385 OA
ATOM     35  H   UNL     1      -1.083  24.489  29.091  1.00  0.00     0.211 HD
ENDBRANCH  22  34
ENDBRANCH  16  17
ENDBRANCH  11  16
BRANCH  13  36
ATOM     36  O   UNL     1       1.477  19.556  31.777  1.00  0.00    -0.385 OA
ATOM     37  H   UNL     1       0.636  19.902  32.125  1.00  0.00     0.211 HD
ENDBRANCH  13  36
BRANCH  14  38
ATOM     38  O   UNL     1       4.382  20.378  30.096  1.00  0.00    -0.387 OA
ATOM     39  H   UNL     1       5.310  20.502  30.380  1.00  0.00     0.211 HD
ENDBRANCH  14  38
BRANCH  15  40
ATOM     40  O   UNL     1       4.080  22.785  31.316  1.00  0.00    -0.387 OA
ATOM     41  H   UNL     1       5.014  23.001  31.136  1.00  0.00     0.211 HD
ENDBRANCH  15  40
ENDBRANCH   9  10
ENDBRANCH   8   9
ENDBRANCH   3   8
BRANCH   3  42
ATOM     42  C   UNL     1       6.569  23.407  33.695  1.00  0.00     0.364 C 
ATOM     43  O   UNL     1       7.641  23.088  34.253  1.00  0.00    -0.246 OA
BRANCH  42  44
ATOM     44  O   UNL     1       6.592  23.476  32.333  1.00  0.00    -0.477 OA
ATOM     45  H   UNL     1       6.693  24.345  31.840  1.00  0.00     0.296 HD
ENDBRANCH  42  44
ENDBRANCH   3  42
BRANCH   6  46
ATOM     46  O   UNL     1       6.100  26.515  36.695  1.00  0.00    -0.391 OA
ATOM     47  H   UNL     1       6.918  26.648  37.236  1.00  0.00     0.211 HD
ENDBRANCH   6  46
BRANCH   7  48
ATOM     48  N   UNL     1       7.207  27.099  33.741  1.00  0.00    -0.348 N 
ATOM     49  C   UNL     1       7.692  28.365  34.142  1.00  0.00     0.217 C 
ATOM     50  H   UNL     1       7.784  26.609  33.004  1.00  0.00     0.163 HD
ATOM     51  C   UNL     1       8.947  28.939  33.529  1.00  0.00     0.114 C 
ATOM     52  O   UNL     1       7.059  29.007  35.019  1.00  0.00    -0.275 OA
ENDBRANCH   7  48
ENDBRANCH   1   2
BRANCH   1  53
ATOM     53  O   UNL     1       4.974  25.568  30.951  1.00  0.00    -0.388 OA
ATOM     54  H   UNL     1       5.976  25.690  30.990  1.00  0.00     0.211 HD
ENDBRANCH   1  53
BRANCH   1  55
ATOM     55  C   UNL     1       3.138  26.189  32.145  1.00  0.00     0.165 C 
BRANCH  55  56
ATOM     56  O   UNL     1       2.666  25.078  31.410  1.00  0.00    -0.388 OA
ATOM     57  H   UNL     1       3.225  25.056  30.595  1.00  0.00     0.211 HD
ENDBRANCH  55  56
BRANCH  55  58
ATOM     58  C   UNL     1       2.256  27.342  31.908  1.00  0.00     0.154 C 
BRANCH  58  59
ATOM     59  N   UNL     1       2.169  27.796  30.574  1.00  0.00    -0.319 N 
ATOM     60  C   UNL     1       1.425  27.338  29.481  1.00  0.00     0.407 C 
ATOM     61  H   UNL     1       2.791  28.661  30.347  1.00  0.00     0.167 HD
ATOM     62  O   UNL     1       0.671  26.357  29.581  1.00  0.00    -0.225 OA
BRANCH  60  63
ATOM     63  O   UNL     1       1.498  27.970  28.232  1.00  0.00    -0.443 OA
BRANCH  63  64
ATOM     64  C   UNL     1       1.277  27.176  27.066  1.00  0.00     0.294 C 
BRANCH  64  65
ATOM     65  C   UNL     1       2.558  26.913  26.360  1.00  0.00     0.120 A 
ATOM     66  C   UNL     1       3.802  27.384  26.775  1.00  0.00     0.138 A 
ATOM     67  N   UNL     1       2.787  26.214  25.238  1.00  0.00    -0.132 NA
ATOM     68  N   UNL     1       4.709  26.950  25.894  1.00  0.00    -0.252 N 
ATOM     69  N   UNL     1       4.097  26.250  24.974  1.00  0.00    -0.067 NA
BRANCH  68  70
ATOM     70  C   UNL     1       6.145  27.245  25.996  1.00  0.00     0.146 C 
BRANCH  70  71
ATOM     71  C   UNL     1       6.318  28.626  26.568  1.00  0.00     0.024 C 
BRANCH  71  72
ATOM     72  C   UNL     1       6.177  29.629  25.444  1.00  0.00     0.006 C 
BRANCH  72  73
ATOM     73  C   UNL     1       7.056  29.224  24.282  1.00  0.00     0.027 C 
BRANCH  73  74
ATOM     74  C   UNL     1       6.294  29.196  23.014  1.00  0.00    -0.035 C 
ATOM     75  C   UNL     1       5.972  30.319  22.403  1.00  0.00     0.004 C 
ENDBRANCH  73  74
ENDBRANCH  72  73
ENDBRANCH  71  72
ENDBRANCH  70  71
ENDBRANCH  68  70
ENDBRANCH  64  65
ENDBRANCH  63  64
ENDBRANCH  60  63
ENDBRANCH  58  59
ENDBRANCH  55  58
ENDBRANCH   1  55
TORSDOF 34
