REMARK VINA RESULT:    -6.300     10.339     14.455
REMARK INTER + INTRA:         -20.524
REMARK INTER:                 -13.765
REMARK INTRA:                  -6.760
REMARK UNBOUND:                -5.017
REMARK SMILES CC(=O)N[C@@H]1[C@@H](O)C[C@](OC[C@H]2O[C@@H](O[C@H]3[C@H](O)[C@@H](O)[C@H](OCCN=[N+]=[N-])O[C@@H]3CO)[C@H](O)[C@@H](O)[C@H]2O)(C(=O)O)O[C@H]1C(O)[C@H](O)CNC(=O)OCc1cn(C2CCCCC2)nn1
REMARK SMILES IDX 9 1 8 2 6 3 5 4 42 5 41 6 10 7 11 8 12 9 14 10 13 11 32 12
REMARK SMILES IDX 34 13 36 14 15 15 16 16 29 17 28 18 21 19 17 20 19 21 30 22
REMARK SMILES IDX 31 23 22 25 23 26 24 27 25 28 26 29 27 30 18 31 20 33 33 35
REMARK SMILES IDX 35 37 37 39 38 41 39 42 40 43 7 45 43 47 44 48 45 50 46 51
REMARK SMILES IDX 47 53 48 54 49 55 50 57 51 58 52 59 53 60 54 61 63 62 55 63
REMARK SMILES IDX 62 64 56 65 57 66 61 67 58 68 60 69 59 70 4 71 2 72 1 74
REMARK SMILES IDX 3 75
REMARK H PARENT 31 24 18 32 20 34 33 36 35 38 37 40 40 44 7 46 44 49 46 52
REMARK H PARENT 48 56 4 73
REMARK Flexibility Score: inf
ROOT
ATOM      1  C   UNL     1      20.210  18.944  10.871  1.00  0.00     0.272 C 
ATOM      2  C   UNL     1      20.152  20.426  10.342  1.00  0.00     0.113 C 
ATOM      3  C   UNL     1      21.526  21.019  10.383  1.00  0.00     0.145 C 
ATOM      4  C   UNL     1      22.113  20.932  11.767  1.00  0.00     0.142 C 
ATOM      5  C   UNL     1      21.777  19.668  12.479  1.00  0.00     0.178 C 
ATOM      6  O   UNL     1      20.793  18.889  12.080  1.00  0.00    -0.332 OA
ENDROOT
BRANCH   1   7
ATOM      7  O   UNL     1      20.884  18.314   9.920  1.00  0.00    -0.338 OA
BRANCH   7   8
ATOM      8  C   UNL     1      21.024  17.083   9.559  1.00  0.00     0.199 C 
BRANCH   8   9
ATOM      9  C   UNL     1      20.804  16.617   8.129  1.00  0.00     0.179 C 
ATOM     10  C   UNL     1      20.374  18.090   6.356  1.00  0.00     0.282 C 
ATOM     11  O   UNL     1      19.906  17.382   7.457  1.00  0.00    -0.341 OA
ATOM     12  C   UNL     1      21.052  17.162   5.420  1.00  0.00     0.202 C 
ATOM     13  C   UNL     1      22.085  16.278   6.075  1.00  0.00     0.179 C 
ATOM     14  C   UNL     1      22.199  16.619   7.512  1.00  0.00     0.177 C 
BRANCH  10  15
ATOM     15  O   UNL     1      21.032  19.171   6.815  1.00  0.00    -0.341 OA
BRANCH  15  16
ATOM     16  C   UNL     1      20.874  20.378   6.215  1.00  0.00     0.184 C 
ATOM     17  C   UNL     1      22.230  21.047   6.150  1.00  0.00     0.178 C 
ATOM     18  O   UNL     1      22.238  22.145   5.311  1.00  0.00    -0.341 OA
ATOM     19  C   UNL     1      21.021  22.756   5.161  1.00  0.00     0.281 C 
ATOM     20  C   UNL     1      20.000  21.341   6.990  1.00  0.00     0.180 C 
ATOM     21  C   UNL     1      20.211  22.718   6.405  1.00  0.00     0.202 C 
BRANCH  17  22
ATOM     22  C   UNL     1      23.360  20.095   5.881  1.00  0.00     0.191 C 
BRANCH  22  23
ATOM     23  O   UNL     1      24.143  20.035   7.034  1.00  0.00    -0.394 OA
ATOM     24  H   UNL     1      23.633  20.271   7.844  1.00  0.00     0.210 HD
ENDBRANCH  22  23
ENDBRANCH  17  22
BRANCH  19  25
ATOM     25  O   UNL     1      20.415  22.298   4.021  1.00  0.00    -0.350 OA
BRANCH  25  26
ATOM     26  C   UNL     1      19.148  22.813   3.798  1.00  0.00     0.169 C 
BRANCH  26  27
ATOM     27  C   UNL     1      18.143  21.786   3.351  1.00  0.00     0.119 C 
BRANCH  27  28
ATOM     28  N   UNL     1      16.820  22.269   3.690  1.00  0.00    -0.092 NA
ATOM     29  N   UNL     1      16.695  22.773   4.815  1.00  0.00     0.001 N 
ATOM     30  N   UNL     1      16.317  22.790   6.000  1.00  0.00    -0.003 NA
ENDBRANCH  27  28
ENDBRANCH  26  27
ENDBRANCH  25  26
ENDBRANCH  19  25
BRANCH  20  31
ATOM     31  O   UNL     1      18.660  21.045   6.931  1.00  0.00    -0.387 OA
ATOM     32  H   UNL     1      18.116  21.769   6.534  1.00  0.00     0.211 HD
ENDBRANCH  20  31
BRANCH  21  33
ATOM     33  O   UNL     1      20.929  23.449   7.383  1.00  0.00    -0.385 OA
ATOM     34  H   UNL     1      20.669  24.402   7.362  1.00  0.00     0.211 HD
ENDBRANCH  21  33
ENDBRANCH  15  16
ENDBRANCH  10  15
BRANCH  12  35
ATOM     35  O   UNL     1      20.044  16.287   4.938  1.00  0.00    -0.385 OA
ATOM     36  H   UNL     1      19.945  15.499   5.515  1.00  0.00     0.211 HD
ENDBRANCH  12  35
BRANCH  13  37
ATOM     37  O   UNL     1      23.339  16.416   5.448  1.00  0.00    -0.387 OA
ATOM     38  H   UNL     1      23.490  15.639   4.885  1.00  0.00     0.211 HD
ENDBRANCH  13  37
BRANCH  14  39
ATOM     39  O   UNL     1      22.942  17.721   7.833  1.00  0.00    -0.387 OA
ATOM     40  H   UNL     1      22.435  18.255   8.490  1.00  0.00     0.211 HD
ENDBRANCH  14  39
ENDBRANCH   8   9
ENDBRANCH   7   8
ENDBRANCH   1   7
BRANCH   1  41
ATOM     41  C   UNL     1      18.755  18.611  11.060  1.00  0.00     0.364 C 
ATOM     42  O   UNL     1      18.153  18.690  12.124  1.00  0.00    -0.246 OA
BRANCH  41  43
ATOM     43  O   UNL     1      17.996  18.174   9.955  1.00  0.00    -0.477 OA
ATOM     44  H   UNL     1      17.142  18.646   9.707  1.00  0.00     0.296 HD
ENDBRANCH  41  43
ENDBRANCH   1  41
BRANCH   3  45
ATOM     45  O   UNL     1      22.357  20.454   9.424  1.00  0.00    -0.391 OA
ATOM     46  H   UNL     1      21.940  20.620   8.530  1.00  0.00     0.211 HD
ENDBRANCH   3  45
BRANCH   5  47
ATOM     47  C   UNL     1      23.049  18.771  12.588  1.00  0.00     0.176 C 
BRANCH  47  48
ATOM     48  O   UNL     1      22.659  17.427  12.430  1.00  0.00    -0.388 OA
ATOM     49  H   UNL     1      23.274  16.939  11.847  1.00  0.00     0.211 HD
ENDBRANCH  47  48
BRANCH  47  50
ATOM     50  C   UNL     1      24.094  19.172  11.605  1.00  0.00     0.165 C 
BRANCH  50  51
ATOM     51  O   UNL     1      24.007  18.256  10.531  1.00  0.00    -0.388 OA
ATOM     52  H   UNL     1      23.617  17.405  10.813  1.00  0.00     0.211 HD
ENDBRANCH  50  51
BRANCH  50  53
ATOM     53  C   UNL     1      25.502  19.146  12.070  1.00  0.00     0.154 C 
BRANCH  53  54
ATOM     54  N   UNL     1      25.751  19.753  13.351  1.00  0.00    -0.319 N 
ATOM     55  C   UNL     1      26.896  19.463  14.141  1.00  0.00     0.407 C 
ATOM     56  H   UNL     1      25.072  20.440  13.722  1.00  0.00     0.167 HD
ATOM     57  O   UNL     1      27.751  18.640  13.730  1.00  0.00    -0.225 OA
BRANCH  55  58
ATOM     58  O   UNL     1      27.107  20.053  15.356  1.00  0.00    -0.443 OA
BRANCH  58  59
ATOM     59  C   UNL     1      26.882  21.402  15.689  1.00  0.00     0.294 C 
BRANCH  59  60
ATOM     60  C   UNL     1      27.390  21.649  17.055  1.00  0.00     0.120 A 
ATOM     61  C   UNL     1      28.144  20.741  17.743  1.00  0.00     0.138 A 
ATOM     62  N   UNL     1      27.233  22.714  17.849  1.00  0.00    -0.132 NA
ATOM     63  N   UNL     1      28.441  21.266  18.954  1.00  0.00    -0.249 N 
ATOM     64  N   UNL     1      27.872  22.469  18.990  1.00  0.00    -0.067 NA
BRANCH  63  65
ATOM     65  C   UNL     1      29.221  20.626  19.994  1.00  0.00     0.109 C 
ATOM     66  C   UNL     1      29.392  19.177  19.549  1.00  0.00     0.027 C 
ATOM     67  C   UNL     1      28.463  20.636  21.303  1.00  0.00     0.027 C 
ATOM     68  C   UNL     1      30.288  18.452  20.555  1.00  0.00     0.002 C 
ATOM     69  C   UNL     1      28.362  19.258  21.926  1.00  0.00     0.002 C 
ATOM     70  C   UNL     1      29.698  18.580  21.923  1.00  0.00     0.000 C 
ENDBRANCH  63  65
ENDBRANCH  59  60
ENDBRANCH  58  59
ENDBRANCH  55  58
ENDBRANCH  53  54
ENDBRANCH  50  53
ENDBRANCH  47  50
ENDBRANCH   5  47
BRANCH   4  71
ATOM     71  N   UNL     1      21.858  22.123  12.534  1.00  0.00    -0.348 N 
ATOM     72  C   UNL     1      22.735  22.660  13.491  1.00  0.00     0.217 C 
ATOM     73  H   UNL     1      20.952  22.679  12.406  1.00  0.00     0.163 HD
ATOM     74  C   UNL     1      22.411  23.918  14.247  1.00  0.00     0.114 C 
ATOM     75  O   UNL     1      23.811  22.123  13.754  1.00  0.00    -0.275 OA
ENDBRANCH   4  71
TORSDOF 30
