REMARK VINA RESULT:    -5.529      4.512     11.422
REMARK INTER + INTRA:         -20.709
REMARK INTER:                 -13.629
REMARK INTRA:                  -7.080
REMARK UNBOUND:                -6.131
REMARK SMILES COCC(C(N)=O)n1cc(COC(=O)NC[C@@H](O)C(O)[C@@H]2O[C@@](OC[C@H]3O[C@@H](O[C@H]4[C@H](O)[C@@H](O)[C@H](OCCN=[N+]=[N-])O[C@@H]4CO)[C@H](O)[C@@H](O)[C@H]3O)(C(=O)O)C[C@H](O)[C@H]2NC(C)=O)nn1
REMARK SMILES IDX 23 1 55 2 56 3 58 4 21 5 22 6 24 7 25 8 26 9 28 10 27 11
REMARK SMILES IDX 46 12 48 13 50 14 29 15 30 16 43 17 42 18 35 19 31 20 33 21
REMARK SMILES IDX 44 22 45 23 36 25 37 26 38 27 39 28 40 29 41 30 32 31 34 33
REMARK SMILES IDX 47 35 49 37 51 39 52 41 53 42 54 43 57 45 19 47 20 48 17 50
REMARK SMILES IDX 18 51 16 53 15 54 13 55 14 57 12 58 11 59 10 60 9 61 63 62
REMARK SMILES IDX 8 63 64 64 4 65 3 66 2 67 1 68 5 69 7 70 6 71 59 74 60 75
REMARK SMILES IDX 61 77 62 78
REMARK H PARENT 45 24 32 32 34 34 47 36 49 38 51 40 54 44 57 46 20 49 18 52
REMARK H PARENT 15 56 6 72 6 73 59 76
REMARK Flexibility Score: inf
ROOT
ATOM      1  C   UNL     1      20.422  29.332  23.076  1.00  0.00     0.272 C 
ATOM      2  C   UNL     1      21.390  30.400  22.740  1.00  0.00     0.113 C 
ATOM      3  C   UNL     1      21.312  30.983  21.377  1.00  0.00     0.145 C 
ATOM      4  C   UNL     1      20.994  29.909  20.371  1.00  0.00     0.142 C 
ATOM      5  C   UNL     1      21.279  28.573  21.040  1.00  0.00     0.178 C 
ATOM      6  O   UNL     1      20.387  28.376  22.061  1.00  0.00    -0.332 OA
ENDROOT
BRANCH   1   7
ATOM      7  O   UNL     1      19.131  29.707  23.326  1.00  0.00    -0.338 OA
BRANCH   7   8
ATOM      8  C   UNL     1      18.848  30.266  24.528  1.00  0.00     0.199 C 
BRANCH   8   9
ATOM      9  C   UNL     1      18.301  31.694  24.397  1.00  0.00     0.179 C 
ATOM     10  C   UNL     1      16.528  31.626  22.898  1.00  0.00     0.282 C 
ATOM     11  O   UNL     1      17.856  31.953  23.132  1.00  0.00    -0.341 OA
ATOM     12  C   UNL     1      15.591  32.229  23.887  1.00  0.00     0.202 C 
ATOM     13  C   UNL     1      15.941  31.870  25.293  1.00  0.00     0.179 C 
ATOM     14  C   UNL     1      17.397  32.077  25.514  1.00  0.00     0.177 C 
BRANCH  10  15
ATOM     15  O   UNL     1      16.330  30.263  22.772  1.00  0.00    -0.341 OA
BRANCH  15  16
ATOM     16  C   UNL     1      15.873  29.944  21.495  1.00  0.00     0.184 C 
ATOM     17  C   UNL     1      14.752  28.977  21.445  1.00  0.00     0.178 C 
ATOM     18  O   UNL     1      14.240  28.850  20.178  1.00  0.00    -0.341 OA
ATOM     19  C   UNL     1      15.174  29.022  19.154  1.00  0.00     0.281 C 
ATOM     20  C   UNL     1      17.066  29.278  20.786  1.00  0.00     0.180 C 
ATOM     21  C   UNL     1      16.551  28.549  19.592  1.00  0.00     0.202 C 
BRANCH  17  22
ATOM     22  C   UNL     1      13.585  29.310  22.355  1.00  0.00     0.191 C 
BRANCH  22  23
ATOM     23  O   UNL     1      13.921  29.031  23.678  1.00  0.00    -0.394 OA
ATOM     24  H   UNL     1      14.892  28.914  23.798  1.00  0.00     0.210 HD
ENDBRANCH  22  23
ENDBRANCH  17  22
BRANCH  19  25
ATOM     25  O   UNL     1      15.154  30.303  18.729  1.00  0.00    -0.350 OA
BRANCH  25  26
ATOM     26  C   UNL     1      15.740  30.656  17.562  1.00  0.00     0.169 C 
BRANCH  26  27
ATOM     27  C   UNL     1      15.847  32.105  17.239  1.00  0.00     0.119 C 
BRANCH  27  28
ATOM     28  N   UNL     1      17.138  32.652  17.512  1.00  0.00    -0.092 NA
ATOM     29  N   UNL     1      17.404  33.075  18.634  1.00  0.00     0.001 N 
ATOM     30  N   UNL     1      17.889  33.067  19.777  1.00  0.00    -0.003 NA
ENDBRANCH  27  28
ENDBRANCH  26  27
ENDBRANCH  25  26
ENDBRANCH  19  25
BRANCH  20  31
ATOM     31  O   UNL     1      17.999  30.251  20.432  1.00  0.00    -0.387 OA
ATOM     32  H   UNL     1      18.649  29.806  19.841  1.00  0.00     0.211 HD
ENDBRANCH  20  31
BRANCH  21  33
ATOM     33  O   UNL     1      16.426  27.169  19.861  1.00  0.00    -0.385 OA
ATOM     34  H   UNL     1      15.543  26.850  19.515  1.00  0.00     0.211 HD
ENDBRANCH  21  33
ENDBRANCH  15  16
ENDBRANCH  10  15
BRANCH  12  35
ATOM     35  O   UNL     1      15.728  33.626  23.780  1.00  0.00    -0.385 OA
ATOM     36  H   UNL     1      15.233  33.967  23.006  1.00  0.00     0.211 HD
ENDBRANCH  12  35
BRANCH  13  37
ATOM     37  O   UNL     1      15.480  30.606  25.659  1.00  0.00    -0.387 OA
ATOM     38  H   UNL     1      14.560  30.736  26.016  1.00  0.00     0.211 HD
ENDBRANCH  13  37
BRANCH  14  39
ATOM     39  O   UNL     1      17.823  31.429  26.675  1.00  0.00    -0.387 OA
ATOM     40  H   UNL     1      17.090  31.391  27.345  1.00  0.00     0.211 HD
ENDBRANCH  14  39
ENDBRANCH   8   9
ENDBRANCH   7   8
ENDBRANCH   1   7
BRANCH   1  41
ATOM     41  C   UNL     1      20.982  28.589  24.262  1.00  0.00     0.364 C 
ATOM     42  O   UNL     1      22.088  28.886  24.754  1.00  0.00    -0.246 OA
BRANCH  41  43
ATOM     43  O   UNL     1      20.246  27.565  24.798  1.00  0.00    -0.477 OA
ATOM     44  H   UNL     1      19.593  27.018  24.259  1.00  0.00     0.296 HD
ENDBRANCH  41  43
ENDBRANCH   1  41
BRANCH   3  45
ATOM     45  O   UNL     1      20.454  32.073  21.273  1.00  0.00    -0.391 OA
ATOM     46  H   UNL     1      20.354  32.510  22.156  1.00  0.00     0.211 HD
ENDBRANCH   3  45
BRANCH   5  47
ATOM     47  C   UNL     1      21.141  27.456  20.024  1.00  0.00     0.176 C 
BRANCH  47  48
ATOM     48  O   UNL     1      20.404  27.806  18.934  1.00  0.00    -0.388 OA
ATOM     49  H   UNL     1      19.470  28.019  19.057  1.00  0.00     0.211 HD
ENDBRANCH  47  48
BRANCH  47  50
ATOM     50  C   UNL     1      22.500  26.965  19.606  1.00  0.00     0.165 C 
BRANCH  50  51
ATOM     51  O   UNL     1      22.602  27.219  18.216  1.00  0.00    -0.388 OA
ATOM     52  H   UNL     1      21.790  26.863  17.761  1.00  0.00     0.211 HD
ENDBRANCH  50  51
BRANCH  50  53
ATOM     53  C   UNL     1      22.712  25.498  19.776  1.00  0.00     0.154 C 
BRANCH  53  54
ATOM     54  N   UNL     1      23.143  25.074  21.067  1.00  0.00    -0.319 N 
ATOM     55  C   UNL     1      22.242  24.701  22.100  1.00  0.00     0.407 C 
ATOM     56  H   UNL     1      24.171  25.024  21.303  1.00  0.00     0.167 HD
ATOM     57  O   UNL     1      21.021  24.744  21.884  1.00  0.00    -0.225 OA
BRANCH  55  58
ATOM     58  O   UNL     1      22.691  24.286  23.359  1.00  0.00    -0.443 OA
BRANCH  58  59
ATOM     59  C   UNL     1      22.031  24.621  24.542  1.00  0.00     0.294 C 
BRANCH  59  60
ATOM     60  C   UNL     1      22.910  24.980  25.662  1.00  0.00     0.120 A 
ATOM     61  C   UNL     1      22.595  25.904  26.628  1.00  0.00     0.139 A 
ATOM     62  N   UNL     1      24.123  24.475  25.912  1.00  0.00    -0.132 NA
ATOM     63  N   UNL     1      23.642  25.940  27.455  1.00  0.00    -0.237 N 
ATOM     64  N   UNL     1      24.555  25.072  27.011  1.00  0.00    -0.066 NA
BRANCH  63  65
ATOM     65  C   UNL     1      23.752  26.782  28.631  1.00  0.00     0.223 C 
BRANCH  65  66
ATOM     66  C   UNL     1      22.395  27.309  28.967  1.00  0.00     0.197 C 
BRANCH  66  67
ATOM     67  O   UNL     1      21.738  26.504  29.863  1.00  0.00    -0.382 OA
ATOM     68  C   UNL     1      20.473  26.963  30.121  1.00  0.00     0.195 C 
ENDBRANCH  66  67
ENDBRANCH  65  66
BRANCH  65  69
ATOM     69  C   UNL     1      24.268  25.904  29.734  1.00  0.00     0.244 C 
ATOM     70  O   UNL     1      25.113  26.370  30.525  1.00  0.00    -0.273 OA
ATOM     71  N   UNL     1      23.781  24.577  29.842  1.00  0.00    -0.368 N 
ATOM     72  H   UNL     1      24.325  23.735  29.592  1.00  0.00     0.159 HD
ATOM     73  H   UNL     1      22.808  24.449  30.195  1.00  0.00     0.159 HD
ENDBRANCH  65  69
ENDBRANCH  63  65
ENDBRANCH  59  60
ENDBRANCH  58  59
ENDBRANCH  55  58
ENDBRANCH  53  54
ENDBRANCH  50  53
ENDBRANCH  47  50
ENDBRANCH   5  47
BRANCH   4  74
ATOM     74  N   UNL     1      21.776  30.081  19.150  1.00  0.00    -0.348 N 
ATOM     75  C   UNL     1      21.222  30.534  17.922  1.00  0.00     0.217 C 
ATOM     76  H   UNL     1      22.805  29.871  19.144  1.00  0.00     0.163 HD
ATOM     77  C   UNL     1      21.990  30.717  16.680  1.00  0.00     0.114 C 
ATOM     78  O   UNL     1      19.972  30.799  17.914  1.00  0.00    -0.275 OA
ENDBRANCH   4  74
TORSDOF 33
