REMARK VINA RESULT:    -5.235     12.196     17.027
REMARK INTER + INTRA:         -21.804
REMARK INTER:                 -13.346
REMARK INTRA:                  -8.458
REMARK UNBOUND:                -8.458
REMARK SMILES CC(=O)N[C@@H]1[C@@H](O)C[C@](OC[C@H]2O[C@@H](O[C@H]3[C@H](O)[C@@H](O)[C@H](OCCN=[N+]=[N-])O[C@@H]3CO)[C@H](O)[C@@H](O)[C@H]2O)(C(=O)O)O[C@H]1C(O)[C@H](O)CNC(=O)OCc1cn(-c2ccc(O)c([N+](=O)[O-])c2)nn1
REMARK SMILES IDX 9 1 8 2 6 3 5 4 42 5 41 6 10 7 11 8 12 9 14 10 13 11 32 12
REMARK SMILES IDX 34 13 36 14 15 15 16 16 29 17 28 18 21 19 17 20 19 21 30 22
REMARK SMILES IDX 31 23 22 25 23 26 24 27 25 28 26 29 27 30 18 31 20 33 33 35
REMARK SMILES IDX 35 37 37 39 38 41 39 42 40 43 7 45 43 47 44 48 45 50 46 51
REMARK SMILES IDX 47 53 48 54 49 55 50 57 51 58 52 59 53 60 54 61 67 62 55 63
REMARK SMILES IDX 66 64 56 65 57 66 65 67 58 68 61 69 59 70 62 71 63 72 64 73
REMARK SMILES IDX 60 74 4 76 2 77 1 79 3 80
REMARK H PARENT 31 24 18 32 20 34 33 36 35 38 37 40 40 44 7 46 44 49 46 52
REMARK H PARENT 48 56 60 75 4 78
REMARK Flexibility Score: inf
ROOT
ATOM      1  C   UNL     1      28.044  23.009  21.449  1.00  0.00     0.272 C 
ATOM      2  C   UNL     1      29.270  23.926  21.275  1.00  0.00     0.113 C 
ATOM      3  C   UNL     1      29.120  24.706  19.973  1.00  0.00     0.145 C 
ATOM      4  C   UNL     1      29.262  23.627  18.868  1.00  0.00     0.142 C 
ATOM      5  C   UNL     1      28.513  22.390  19.277  1.00  0.00     0.178 C 
ATOM      6  O   UNL     1      27.512  22.698  20.216  1.00  0.00    -0.332 OA
ENDROOT
BRANCH   1   7
ATOM      7  O   UNL     1      27.136  23.773  22.159  1.00  0.00    -0.338 OA
BRANCH   7   8
ATOM      8  C   UNL     1      25.816  23.566  21.893  1.00  0.00     0.199 C 
BRANCH   8   9
ATOM      9  C   UNL     1      25.180  24.977  21.834  1.00  0.00     0.179 C 
ATOM     10  C   UNL     1      23.470  25.965  20.720  1.00  0.00     0.282 C 
ATOM     11  O   UNL     1      24.475  24.997  20.669  1.00  0.00    -0.341 OA
ATOM     12  C   UNL     1      22.413  25.447  21.631  1.00  0.00     0.202 C 
ATOM     13  C   UNL     1      22.977  25.326  23.023  1.00  0.00     0.179 C 
ATOM     14  C   UNL     1      24.455  25.222  23.097  1.00  0.00     0.177 C 
BRANCH  10  15
ATOM     15  O   UNL     1      23.018  26.242  19.422  1.00  0.00    -0.341 OA
BRANCH  15  16
ATOM     16  C   UNL     1      23.836  25.584  18.525  1.00  0.00     0.184 C 
ATOM     17  C   UNL     1      24.553  26.455  17.552  1.00  0.00     0.178 C 
ATOM     18  O   UNL     1      25.534  25.680  16.946  1.00  0.00    -0.341 OA
ATOM     19  C   UNL     1      24.937  24.735  16.060  1.00  0.00     0.281 C 
ATOM     20  C   UNL     1      22.974  24.635  17.650  1.00  0.00     0.180 C 
ATOM     21  C   UNL     1      23.967  23.871  16.778  1.00  0.00     0.202 C 
BRANCH  17  22
ATOM     22  C   UNL     1      25.167  27.694  18.113  1.00  0.00     0.191 C 
BRANCH  22  23
ATOM     23  O   UNL     1      25.964  27.407  19.207  1.00  0.00    -0.394 OA
ATOM     24  H   UNL     1      26.621  26.695  18.923  1.00  0.00     0.210 HD
ENDBRANCH  22  23
ENDBRANCH  17  22
BRANCH  19  25
ATOM     25  O   UNL     1      26.021  23.987  15.616  1.00  0.00    -0.350 OA
BRANCH  25  26
ATOM     26  C   UNL     1      26.043  23.796  14.248  1.00  0.00     0.169 C 
BRANCH  26  27
ATOM     27  C   UNL     1      26.748  22.530  13.872  1.00  0.00     0.119 C 
BRANCH  27  28
ATOM     28  N   UNL     1      26.295  21.472  14.772  1.00  0.00    -0.092 NA
ATOM     29  N   UNL     1      26.475  20.276  14.448  1.00  0.00     0.001 N 
ATOM     30  N   UNL     1      26.933  19.121  14.513  1.00  0.00    -0.003 NA
ENDBRANCH  27  28
ENDBRANCH  26  27
ENDBRANCH  25  26
ENDBRANCH  19  25
BRANCH  20  31
ATOM     31  O   UNL     1      22.313  23.706  18.436  1.00  0.00    -0.387 OA
ATOM     32  H   UNL     1      22.923  22.993  18.771  1.00  0.00     0.211 HD
ENDBRANCH  20  31
BRANCH  21  33
ATOM     33  O   UNL     1      23.181  23.169  15.868  1.00  0.00    -0.385 OA
ATOM     34  H   UNL     1      23.703  22.511  15.370  1.00  0.00     0.211 HD
ENDBRANCH  21  33
ENDBRANCH  15  16
ENDBRANCH  10  15
BRANCH  12  35
ATOM     35  O   UNL     1      21.265  26.233  21.652  1.00  0.00    -0.385 OA
ATOM     36  H   UNL     1      21.307  26.910  22.387  1.00  0.00     0.211 HD
ENDBRANCH  12  35
BRANCH  13  37
ATOM     37  O   UNL     1      22.292  24.278  23.650  1.00  0.00    -0.387 OA
ATOM     38  H   UNL     1      22.795  23.444  23.445  1.00  0.00     0.211 HD
ENDBRANCH  13  37
BRANCH  14  39
ATOM     39  O   UNL     1      24.778  24.274  24.093  1.00  0.00    -0.387 OA
ATOM     40  H   UNL     1      25.248  23.494  23.731  1.00  0.00     0.211 HD
ENDBRANCH  14  39
ENDBRANCH   8   9
ENDBRANCH   7   8
ENDBRANCH   1   7
BRANCH   1  41
ATOM     41  C   UNL     1      28.499  21.891  22.267  1.00  0.00     0.364 C 
ATOM     42  O   UNL     1      29.436  21.921  23.109  1.00  0.00    -0.246 OA
BRANCH  41  43
ATOM     43  O   UNL     1      27.865  20.653  22.141  1.00  0.00    -0.477 OA
ATOM     44  H   UNL     1      27.956  20.072  21.315  1.00  0.00     0.296 HD
ENDBRANCH  41  43
ENDBRANCH   1  41
BRANCH   3  45
ATOM     45  O   UNL     1      27.899  25.321  19.888  1.00  0.00    -0.391 OA
ATOM     46  H   UNL     1      27.499  25.134  19.006  1.00  0.00     0.211 HD
ENDBRANCH   3  45
BRANCH   5  47
ATOM     47  C   UNL     1      27.801  21.816  18.076  1.00  0.00     0.176 C 
BRANCH  47  48
ATOM     48  O   UNL     1      28.157  22.566  16.966  1.00  0.00    -0.388 OA
ATOM     49  H   UNL     1      27.374  22.873  16.445  1.00  0.00     0.211 HD
ENDBRANCH  47  48
BRANCH  47  50
ATOM     50  C   UNL     1      28.109  20.365  17.809  1.00  0.00     0.165 C 
BRANCH  50  51
ATOM     51  O   UNL     1      28.339  19.811  19.097  1.00  0.00    -0.388 OA
ATOM     52  H   UNL     1      29.049  20.318  19.581  1.00  0.00     0.211 HD
ENDBRANCH  50  51
BRANCH  50  53
ATOM     53  C   UNL     1      29.395  20.195  17.051  1.00  0.00     0.154 C 
BRANCH  53  54
ATOM     54  N   UNL     1      30.377  19.541  17.875  1.00  0.00    -0.319 N 
ATOM     55  C   UNL     1      31.748  19.405  17.573  1.00  0.00     0.407 C 
ATOM     56  H   UNL     1      30.068  19.114  18.802  1.00  0.00     0.167 HD
ATOM     57  O   UNL     1      32.151  19.881  16.503  1.00  0.00    -0.225 OA
BRANCH  55  58
ATOM     58  O   UNL     1      32.669  18.782  18.382  1.00  0.00    -0.443 OA
BRANCH  58  59
ATOM     59  C   UNL     1      32.333  17.628  19.109  1.00  0.00     0.294 C 
BRANCH  59  60
ATOM     60  C   UNL     1      31.737  18.058  20.410  1.00  0.00     0.121 A 
ATOM     61  C   UNL     1      32.449  18.388  21.566  1.00  0.00     0.144 A 
ATOM     62  N   UNL     1      30.458  18.217  20.773  1.00  0.00    -0.131 NA
ATOM     63  N   UNL     1      31.587  18.714  22.523  1.00  0.00    -0.220 N 
ATOM     64  N   UNL     1      30.376  18.597  21.998  1.00  0.00    -0.062 NA
BRANCH  63  65
ATOM     65  C   UNL     1      31.904  19.109  23.869  1.00  0.00     0.073 A 
ATOM     66  C   UNL     1      32.384  20.354  24.139  1.00  0.00     0.033 A 
ATOM     67  C   UNL     1      31.734  18.256  24.925  1.00  0.00     0.118 A 
ATOM     68  C   UNL     1      32.699  20.780  25.408  1.00  0.00     0.056 A 
ATOM     69  C   UNL     1      32.049  18.664  26.237  1.00  0.00     0.312 A 
ATOM     70  C   UNL     1      32.530  19.915  26.513  1.00  0.00     0.194 A 
BRANCH  69  71
ATOM     71  N   UNL     1      31.840  17.726  27.263  1.00  0.00     0.066 N 
ATOM     72  O   UNL     1      31.316  18.149  28.340  1.00  0.00    -0.258 OA
ATOM     73  O   UNL     1      32.182  16.419  27.125  1.00  0.00    -0.258 OA
ENDBRANCH  69  71
BRANCH  70  74
ATOM     74  O   UNL     1      32.859  20.395  27.770  1.00  0.00    -0.502 OA
ATOM     75  H   UNL     1      32.377  20.159  28.576  1.00  0.00     0.293 HD
ENDBRANCH  70  74
ENDBRANCH  63  65
ENDBRANCH  59  60
ENDBRANCH  58  59
ENDBRANCH  55  58
ENDBRANCH  53  54
ENDBRANCH  50  53
ENDBRANCH  47  50
ENDBRANCH   5  47
BRANCH   4  76
ATOM     76  N   UNL     1      30.692  23.408  18.773  1.00  0.00    -0.348 N 
ATOM     77  C   UNL     1      31.366  23.435  17.509  1.00  0.00     0.217 C 
ATOM     78  H   UNL     1      31.265  23.225  19.617  1.00  0.00     0.163 HD
ATOM     79  C   UNL     1      32.829  23.208  17.435  1.00  0.00     0.114 C 
ATOM     80  O   UNL     1      30.683  23.658  16.465  1.00  0.00    -0.275 OA
ENDBRANCH   4  76
TORSDOF 32
