REMARK VINA RESULT:    -5.339      6.652     11.156
REMARK INTER + INTRA:         -21.704
REMARK INTER:                 -15.413
REMARK INTRA:                  -6.291
REMARK UNBOUND:                -8.561
REMARK SMILES CC(=O)N[C@@H]1[C@@H](O)C[C@](OC[C@H]2O[C@@H](O[C@H]3[C@H](O)[C@@H](O)[C@H](OCCN=[N+]=[N-])O[C@@H]3CO)[C@H](O)[C@@H](O)[C@H]2O)(C(=O)O)O[C@H]1C(O)[C@H](O)CNC(=O)OCc1cn(-c2cnc3ccccc3c2)nn1
REMARK SMILES IDX 9 1 8 2 6 3 5 4 42 5 41 6 10 7 11 8 12 9 14 10 13 11 32 12
REMARK SMILES IDX 34 13 36 14 15 15 16 16 29 17 28 18 21 19 17 20 19 21 30 22
REMARK SMILES IDX 31 23 22 25 23 26 24 27 25 28 26 29 27 30 18 31 20 33 33 35
REMARK SMILES IDX 35 37 37 39 38 41 39 42 40 43 7 45 43 47 44 48 45 50 46 51
REMARK SMILES IDX 47 53 48 54 49 55 50 57 51 58 52 59 53 60 54 61 67 62 55 63
REMARK SMILES IDX 66 64 56 65 57 66 65 67 58 68 64 69 59 70 63 71 60 72 62 73
REMARK SMILES IDX 61 74 4 75 2 76 1 78 3 79
REMARK H PARENT 31 24 18 32 20 34 33 36 35 38 37 40 40 44 7 46 44 49 46 52
REMARK H PARENT 48 56 4 77
REMARK Flexibility Score: inf
ROOT
ATOM      1  C   UNL     1      19.017  29.344  18.896  1.00  0.00     0.272 C 
ATOM      2  C   UNL     1      19.292  28.943  20.301  1.00  0.00     0.113 C 
ATOM      3  C   UNL     1      20.426  27.941  20.403  1.00  0.00     0.145 C 
ATOM      4  C   UNL     1      21.560  28.535  19.566  1.00  0.00     0.142 C 
ATOM      5  C   UNL     1      21.072  28.491  18.111  1.00  0.00     0.178 C 
ATOM      6  O   UNL     1      20.100  29.514  18.083  1.00  0.00    -0.332 OA
ENDROOT
BRANCH   1   7
ATOM      7  O   UNL     1      18.329  30.575  18.844  1.00  0.00    -0.338 OA
BRANCH   7   8
ATOM      8  C   UNL     1      17.743  30.947  20.022  1.00  0.00     0.199 C 
BRANCH   8   9
ATOM      9  C   UNL     1      16.244  30.790  19.883  1.00  0.00     0.179 C 
ATOM     10  C   UNL     1      14.510  30.489  18.410  1.00  0.00     0.282 C 
ATOM     11  O   UNL     1      15.852  30.261  18.671  1.00  0.00    -0.341 OA
ATOM     12  C   UNL     1      13.696  30.644  19.661  1.00  0.00     0.202 C 
ATOM     13  C   UNL     1      14.205  29.861  20.819  1.00  0.00     0.179 C 
ATOM     14  C   UNL     1      15.634  30.230  21.098  1.00  0.00     0.177 C 
BRANCH  10  15
ATOM     15  O   UNL     1      14.034  29.502  17.574  1.00  0.00    -0.341 OA
BRANCH  15  16
ATOM     16  C   UNL     1      14.035  29.880  16.231  1.00  0.00     0.184 C 
ATOM     17  C   UNL     1      15.424  30.022  15.660  1.00  0.00     0.178 C 
ATOM     18  O   UNL     1      15.662  31.164  14.960  1.00  0.00    -0.341 OA
ATOM     19  C   UNL     1      14.710  31.579  14.070  1.00  0.00     0.281 C 
ATOM     20  C   UNL     1      13.148  31.065  15.970  1.00  0.00     0.180 C 
ATOM     21  C   UNL     1      13.292  31.500  14.547  1.00  0.00     0.202 C 
BRANCH  17  22
ATOM     22  C   UNL     1      15.840  28.745  14.927  1.00  0.00     0.191 C 
BRANCH  22  23
ATOM     23  O   UNL     1      14.798  28.210  14.176  1.00  0.00    -0.394 OA
ATOM     24  H   UNL     1      14.304  27.511  14.651  1.00  0.00     0.210 HD
ENDBRANCH  22  23
ENDBRANCH  17  22
BRANCH  19  25
ATOM     25  O   UNL     1      14.860  31.015  12.801  1.00  0.00    -0.350 OA
BRANCH  25  26
ATOM     26  C   UNL     1      15.734  31.725  12.004  1.00  0.00     0.169 C 
BRANCH  26  27
ATOM     27  C   UNL     1      17.061  31.019  11.851  1.00  0.00     0.119 C 
BRANCH  27  28
ATOM     28  N   UNL     1      16.888  29.582  11.885  1.00  0.00    -0.092 NA
ATOM     29  N   UNL     1      17.492  28.827  11.123  1.00  0.00     0.001 N 
ATOM     30  N   UNL     1      18.359  28.080  10.667  1.00  0.00    -0.003 NA
ENDBRANCH  27  28
ENDBRANCH  26  27
ENDBRANCH  25  26
ENDBRANCH  19  25
BRANCH  20  31
ATOM     31  O   UNL     1      11.810  30.652  16.154  1.00  0.00    -0.387 OA
ATOM     32  H   UNL     1      11.772  29.666  16.280  1.00  0.00     0.211 HD
ENDBRANCH  20  31
BRANCH  21  33
ATOM     33  O   UNL     1      12.623  32.741  14.429  1.00  0.00    -0.385 OA
ATOM     34  H   UNL     1      12.904  33.191  13.578  1.00  0.00     0.211 HD
ENDBRANCH  21  33
ENDBRANCH  15  16
ENDBRANCH  10  15
BRANCH  12  35
ATOM     35  O   UNL     1      13.525  31.968  20.054  1.00  0.00    -0.385 OA
ATOM     36  H   UNL     1      13.228  32.039  20.993  1.00  0.00     0.211 HD
ENDBRANCH  12  35
BRANCH  13  37
ATOM     37  O   UNL     1      14.058  28.490  20.597  1.00  0.00    -0.387 OA
ATOM     38  H   UNL     1      14.771  28.170  20.021  1.00  0.00     0.211 HD
ENDBRANCH  13  37
BRANCH  14  39
ATOM     39  O   UNL     1      16.261  29.088  21.587  1.00  0.00    -0.387 OA
ATOM     40  H   UNL     1      17.230  29.101  21.476  1.00  0.00     0.211 HD
ENDBRANCH  14  39
ENDBRANCH   8   9
ENDBRANCH   7   8
ENDBRANCH   1   7
BRANCH   1  41
ATOM     41  C   UNL     1      18.161  28.283  18.262  1.00  0.00     0.364 C 
ATOM     42  O   UNL     1      18.312  27.973  17.036  1.00  0.00    -0.246 OA
BRANCH  41  43
ATOM     43  O   UNL     1      17.179  27.582  18.922  1.00  0.00    -0.477 OA
ATOM     44  H   UNL     1      17.194  27.416  19.940  1.00  0.00     0.296 HD
ENDBRANCH  41  43
ENDBRANCH   1  41
BRANCH   3  45
ATOM     45  O   UNL     1      20.812  27.713  21.702  1.00  0.00    -0.391 OA
ATOM     46  H   UNL     1      20.091  28.012  22.294  1.00  0.00     0.211 HD
ENDBRANCH   3  45
BRANCH   5  47
ATOM     47  C   UNL     1      22.145  28.936  17.156  1.00  0.00     0.176 C 
BRANCH  47  48
ATOM     48  O   UNL     1      22.350  30.324  17.380  1.00  0.00    -0.388 OA
ATOM     49  H   UNL     1      22.015  30.591  18.273  1.00  0.00     0.211 HD
ENDBRANCH  47  48
BRANCH  47  50
ATOM     50  C   UNL     1      21.776  28.813  15.684  1.00  0.00     0.165 C 
BRANCH  50  51
ATOM     51  O   UNL     1      20.660  27.904  15.727  1.00  0.00    -0.388 OA
ATOM     52  H   UNL     1      19.950  28.350  16.244  1.00  0.00     0.211 HD
ENDBRANCH  50  51
BRANCH  50  53
ATOM     53  C   UNL     1      22.824  28.009  14.945  1.00  0.00     0.154 C 
BRANCH  53  54
ATOM     54  N   UNL     1      23.239  26.801  15.550  1.00  0.00    -0.319 N 
ATOM     55  C   UNL     1      23.068  25.518  14.988  1.00  0.00     0.407 C 
ATOM     56  H   UNL     1      23.714  26.876  16.505  1.00  0.00     0.167 HD
ATOM     57  O   UNL     1      22.502  25.412  13.882  1.00  0.00    -0.225 OA
BRANCH  55  58
ATOM     58  O   UNL     1      23.535  24.433  15.692  1.00  0.00    -0.443 OA
BRANCH  58  59
ATOM     59  C   UNL     1      24.558  24.529  16.645  1.00  0.00     0.294 C 
BRANCH  59  60
ATOM     60  C   UNL     1      23.967  24.640  18.017  1.00  0.00     0.121 A 
ATOM     61  C   UNL     1      24.592  24.541  19.215  1.00  0.00     0.144 A 
ATOM     62  N   UNL     1      22.653  24.859  18.256  1.00  0.00    -0.131 NA
ATOM     63  N   UNL     1      23.640  24.703  20.153  1.00  0.00    -0.219 N 
ATOM     64  N   UNL     1      22.460  24.897  19.558  1.00  0.00    -0.062 NA
BRANCH  63  65
ATOM     65  C   UNL     1      23.880  24.666  21.557  1.00  0.00     0.085 A 
ATOM     66  C   UNL     1      25.154  24.606  22.024  1.00  0.00     0.140 A 
ATOM     67  C   UNL     1      22.795  24.702  22.419  1.00  0.00     0.040 A 
ATOM     68  N   UNL     1      25.364  24.578  23.356  1.00  0.00    -0.254 NA
ATOM     69  C   UNL     1      23.029  24.674  23.763  1.00  0.00     0.002 A 
ATOM     70  C   UNL     1      24.322  24.612  24.194  1.00  0.00     0.070 A 
ATOM     71  C   UNL     1      21.965  24.708  24.641  1.00  0.00     0.010 A 
ATOM     72  C   UNL     1      24.553  24.584  25.571  1.00  0.00     0.029 A 
ATOM     73  C   UNL     1      22.217  24.680  26.003  1.00  0.00     0.001 A 
ATOM     74  C   UNL     1      23.530  24.617  26.475  1.00  0.00     0.002 A 
ENDBRANCH  63  65
ENDBRANCH  59  60
ENDBRANCH  58  59
ENDBRANCH  55  58
ENDBRANCH  53  54
ENDBRANCH  50  53
ENDBRANCH  47  50
ENDBRANCH   5  47
BRANCH   4  75
ATOM     75  N   UNL     1      22.795  27.894  19.814  1.00  0.00    -0.348 N 
ATOM     76  C   UNL     1      23.975  28.667  20.126  1.00  0.00     0.217 C 
ATOM     77  H   UNL     1      22.940  26.864  19.807  1.00  0.00     0.163 HD
ATOM     78  C   UNL     1      25.262  28.018  20.384  1.00  0.00     0.114 C 
ATOM     79  O   UNL     1      23.836  29.926  20.163  1.00  0.00    -0.275 OA
ENDBRANCH   4  75
TORSDOF 30
