REMARK VINA RESULT:    -5.528      1.751      2.560
REMARK INTER + INTRA:         -20.785
REMARK INTER:                 -15.177
REMARK INTRA:                  -5.609
REMARK UNBOUND:                -6.855
REMARK SMILES CC(=O)N[C@@H]1[C@@H](O)C[C@](OC[C@H]2O[C@@H](O[C@H]3[C@H](O)[C@@H](O)[C@H](OCCN=[N+]=[N-])O[C@@H]3CO)[C@H](O)[C@@H](O)[C@H]2O)(C(=O)O)O[C@H]1C(O)[C@H](O)CNC(=O)OCc1cn(Cc2ccsc2)nn1
REMARK SMILES IDX 9 1 8 2 6 3 5 4 42 5 41 6 10 7 11 8 12 9 14 10 13 11 32 12
REMARK SMILES IDX 34 13 36 14 15 15 16 16 29 17 28 18 21 19 17 20 19 21 30 22
REMARK SMILES IDX 31 23 22 25 23 26 24 27 25 28 26 29 27 30 18 31 20 33 33 35
REMARK SMILES IDX 35 37 37 39 38 41 39 42 40 43 7 45 43 47 44 48 45 50 46 51
REMARK SMILES IDX 47 53 48 54 49 55 50 57 51 58 52 59 53 60 54 61 63 62 55 63
REMARK SMILES IDX 62 64 56 65 57 66 58 67 61 68 59 69 60 70 4 71 2 72 1 74
REMARK SMILES IDX 3 75
REMARK H PARENT 31 24 18 32 20 34 33 36 35 38 37 40 40 44 7 46 44 49 46 52
REMARK H PARENT 48 56 4 73
REMARK Flexibility Score: inf
ROOT
ATOM      1  C   UNL     1      24.022  25.205  21.419  1.00  0.00     0.272 C 
ATOM      2  C   UNL     1      22.634  24.686  21.645  1.00  0.00     0.113 C 
ATOM      3  C   UNL     1      22.055  24.992  22.999  1.00  0.00     0.145 C 
ATOM      4  C   UNL     1      22.326  26.374  23.452  1.00  0.00     0.142 C 
ATOM      5  C   UNL     1      23.591  26.990  22.886  1.00  0.00     0.178 C 
ATOM      6  O   UNL     1      23.913  26.637  21.624  1.00  0.00    -0.332 OA
ENDROOT
BRANCH   1   7
ATOM      7  O   UNL     1      24.326  25.145  20.105  1.00  0.00    -0.338 OA
BRANCH   7   8
ATOM      8  C   UNL     1      24.895  26.104  19.400  1.00  0.00     0.199 C 
BRANCH   8   9
ATOM      9  C   UNL     1      24.439  26.571  18.080  1.00  0.00     0.179 C 
ATOM     10  C   UNL     1      24.956  26.168  15.902  1.00  0.00     0.282 C 
ATOM     11  O   UNL     1      24.802  25.524  17.152  1.00  0.00    -0.341 OA
ATOM     12  C   UNL     1      23.802  27.045  15.557  1.00  0.00     0.202 C 
ATOM     13  C   UNL     1      22.633  26.998  16.473  1.00  0.00     0.179 C 
ATOM     14  C   UNL     1      22.931  26.624  17.897  1.00  0.00     0.177 C 
BRANCH  10  15
ATOM     15  O   UNL     1      25.217  25.202  14.963  1.00  0.00    -0.341 OA
BRANCH  15  16
ATOM     16  C   UNL     1      25.065  23.890  15.442  1.00  0.00     0.184 C 
ATOM     17  C   UNL     1      26.079  22.965  14.870  1.00  0.00     0.178 C 
ATOM     18  O   UNL     1      25.718  22.231  13.782  1.00  0.00    -0.341 OA
ATOM     19  C   UNL     1      24.439  22.515  13.272  1.00  0.00     0.281 C 
ATOM     20  C   UNL     1      23.645  23.426  15.365  1.00  0.00     0.180 C 
ATOM     21  C   UNL     1      23.485  22.241  14.402  1.00  0.00     0.202 C 
BRANCH  17  22
ATOM     22  C   UNL     1      26.662  22.022  15.910  1.00  0.00     0.191 C 
BRANCH  22  23
ATOM     23  O   UNL     1      27.880  22.570  16.312  1.00  0.00    -0.394 OA
ATOM     24  H   UNL     1      28.494  22.716  15.533  1.00  0.00     0.210 HD
ENDBRANCH  22  23
ENDBRANCH  17  22
BRANCH  19  25
ATOM     25  O   UNL     1      24.267  21.745  12.154  1.00  0.00    -0.350 OA
BRANCH  25  26
ATOM     26  C   UNL     1      24.898  20.518  12.209  1.00  0.00     0.169 C 
BRANCH  26  27
ATOM     27  C   UNL     1      24.040  19.332  11.916  1.00  0.00     0.119 C 
BRANCH  27  28
ATOM     28  N   UNL     1      22.888  19.299  12.776  1.00  0.00    -0.092 NA
ATOM     29  N   UNL     1      21.768  19.204  12.250  1.00  0.00     0.001 N 
ATOM     30  N   UNL     1      20.572  19.018  12.025  1.00  0.00    -0.003 NA
ENDBRANCH  27  28
ENDBRANCH  26  27
ENDBRANCH  25  26
ENDBRANCH  19  25
BRANCH  20  31
ATOM     31  O   UNL     1      23.068  23.149  16.585  1.00  0.00    -0.387 OA
ATOM     32  H   UNL     1      22.253  22.615  16.484  1.00  0.00     0.211 HD
ENDBRANCH  20  31
BRANCH  21  33
ATOM     33  O   UNL     1      22.192  22.078  13.978  1.00  0.00    -0.385 OA
ATOM     34  H   UNL     1      22.032  22.471  13.076  1.00  0.00     0.211 HD
ENDBRANCH  21  33
ENDBRANCH  15  16
ENDBRANCH  10  15
BRANCH  12  35
ATOM     35  O   UNL     1      24.221  28.380  15.313  1.00  0.00    -0.385 OA
ATOM     36  H   UNL     1      23.630  28.795  14.631  1.00  0.00     0.211 HD
ENDBRANCH  12  35
BRANCH  13  37
ATOM     37  O   UNL     1      21.715  26.047  15.986  1.00  0.00    -0.387 OA
ATOM     38  H   UNL     1      22.171  25.175  15.939  1.00  0.00     0.211 HD
ENDBRANCH  13  37
BRANCH  14  39
ATOM     39  O   UNL     1      22.491  25.305  18.163  1.00  0.00    -0.387 OA
ATOM     40  H   UNL     1      22.597  25.204  19.160  1.00  0.00     0.211 HD
ENDBRANCH  14  39
ENDBRANCH   8   9
ENDBRANCH   7   8
ENDBRANCH   1   7
BRANCH   1  41
ATOM     41  C   UNL     1      25.012  24.782  22.410  1.00  0.00     0.364 C 
ATOM     42  O   UNL     1      25.984  25.485  22.746  1.00  0.00    -0.246 OA
BRANCH  41  43
ATOM     43  O   UNL     1      24.934  23.535  23.057  1.00  0.00    -0.477 OA
ATOM     44  H   UNL     1      24.238  22.853  22.790  1.00  0.00     0.296 HD
ENDBRANCH  41  43
ENDBRANCH   1  41
BRANCH   3  45
ATOM     45  O   UNL     1      20.651  24.858  22.818  1.00  0.00    -0.391 OA
ATOM     46  H   UNL     1      20.449  24.688  21.856  1.00  0.00     0.211 HD
ENDBRANCH   3  45
BRANCH   5  47
ATOM     47  C   UNL     1      23.385  28.524  22.835  1.00  0.00     0.176 C 
BRANCH  47  48
ATOM     48  O   UNL     1      22.093  28.819  23.263  1.00  0.00    -0.388 OA
ATOM     49  H   UNL     1      21.519  28.026  23.172  1.00  0.00     0.211 HD
ENDBRANCH  47  48
BRANCH  47  50
ATOM     50  C   UNL     1      23.519  28.954  21.418  1.00  0.00     0.165 C 
BRANCH  50  51
ATOM     51  O   UNL     1      24.743  29.600  21.252  1.00  0.00    -0.388 OA
ATOM     52  H   UNL     1      24.657  30.571  21.413  1.00  0.00     0.211 HD
ENDBRANCH  50  51
BRANCH  50  53
ATOM     53  C   UNL     1      22.439  29.889  20.940  1.00  0.00     0.154 C 
BRANCH  53  54
ATOM     54  N   UNL     1      21.567  29.299  19.969  1.00  0.00    -0.319 N 
ATOM     55  C   UNL     1      20.439  28.521  20.257  1.00  0.00     0.407 C 
ATOM     56  H   UNL     1      21.797  29.466  18.944  1.00  0.00     0.167 HD
ATOM     57  O   UNL     1      20.137  28.303  21.450  1.00  0.00    -0.225 OA
BRANCH  55  58
ATOM     58  O   UNL     1      19.684  28.010  19.222  1.00  0.00    -0.443 OA
BRANCH  58  59
ATOM     59  C   UNL     1      18.756  28.752  18.485  1.00  0.00     0.294 C 
BRANCH  59  60
ATOM     60  C   UNL     1      17.434  28.664  19.138  1.00  0.00     0.120 A 
ATOM     61  C   UNL     1      16.333  29.409  18.855  1.00  0.00     0.138 A 
ATOM     62  N   UNL     1      17.118  27.817  20.127  1.00  0.00    -0.132 NA
ATOM     63  N   UNL     1      15.358  28.998  19.684  1.00  0.00    -0.248 N 
ATOM     64  N   UNL     1      15.840  28.038  20.447  1.00  0.00    -0.067 NA
BRANCH  63  65
ATOM     65  C   UNL     1      14.018  29.528  19.717  1.00  0.00     0.182 C 
BRANCH  65  66
ATOM     66  C   UNL     1      13.732  30.034  21.136  1.00  0.00    -0.016 A 
ATOM     67  C   UNL     1      12.920  29.430  21.979  1.00  0.00     0.017 A 
ATOM     68  C   UNL     1      14.377  31.203  21.538  1.00  0.00     0.070 A 
ATOM     69  C   UNL     1      12.698  29.930  23.249  1.00  0.00     0.065 A 
ATOM     70  S   UNL     1      13.764  31.419  23.220  1.00  0.00    -0.152 S 
ENDBRANCH  65  66
ENDBRANCH  63  65
ENDBRANCH  59  60
ENDBRANCH  58  59
ENDBRANCH  55  58
ENDBRANCH  53  54
ENDBRANCH  50  53
ENDBRANCH  47  50
ENDBRANCH   5  47
BRANCH   4  71
ATOM     71  N   UNL     1      22.362  26.546  24.873  1.00  0.00    -0.348 N 
ATOM     72  C   UNL     1      21.224  26.929  25.629  1.00  0.00     0.217 C 
ATOM     73  H   UNL     1      23.251  26.388  25.395  1.00  0.00     0.163 HD
ATOM     74  C   UNL     1      21.251  27.110  27.113  1.00  0.00     0.114 C 
ATOM     75  O   UNL     1      20.164  27.112  24.964  1.00  0.00    -0.275 OA
ENDBRANCH   4  71
TORSDOF 31
