REMARK VINA RESULT:    -5.010     13.773     19.669
REMARK INTER + INTRA:         -22.687
REMARK INTER:                 -13.709
REMARK INTRA:                  -8.978
REMARK UNBOUND:                -9.623
REMARK SMILES CC(=O)N[C@@H]1[C@@H](O)C[C@](OC[C@H]2O[C@@H](O[C@H]3[C@H](O)[C@@H](O)[C@H](OCCN=[N+]=[N-])O[C@@H]3CO)[C@H](O)[C@@H](O)[C@H]2O)(C(=O)O)O[C@H]1C(O)[C@H](O)CNC(=O)OCc1cn(Cc2ccc(C(=O)O)cc2)nn1
REMARK SMILES IDX 43 1 42 2 9 3 8 4 41 5 6 6 5 7 10 8 11 9 12 10 14 11 13 12
REMARK SMILES IDX 32 13 34 14 36 15 15 16 16 17 29 18 28 19 21 20 17 21 19 22
REMARK SMILES IDX 30 23 31 24 22 26 23 27 24 28 25 29 26 30 27 31 18 32 20 34
REMARK SMILES IDX 33 36 35 38 37 40 38 42 39 43 40 44 7 46 4 48 2 49 1 51 3 52
REMARK SMILES IDX 44 53 45 55 46 56 47 58 48 59 49 60 50 62 51 63 52 64 53 65
REMARK SMILES IDX 54 66 67 67 55 68 66 69 56 70 57 71 58 72 65 73 59 74 64 75
REMARK SMILES IDX 60 76 61 77 62 78 63 79
REMARK H PARENT 31 25 18 33 20 35 33 37 35 39 37 41 40 45 7 47 4 50 44 54
REMARK H PARENT 46 57 48 61 63 80
REMARK Flexibility Score: inf
ROOT
ATOM      1  C   UNL     1       4.519  21.422  33.242  1.00  0.00     0.176 C 
ENDROOT
BRANCH   1   2
ATOM      2  C   UNL     1       3.057  21.784  33.584  1.00  0.00     0.178 C 
ATOM      3  C   UNL     1       2.111  23.768  34.463  1.00  0.00     0.272 C 
ATOM      4  C   UNL     1       1.573  22.969  35.582  1.00  0.00     0.113 C 
ATOM      5  O   UNL     1       3.035  23.122  33.682  1.00  0.00    -0.332 OA
ATOM      6  C   UNL     1       2.470  21.815  35.981  1.00  0.00     0.145 C 
ATOM      7  C   UNL     1       2.664  20.976  34.752  1.00  0.00     0.142 C 
BRANCH   3   8
ATOM      8  O   UNL     1       2.737  24.902  34.908  1.00  0.00    -0.338 OA
BRANCH   8   9
ATOM      9  C   UNL     1       2.230  26.117  34.614  1.00  0.00     0.199 C 
BRANCH   9  10
ATOM     10  C   UNL     1       3.365  27.079  34.191  1.00  0.00     0.179 C 
ATOM     11  C   UNL     1       5.663  27.380  34.438  1.00  0.00     0.282 C 
ATOM     12  O   UNL     1       4.503  26.732  34.859  1.00  0.00    -0.341 OA
ATOM     13  C   UNL     1       5.426  28.500  33.489  1.00  0.00     0.202 C 
ATOM     14  C   UNL     1       4.649  27.964  32.306  1.00  0.00     0.179 C 
ATOM     15  C   UNL     1       3.531  27.047  32.693  1.00  0.00     0.177 C 
BRANCH  11  16
ATOM     16  O   UNL     1       6.508  26.422  33.881  1.00  0.00    -0.341 OA
BRANCH  16  17
ATOM     17  C   UNL     1       7.244  25.774  34.829  1.00  0.00     0.184 C 
ATOM     18  C   UNL     1       8.704  25.996  34.680  1.00  0.00     0.178 C 
ATOM     19  O   UNL     1       9.400  25.546  35.813  1.00  0.00    -0.341 OA
ATOM     20  C   UNL     1       8.898  24.319  36.253  1.00  0.00     0.281 C 
ATOM     21  C   UNL     1       6.939  24.272  34.664  1.00  0.00     0.180 C 
ATOM     22  C   UNL     1       8.157  23.550  35.200  1.00  0.00     0.202 C 
BRANCH  18  23
ATOM     23  C   UNL     1       9.007  27.457  34.506  1.00  0.00     0.191 C 
BRANCH  23  24
ATOM     24  O   UNL     1       8.932  27.701  33.116  1.00  0.00    -0.394 OA
ATOM     25  H   UNL     1       9.801  27.547  32.697  1.00  0.00     0.210 HD
ENDBRANCH  23  24
ENDBRANCH  18  23
BRANCH  20  26
ATOM     26  O   UNL     1       8.141  24.524  37.383  1.00  0.00    -0.350 OA
BRANCH  26  27
ATOM     27  C   UNL     1       8.186  23.508  38.310  1.00  0.00     0.169 C 
BRANCH  27  28
ATOM     28  C   UNL     1       7.089  23.510  39.322  1.00  0.00     0.119 C 
BRANCH  28  29
ATOM     29  N   UNL     1       5.843  23.234  38.589  1.00  0.00    -0.092 NA
ATOM     30  N   UNL     1       5.052  22.364  38.936  1.00  0.00     0.001 N 
ATOM     31  N   UNL     1       4.496  21.374  39.397  1.00  0.00    -0.003 NA
ENDBRANCH  28  29
ENDBRANCH  27  28
ENDBRANCH  26  27
ENDBRANCH  20  26
BRANCH  21  32
ATOM     32  O   UNL     1       5.797  23.936  35.357  1.00  0.00    -0.387 OA
ATOM     33  H   UNL     1       4.970  24.309  34.911  1.00  0.00     0.211 HD
ENDBRANCH  21  32
BRANCH  22  34
ATOM     34  O   UNL     1       8.973  23.179  34.157  1.00  0.00    -0.385 OA
ATOM     35  H   UNL     1       8.850  22.251  33.891  1.00  0.00     0.211 HD
ENDBRANCH  22  34
ENDBRANCH  16  17
ENDBRANCH  11  16
BRANCH  13  36
ATOM     36  O   UNL     1       4.723  29.555  34.090  1.00  0.00    -0.385 OA
ATOM     37  H   UNL     1       4.119  29.134  34.761  1.00  0.00     0.211 HD
ENDBRANCH  13  36
BRANCH  14  38
ATOM     38  O   UNL     1       5.488  27.314  31.400  1.00  0.00    -0.387 OA
ATOM     39  H   UNL     1       5.156  26.379  31.292  1.00  0.00     0.211 HD
ENDBRANCH  14  38
BRANCH  15  40
ATOM     40  O   UNL     1       3.731  25.741  32.225  1.00  0.00    -0.387 OA
ATOM     41  H   UNL     1       4.712  25.594  32.188  1.00  0.00     0.211 HD
ENDBRANCH  15  40
ENDBRANCH   9  10
ENDBRANCH   8   9
ENDBRANCH   3   8
BRANCH   3  42
ATOM     42  C   UNL     1       0.970  24.114  33.538  1.00  0.00     0.364 C 
ATOM     43  O   UNL     1      -0.212  24.152  33.963  1.00  0.00    -0.246 OA
BRANCH  42  44
ATOM     44  O   UNL     1       1.180  24.400  32.199  1.00  0.00    -0.477 OA
ATOM     45  H   UNL     1       0.418  24.163  31.544  1.00  0.00     0.296 HD
ENDBRANCH  42  44
ENDBRANCH   3  42
BRANCH   6  46
ATOM     46  O   UNL     1       3.633  22.348  36.493  1.00  0.00    -0.391 OA
ATOM     47  H   UNL     1       3.789  23.248  36.105  1.00  0.00     0.211 HD
ENDBRANCH   6  46
BRANCH   7  48
ATOM     48  N   UNL     1       1.413  20.287  34.467  1.00  0.00    -0.348 N 
ATOM     49  C   UNL     1       1.400  18.981  33.864  1.00  0.00     0.217 C 
ATOM     50  H   UNL     1       0.468  20.677  34.671  1.00  0.00     0.163 HD
ATOM     51  C   UNL     1       0.093  18.306  33.588  1.00  0.00     0.114 C 
ATOM     52  O   UNL     1       2.484  18.443  33.587  1.00  0.00    -0.275 OA
ENDBRANCH   7  48
ENDBRANCH   1   2
BRANCH   1  53
ATOM     53  O   UNL     1       4.890  20.183  33.653  1.00  0.00    -0.388 OA
ATOM     54  H   UNL     1       4.175  19.591  33.975  1.00  0.00     0.211 HD
ENDBRANCH   1  53
BRANCH   1  55
ATOM     55  C   UNL     1       4.825  21.697  31.790  1.00  0.00     0.165 C 
BRANCH  55  56
ATOM     56  O   UNL     1       4.376  22.937  31.460  1.00  0.00    -0.388 OA
ATOM     57  H   UNL     1       3.460  22.993  31.125  1.00  0.00     0.211 HD
ENDBRANCH  55  56
BRANCH  55  58
ATOM     58  C   UNL     1       4.412  20.548  30.954  1.00  0.00     0.154 C 
BRANCH  58  59
ATOM     59  N   UNL     1       3.726  20.958  29.760  1.00  0.00    -0.319 N 
ATOM     60  C   UNL     1       2.378  20.648  29.470  1.00  0.00     0.407 C 
ATOM     61  H   UNL     1       4.239  21.529  29.033  1.00  0.00     0.167 HD
ATOM     62  O   UNL     1       1.673  19.985  30.245  1.00  0.00    -0.225 OA
BRANCH  60  63
ATOM     63  O   UNL     1       1.738  21.069  28.287  1.00  0.00    -0.443 OA
BRANCH  63  64
ATOM     64  C   UNL     1       0.857  22.176  28.321  1.00  0.00     0.294 C 
BRANCH  64  65
ATOM     65  C   UNL     1       1.556  23.455  28.534  1.00  0.00     0.120 A 
ATOM     66  C   UNL     1       1.595  24.573  27.748  1.00  0.00     0.138 A 
ATOM     67  N   UNL     1       2.329  23.717  29.606  1.00  0.00    -0.132 NA
ATOM     68  N   UNL     1       2.389  25.479  28.360  1.00  0.00    -0.248 N 
ATOM     69  N   UNL     1       2.821  24.935  29.484  1.00  0.00    -0.067 NA
BRANCH  68  70
ATOM     70  C   UNL     1       2.692  26.790  27.847  1.00  0.00     0.181 C 
BRANCH  70  71
ATOM     71  C   UNL     1       4.022  26.806  27.206  1.00  0.00    -0.026 A 
ATOM     72  C   UNL     1       5.044  27.544  27.761  1.00  0.00     0.006 A 
ATOM     73  C   UNL     1       4.244  26.093  26.030  1.00  0.00     0.006 A 
ATOM     74  C   UNL     1       6.259  27.530  27.099  1.00  0.00     0.016 A 
ATOM     75  C   UNL     1       5.455  26.085  25.376  1.00  0.00     0.016 A 
ATOM     76  C   UNL     1       6.474  26.822  25.933  1.00  0.00     0.059 A 
BRANCH  76  77
ATOM     77  C   UNL     1       7.775  26.854  25.284  1.00  0.00     0.335 C 
ATOM     78  O   UNL     1       8.812  26.846  25.962  1.00  0.00    -0.246 OA
BRANCH  77  79
ATOM     79  O   UNL     1       7.852  26.894  23.910  1.00  0.00    -0.478 OA
ATOM     80  H   UNL     1       8.659  26.540  23.400  1.00  0.00     0.297 HD
ENDBRANCH  77  79
ENDBRANCH  76  77
ENDBRANCH  70  71
ENDBRANCH  68  70
ENDBRANCH  64  65
ENDBRANCH  63  64
ENDBRANCH  60  63
ENDBRANCH  58  59
ENDBRANCH  55  58
ENDBRANCH   1  55
TORSDOF 33
