REMARK VINA RESULT:    -5.653      4.050     12.144
REMARK INTER + INTRA:         -24.552
REMARK INTER:                 -15.011
REMARK INTRA:                  -9.541
REMARK UNBOUND:                -7.166
REMARK SMILES CC(=O)N[C@@H]1[C@@H](O)C[C@](OC[C@H]2O[C@@H](O[C@H]3[C@H](O)[C@@H](O)[C@H](OCCN=[N+]=[N-])O[C@@H]3CO)[C@H](O)[C@@H](O)[C@H]2O)(C(=O)O)O[C@H]1C(O)[C@H](O)CNC(=O)OCc1cn(CCCCCCCCCCC(=O)O)nn1
REMARK SMILES IDX 51 1 49 2 48 3 50 5 47 6 45 7 43 8 42 9 9 10 8 11 41 12 6 13
REMARK SMILES IDX 5 14 10 15 11 16 12 17 14 18 13 19 32 20 34 21 36 22 15 23
REMARK SMILES IDX 16 24 29 25 28 26 21 27 17 28 19 29 30 30 31 31 22 33 23 34
REMARK SMILES IDX 24 35 25 36 26 37 27 38 18 39 20 41 33 43 35 45 37 47 38 49
REMARK SMILES IDX 39 50 40 51 7 53 4 55 2 56 1 58 3 59 44 60 46 62 52 64 53 65
REMARK SMILES IDX 54 66 70 67 55 68 69 69 56 70 57 71 58 72 59 73 60 74 61 75
REMARK SMILES IDX 62 76 63 77 64 78 65 79 66 80 67 81 68 82
REMARK H PARENT 48 4 31 32 18 40 20 42 33 44 35 46 37 48 40 52 7 54 4 57 44 61
REMARK H PARENT 46 63 68 83
REMARK Flexibility Score: inf
ROOT
ATOM      1  O   UNL     1      22.285  30.436  24.103  1.00  0.00    -0.443 OA
ENDROOT
BRANCH   1   2
ATOM      2  C   UNL     1      23.572  29.857  24.158  1.00  0.00     0.407 C 
ATOM      3  N   UNL     1      24.495  30.036  23.097  1.00  0.00    -0.319 N 
ATOM      4  H   UNL     1      24.195  30.607  22.263  1.00  0.00     0.167 HD
ATOM      5  O   UNL     1      23.931  29.173  25.143  1.00  0.00    -0.225 OA
BRANCH   3   6
ATOM      6  C   UNL     1      25.812  29.475  23.115  1.00  0.00     0.154 C 
BRANCH   6   7
ATOM      7  C   UNL     1      25.895  28.049  22.581  1.00  0.00     0.165 C 
BRANCH   7   8
ATOM      8  C   UNL     1      24.800  27.920  21.581  1.00  0.00     0.176 C 
BRANCH   8   9
ATOM      9  C   UNL     1      24.305  26.518  21.312  1.00  0.00     0.178 C 
ATOM     10  C   UNL     1      23.052  24.852  22.342  1.00  0.00     0.272 C 
ATOM     11  C   UNL     1      23.993  23.863  21.688  1.00  0.00     0.113 C 
ATOM     12  O   UNL     1      23.730  26.050  22.461  1.00  0.00    -0.332 OA
ATOM     13  C   UNL     1      25.390  24.372  21.532  1.00  0.00     0.145 C 
ATOM     14  C   UNL     1      25.353  25.639  20.704  1.00  0.00     0.142 C 
BRANCH  10  15
ATOM     15  O   UNL     1      22.650  24.391  23.606  1.00  0.00    -0.338 OA
BRANCH  15  16
ATOM     16  C   UNL     1      23.152  25.044  24.681  1.00  0.00     0.199 C 
BRANCH  16  17
ATOM     17  C   UNL     1      22.003  25.138  25.707  1.00  0.00     0.179 C 
ATOM     18  C   UNL     1      22.960  25.629  27.814  1.00  0.00     0.282 C 
ATOM     19  O   UNL     1      22.362  24.779  26.945  1.00  0.00    -0.341 OA
ATOM     20  C   UNL     1      22.866  27.056  27.429  1.00  0.00     0.202 C 
ATOM     21  C   UNL     1      21.494  27.313  26.817  1.00  0.00     0.179 C 
ATOM     22  C   UNL     1      21.300  26.471  25.573  1.00  0.00     0.177 C 
BRANCH  18  23
ATOM     23  O   UNL     1      24.291  25.169  27.977  1.00  0.00    -0.341 OA
BRANCH  23  24
ATOM     24  C   UNL     1      24.926  26.042  28.851  1.00  0.00     0.184 C 
ATOM     25  C   UNL     1      26.335  26.384  28.496  1.00  0.00     0.178 C 
ATOM     26  O   UNL     1      26.926  27.100  29.495  1.00  0.00    -0.341 OA
ATOM     27  C   UNL     1      26.209  27.566  30.533  1.00  0.00     0.281 C 
ATOM     28  C   UNL     1      24.979  25.417  30.255  1.00  0.00     0.180 C 
ATOM     29  C   UNL     1      25.313  26.549  31.200  1.00  0.00     0.202 C 
BRANCH  25  30
ATOM     30  C   UNL     1      26.468  27.130  27.181  1.00  0.00     0.191 C 
BRANCH  30  31
ATOM     31  O   UNL     1      25.789  28.319  27.148  1.00  0.00    -0.394 OA
ATOM     32  H   UNL     1      26.422  29.035  26.880  1.00  0.00     0.210 HD
ENDBRANCH  30  31
ENDBRANCH  25  30
BRANCH  27  33
ATOM     33  O   UNL     1      25.420  28.636  30.132  1.00  0.00    -0.350 OA
BRANCH  33  34
ATOM     34  C   UNL     1      26.091  29.854  30.238  1.00  0.00     0.169 C 
BRANCH  34  35
ATOM     35  C   UNL     1      25.251  31.006  29.766  1.00  0.00     0.119 C 
BRANCH  35  36
ATOM     36  N   UNL     1      24.792  30.722  28.405  1.00  0.00    -0.092 NA
ATOM     37  N   UNL     1      23.588  30.859  28.097  1.00  0.00     0.001 N 
ATOM     38  N   UNL     1      22.354  31.060  28.078  1.00  0.00    -0.003 NA
ENDBRANCH  35  36
ENDBRANCH  34  35
ENDBRANCH  33  34
ENDBRANCH  27  33
BRANCH  28  39
ATOM     39  O   UNL     1      23.783  24.839  30.623  1.00  0.00    -0.387 OA
ATOM     40  H   UNL     1      23.314  25.323  31.348  1.00  0.00     0.211 HD
ENDBRANCH  28  39
BRANCH  29  41
ATOM     41  O   UNL     1      26.019  26.003  32.267  1.00  0.00    -0.385 OA
ATOM     42  H   UNL     1      26.070  25.009  32.114  1.00  0.00     0.211 HD
ENDBRANCH  29  41
ENDBRANCH  23  24
ENDBRANCH  18  23
BRANCH  20  43
ATOM     43  O   UNL     1      22.931  27.919  28.532  1.00  0.00    -0.385 OA
ATOM     44  H   UNL     1      22.347  28.700  28.296  1.00  0.00     0.211 HD
ENDBRANCH  20  43
BRANCH  21  45
ATOM     45  O   UNL     1      21.343  28.660  26.496  1.00  0.00    -0.387 OA
ATOM     46  H   UNL     1      21.508  28.735  25.522  1.00  0.00     0.211 HD
ENDBRANCH  21  45
BRANCH  22  47
ATOM     47  O   UNL     1      21.806  27.173  24.506  1.00  0.00    -0.387 OA
ATOM     48  H   UNL     1      22.554  27.738  24.827  1.00  0.00     0.211 HD
ENDBRANCH  22  47
ENDBRANCH  16  17
ENDBRANCH  15  16
ENDBRANCH  10  15
BRANCH  10  49
ATOM     49  C   UNL     1      21.806  25.010  21.587  1.00  0.00     0.364 C 
ATOM     50  O   UNL     1      21.747  24.906  20.351  1.00  0.00    -0.246 OA
BRANCH  49  51
ATOM     51  O   UNL     1      20.618  25.288  22.242  1.00  0.00    -0.477 OA
ATOM     52  H   UNL     1      19.721  24.904  21.936  1.00  0.00     0.296 HD
ENDBRANCH  49  51
ENDBRANCH  10  49
BRANCH  13  53
ATOM     53  O   UNL     1      26.105  24.522  22.700  1.00  0.00    -0.391 OA
ATOM     54  H   UNL     1      26.661  25.353  22.729  1.00  0.00     0.211 HD
ENDBRANCH  13  53
BRANCH  14  55
ATOM     55  N   UNL     1      25.117  25.259  19.351  1.00  0.00    -0.348 N 
ATOM     56  C   UNL     1      25.680  25.916  18.220  1.00  0.00     0.217 C 
ATOM     57  H   UNL     1      24.492  24.446  19.129  1.00  0.00     0.163 HD
ATOM     58  C   UNL     1      25.388  25.463  16.849  1.00  0.00     0.114 C 
ATOM     59  O   UNL     1      26.430  26.887  18.431  1.00  0.00    -0.275 OA
ENDBRANCH  14  55
ENDBRANCH   8   9
BRANCH   8  60
ATOM     60  O   UNL     1      25.134  28.629  20.458  1.00  0.00    -0.388 OA
ATOM     61  H   UNL     1      24.923  28.199  19.614  1.00  0.00     0.211 HD
ENDBRANCH   8  60
ENDBRANCH   7   8
BRANCH   7  62
ATOM     62  O   UNL     1      25.786  27.200  23.676  1.00  0.00    -0.388 OA
ATOM     63  H   UNL     1      24.847  27.065  23.952  1.00  0.00     0.211 HD
ENDBRANCH   7  62
ENDBRANCH   6   7
ENDBRANCH   3   6
ENDBRANCH   1   2
BRANCH   1  64
ATOM     64  C   UNL     1      21.628  30.410  22.829  1.00  0.00     0.294 C 
BRANCH  64  65
ATOM     65  C   UNL     1      20.193  30.164  23.085  1.00  0.00     0.120 A 
ATOM     66  C   UNL     1      19.161  30.555  22.252  1.00  0.00     0.138 A 
ATOM     67  N   UNL     1      19.635  29.533  24.127  1.00  0.00    -0.132 NA
ATOM     68  N   UNL     1      18.022  30.138  22.836  1.00  0.00    -0.252 N 
ATOM     69  N   UNL     1      18.339  29.513  23.987  1.00  0.00    -0.067 NA
BRANCH  68  70
ATOM     70  C   UNL     1      16.674  30.285  22.383  1.00  0.00     0.146 C 
BRANCH  70  71
ATOM     71  C   UNL     1      16.160  29.200  21.503  1.00  0.00     0.024 C 
BRANCH  71  72
ATOM     72  C   UNL     1      14.682  29.114  21.356  1.00  0.00     0.002 C 
BRANCH  72  73
ATOM     73  C   UNL     1      14.169  29.077  19.959  1.00  0.00     0.000 C 
BRANCH  73  74
ATOM     74  C   UNL     1      13.681  30.375  19.414  1.00  0.00     0.000 C 
BRANCH  74  75
ATOM     75  C   UNL     1      13.610  31.404  20.509  1.00  0.00     0.000 C 
BRANCH  75  76
ATOM     76  C   UNL     1      12.193  31.716  20.941  1.00  0.00     0.000 C 
BRANCH  76  77
ATOM     77  C   UNL     1      12.079  32.082  22.384  1.00  0.00     0.001 C 
BRANCH  77  78
ATOM     78  C   UNL     1      11.329  31.096  23.225  1.00  0.00     0.012 C 
BRANCH  78  79
ATOM     79  C   UNL     1      11.977  31.051  24.598  1.00  0.00     0.122 C 
BRANCH  79  80
ATOM     80  C   UNL     1      12.575  29.721  24.802  1.00  0.00     0.303 C 
ATOM     81  O   UNL     1      13.809  29.557  24.715  1.00  0.00    -0.252 OA
BRANCH  80  82
ATOM     82  O   UNL     1      11.792  28.612  25.093  1.00  0.00    -0.481 OA
ATOM     83  H   UNL     1      11.122  28.611  25.841  1.00  0.00     0.296 HD
ENDBRANCH  80  82
ENDBRANCH  79  80
ENDBRANCH  78  79
ENDBRANCH  77  78
ENDBRANCH  76  77
ENDBRANCH  75  76
ENDBRANCH  74  75
ENDBRANCH  73  74
ENDBRANCH  72  73
ENDBRANCH  71  72
ENDBRANCH  70  71
ENDBRANCH  68  70
ENDBRANCH  64  65
ENDBRANCH   1  64
TORSDOF 41
