REMARK VINA RESULT:    -5.748      0.000      0.000
REMARK INTER + INTRA:         -21.339
REMARK INTER:                 -15.642
REMARK INTRA:                  -5.697
REMARK UNBOUND:                -6.855
REMARK SMILES CC(=O)N[C@@H]1[C@@H](O)C[C@](OC[C@H]2O[C@@H](O[C@H]3[C@H](O)[C@@H](O)[C@H](OCCN=[N+]=[N-])O[C@@H]3CO)[C@H](O)[C@@H](O)[C@H]2O)(C(=O)O)O[C@H]1C(O)[C@H](O)CNC(=O)OCc1cn(Cc2ccsc2)nn1
REMARK SMILES IDX 9 1 8 2 6 3 5 4 42 5 41 6 10 7 11 8 12 9 14 10 13 11 32 12
REMARK SMILES IDX 34 13 36 14 15 15 16 16 29 17 28 18 21 19 17 20 19 21 30 22
REMARK SMILES IDX 31 23 22 25 23 26 24 27 25 28 26 29 27 30 18 31 20 33 33 35
REMARK SMILES IDX 35 37 37 39 38 41 39 42 40 43 7 45 43 47 44 48 45 50 46 51
REMARK SMILES IDX 47 53 48 54 49 55 50 57 51 58 52 59 53 60 54 61 63 62 55 63
REMARK SMILES IDX 62 64 56 65 57 66 58 67 61 68 59 69 60 70 4 71 2 72 1 74
REMARK SMILES IDX 3 75
REMARK H PARENT 31 24 18 32 20 34 33 36 35 38 37 40 40 44 7 46 44 49 46 52
REMARK H PARENT 48 56 4 73
REMARK Flexibility Score: inf
ROOT
ATOM      1  C   UNL     1      23.063  24.957  20.808  1.00  0.00     0.272 C 
ATOM      2  C   UNL     1      21.960  24.250  21.537  1.00  0.00     0.113 C 
ATOM      3  C   UNL     1      21.703  24.747  22.934  1.00  0.00     0.145 C 
ATOM      4  C   UNL     1      21.730  26.222  23.042  1.00  0.00     0.142 C 
ATOM      5  C   UNL     1      22.604  26.918  22.017  1.00  0.00     0.178 C 
ATOM      6  O   UNL     1      22.657  26.349  20.795  1.00  0.00    -0.332 OA
ENDROOT
BRANCH   1   7
ATOM      7  O   UNL     1      23.013  24.651  19.494  1.00  0.00    -0.338 OA
BRANCH   7   8
ATOM      8  C   UNL     1      24.017  24.740  18.642  1.00  0.00     0.199 C 
BRANCH   8   9
ATOM      9  C   UNL     1      23.925  25.284  17.277  1.00  0.00     0.179 C 
ATOM     10  C   UNL     1      23.406  24.500  15.205  1.00  0.00     0.282 C 
ATOM     11  O   UNL     1      23.033  24.395  16.565  1.00  0.00    -0.341 OA
ATOM     12  C   UNL     1      23.511  25.911  14.741  1.00  0.00     0.202 C 
ATOM     13  C   UNL     1      23.076  26.961  15.698  1.00  0.00     0.179 C 
ATOM     14  C   UNL     1      23.190  26.608  17.154  1.00  0.00     0.177 C 
BRANCH  10  15
ATOM     15  O   UNL     1      22.531  23.740  14.472  1.00  0.00    -0.341 OA
BRANCH  15  16
ATOM     16  C   UNL     1      23.133  23.049  13.407  1.00  0.00     0.184 C 
ATOM     17  C   UNL     1      22.532  23.411  12.095  1.00  0.00     0.178 C 
ATOM     18  O   UNL     1      21.558  22.597  11.605  1.00  0.00    -0.341 OA
ATOM     19  C   UNL     1      21.172  21.551  12.460  1.00  0.00     0.281 C 
ATOM     20  C   UNL     1      23.255  21.585  13.685  1.00  0.00     0.180 C 
ATOM     21  C   UNL     1      22.420  20.748  12.705  1.00  0.00     0.202 C 
BRANCH  17  22
ATOM     22  C   UNL     1      23.577  23.613  11.009  1.00  0.00     0.191 C 
BRANCH  22  23
ATOM     23  O   UNL     1      24.822  23.455  11.616  1.00  0.00    -0.394 OA
ATOM     24  H   UNL     1      25.434  22.889  11.059  1.00  0.00     0.210 HD
ENDBRANCH  22  23
ENDBRANCH  17  22
BRANCH  19  25
ATOM     25  O   UNL     1      20.150  20.879  11.847  1.00  0.00    -0.350 OA
BRANCH  25  26
ATOM     26  C   UNL     1      20.132  21.009  10.472  1.00  0.00     0.169 C 
BRANCH  26  27
ATOM     27  C   UNL     1      20.254  19.738   9.697  1.00  0.00     0.119 C 
BRANCH  27  28
ATOM     28  N   UNL     1      20.583  18.634  10.558  1.00  0.00    -0.092 NA
ATOM     29  N   UNL     1      21.561  17.930  10.260  1.00  0.00     0.001 N 
ATOM     30  N   UNL     1      22.509  17.145  10.273  1.00  0.00    -0.003 NA
ENDBRANCH  27  28
ENDBRANCH  26  27
ENDBRANCH  25  26
ENDBRANCH  19  25
BRANCH  20  31
ATOM     31  O   UNL     1      24.551  21.121  13.746  1.00  0.00    -0.387 OA
ATOM     32  H   UNL     1      25.004  21.208  12.881  1.00  0.00     0.211 HD
ENDBRANCH  20  31
BRANCH  21  33
ATOM     33  O   UNL     1      22.158  19.489  13.178  1.00  0.00    -0.385 OA
ATOM     34  H   UNL     1      21.984  19.476  14.158  1.00  0.00     0.211 HD
ENDBRANCH  21  33
ENDBRANCH  15  16
ENDBRANCH  10  15
BRANCH  12  35
ATOM     35  O   UNL     1      24.799  26.188  14.212  1.00  0.00    -0.385 OA
ATOM     36  H   UNL     1      24.729  26.896  13.518  1.00  0.00     0.211 HD
ENDBRANCH  12  35
BRANCH  13  37
ATOM     37  O   UNL     1      21.720  27.261  15.456  1.00  0.00    -0.387 OA
ATOM     38  H   UNL     1      21.170  26.586  15.916  1.00  0.00     0.211 HD
ENDBRANCH  13  37
BRANCH  14  39
ATOM     39  O   UNL     1      21.908  26.358  17.702  1.00  0.00    -0.387 OA
ATOM     40  H   UNL     1      22.037  26.470  18.695  1.00  0.00     0.211 HD
ENDBRANCH  14  39
ENDBRANCH   8   9
ENDBRANCH   7   8
ENDBRANCH   1   7
BRANCH   1  41
ATOM     41  C   UNL     1      24.353  24.972  21.497  1.00  0.00     0.364 C 
ATOM     42  O   UNL     1      24.776  24.017  22.176  1.00  0.00    -0.246 OA
BRANCH  41  43
ATOM     43  O   UNL     1      25.216  26.082  21.441  1.00  0.00    -0.477 OA
ATOM     44  H   UNL     1      24.856  27.014  21.284  1.00  0.00     0.296 HD
ENDBRANCH  41  43
ENDBRANCH   1  41
BRANCH   3  45
ATOM     45  O   UNL     1      20.381  24.311  23.223  1.00  0.00    -0.391 OA
ATOM     46  H   UNL     1      20.300  24.099  24.195  1.00  0.00     0.211 HD
ENDBRANCH   3  45
BRANCH   5  47
ATOM     47  C   UNL     1      22.015  28.330  21.778  1.00  0.00     0.176 C 
BRANCH  47  48
ATOM     48  O   UNL     1      20.728  28.378  22.309  1.00  0.00    -0.388 OA
ATOM     49  H   UNL     1      20.308  27.489  22.253  1.00  0.00     0.211 HD
ENDBRANCH  47  48
BRANCH  47  50
ATOM     50  C   UNL     1      21.922  28.543  20.309  1.00  0.00     0.165 C 
BRANCH  50  51
ATOM     51  O   UNL     1      23.121  29.088  19.852  1.00  0.00    -0.388 OA
ATOM     52  H   UNL     1      23.791  29.132  20.577  1.00  0.00     0.211 HD
ENDBRANCH  50  51
BRANCH  50  53
ATOM     53  C   UNL     1      20.807  29.457  19.875  1.00  0.00     0.154 C 
BRANCH  53  54
ATOM     54  N   UNL     1      19.592  28.763  19.567  1.00  0.00    -0.319 N 
ATOM     55  C   UNL     1      19.186  28.367  18.287  1.00  0.00     0.407 C 
ATOM     56  H   UNL     1      18.945  28.532  20.380  1.00  0.00     0.167 HD
ATOM     57  O   UNL     1      19.920  28.622  17.309  1.00  0.00    -0.225 OA
BRANCH  55  58
ATOM     58  O   UNL     1      17.987  27.704  18.130  1.00  0.00    -0.443 OA
BRANCH  58  59
ATOM     59  C   UNL     1      16.762  28.337  17.899  1.00  0.00     0.294 C 
BRANCH  59  60
ATOM     60  C   UNL     1      16.030  28.459  19.175  1.00  0.00     0.120 A 
ATOM     61  C   UNL     1      14.805  29.020  19.364  1.00  0.00     0.138 A 
ATOM     62  N   UNL     1      16.472  28.024  20.364  1.00  0.00    -0.132 NA
ATOM     63  N   UNL     1      14.523  28.915  20.674  1.00  0.00    -0.248 N 
ATOM     64  N   UNL     1      15.533  28.314  21.269  1.00  0.00    -0.067 NA
BRANCH  63  65
ATOM     65  C   UNL     1      13.315  29.386  21.303  1.00  0.00     0.182 C 
BRANCH  65  66
ATOM     66  C   UNL     1      13.701  30.298  22.474  1.00  0.00    -0.016 A 
ATOM     67  C   UNL     1      14.254  31.484  22.327  1.00  0.00     0.017 A 
ATOM     68  C   UNL     1      13.445  29.825  23.760  1.00  0.00     0.070 A 
ATOM     69  C   UNL     1      14.582  32.266  23.419  1.00  0.00     0.065 A 
ATOM     70  S   UNL     1      14.041  31.179  24.791  1.00  0.00    -0.152 S 
ENDBRANCH  65  66
ENDBRANCH  63  65
ENDBRANCH  59  60
ENDBRANCH  58  59
ENDBRANCH  55  58
ENDBRANCH  53  54
ENDBRANCH  50  53
ENDBRANCH  47  50
ENDBRANCH   5  47
BRANCH   4  71
ATOM     71  N   UNL     1      22.097  26.724  24.332  1.00  0.00    -0.348 N 
ATOM     72  C   UNL     1      21.141  27.080  25.319  1.00  0.00     0.217 C 
ATOM     73  H   UNL     1      23.104  26.841  24.580  1.00  0.00     0.163 HD
ATOM     74  C   UNL     1      21.514  27.604  26.669  1.00  0.00     0.114 C 
ATOM     75  O   UNL     1      19.931  26.926  24.985  1.00  0.00    -0.275 OA
ENDBRANCH   4  71
TORSDOF 31
