REMARK VINA RESULT:    -6.646      8.130     16.339
REMARK INTER + INTRA:         -24.169
REMARK INTER:                 -17.028
REMARK INTRA:                  -7.140
REMARK UNBOUND:                -7.033
REMARK SMILES CC(=O)N[C@@H]1[C@@H](O)C[C@](OC[C@H]2O[C@@H](O[C@H]3[C@H](O)[C@@H](O)[C@H](OCCN=[N+]=[N-])O[C@@H]3CO)[C@H](O)[C@@H](O)[C@H]2O)(C(=O)O)O[C@H]1C(O)[C@H](O)CNC(=O)OCc1cn(C(C)(C)C(=O)c2c[nH]c3ccccc23)nn1
REMARK SMILES IDX 9 1 8 2 6 3 5 4 42 5 41 6 10 7 11 8 12 9 14 10 13 11 32 12
REMARK SMILES IDX 34 13 36 14 15 15 16 16 29 17 28 18 21 19 17 20 19 21 30 22
REMARK SMILES IDX 31 23 22 25 23 26 24 27 25 28 26 29 27 30 18 31 20 33 33 35
REMARK SMILES IDX 35 37 37 39 38 41 39 42 40 43 7 45 43 47 44 48 45 50 46 51
REMARK SMILES IDX 47 53 48 54 49 55 50 57 51 58 52 59 53 60 54 61 71 62 55 63
REMARK SMILES IDX 70 64 56 65 57 66 58 67 59 68 60 69 61 70 62 71 69 72 63 73
REMARK SMILES IDX 64 74 68 75 65 77 67 78 66 79 4 80 2 81 1 83 3 84
REMARK H PARENT 31 24 18 32 20 34 33 36 35 38 37 40 40 44 7 46 44 49 46 52
REMARK H PARENT 48 56 63 76 4 82
REMARK Flexibility Score: inf
ROOT
ATOM      1  C   UNL     1      23.441  26.090  25.310  1.00  0.00     0.272 C 
ATOM      2  C   UNL     1      23.116  27.549  25.035  1.00  0.00     0.113 C 
ATOM      3  C   UNL     1      21.661  27.742  24.689  1.00  0.00     0.145 C 
ATOM      4  C   UNL     1      21.392  27.070  23.298  1.00  0.00     0.142 C 
ATOM      5  C   UNL     1      22.251  25.848  23.288  1.00  0.00     0.178 C 
ATOM      6  O   UNL     1      22.481  25.394  24.570  1.00  0.00    -0.332 OA
ENDROOT
BRANCH   1   7
ATOM      7  O   UNL     1      23.481  25.700  26.586  1.00  0.00    -0.338 OA
BRANCH   7   8
ATOM      8  C   UNL     1      23.541  26.293  27.731  1.00  0.00     0.199 C 
BRANCH   8   9
ATOM      9  C   UNL     1      22.626  25.711  28.811  1.00  0.00     0.179 C 
ATOM     10  C   UNL     1      23.641  26.598  30.762  1.00  0.00     0.282 C 
ATOM     11  O   UNL     1      23.286  25.555  29.982  1.00  0.00    -0.341 OA
ATOM     12  C   UNL     1      22.569  27.639  30.926  1.00  0.00     0.202 C 
ATOM     13  C   UNL     1      21.259  27.130  30.335  1.00  0.00     0.179 C 
ATOM     14  C   UNL     1      21.427  26.607  28.959  1.00  0.00     0.177 C 
BRANCH  10  15
ATOM     15  O   UNL     1      24.783  27.208  30.273  1.00  0.00    -0.341 OA
BRANCH  15  16
ATOM     16  C   UNL     1      25.919  26.876  30.953  1.00  0.00     0.184 C 
ATOM     17  C   UNL     1      26.694  27.977  31.581  1.00  0.00     0.178 C 
ATOM     18  O   UNL     1      27.514  27.380  32.561  1.00  0.00    -0.341 OA
ATOM     19  C   UNL     1      28.425  26.500  32.054  1.00  0.00     0.281 C 
ATOM     20  C   UNL     1      26.891  26.058  30.127  1.00  0.00     0.180 C 
ATOM     21  C   UNL     1      27.856  25.451  31.123  1.00  0.00     0.202 C 
BRANCH  17  22
ATOM     22  C   UNL     1      25.852  28.992  32.328  1.00  0.00     0.191 C 
BRANCH  22  23
ATOM     23  O   UNL     1      25.317  29.866  31.375  1.00  0.00    -0.394 OA
ATOM     24  H   UNL     1      25.602  29.651  30.457  1.00  0.00     0.210 HD
ENDBRANCH  22  23
ENDBRANCH  17  22
BRANCH  19  25
ATOM     25  O   UNL     1      28.977  25.794  33.128  1.00  0.00    -0.350 OA
BRANCH  25  26
ATOM     26  C   UNL     1      28.023  25.695  34.123  1.00  0.00     0.169 C 
BRANCH  26  27
ATOM     27  C   UNL     1      28.576  26.007  35.488  1.00  0.00     0.119 C 
BRANCH  27  28
ATOM     28  N   UNL     1      28.588  24.867  36.378  1.00  0.00    -0.092 NA
ATOM     29  N   UNL     1      29.140  23.799  36.046  1.00  0.00     0.001 N 
ATOM     30  N   UNL     1      30.067  23.002  35.886  1.00  0.00    -0.003 NA
ENDBRANCH  27  28
ENDBRANCH  26  27
ENDBRANCH  25  26
ENDBRANCH  19  25
BRANCH  20  31
ATOM     31  O   UNL     1      26.279  25.060  29.404  1.00  0.00    -0.387 OA
ATOM     32  H   UNL     1      26.971  24.443  29.084  1.00  0.00     0.211 HD
ENDBRANCH  20  31
BRANCH  21  33
ATOM     33  O   UNL     1      28.924  24.914  30.406  1.00  0.00    -0.385 OA
ATOM     34  H   UNL     1      29.121  23.976  30.676  1.00  0.00     0.211 HD
ENDBRANCH  21  33
ENDBRANCH  15  16
ENDBRANCH  10  15
BRANCH  12  35
ATOM     35  O   UNL     1      22.379  28.051  32.245  1.00  0.00    -0.385 OA
ATOM     36  H   UNL     1      22.317  27.264  32.825  1.00  0.00     0.211 HD
ENDBRANCH  12  35
BRANCH  13  37
ATOM     37  O   UNL     1      20.393  28.248  30.357  1.00  0.00    -0.387 OA
ATOM     38  H   UNL     1      20.905  29.088  30.453  1.00  0.00     0.211 HD
ENDBRANCH  13  37
BRANCH  14  39
ATOM     39  O   UNL     1      21.594  27.673  28.040  1.00  0.00    -0.387 OA
ATOM     40  H   UNL     1      22.482  28.092  28.186  1.00  0.00     0.211 HD
ENDBRANCH  14  39
ENDBRANCH   8   9
ENDBRANCH   7   8
ENDBRANCH   1   7
BRANCH   1  41
ATOM     41  C   UNL     1      24.780  25.818  24.741  1.00  0.00     0.364 C 
ATOM     42  O   UNL     1      25.567  26.782  24.559  1.00  0.00    -0.246 OA
BRANCH  41  43
ATOM     43  O   UNL     1      25.219  24.580  24.395  1.00  0.00    -0.477 OA
ATOM     44  H   UNL     1      25.027  23.704  24.877  1.00  0.00     0.296 HD
ENDBRANCH  41  43
ENDBRANCH   1  41
BRANCH   3  45
ATOM     45  O   UNL     1      20.763  27.118  25.523  1.00  0.00    -0.391 OA
ATOM     46  H   UNL     1      19.972  26.739  25.043  1.00  0.00     0.211 HD
ENDBRANCH   3  45
BRANCH   5  47
ATOM     47  C   UNL     1      21.777  24.683  22.502  1.00  0.00     0.176 C 
BRANCH  47  48
ATOM     48  O   UNL     1      20.497  24.826  22.018  1.00  0.00    -0.388 OA
ATOM     49  H   UNL     1      19.958  25.538  22.463  1.00  0.00     0.211 HD
ENDBRANCH  47  48
BRANCH  47  50
ATOM     50  C   UNL     1      22.752  24.086  21.510  1.00  0.00     0.165 C 
BRANCH  50  51
ATOM     51  O   UNL     1      23.869  23.577  22.086  1.00  0.00    -0.388 OA
ATOM     52  H   UNL     1      24.263  22.852  21.579  1.00  0.00     0.211 HD
ENDBRANCH  50  51
BRANCH  50  53
ATOM     53  C   UNL     1      22.940  25.059  20.392  1.00  0.00     0.154 C 
BRANCH  53  54
ATOM     54  N   UNL     1      24.223  25.633  20.232  1.00  0.00    -0.319 N 
ATOM     55  C   UNL     1      25.126  25.292  19.165  1.00  0.00     0.407 C 
ATOM     56  H   UNL     1      24.575  26.365  20.921  1.00  0.00     0.167 HD
ATOM     57  O   UNL     1      24.831  24.432  18.310  1.00  0.00    -0.225 OA
BRANCH  55  58
ATOM     58  O   UNL     1      26.357  25.910  19.056  1.00  0.00    -0.443 OA
BRANCH  58  59
ATOM     59  C   UNL     1      27.161  26.173  20.170  1.00  0.00     0.294 C 
BRANCH  59  60
ATOM     60  C   UNL     1      27.375  24.886  20.903  1.00  0.00     0.120 A 
ATOM     61  C   UNL     1      28.474  24.026  20.724  1.00  0.00     0.139 A 
ATOM     62  N   UNL     1      26.622  24.266  21.820  1.00  0.00    -0.132 NA
ATOM     63  N   UNL     1      28.339  22.954  21.515  1.00  0.00    -0.239 N 
ATOM     64  N   UNL     1      27.216  23.111  22.173  1.00  0.00    -0.066 NA
BRANCH  63  65
ATOM     65  C   UNL     1      29.281  21.857  21.597  1.00  0.00     0.122 C 
ATOM     66  C   UNL     1      29.606  21.677  23.121  1.00  0.00     0.046 C 
ATOM     67  C   UNL     1      30.627  22.170  20.989  1.00  0.00     0.046 C 
BRANCH  65  68
ATOM     68  C   UNL     1      28.710  20.602  21.147  1.00  0.00     0.192 C 
ATOM     69  O   UNL     1      28.090  19.931  22.082  1.00  0.00    -0.291 OA
BRANCH  68  70
ATOM     70  C   UNL     1      28.710  19.977  19.861  1.00  0.00     0.045 A 
ATOM     71  C   UNL     1      29.205  18.688  19.626  1.00  0.00     0.095 A 
ATOM     72  C   UNL     1      28.285  20.460  18.639  1.00  0.00     0.010 A 
ATOM     73  N   UNL     1      29.076  18.433  18.339  1.00  0.00    -0.360 N 
ATOM     74  C   UNL     1      28.530  19.462  17.691  1.00  0.00     0.046 A 
ATOM     75  C   UNL     1      27.720  21.627  18.204  1.00  0.00     0.011 A 
ATOM     76  H   UNL     1      29.380  17.516  17.903  1.00  0.00     0.166 HD
ATOM     77  C   UNL     1      28.211  19.645  16.357  1.00  0.00     0.027 A 
ATOM     78  C   UNL     1      27.401  21.807  16.859  1.00  0.00     0.001 A 
ATOM     79  C   UNL     1      27.648  20.820  15.951  1.00  0.00     0.002 A 
ENDBRANCH  68  70
ENDBRANCH  65  68
ENDBRANCH  63  65
ENDBRANCH  59  60
ENDBRANCH  58  59
ENDBRANCH  55  58
ENDBRANCH  53  54
ENDBRANCH  50  53
ENDBRANCH  47  50
ENDBRANCH   5  47
BRANCH   4  80
ATOM     80  N   UNL     1      21.899  28.070  22.363  1.00  0.00    -0.348 N 
ATOM     81  C   UNL     1      21.339  28.317  21.084  1.00  0.00     0.217 C 
ATOM     82  H   UNL     1      22.737  28.648  22.644  1.00  0.00     0.163 HD
ATOM     83  C   UNL     1      21.862  29.333  20.134  1.00  0.00     0.114 C 
ATOM     84  O   UNL     1      20.326  27.604  20.765  1.00  0.00    -0.275 OA
ENDBRANCH   4  80
TORSDOF 32
