REMARK VINA RESULT:    -6.149      6.408     13.862
REMARK INTER + INTRA:         -23.709
REMARK INTER:                 -13.756
REMARK INTRA:                  -9.953
REMARK UNBOUND:                -7.494
REMARK SMILES CC(=O)N[C@@H]1[C@@H](O)C[C@](OC[C@H]2O[C@@H](O[C@H]3[C@H](O)[C@@H](O)[C@H](OCCN=[N+]=[N-])O[C@@H]3CO)[C@H](O)[C@@H](O)[C@H]2O)(C(=O)O)O[C@H]1C(O)[C@H](O)CNC(=O)OCc1cn(C(C)CC(=O)c2ccccc2)nn1
REMARK SMILES IDX 43 1 42 2 9 3 8 4 41 5 6 6 5 7 10 8 11 9 12 10 14 11 13 12
REMARK SMILES IDX 32 13 34 14 36 15 15 16 16 17 29 18 28 19 21 20 17 21 19 22
REMARK SMILES IDX 30 23 31 24 22 26 23 27 24 28 25 29 26 30 27 31 18 32 20 34
REMARK SMILES IDX 33 36 35 38 37 40 38 42 39 43 40 44 7 46 4 48 2 49 1 51 3 52
REMARK SMILES IDX 44 53 45 55 46 56 47 58 48 59 49 60 50 62 51 63 52 64 53 65
REMARK SMILES IDX 54 66 68 67 55 68 67 69 56 70 57 71 58 72 59 73 60 74 61 75
REMARK SMILES IDX 62 76 66 77 63 78 65 79 64 80
REMARK H PARENT 31 25 18 33 20 35 33 37 35 39 37 41 40 45 7 47 4 50 44 54
REMARK H PARENT 46 57 48 61
REMARK Flexibility Score: inf
ROOT
ATOM      1  C   UNL     1      25.574  24.858  22.964  1.00  0.00     0.176 C 
ENDROOT
BRANCH   1   2
ATOM      2  C   UNL     1      24.261  24.363  22.545  1.00  0.00     0.178 C 
ATOM      3  C   UNL     1      23.201  25.417  20.720  1.00  0.00     0.272 C 
ATOM      4  C   UNL     1      21.830  25.178  21.253  1.00  0.00     0.113 C 
ATOM      5  O   UNL     1      23.980  24.317  21.237  1.00  0.00    -0.332 OA
ATOM      6  C   UNL     1      21.869  24.634  22.669  1.00  0.00     0.145 C 
ATOM      7  C   UNL     1      23.122  25.014  23.363  1.00  0.00     0.142 C 
BRANCH   3   8
ATOM      8  O   UNL     1      23.870  26.505  20.964  1.00  0.00    -0.338 OA
BRANCH   8   9
ATOM      9  C   UNL     1      23.802  27.769  20.735  1.00  0.00     0.199 C 
BRANCH   9  10
ATOM     10  C   UNL     1      22.797  28.748  21.250  1.00  0.00     0.179 C 
ATOM     11  C   UNL     1      20.441  28.955  21.156  1.00  0.00     0.282 C 
ATOM     12  O   UNL     1      21.611  28.491  20.686  1.00  0.00    -0.341 OA
ATOM     13  C   UNL     1      20.277  28.659  22.609  1.00  0.00     0.202 C 
ATOM     14  C   UNL     1      21.490  28.884  23.392  1.00  0.00     0.179 C 
ATOM     15  C   UNL     1      22.800  29.039  22.698  1.00  0.00     0.177 C 
BRANCH  11  16
ATOM     16  O   UNL     1      19.447  28.284  20.393  1.00  0.00    -0.341 OA
BRANCH  16  17
ATOM     17  C   UNL     1      18.670  29.212  19.743  1.00  0.00     0.184 C 
ATOM     18  C   UNL     1      17.447  28.582  19.143  1.00  0.00     0.178 C 
ATOM     19  O   UNL     1      17.770  27.685  18.138  1.00  0.00    -0.341 OA
ATOM     20  C   UNL     1      18.551  28.142  17.123  1.00  0.00     0.281 C 
ATOM     21  C   UNL     1      19.511  29.848  18.617  1.00  0.00     0.180 C 
ATOM     22  C   UNL     1      19.783  28.874  17.530  1.00  0.00     0.202 C 
BRANCH  18  23
ATOM     23  C   UNL     1      16.457  29.626  18.669  1.00  0.00     0.191 C 
BRANCH  23  24
ATOM     24  O   UNL     1      15.418  29.078  17.926  1.00  0.00    -0.394 OA
ATOM     25  H   UNL     1      14.588  29.086  18.474  1.00  0.00     0.210 HD
ENDBRANCH  23  24
ENDBRANCH  18  23
BRANCH  20  26
ATOM     26  O   UNL     1      17.882  28.817  16.133  1.00  0.00    -0.350 OA
BRANCH  26  27
ATOM     27  C   UNL     1      18.643  29.192  15.060  1.00  0.00     0.169 C 
BRANCH  27  28
ATOM     28  C   UNL     1      17.832  29.822  13.959  1.00  0.00     0.119 C 
BRANCH  28  29
ATOM     29  N   UNL     1      17.001  28.795  13.356  1.00  0.00    -0.092 NA
ATOM     30  N   UNL     1      15.916  28.520  13.861  1.00  0.00     0.001 N 
ATOM     31  N   UNL     1      14.755  28.399  14.257  1.00  0.00    -0.003 NA
ENDBRANCH  28  29
ENDBRANCH  27  28
ENDBRANCH  26  27
ENDBRANCH  20  26
BRANCH  21  32
ATOM     32  O   UNL     1      18.927  31.028  18.174  1.00  0.00    -0.387 OA
ATOM     33  H   UNL     1      19.460  31.827  18.405  1.00  0.00     0.211 HD
ENDBRANCH  21  32
BRANCH  22  34
ATOM     34  O   UNL     1      20.852  28.029  17.831  1.00  0.00    -0.385 OA
ATOM     35  H   UNL     1      20.452  27.252  18.299  1.00  0.00     0.211 HD
ENDBRANCH  22  34
ENDBRANCH  16  17
ENDBRANCH  11  16
BRANCH  13  36
ATOM     36  O   UNL     1      19.237  29.471  23.150  1.00  0.00    -0.385 OA
ATOM     37  H   UNL     1      18.779  29.854  22.355  1.00  0.00     0.211 HD
ENDBRANCH  13  36
BRANCH  14  38
ATOM     38  O   UNL     1      21.583  27.839  24.355  1.00  0.00    -0.387 OA
ATOM     39  H   UNL     1      21.926  28.172  25.217  1.00  0.00     0.211 HD
ENDBRANCH  14  38
BRANCH  15  40
ATOM     40  O   UNL     1      23.760  28.385  23.444  1.00  0.00    -0.387 OA
ATOM     41  H   UNL     1      24.232  28.880  24.117  1.00  0.00     0.211 HD
ENDBRANCH  15  40
ENDBRANCH   9  10
ENDBRANCH   8   9
ENDBRANCH   3   8
BRANCH   3  42
ATOM     42  C   UNL     1      23.163  25.088  19.228  1.00  0.00     0.364 C 
ATOM     43  O   UNL     1      23.986  24.296  18.755  1.00  0.00    -0.246 OA
BRANCH  42  44
ATOM     44  O   UNL     1      22.220  25.661  18.405  1.00  0.00    -0.477 OA
ATOM     45  H   UNL     1      22.552  26.295  17.687  1.00  0.00     0.296 HD
ENDBRANCH  42  44
ENDBRANCH   3  42
BRANCH   6  46
ATOM     46  O   UNL     1      20.722  24.975  23.376  1.00  0.00    -0.391 OA
ATOM     47  H   UNL     1      20.432  25.896  23.064  1.00  0.00     0.211 HD
ENDBRANCH   6  46
BRANCH   7  48
ATOM     48  N   UNL     1      23.175  24.407  24.689  1.00  0.00    -0.348 N 
ATOM     49  C   UNL     1      23.372  25.158  25.879  1.00  0.00     0.217 C 
ATOM     50  H   UNL     1      23.063  23.381  24.772  1.00  0.00     0.163 HD
ATOM     51  C   UNL     1      23.426  24.544  27.207  1.00  0.00     0.114 C 
ATOM     52  O   UNL     1      23.512  26.426  25.786  1.00  0.00    -0.275 OA
ENDBRANCH   7  48
ENDBRANCH   1   2
BRANCH   1  53
ATOM     53  O   UNL     1      25.564  26.179  23.474  1.00  0.00    -0.388 OA
ATOM     54  H   UNL     1      26.530  26.433  23.599  1.00  0.00     0.211 HD
ENDBRANCH   1  53
BRANCH   1  55
ATOM     55  C   UNL     1      26.697  24.816  21.950  1.00  0.00     0.165 C 
BRANCH  55  56
ATOM     56  O   UNL     1      26.614  25.747  20.967  1.00  0.00    -0.388 OA
ATOM     57  H   UNL     1      25.910  26.403  21.183  1.00  0.00     0.211 HD
ENDBRANCH  55  56
BRANCH  55  58
ATOM     58  C   UNL     1      26.670  23.406  21.340  1.00  0.00     0.154 C 
BRANCH  58  59
ATOM     59  N   UNL     1      26.662  23.481  19.896  1.00  0.00    -0.319 N 
ATOM     60  C   UNL     1      27.513  22.767  19.023  1.00  0.00     0.407 C 
ATOM     61  H   UNL     1      25.959  24.115  19.401  1.00  0.00     0.167 HD
ATOM     62  O   UNL     1      28.341  21.947  19.465  1.00  0.00    -0.225 OA
BRANCH  60  63
ATOM     63  O   UNL     1      27.458  22.958  17.628  1.00  0.00    -0.443 OA
BRANCH  63  64
ATOM     64  C   UNL     1      28.133  24.106  17.069  1.00  0.00     0.294 C 
BRANCH  64  65
ATOM     65  C   UNL     1      27.141  25.226  17.265  1.00  0.00     0.120 A 
ATOM     66  C   UNL     1      26.110  25.501  16.346  1.00  0.00     0.138 A 
ATOM     67  N   UNL     1      27.033  26.149  18.201  1.00  0.00    -0.132 NA
ATOM     68  N   UNL     1      25.431  26.579  16.768  1.00  0.00    -0.249 N 
ATOM     69  N   UNL     1      25.998  26.956  17.887  1.00  0.00    -0.067 NA
BRANCH  68  70
ATOM     70  C   UNL     1      24.305  27.165  16.039  1.00  0.00     0.114 C 
ATOM     71  C   UNL     1      24.575  28.620  15.820  1.00  0.00     0.034 C 
BRANCH  70  72
ATOM     72  C   UNL     1      24.000  26.370  14.812  1.00  0.00     0.108 C 
BRANCH  72  73
ATOM     73  C   UNL     1      22.832  25.500  15.111  1.00  0.00     0.164 C 
ATOM     74  O   UNL     1      21.855  25.924  15.733  1.00  0.00    -0.294 OA
BRANCH  73  75
ATOM     75  C   UNL     1      22.886  24.110  14.633  1.00  0.00     0.018 A 
ATOM     76  C   UNL     1      22.244  23.693  13.525  1.00  0.00     0.012 A 
ATOM     77  C   UNL     1      23.654  23.211  15.391  1.00  0.00     0.012 A 
ATOM     78  C   UNL     1      22.340  22.353  13.112  1.00  0.00     0.001 A 
ATOM     79  C   UNL     1      23.734  21.914  14.974  1.00  0.00     0.001 A 
ATOM     80  C   UNL     1      23.092  21.469  13.849  1.00  0.00     0.000 A 
ENDBRANCH  73  75
ENDBRANCH  72  73
ENDBRANCH  70  72
ENDBRANCH  68  70
ENDBRANCH  64  65
ENDBRANCH  63  64
ENDBRANCH  60  63
ENDBRANCH  58  59
ENDBRANCH  55  58
ENDBRANCH   1  55
TORSDOF 33
