REMARK VINA RESULT:    -5.948      3.857      8.756
REMARK INTER + INTRA:         -22.191
REMARK INTER:                 -14.517
REMARK INTRA:                  -7.674
REMARK UNBOUND:                -7.203
REMARK SMILES CC(=O)N[C@@H]1[C@@H](O)C[C@](OC[C@H]2O[C@@H](O[C@H]3[C@H](O)[C@@H](O)[C@H](OCCN=[N+]=[N-])O[C@@H]3CO)[C@H](O)[C@@H](O)[C@H]2O)(C(=O)O)O[C@H]1C(O)[C@H](O)CNC(=O)OCc1cn(CC2=CC[C@H]3C[C@@H]2C3(C)C)nn1
REMARK SMILES IDX 9 1 8 2 6 3 5 4 42 5 41 6 10 7 11 8 12 9 14 10 13 11 32 12
REMARK SMILES IDX 34 13 36 14 15 15 16 16 29 17 28 18 21 19 17 20 19 21 30 22
REMARK SMILES IDX 31 23 22 25 23 26 24 27 25 28 26 29 27 30 18 31 20 33 33 35
REMARK SMILES IDX 35 37 37 39 38 41 39 42 40 43 7 45 43 47 44 48 45 50 46 51
REMARK SMILES IDX 47 53 48 54 49 55 50 57 51 58 52 59 53 60 54 61 67 62 55 63
REMARK SMILES IDX 66 64 56 65 57 66 58 67 62 68 59 69 61 70 63 71 60 72 64 73
REMARK SMILES IDX 65 74 4 75 2 76 1 78 3 79
REMARK H PARENT 31 24 18 32 20 34 33 36 35 38 37 40 40 44 7 46 44 49 46 52
REMARK H PARENT 48 56 4 77
REMARK Flexibility Score: inf
ROOT
ATOM      1  C   UNL     1      20.958  30.648  20.133  1.00  0.00     0.272 C 
ATOM      2  C   UNL     1      19.756  31.084  20.905  1.00  0.00     0.113 C 
ATOM      3  C   UNL     1      18.896  29.864  21.279  1.00  0.00     0.145 C 
ATOM      4  C   UNL     1      18.391  29.186  20.057  1.00  0.00     0.142 C 
ATOM      5  C   UNL     1      19.199  29.717  18.891  1.00  0.00     0.178 C 
ATOM      6  O   UNL     1      20.524  29.706  19.140  1.00  0.00    -0.332 OA
ENDROOT
BRANCH   1   7
ATOM      7  O   UNL     1      21.904  30.004  20.799  1.00  0.00    -0.338 OA
BRANCH   7   8
ATOM      8  C   UNL     1      22.914  29.301  20.355  1.00  0.00     0.199 C 
BRANCH   8   9
ATOM      9  C   UNL     1      23.178  27.877  20.609  1.00  0.00     0.179 C 
ATOM     10  C   UNL     1      22.941  26.345  22.326  1.00  0.00     0.282 C 
ATOM     11  O   UNL     1      22.485  27.555  21.817  1.00  0.00    -0.341 OA
ATOM     12  C   UNL     1      23.159  25.282  21.347  1.00  0.00     0.202 C 
ATOM     13  C   UNL     1      23.032  25.579  19.906  1.00  0.00     0.179 C 
ATOM     14  C   UNL     1      22.452  26.942  19.622  1.00  0.00     0.177 C 
BRANCH  10  15
ATOM     15  O   UNL     1      21.940  25.954  23.236  1.00  0.00    -0.341 OA
BRANCH  15  16
ATOM     16  C   UNL     1      22.295  26.191  24.552  1.00  0.00     0.184 C 
ATOM     17  C   UNL     1      22.363  27.668  24.812  1.00  0.00     0.178 C 
ATOM     18  O   UNL     1      23.048  28.009  25.966  1.00  0.00    -0.341 OA
ATOM     19  C   UNL     1      23.367  26.985  26.808  1.00  0.00     0.281 C 
ATOM     20  C   UNL     1      23.718  25.652  24.727  1.00  0.00     0.180 C 
ATOM     21  C   UNL     1      24.146  25.875  26.146  1.00  0.00     0.202 C 
BRANCH  17  22
ATOM     22  C   UNL     1      20.927  28.194  24.919  1.00  0.00     0.191 C 
BRANCH  22  23
ATOM     23  O   UNL     1      20.108  27.128  25.261  1.00  0.00    -0.394 OA
ATOM     24  H   UNL     1      20.201  26.973  26.251  1.00  0.00     0.210 HD
ENDBRANCH  22  23
ENDBRANCH  17  22
BRANCH  19  25
ATOM     25  O   UNL     1      22.232  26.434  27.418  1.00  0.00    -0.350 OA
BRANCH  25  26
ATOM     26  C   UNL     1      22.548  25.316  28.191  1.00  0.00     0.169 C 
BRANCH  26  27
ATOM     27  C   UNL     1      22.760  25.847  29.611  1.00  0.00     0.119 C 
BRANCH  27  28
ATOM     28  N   UNL     1      23.985  25.296  30.150  1.00  0.00    -0.092 NA
ATOM     29  N   UNL     1      25.084  25.643  29.757  1.00  0.00     0.001 N 
ATOM     30  N   UNL     1      26.171  25.920  29.235  1.00  0.00    -0.003 NA
ENDBRANCH  27  28
ENDBRANCH  26  27
ENDBRANCH  25  26
ENDBRANCH  19  25
BRANCH  20  31
ATOM     31  O   UNL     1      23.735  24.269  24.475  1.00  0.00    -0.387 OA
ATOM     32  H   UNL     1      23.584  24.093  23.521  1.00  0.00     0.211 HD
ENDBRANCH  20  31
BRANCH  21  33
ATOM     33  O   UNL     1      25.516  26.105  26.264  1.00  0.00    -0.385 OA
ATOM     34  H   UNL     1      25.865  26.351  25.360  1.00  0.00     0.211 HD
ENDBRANCH  21  33
ENDBRANCH  15  16
ENDBRANCH  10  15
BRANCH  12  35
ATOM     35  O   UNL     1      24.469  24.773  21.562  1.00  0.00    -0.385 OA
ATOM     36  H   UNL     1      24.778  24.955  22.485  1.00  0.00     0.211 HD
ENDBRANCH  12  35
BRANCH  13  37
ATOM     37  O   UNL     1      22.366  24.562  19.213  1.00  0.00    -0.387 OA
ATOM     38  H   UNL     1      21.730  24.096  19.821  1.00  0.00     0.211 HD
ENDBRANCH  13  37
BRANCH  14  39
ATOM     39  O   UNL     1      21.096  26.912  20.009  1.00  0.00    -0.387 OA
ATOM     40  H   UNL     1      20.518  27.120  19.234  1.00  0.00     0.211 HD
ENDBRANCH  14  39
ENDBRANCH   8   9
ENDBRANCH   7   8
ENDBRANCH   1   7
BRANCH   1  41
ATOM     41  C   UNL     1      21.446  31.759  19.274  1.00  0.00     0.364 C 
ATOM     42  O   UNL     1      21.556  32.939  19.759  1.00  0.00    -0.246 OA
BRANCH  41  43
ATOM     43  O   UNL     1      21.789  31.608  17.973  1.00  0.00    -0.477 OA
ATOM     44  H   UNL     1      22.203  32.287  17.356  1.00  0.00     0.296 HD
ENDBRANCH  41  43
ENDBRANCH   1  41
BRANCH   3  45
ATOM     45  O   UNL     1      19.810  28.989  21.885  1.00  0.00    -0.391 OA
ATOM     46  H   UNL     1      20.360  28.586  21.170  1.00  0.00     0.211 HD
ENDBRANCH   3  45
BRANCH   5  47
ATOM     47  C   UNL     1      18.955  28.867  17.641  1.00  0.00     0.176 C 
BRANCH  47  48
ATOM     48  O   UNL     1      19.990  27.989  17.446  1.00  0.00    -0.388 OA
ATOM     49  H   UNL     1      20.247  27.851  16.492  1.00  0.00     0.211 HD
ENDBRANCH  47  48
BRANCH  47  50
ATOM     50  C   UNL     1      18.745  29.739  16.440  1.00  0.00     0.165 C 
BRANCH  50  51
ATOM     51  O   UNL     1      19.009  31.066  16.885  1.00  0.00    -0.388 OA
ATOM     52  H   UNL     1      18.085  31.457  16.985  1.00  0.00     0.211 HD
ENDBRANCH  50  51
BRANCH  50  53
ATOM     53  C   UNL     1      17.320  29.739  15.986  1.00  0.00     0.154 C 
BRANCH  53  54
ATOM     54  N   UNL     1      16.530  30.824  16.471  1.00  0.00    -0.319 N 
ATOM     55  C   UNL     1      15.117  30.747  16.445  1.00  0.00     0.407 C 
ATOM     56  H   UNL     1      17.010  31.676  16.855  1.00  0.00     0.167 HD
ATOM     57  O   UNL     1      14.555  29.737  16.000  1.00  0.00    -0.225 OA
BRANCH  55  58
ATOM     58  O   UNL     1      14.342  31.790  16.915  1.00  0.00    -0.443 OA
BRANCH  58  59
ATOM     59  C   UNL     1      13.090  31.696  17.507  1.00  0.00     0.294 C 
BRANCH  59  60
ATOM     60  C   UNL     1      13.044  32.128  18.934  1.00  0.00     0.120 A 
ATOM     61  C   UNL     1      14.099  32.349  19.787  1.00  0.00     0.138 A 
ATOM     62  N   UNL     1      11.922  32.396  19.659  1.00  0.00    -0.132 NA
ATOM     63  N   UNL     1      13.619  32.734  20.972  1.00  0.00    -0.248 N 
ATOM     64  N   UNL     1      12.304  32.753  20.867  1.00  0.00    -0.067 NA
BRANCH  63  65
ATOM     65  C   UNL     1      14.396  33.078  22.177  1.00  0.00     0.177 C 
BRANCH  65  66
ATOM     66  C   UNL     1      14.516  31.794  22.944  1.00  0.00    -0.049 C 
ATOM     67  C   UNL     1      15.508  30.921  22.673  1.00  0.00    -0.025 C 
ATOM     68  C   UNL     1      13.582  31.424  24.017  1.00  0.00     0.023 C 
ATOM     69  C   UNL     1      15.502  29.600  23.338  1.00  0.00     0.031 C 
ATOM     70  C   UNL     1      14.431  30.850  25.159  1.00  0.00     0.013 C 
ATOM     71  C   UNL     1      13.076  30.032  23.784  1.00  0.00    -0.026 C 
ATOM     72  C   UNL     1      14.408  29.537  24.366  1.00  0.00    -0.000 C 
ATOM     73  C   UNL     1      11.949  29.610  24.696  1.00  0.00     0.012 C 
ATOM     74  C   UNL     1      12.808  29.624  22.376  1.00  0.00     0.012 C 
ENDBRANCH  65  66
ENDBRANCH  63  65
ENDBRANCH  59  60
ENDBRANCH  58  59
ENDBRANCH  55  58
ENDBRANCH  53  54
ENDBRANCH  50  53
ENDBRANCH  47  50
ENDBRANCH   5  47
BRANCH   4  75
ATOM     75  N   UNL     1      17.014  29.354  19.745  1.00  0.00    -0.348 N 
ATOM     76  C   UNL     1      16.015  28.372  19.795  1.00  0.00     0.217 C 
ATOM     77  H   UNL     1      16.729  30.332  19.446  1.00  0.00     0.163 HD
ATOM     78  C   UNL     1      14.606  28.687  19.442  1.00  0.00     0.114 C 
ATOM     79  O   UNL     1      16.363  27.231  20.147  1.00  0.00    -0.275 OA
ENDBRANCH   4  75
TORSDOF 31
