REMARK VINA RESULT:    -6.072     12.696     17.605
REMARK INTER + INTRA:         -25.862
REMARK INTER:                 -19.263
REMARK INTRA:                  -6.600
REMARK UNBOUND:                -8.963
REMARK SMILES CC(=O)N[C@@H]1[C@@H](O)C[C@](OC[C@H]2O[C@@H](O[C@H]3[C@H](O)[C@@H](O)[C@H](OCCN=[N+]=[N-])O[C@@H]3CO)[C@H](O)[C@@H](O)[C@H]2O)(C(=O)O)O[C@H]1C(O)[C@H](O)CNC(=O)OCc1cn(C[C@@H](C(=O)O)C(c2ccccc2)c2ccccc2)nn1
REMARK SMILES IDX 43 1 42 2 9 3 8 4 41 5 6 6 5 7 10 8 11 9 12 10 14 11 13 12
REMARK SMILES IDX 32 13 34 14 36 15 15 16 16 17 29 18 28 19 21 20 17 21 19 22
REMARK SMILES IDX 30 23 31 24 22 26 23 27 24 28 25 29 26 30 27 31 18 32 20 34
REMARK SMILES IDX 33 36 35 38 37 40 38 42 39 43 40 44 7 46 4 48 2 49 1 51 3 52
REMARK SMILES IDX 44 53 45 55 46 56 47 58 48 59 49 60 50 62 51 63 52 64 53 65
REMARK SMILES IDX 54 66 75 67 55 68 74 69 56 70 57 71 58 72 59 73 60 74 61 76
REMARK SMILES IDX 62 77 63 78 67 79 64 80 66 81 65 82 68 83 69 84 73 85 70 86
REMARK SMILES IDX 72 87 71 88
REMARK H PARENT 31 25 18 33 20 35 33 37 35 39 37 41 40 45 7 47 4 50 44 54
REMARK H PARENT 46 57 48 61 60 75
REMARK Flexibility Score: inf
ROOT
ATOM      1  C   UNL     1       3.277  20.751  33.272  1.00  0.00     0.176 C 
ENDROOT
BRANCH   1   2
ATOM      2  C   UNL     1       3.616  22.092  33.958  1.00  0.00     0.178 C 
ATOM      3  C   UNL     1       5.176  23.740  34.395  1.00  0.00     0.272 C 
ATOM      4  C   UNL     1       3.844  24.303  34.994  1.00  0.00     0.113 C 
ATOM      5  O   UNL     1       4.901  22.476  33.843  1.00  0.00    -0.332 OA
ATOM      6  C   UNL     1       3.227  23.360  35.968  1.00  0.00     0.145 C 
ATOM      7  C   UNL     1       3.082  21.998  35.368  1.00  0.00     0.142 C 
BRANCH   3   8
ATOM      8  O   UNL     1       6.079  23.792  35.316  1.00  0.00    -0.338 OA
BRANCH   8   9
ATOM      9  C   UNL     1       7.216  24.311  35.565  1.00  0.00     0.199 C 
BRANCH   9  10
ATOM     10  C   UNL     1       8.512  23.552  35.680  1.00  0.00     0.179 C 
ATOM     11  C   UNL     1      10.785  24.166  35.396  1.00  0.00     0.282 C 
ATOM     12  O   UNL     1       9.503  24.192  35.001  1.00  0.00    -0.341 OA
ATOM     13  C   UNL     1      11.199  23.309  36.528  1.00  0.00     0.202 C 
ATOM     14  C   UNL     1      10.079  22.675  37.301  1.00  0.00     0.179 C 
ATOM     15  C   UNL     1       8.905  23.592  37.175  1.00  0.00     0.177 C 
BRANCH  11  16
ATOM     16  O   UNL     1      11.076  25.507  35.785  1.00  0.00    -0.341 OA
BRANCH  16  17
ATOM     17  C   UNL     1      11.997  26.120  34.983  1.00  0.00     0.184 C 
ATOM     18  C   UNL     1      12.504  27.349  35.683  1.00  0.00     0.178 C 
ATOM     19  O   UNL     1      11.698  28.461  35.463  1.00  0.00    -0.341 OA
ATOM     20  C   UNL     1      10.361  28.137  35.192  1.00  0.00     0.281 C 
ATOM     21  C   UNL     1      11.408  26.561  33.651  1.00  0.00     0.180 C 
ATOM     22  C   UNL     1      10.200  27.446  33.881  1.00  0.00     0.202 C 
BRANCH  18  23
ATOM     23  C   UNL     1      13.927  27.705  35.359  1.00  0.00     0.191 C 
BRANCH  23  24
ATOM     24  O   UNL     1      14.666  26.630  34.907  1.00  0.00    -0.394 OA
ATOM     25  H   UNL     1      15.626  26.828  35.123  1.00  0.00     0.210 HD
ENDBRANCH  23  24
ENDBRANCH  18  23
BRANCH  20  26
ATOM     26  O   UNL     1       9.636  29.307  35.155  1.00  0.00    -0.350 OA
BRANCH  26  27
ATOM     27  C   UNL     1       9.224  29.742  33.934  1.00  0.00     0.169 C 
BRANCH  27  28
ATOM     28  C   UNL     1       7.756  29.999  33.824  1.00  0.00     0.119 C 
BRANCH  28  29
ATOM     29  N   UNL     1       7.238  29.005  32.864  1.00  0.00    -0.092 NA
ATOM     30  N   UNL     1       6.075  29.158  32.480  1.00  0.00     0.001 N 
ATOM     31  N   UNL     1       4.880  29.212  32.201  1.00  0.00    -0.003 NA
ENDBRANCH  28  29
ENDBRANCH  27  28
ENDBRANCH  26  27
ENDBRANCH  20  26
BRANCH  21  32
ATOM     32  O   UNL     1      12.375  27.331  33.011  1.00  0.00    -0.387 OA
ATOM     33  H   UNL     1      12.579  28.168  33.488  1.00  0.00     0.211 HD
ENDBRANCH  21  32
BRANCH  22  34
ATOM     34  O   UNL     1       9.043  26.678  33.905  1.00  0.00    -0.385 OA
ATOM     35  H   UNL     1       8.271  27.315  33.771  1.00  0.00     0.211 HD
ENDBRANCH  22  34
ENDBRANCH  16  17
ENDBRANCH  11  16
BRANCH  13  36
ATOM     36  O   UNL     1      11.999  22.237  36.064  1.00  0.00    -0.385 OA
ATOM     37  H   UNL     1      12.919  22.302  36.448  1.00  0.00     0.211 HD
ENDBRANCH  13  36
BRANCH  14  38
ATOM     38  O   UNL     1      10.442  22.516  38.624  1.00  0.00    -0.387 OA
ATOM     39  H   UNL     1      10.608  23.411  39.023  1.00  0.00     0.211 HD
ENDBRANCH  14  38
BRANCH  15  40
ATOM     40  O   UNL     1       9.291  24.872  37.548  1.00  0.00    -0.387 OA
ATOM     41  H   UNL     1       8.617  25.501  37.215  1.00  0.00     0.211 HD
ENDBRANCH  15  40
ENDBRANCH   9  10
ENDBRANCH   8   9
ENDBRANCH   3   8
BRANCH   3  42
ATOM     42  C   UNL     1       5.386  24.622  33.229  1.00  0.00     0.364 C 
ATOM     43  O   UNL     1       5.236  25.861  33.225  1.00  0.00    -0.246 OA
BRANCH  42  44
ATOM     44  O   UNL     1       5.788  24.055  32.000  1.00  0.00    -0.477 OA
ATOM     45  H   UNL     1       5.740  23.062  31.918  1.00  0.00     0.296 HD
ENDBRANCH  42  44
ENDBRANCH   3  42
BRANCH   6  46
ATOM     46  O   UNL     1       3.934  23.306  37.178  1.00  0.00    -0.391 OA
ATOM     47  H   UNL     1       3.725  22.490  37.691  1.00  0.00     0.211 HD
ENDBRANCH   6  46
BRANCH   7  48
ATOM     48  N   UNL     1       1.680  21.656  35.295  1.00  0.00    -0.348 N 
ATOM     49  C   UNL     1       0.999  21.098  36.405  1.00  0.00     0.217 C 
ATOM     50  H   UNL     1       1.164  21.832  34.387  1.00  0.00     0.163 HD
ATOM     51  C   UNL     1      -0.460  20.741  36.335  1.00  0.00     0.114 C 
ATOM     52  O   UNL     1       1.664  20.912  37.456  1.00  0.00    -0.275 OA
ENDBRANCH   7  48
ENDBRANCH   1   2
BRANCH   1  53
ATOM     53  O   UNL     1       3.994  19.723  33.822  1.00  0.00    -0.388 OA
ATOM     54  H   UNL     1       4.167  18.975  33.206  1.00  0.00     0.211 HD
ENDBRANCH   1  53
BRANCH   1  55
ATOM     55  C   UNL     1       3.525  20.832  31.816  1.00  0.00     0.165 C 
BRANCH  55  56
ATOM     56  O   UNL     1       4.879  21.058  31.492  1.00  0.00    -0.388 OA
ATOM     57  H   UNL     1       5.138  20.254  30.943  1.00  0.00     0.211 HD
ENDBRANCH  55  56
BRANCH  55  58
ATOM     58  C   UNL     1       2.670  21.675  30.947  1.00  0.00     0.154 C 
BRANCH  58  59
ATOM     59  N   UNL     1       3.244  22.869  30.445  1.00  0.00    -0.319 N 
ATOM     60  C   UNL     1       2.755  24.180  30.626  1.00  0.00     0.407 C 
ATOM     61  H   UNL     1       4.163  22.774  29.859  1.00  0.00     0.167 HD
ATOM     62  O   UNL     1       1.701  24.431  31.236  1.00  0.00    -0.225 OA
BRANCH  60  63
ATOM     63  O   UNL     1       3.489  25.224  30.104  1.00  0.00    -0.443 OA
BRANCH  63  64
ATOM     64  C   UNL     1       2.894  26.337  29.536  1.00  0.00     0.294 C 
BRANCH  64  65
ATOM     65  C   UNL     1       3.374  26.673  28.188  1.00  0.00     0.120 A 
ATOM     66  C   UNL     1       4.618  26.493  27.632  1.00  0.00     0.138 A 
ATOM     67  N   UNL     1       2.643  27.284  27.205  1.00  0.00    -0.132 NA
ATOM     68  N   UNL     1       4.621  26.975  26.385  1.00  0.00    -0.251 N 
ATOM     69  N   UNL     1       3.411  27.449  26.152  1.00  0.00    -0.067 NA
BRANCH  68  70
ATOM     70  C   UNL     1       5.733  26.996  25.414  1.00  0.00     0.162 C 
BRANCH  70  71
ATOM     71  C   UNL     1       6.814  27.904  25.902  1.00  0.00     0.132 C 
BRANCH  71  72
ATOM     72  C   UNL     1       8.160  27.297  25.676  1.00  0.00     0.309 C 
ATOM     73  O   UNL     1       8.640  26.422  26.415  1.00  0.00    -0.252 OA
BRANCH  72  74
ATOM     74  O   UNL     1       8.921  27.718  24.599  1.00  0.00    -0.481 OA
ATOM     75  H   UNL     1       8.565  27.586  23.649  1.00  0.00     0.296 HD
ENDBRANCH  72  74
ENDBRANCH  71  72
BRANCH  71  76
ATOM     76  C   UNL     1       6.756  29.334  25.512  1.00  0.00     0.065 C 
BRANCH  76  77
ATOM     77  C   UNL     1       6.100  29.671  24.248  1.00  0.00    -0.040 A 
ATOM     78  C   UNL     1       4.862  30.330  24.229  1.00  0.00     0.004 A 
ATOM     79  C   UNL     1       6.632  29.368  22.992  1.00  0.00     0.004 A 
ATOM     80  C   UNL     1       4.213  30.659  23.081  1.00  0.00     0.000 A 
ATOM     81  C   UNL     1       5.968  29.704  21.837  1.00  0.00     0.000 A 
ATOM     82  C   UNL     1       4.750  30.353  21.869  1.00  0.00     0.000 A 
ENDBRANCH  76  77
BRANCH  76  83
ATOM     83  C   UNL     1       6.445  30.249  26.642  1.00  0.00    -0.040 A 
ATOM     84  C   UNL     1       5.777  29.703  27.717  1.00  0.00     0.004 A 
ATOM     85  C   UNL     1       6.804  31.570  26.647  1.00  0.00     0.004 A 
ATOM     86  C   UNL     1       5.460  30.466  28.805  1.00  0.00     0.000 A 
ATOM     87  C   UNL     1       6.474  32.335  27.762  1.00  0.00     0.000 A 
ATOM     88  C   UNL     1       5.807  31.797  28.838  1.00  0.00     0.000 A 
ENDBRANCH  76  83
ENDBRANCH  71  76
ENDBRANCH  70  71
ENDBRANCH  68  70
ENDBRANCH  64  65
ENDBRANCH  63  64
ENDBRANCH  60  63
ENDBRANCH  58  59
ENDBRANCH  55  58
ENDBRANCH   1  55
TORSDOF 36
