REMARK VINA RESULT:    -6.422      2.894      9.512
REMARK INTER + INTRA:         -21.388
REMARK INTER:                 -14.478
REMARK INTRA:                  -6.910
REMARK UNBOUND:                -4.828
REMARK SMILES CC(=O)N[C@@H]1[C@@H](O)C[C@](OC[C@H]2O[C@@H](O[C@H]3[C@H](O)[C@@H](O)[C@H](OCCN=[N+]=[N-])O[C@@H]3CO)[C@H](O)[C@@H](O)[C@H]2O)(C(=O)O)O[C@H]1C(O)[C@H](O)CNC(=O)OCc1cn(CCN2CCCC2)nn1
REMARK SMILES IDX 9 1 8 2 6 3 5 4 42 5 41 6 10 7 11 8 12 9 14 10 13 11 32 12
REMARK SMILES IDX 34 13 36 14 15 15 16 16 29 17 28 18 21 19 17 20 19 21 30 22
REMARK SMILES IDX 31 23 22 25 23 26 24 27 25 28 26 29 27 30 18 31 20 33 33 35
REMARK SMILES IDX 35 37 37 39 38 41 39 42 40 43 7 45 43 47 44 48 45 50 46 51
REMARK SMILES IDX 47 53 48 54 49 55 50 57 51 58 52 59 53 60 54 61 64 62 55 63
REMARK SMILES IDX 63 64 56 65 57 66 58 67 59 68 62 69 60 70 61 71 4 72 2 73
REMARK SMILES IDX 1 75 3 76
REMARK H PARENT 31 24 18 32 20 34 33 36 35 38 37 40 40 44 7 46 44 49 46 52
REMARK H PARENT 48 56 4 74
REMARK Flexibility Score: inf
ROOT
ATOM      1  C   UNL     1      19.394  30.083  22.932  1.00  0.00     0.272 C 
ATOM      2  C   UNL     1      19.747  31.290  22.120  1.00  0.00     0.113 C 
ATOM      3  C   UNL     1      20.232  30.881  20.723  1.00  0.00     0.145 C 
ATOM      4  C   UNL     1      21.553  30.096  20.961  1.00  0.00     0.142 C 
ATOM      5  C   UNL     1      21.232  29.002  21.911  1.00  0.00     0.178 C 
ATOM      6  O   UNL     1      19.869  28.974  22.221  1.00  0.00    -0.332 OA
ENDROOT
BRANCH   1   7
ATOM      7  O   UNL     1      18.014  29.862  22.964  1.00  0.00    -0.338 OA
BRANCH   7   8
ATOM      8  C   UNL     1      17.202  30.937  22.965  1.00  0.00     0.199 C 
BRANCH   8   9
ATOM      9  C   UNL     1      15.981  30.764  22.066  1.00  0.00     0.179 C 
ATOM     10  C   UNL     1      15.311  30.101  19.975  1.00  0.00     0.282 C 
ATOM     11  O   UNL     1      16.202  29.913  20.997  1.00  0.00    -0.341 OA
ATOM     12  C   UNL     1      13.944  30.364  20.510  1.00  0.00     0.202 C 
ATOM     13  C   UNL     1      13.815  29.719  21.879  1.00  0.00     0.179 C 
ATOM     14  C   UNL     1      14.771  30.342  22.876  1.00  0.00     0.177 C 
BRANCH  10  15
ATOM     15  O   UNL     1      15.372  29.187  18.965  1.00  0.00    -0.341 OA
BRANCH  15  16
ATOM     16  C   UNL     1      16.236  29.283  17.961  1.00  0.00     0.184 C 
ATOM     17  C   UNL     1      15.675  29.481  16.567  1.00  0.00     0.178 C 
ATOM     18  O   UNL     1      16.682  30.084  15.808  1.00  0.00    -0.341 OA
ATOM     19  C   UNL     1      17.602  29.039  15.502  1.00  0.00     0.281 C 
ATOM     20  C   UNL     1      17.237  28.149  17.824  1.00  0.00     0.180 C 
ATOM     21  C   UNL     1      18.251  28.652  16.816  1.00  0.00     0.202 C 
BRANCH  17  22
ATOM     22  C   UNL     1      14.410  30.268  16.514  1.00  0.00     0.191 C 
BRANCH  22  23
ATOM     23  O   UNL     1      13.361  29.422  16.861  1.00  0.00    -0.394 OA
ATOM     24  H   UNL     1      13.698  28.675  17.427  1.00  0.00     0.210 HD
ENDBRANCH  22  23
ENDBRANCH  17  22
BRANCH  19  25
ATOM     25  O   UNL     1      18.554  29.610  14.720  1.00  0.00    -0.350 OA
BRANCH  25  26
ATOM     26  C   UNL     1      18.325  29.801  13.401  1.00  0.00     0.169 C 
BRANCH  26  27
ATOM     27  C   UNL     1      18.699  31.113  12.807  1.00  0.00     0.119 C 
BRANCH  27  28
ATOM     28  N   UNL     1      18.210  32.262  13.531  1.00  0.00    -0.092 NA
ATOM     29  N   UNL     1      17.011  32.499  13.542  1.00  0.00     0.001 N 
ATOM     30  N   UNL     1      15.777  32.578  13.547  1.00  0.00    -0.003 NA
ENDBRANCH  27  28
ENDBRANCH  26  27
ENDBRANCH  25  26
ENDBRANCH  19  25
BRANCH  20  31
ATOM     31  O   UNL     1      17.930  27.940  19.008  1.00  0.00    -0.387 OA
ATOM     32  H   UNL     1      18.099  27.002  19.217  1.00  0.00     0.211 HD
ENDBRANCH  20  31
BRANCH  21  33
ATOM     33  O   UNL     1      19.322  27.806  16.655  1.00  0.00    -0.385 OA
ATOM     34  H   UNL     1      19.600  27.622  15.742  1.00  0.00     0.211 HD
ENDBRANCH  21  33
ENDBRANCH  15  16
ENDBRANCH  10  15
BRANCH  12  35
ATOM     35  O   UNL     1      13.666  31.726  20.678  1.00  0.00    -0.385 OA
ATOM     36  H   UNL     1      13.227  31.883  21.564  1.00  0.00     0.211 HD
ENDBRANCH  12  35
BRANCH  13  37
ATOM     37  O   UNL     1      14.144  28.363  21.796  1.00  0.00    -0.387 OA
ATOM     38  H   UNL     1      14.734  28.106  22.574  1.00  0.00     0.211 HD
ENDBRANCH  13  37
BRANCH  14  39
ATOM     39  O   UNL     1      15.087  29.348  23.799  1.00  0.00    -0.387 OA
ATOM     40  H   UNL     1      14.999  28.487  23.295  1.00  0.00     0.211 HD
ENDBRANCH  14  39
ENDBRANCH   8   9
ENDBRANCH   7   8
ENDBRANCH   1   7
BRANCH   1  41
ATOM     41  C   UNL     1      19.964  30.086  24.304  1.00  0.00     0.364 C 
ATOM     42  O   UNL     1      19.864  29.020  24.986  1.00  0.00    -0.246 OA
BRANCH  41  43
ATOM     43  O   UNL     1      20.593  31.139  24.914  1.00  0.00    -0.477 OA
ATOM     44  H   UNL     1      21.116  31.871  24.492  1.00  0.00     0.296 HD
ENDBRANCH  41  43
ENDBRANCH   1  41
BRANCH   3  45
ATOM     45  O   UNL     1      19.362  30.004  20.125  1.00  0.00    -0.391 OA
ATOM     46  H   UNL     1      19.769  29.507  19.365  1.00  0.00     0.211 HD
ENDBRANCH   3  45
BRANCH   5  47
ATOM     47  C   UNL     1      21.480  27.653  21.278  1.00  0.00     0.176 C 
BRANCH  47  48
ATOM     48  O   UNL     1      20.629  26.652  21.705  1.00  0.00    -0.388 OA
ATOM     49  H   UNL     1      21.005  26.026  22.362  1.00  0.00     0.211 HD
ENDBRANCH  47  48
BRANCH  47  50
ATOM     50  C   UNL     1      21.714  27.582  19.819  1.00  0.00     0.165 C 
BRANCH  50  51
ATOM     51  O   UNL     1      20.600  27.520  19.015  1.00  0.00    -0.388 OA
ATOM     52  H   UNL     1      19.735  27.621  19.471  1.00  0.00     0.211 HD
ENDBRANCH  50  51
BRANCH  50  53
ATOM     53  C   UNL     1      22.934  26.852  19.364  1.00  0.00     0.154 C 
BRANCH  53  54
ATOM     54  N   UNL     1      23.433  25.921  20.306  1.00  0.00    -0.319 N 
ATOM     55  C   UNL     1      23.080  24.527  20.282  1.00  0.00     0.407 C 
ATOM     56  H   UNL     1      24.092  26.232  21.061  1.00  0.00     0.167 HD
ATOM     57  O   UNL     1      22.313  24.035  19.434  1.00  0.00    -0.225 OA
BRANCH  55  58
ATOM     58  O   UNL     1      23.607  23.654  21.234  1.00  0.00    -0.443 OA
BRANCH  58  59
ATOM     59  C   UNL     1      24.352  24.168  22.342  1.00  0.00     0.294 C 
BRANCH  59  60
ATOM     60  C   UNL     1      23.455  24.512  23.464  1.00  0.00     0.120 A 
ATOM     61  C   UNL     1      23.673  24.708  24.798  1.00  0.00     0.138 A 
ATOM     62  N   UNL     1      22.114  24.710  23.305  1.00  0.00    -0.132 NA
ATOM     63  N   UNL     1      22.522  25.008  25.399  1.00  0.00    -0.251 N 
ATOM     64  N   UNL     1      21.567  25.001  24.446  1.00  0.00    -0.067 NA
BRANCH  63  65
ATOM     65  C   UNL     1      22.242  25.293  26.771  1.00  0.00     0.161 C 
BRANCH  65  66
ATOM     66  C   UNL     1      23.235  24.752  27.730  1.00  0.00     0.108 C 
BRANCH  66  67
ATOM     67  N   UNL     1      24.048  25.631  28.460  1.00  0.00    -0.301 NA
ATOM     68  C   UNL     1      23.999  25.660  29.867  1.00  0.00     0.084 C 
ATOM     69  C   UNL     1      25.391  25.786  27.990  1.00  0.00     0.084 C 
ATOM     70  C   UNL     1      25.431  25.628  30.383  1.00  0.00     0.017 C 
ATOM     71  C   UNL     1      26.274  25.960  29.187  1.00  0.00     0.017 C 
ENDBRANCH  66  67
ENDBRANCH  65  66
ENDBRANCH  63  65
ENDBRANCH  59  60
ENDBRANCH  58  59
ENDBRANCH  55  58
ENDBRANCH  53  54
ENDBRANCH  50  53
ENDBRANCH  47  50
ENDBRANCH   5  47
BRANCH   4  72
ATOM     72  N   UNL     1      22.509  31.071  21.451  1.00  0.00    -0.348 N 
ATOM     73  C   UNL     1      23.916  30.971  21.251  1.00  0.00     0.217 C 
ATOM     74  H   UNL     1      22.189  31.902  21.981  1.00  0.00     0.163 HD
ATOM     75  C   UNL     1      24.817  32.036  21.813  1.00  0.00     0.114 C 
ATOM     76  O   UNL     1      24.371  30.014  20.623  1.00  0.00    -0.275 OA
ENDBRANCH   4  72
TORSDOF 32
