REMARK VINA RESULT:    -5.281      7.276     10.977
REMARK INTER + INTRA:         -23.478
REMARK INTER:                 -14.233
REMARK INTRA:                  -9.245
REMARK UNBOUND:                -9.245
REMARK SMILES CC(=O)N[C@@H]1[C@@H](O)C[C@](OC[C@H]2O[C@@H](O[C@H]3[C@H](O)[C@@H](O)[C@H](OCCN=[N+]=[N-])O[C@@H]3CO)[C@H](O)[C@@H](O)[C@H]2O)(C(=O)O)O[C@H]1C(O)[C@H](O)CNC(=O)OCc1cn([C@@H](C)C(=O)OCc2ccccc2)nn1
REMARK SMILES IDX 43 1 42 2 9 3 8 4 41 5 6 6 5 7 10 8 11 9 12 10 14 11 13 12
REMARK SMILES IDX 32 13 34 14 36 15 15 16 16 17 29 18 28 19 21 20 17 21 19 22
REMARK SMILES IDX 30 23 31 24 22 26 23 27 24 28 25 29 26 30 27 31 18 32 20 34
REMARK SMILES IDX 33 36 35 38 37 40 38 42 39 43 40 44 7 46 4 48 2 49 1 51 3 52
REMARK SMILES IDX 44 53 45 55 46 56 47 58 48 59 49 60 50 62 51 63 52 64 53 65
REMARK SMILES IDX 54 66 69 67 55 68 68 69 56 70 57 71 58 72 59 73 60 74 61 75
REMARK SMILES IDX 62 76 63 77 67 78 64 79 66 80 65 81
REMARK H PARENT 31 25 18 33 20 35 33 37 35 39 37 41 40 45 7 47 4 50 44 54
REMARK H PARENT 46 57 48 61
REMARK Flexibility Score: inf
ROOT
ATOM      1  C   UNL     1      21.849  26.540  21.258  1.00  0.00     0.176 C 
ENDROOT
BRANCH   1   2
ATOM      2  C   UNL     1      23.029  26.269  22.107  1.00  0.00     0.178 C 
ATOM      3  C   UNL     1      24.658  25.664  20.549  1.00  0.00     0.272 C 
ATOM      4  C   UNL     1      24.651  24.295  21.112  1.00  0.00     0.113 C 
ATOM      5  O   UNL     1      24.248  26.591  21.572  1.00  0.00    -0.332 OA
ATOM      6  C   UNL     1      23.322  23.884  21.701  1.00  0.00     0.145 C 
ATOM      7  C   UNL     1      22.938  24.902  22.732  1.00  0.00     0.142 C 
BRANCH   3   8
ATOM      8  O   UNL     1      23.945  25.977  19.498  1.00  0.00    -0.338 OA
BRANCH   8   9
ATOM      9  C   UNL     1      23.913  25.532  18.275  1.00  0.00     0.199 C 
BRANCH   9  10
ATOM     10  C   UNL     1      23.343  26.313  17.125  1.00  0.00     0.179 C 
ATOM     11  C   UNL     1      21.477  27.623  16.656  1.00  0.00     0.282 C 
ATOM     12  O   UNL     1      22.018  26.544  17.351  1.00  0.00    -0.341 OA
ATOM     13  C   UNL     1      22.259  27.976  15.442  1.00  0.00     0.202 C 
ATOM     14  C   UNL     1      23.651  28.414  15.805  1.00  0.00     0.179 C 
ATOM     15  C   UNL     1      24.123  27.638  16.982  1.00  0.00     0.177 C 
BRANCH  11  16
ATOM     16  O   UNL     1      21.257  28.618  17.568  1.00  0.00    -0.341 OA
BRANCH  16  17
ATOM     17  C   UNL     1      20.126  29.354  17.381  1.00  0.00     0.184 C 
ATOM     18  C   UNL     1      20.156  30.556  18.291  1.00  0.00     0.178 C 
ATOM     19  O   UNL     1      18.935  31.237  18.223  1.00  0.00    -0.341 OA
ATOM     20  C   UNL     1      18.087  30.542  19.122  1.00  0.00     0.281 C 
ATOM     21  C   UNL     1      18.858  28.583  17.708  1.00  0.00     0.180 C 
ATOM     22  C   UNL     1      18.124  29.062  18.905  1.00  0.00     0.202 C 
BRANCH  18  23
ATOM     23  C   UNL     1      21.321  31.474  18.067  1.00  0.00     0.191 C 
BRANCH  23  24
ATOM     24  O   UNL     1      22.447  30.823  18.578  1.00  0.00    -0.394 OA
ATOM     25  H   UNL     1      22.379  29.839  18.531  1.00  0.00     0.210 HD
ENDBRANCH  23  24
ENDBRANCH  18  23
BRANCH  20  26
ATOM     26  O   UNL     1      16.851  31.099  19.037  1.00  0.00    -0.350 OA
BRANCH  26  27
ATOM     27  C   UNL     1      15.808  30.333  18.634  1.00  0.00     0.169 C 
BRANCH  27  28
ATOM     28  C   UNL     1      14.754  30.970  17.801  1.00  0.00     0.119 C 
BRANCH  28  29
ATOM     29  N   UNL     1      14.178  30.191  16.765  1.00  0.00    -0.092 NA
ATOM     30  N   UNL     1      14.850  29.674  15.881  1.00  0.00     0.001 N 
ATOM     31  N   UNL     1      15.485  28.985  15.060  1.00  0.00    -0.003 NA
ENDBRANCH  28  29
ENDBRANCH  27  28
ENDBRANCH  26  27
ENDBRANCH  20  26
BRANCH  21  32
ATOM     32  O   UNL     1      17.980  28.562  16.620  1.00  0.00    -0.387 OA
ATOM     33  H   UNL     1      17.981  29.401  16.107  1.00  0.00     0.211 HD
ENDBRANCH  21  32
BRANCH  22  34
ATOM     34  O   UNL     1      18.562  28.356  20.030  1.00  0.00    -0.385 OA
ATOM     35  H   UNL     1      18.738  27.424  19.729  1.00  0.00     0.211 HD
ENDBRANCH  22  34
ENDBRANCH  16  17
ENDBRANCH  11  16
BRANCH  13  36
ATOM     36  O   UNL     1      22.293  26.844  14.593  1.00  0.00    -0.385 OA
ATOM     37  H   UNL     1      22.479  26.074  15.212  1.00  0.00     0.211 HD
ENDBRANCH  13  36
BRANCH  14  38
ATOM     38  O   UNL     1      23.650  29.780  16.004  1.00  0.00    -0.387 OA
ATOM     39  H   UNL     1      23.941  30.030  16.923  1.00  0.00     0.211 HD
ENDBRANCH  14  38
BRANCH  15  40
ATOM     40  O   UNL     1      24.093  28.374  18.158  1.00  0.00    -0.387 OA
ATOM     41  H   UNL     1      24.256  29.344  17.943  1.00  0.00     0.211 HD
ENDBRANCH  15  40
ENDBRANCH   9  10
ENDBRANCH   8   9
ENDBRANCH   3   8
BRANCH   3  42
ATOM     42  C   UNL     1      26.107  26.093  20.423  1.00  0.00     0.364 C 
ATOM     43  O   UNL     1      27.035  25.362  20.795  1.00  0.00    -0.246 OA
BRANCH  42  44
ATOM     44  O   UNL     1      26.437  27.333  19.879  1.00  0.00    -0.477 OA
ATOM     45  H   UNL     1      27.023  27.452  19.059  1.00  0.00     0.296 HD
ENDBRANCH  42  44
ENDBRANCH   3  42
BRANCH   6  46
ATOM     46  O   UNL     1      22.336  23.697  20.736  1.00  0.00    -0.391 OA
ATOM     47  H   UNL     1      21.595  23.222  21.178  1.00  0.00     0.211 HD
ENDBRANCH   6  46
BRANCH   7  48
ATOM     48  N   UNL     1      23.840  24.775  23.870  1.00  0.00    -0.348 N 
ATOM     49  C   UNL     1      23.273  24.632  25.175  1.00  0.00     0.217 C 
ATOM     50  H   UNL     1      24.876  24.783  23.790  1.00  0.00     0.163 HD
ATOM     51  C   UNL     1      24.198  24.503  26.341  1.00  0.00     0.114 C 
ATOM     52  O   UNL     1      22.021  24.618  25.326  1.00  0.00    -0.275 OA
ENDBRANCH   7  48
ENDBRANCH   1   2
BRANCH   1  53
ATOM     53  O   UNL     1      20.692  26.084  21.936  1.00  0.00    -0.388 OA
ATOM     54  H   UNL     1      20.211  25.411  21.381  1.00  0.00     0.211 HD
ENDBRANCH   1  53
BRANCH   1  55
ATOM     55  C   UNL     1      21.574  28.037  21.044  1.00  0.00     0.165 C 
BRANCH  55  56
ATOM     56  O   UNL     1      22.400  28.591  20.118  1.00  0.00    -0.388 OA
ATOM     57  H   UNL     1      23.211  28.044  19.988  1.00  0.00     0.211 HD
ENDBRANCH  55  56
BRANCH  55  58
ATOM     58  C   UNL     1      21.481  28.754  22.351  1.00  0.00     0.154 C 
BRANCH  58  59
ATOM     59  N   UNL     1      20.153  29.256  22.566  1.00  0.00    -0.319 N 
ATOM     60  C   UNL     1      19.527  29.446  23.820  1.00  0.00     0.407 C 
ATOM     61  H   UNL     1      19.540  29.527  21.732  1.00  0.00     0.167 HD
ATOM     62  O   UNL     1      20.104  29.162  24.872  1.00  0.00    -0.225 OA
BRANCH  60  63
ATOM     63  O   UNL     1      18.226  29.965  23.909  1.00  0.00    -0.443 OA
BRANCH  63  64
ATOM     64  C   UNL     1      17.637  30.691  22.859  1.00  0.00     0.294 C 
BRANCH  64  65
ATOM     65  C   UNL     1      16.323  30.073  22.567  1.00  0.00     0.120 A 
ATOM     66  C   UNL     1      15.079  30.482  22.991  1.00  0.00     0.139 A 
ATOM     67  N   UNL     1      16.131  28.977  21.825  1.00  0.00    -0.132 NA
ATOM     68  N   UNL     1      14.150  29.618  22.494  1.00  0.00    -0.238 N 
ATOM     69  N   UNL     1      14.816  28.720  21.793  1.00  0.00    -0.066 NA
BRANCH  68  70
ATOM     70  C   UNL     1      12.742  29.764  22.766  1.00  0.00     0.215 C 
ATOM     71  C   UNL     1      12.474  29.838  24.257  1.00  0.00     0.046 C 
BRANCH  70  72
ATOM     72  C   UNL     1      12.202  31.002  22.098  1.00  0.00     0.331 C 
ATOM     73  O   UNL     1      11.413  31.729  22.724  1.00  0.00    -0.250 OA
BRANCH  72  74
ATOM     74  O   UNL     1      12.567  31.341  20.815  1.00  0.00    -0.459 OA
BRANCH  74  75
ATOM     75  C   UNL     1      12.443  32.624  20.252  1.00  0.00     0.268 C 
BRANCH  75  76
ATOM     76  C   UNL     1      11.307  32.753  19.315  1.00  0.00    -0.011 A 
ATOM     77  C   UNL     1      11.417  32.460  17.981  1.00  0.00     0.007 A 
ATOM     78  C   UNL     1      10.086  33.183  19.773  1.00  0.00     0.007 A 
ATOM     79  C   UNL     1      10.362  32.582  17.105  1.00  0.00     0.000 A 
ATOM     80  C   UNL     1       9.003  33.319  18.935  1.00  0.00     0.000 A 
ATOM     81  C   UNL     1       9.154  33.013  17.588  1.00  0.00     0.000 A 
ENDBRANCH  75  76
ENDBRANCH  74  75
ENDBRANCH  72  74
ENDBRANCH  70  72
ENDBRANCH  68  70
ENDBRANCH  64  65
ENDBRANCH  63  64
ENDBRANCH  60  63
ENDBRANCH  58  59
ENDBRANCH  55  58
ENDBRANCH   1  55
TORSDOF 34
