REMARK VINA RESULT:    -5.750      2.462      7.063
REMARK INTER + INTRA:         -24.848
REMARK INTER:                 -15.612
REMARK INTRA:                  -9.236
REMARK UNBOUND:                -7.166
REMARK SMILES CC(=O)N[C@@H]1[C@@H](O)C[C@](OC[C@H]2O[C@@H](O[C@H]3[C@H](O)[C@@H](O)[C@H](OCCN=[N+]=[N-])O[C@@H]3CO)[C@H](O)[C@@H](O)[C@H]2O)(C(=O)O)O[C@H]1C(O)[C@H](O)CNC(=O)OCc1cn(CCCCCCCCCCC(=O)O)nn1
REMARK SMILES IDX 51 1 49 2 48 3 50 5 47 6 45 7 43 8 42 9 9 10 8 11 41 12 6 13
REMARK SMILES IDX 5 14 10 15 11 16 12 17 14 18 13 19 32 20 34 21 36 22 15 23
REMARK SMILES IDX 16 24 29 25 28 26 21 27 17 28 19 29 30 30 31 31 22 33 23 34
REMARK SMILES IDX 24 35 25 36 26 37 27 38 18 39 20 41 33 43 35 45 37 47 38 49
REMARK SMILES IDX 39 50 40 51 7 53 4 55 2 56 1 58 3 59 44 60 46 62 52 64 53 65
REMARK SMILES IDX 54 66 70 67 55 68 69 69 56 70 57 71 58 72 59 73 60 74 61 75
REMARK SMILES IDX 62 76 63 77 64 78 65 79 66 80 67 81 68 82
REMARK H PARENT 48 4 31 32 18 40 20 42 33 44 35 46 37 48 40 52 7 54 4 57 44 61
REMARK H PARENT 46 63 68 83
REMARK Flexibility Score: inf
ROOT
ATOM      1  O   UNL     1      20.597  29.738  19.821  1.00  0.00    -0.443 OA
ENDROOT
BRANCH   1   2
ATOM      2  C   UNL     1      19.505  28.850  19.705  1.00  0.00     0.407 C 
ATOM      3  N   UNL     1      18.631  28.915  18.591  1.00  0.00    -0.319 N 
ATOM      4  H   UNL     1      18.810  29.649  17.855  1.00  0.00     0.167 HD
ATOM      5  O   UNL     1      19.284  27.982  20.579  1.00  0.00    -0.225 OA
BRANCH   3   6
ATOM      6  C   UNL     1      17.518  28.029  18.429  1.00  0.00     0.154 C 
BRANCH   6   7
ATOM      7  C   UNL     1      16.276  28.429  19.218  1.00  0.00     0.165 C 
BRANCH   7   8
ATOM      8  C   UNL     1      16.334  29.910  19.355  1.00  0.00     0.176 C 
BRANCH   8   9
ATOM      9  C   UNL     1      15.250  30.543  20.195  1.00  0.00     0.178 C 
ATOM     10  C   UNL     1      14.815  31.087  22.414  1.00  0.00     0.272 C 
ATOM     11  C   UNL     1      13.372  30.732  22.125  1.00  0.00     0.113 C 
ATOM     12  O   UNL     1      15.599  30.397  21.509  1.00  0.00    -0.332 OA
ATOM     13  C   UNL     1      13.209  29.640  21.117  1.00  0.00     0.145 C 
ATOM     14  C   UNL     1      13.879  30.069  19.828  1.00  0.00     0.142 C 
BRANCH  10  15
ATOM     15  O   UNL     1      15.159  30.731  23.728  1.00  0.00    -0.338 OA
BRANCH  15  16
ATOM     16  C   UNL     1      14.280  31.066  24.701  1.00  0.00     0.199 C 
BRANCH  16  17
ATOM     17  C   UNL     1      14.950  30.690  26.040  1.00  0.00     0.179 C 
ATOM     18  C   UNL     1      17.044  31.788  26.127  1.00  0.00     0.282 C 
ATOM     19  O   UNL     1      16.287  30.674  25.982  1.00  0.00    -0.341 OA
ATOM     20  C   UNL     1      16.318  32.944  26.702  1.00  0.00     0.202 C 
ATOM     21  C   UNL     1      15.354  32.441  27.769  1.00  0.00     0.179 C 
ATOM     22  C   UNL     1      14.338  31.494  27.165  1.00  0.00     0.177 C 
BRANCH  18  23
ATOM     23  O   UNL     1      17.624  32.050  24.860  1.00  0.00    -0.341 OA
BRANCH  23  24
ATOM     24  C   UNL     1      18.865  31.427  24.838  1.00  0.00     0.184 C 
ATOM     25  C   UNL     1      20.023  32.327  24.556  1.00  0.00     0.178 C 
ATOM     26  O   UNL     1      21.167  31.605  24.383  1.00  0.00    -0.341 OA
ATOM     27  C   UNL     1      21.203  30.286  24.645  1.00  0.00     0.281 C 
ATOM     28  C   UNL     1      18.883  30.353  23.738  1.00  0.00     0.180 C 
ATOM     29  C   UNL     1      20.083  29.482  24.028  1.00  0.00     0.202 C 
BRANCH  25  30
ATOM     30  C   UNL     1      20.241  33.388  25.619  1.00  0.00     0.191 C 
BRANCH  30  31
ATOM     31  O   UNL     1      19.352  34.429  25.554  1.00  0.00    -0.394 OA
ATOM     32  H   UNL     1      19.715  35.113  24.932  1.00  0.00     0.210 HD
ENDBRANCH  30  31
ENDBRANCH  25  30
BRANCH  27  33
ATOM     33  O   UNL     1      21.185  30.068  26.016  1.00  0.00    -0.350 OA
BRANCH  33  34
ATOM     34  C   UNL     1      22.390  30.422  26.622  1.00  0.00     0.169 C 
BRANCH  34  35
ATOM     35  C   UNL     1      22.794  29.447  27.692  1.00  0.00     0.119 C 
BRANCH  35  36
ATOM     36  N   UNL     1      24.094  28.876  27.335  1.00  0.00    -0.092 NA
ATOM     37  N   UNL     1      24.276  28.357  26.211  1.00  0.00     0.001 N 
ATOM     38  N   UNL     1      24.167  27.899  25.053  1.00  0.00    -0.003 NA
ENDBRANCH  35  36
ENDBRANCH  34  35
ENDBRANCH  33  34
ENDBRANCH  27  33
BRANCH  28  39
ATOM     39  O   UNL     1      17.738  29.585  23.729  1.00  0.00    -0.387 OA
ATOM     40  H   UNL     1      17.737  28.867  24.410  1.00  0.00     0.211 HD
ENDBRANCH  28  39
BRANCH  29  41
ATOM     41  O   UNL     1      20.542  28.988  22.811  1.00  0.00    -0.385 OA
ATOM     42  H   UNL     1      21.361  28.434  23.004  1.00  0.00     0.211 HD
ENDBRANCH  29  41
ENDBRANCH  23  24
ENDBRANCH  18  23
BRANCH  20  43
ATOM     43  O   UNL     1      17.166  33.834  27.377  1.00  0.00    -0.385 OA
ATOM     44  H   UNL     1      17.907  33.269  27.746  1.00  0.00     0.211 HD
ENDBRANCH  20  43
BRANCH  21  45
ATOM     45  O   UNL     1      14.694  33.507  28.377  1.00  0.00    -0.387 OA
ATOM     46  H   UNL     1      14.141  33.931  27.672  1.00  0.00     0.211 HD
ENDBRANCH  21  45
BRANCH  22  47
ATOM     47  O   UNL     1      13.286  32.245  26.700  1.00  0.00    -0.387 OA
ATOM     48  H   UNL     1      12.850  31.750  25.960  1.00  0.00     0.211 HD
ENDBRANCH  22  47
ENDBRANCH  16  17
ENDBRANCH  15  16
ENDBRANCH  10  15
BRANCH  10  49
ATOM     49  C   UNL     1      15.053  32.531  22.342  1.00  0.00     0.364 C 
ATOM     50  O   UNL     1      14.174  33.344  22.011  1.00  0.00    -0.246 OA
BRANCH  49  51
ATOM     51  O   UNL     1      16.298  33.054  22.648  1.00  0.00    -0.477 OA
ATOM     52  H   UNL     1      16.963  32.564  23.251  1.00  0.00     0.296 HD
ENDBRANCH  49  51
ENDBRANCH  10  49
BRANCH  13  53
ATOM     53  O   UNL     1      13.603  28.385  21.526  1.00  0.00    -0.391 OA
ATOM     54  H   UNL     1      12.942  27.665  21.315  1.00  0.00     0.211 HD
ENDBRANCH  13  53
BRANCH  14  55
ATOM     55  N   UNL     1      13.041  31.046  19.216  1.00  0.00    -0.348 N 
ATOM     56  C   UNL     1      12.947  31.258  17.811  1.00  0.00     0.217 C 
ATOM     57  H   UNL     1      12.438  31.671  19.803  1.00  0.00     0.163 HD
ATOM     58  C   UNL     1      12.056  32.290  17.252  1.00  0.00     0.114 C 
ATOM     59  O   UNL     1      13.644  30.541  17.070  1.00  0.00    -0.275 OA
ENDBRANCH  14  55
ENDBRANCH   8   9
BRANCH   8  60
ATOM     60  O   UNL     1      16.491  30.468  18.115  1.00  0.00    -0.388 OA
ATOM     61  H   UNL     1      16.205  29.917  17.370  1.00  0.00     0.211 HD
ENDBRANCH   8  60
ENDBRANCH   7   8
BRANCH   7  62
ATOM     62  O   UNL     1      16.318  27.730  20.419  1.00  0.00    -0.388 OA
ATOM     63  H   UNL     1      17.056  28.033  21.001  1.00  0.00     0.211 HD
ENDBRANCH   7  62
ENDBRANCH   6   7
ENDBRANCH   3   6
ENDBRANCH   1   2
BRANCH   1  64
ATOM     64  C   UNL     1      21.769  29.410  19.062  1.00  0.00     0.294 C 
BRANCH  64  65
ATOM     65  C   UNL     1      22.556  28.455  19.869  1.00  0.00     0.120 A 
ATOM     66  C   UNL     1      22.968  27.205  19.440  1.00  0.00     0.138 A 
ATOM     67  N   UNL     1      23.014  28.608  21.119  1.00  0.00    -0.132 NA
ATOM     68  N   UNL     1      23.659  26.663  20.460  1.00  0.00    -0.252 N 
ATOM     69  N   UNL     1      23.674  27.543  21.480  1.00  0.00    -0.067 NA
BRANCH  68  70
ATOM     70  C   UNL     1      24.301  25.387  20.531  1.00  0.00     0.146 C 
BRANCH  70  71
ATOM     71  C   UNL     1      23.729  24.423  21.509  1.00  0.00     0.024 C 
BRANCH  71  72
ATOM     72  C   UNL     1      22.274  24.138  21.380  1.00  0.00     0.002 C 
BRANCH  72  73
ATOM     73  C   UNL     1      21.423  24.576  22.521  1.00  0.00     0.000 C 
BRANCH  73  74
ATOM     74  C   UNL     1      22.136  25.264  23.633  1.00  0.00     0.000 C 
BRANCH  74  75
ATOM     75  C   UNL     1      21.870  24.561  24.935  1.00  0.00     0.000 C 
BRANCH  75  76
ATOM     76  C   UNL     1      23.064  24.557  25.864  1.00  0.00     0.000 C 
BRANCH  76  77
ATOM     77  C   UNL     1      22.694  24.481  27.308  1.00  0.00     0.001 C 
BRANCH  77  78
ATOM     78  C   UNL     1      22.284  25.785  27.921  1.00  0.00     0.012 C 
BRANCH  78  79
ATOM     79  C   UNL     1      22.365  25.648  29.432  1.00  0.00     0.122 C 
BRANCH  79  80
ATOM     80  C   UNL     1      23.773  25.764  29.847  1.00  0.00     0.303 C 
ATOM     81  O   UNL     1      24.193  25.154  30.853  1.00  0.00    -0.252 OA
BRANCH  80  82
ATOM     82  O   UNL     1      24.674  26.550  29.142  1.00  0.00    -0.481 OA
ATOM     83  H   UNL     1      25.079  26.253  28.273  1.00  0.00     0.296 HD
ENDBRANCH  80  82
ENDBRANCH  79  80
ENDBRANCH  78  79
ENDBRANCH  77  78
ENDBRANCH  76  77
ENDBRANCH  75  76
ENDBRANCH  74  75
ENDBRANCH  73  74
ENDBRANCH  72  73
ENDBRANCH  71  72
ENDBRANCH  70  71
ENDBRANCH  68  70
ENDBRANCH  64  65
ENDBRANCH   1  64
TORSDOF 41
