REMARK VINA RESULT:    -5.464      3.420     10.186
REMARK INTER + INTRA:         -20.486
REMARK INTER:                 -12.259
REMARK INTRA:                  -8.227
REMARK UNBOUND:                -7.035
REMARK SMILES CC(=O)N[C@@H]1[C@@H](O)C[C@](OC[C@H]2O[C@@H](O[C@H]3[C@H](O)[C@@H](O)[C@H](OCCN=[N+]=[N-])O[C@@H]3CO)[C@H](O)[C@@H](O)[C@H]2O)(C(=O)O)O[C@H]1C(O)[C@H](O)CNC(=O)OCc1cn([C@@H]2C[C@H]3CC[C@@H](C2)N3C)nn1
REMARK SMILES IDX 9 1 8 2 6 3 5 4 42 5 41 6 10 7 11 8 12 9 14 10 13 11 32 12
REMARK SMILES IDX 34 13 36 14 15 15 16 16 29 17 28 18 21 19 17 20 19 21 30 22
REMARK SMILES IDX 31 23 22 25 23 26 24 27 25 28 26 29 27 30 18 31 20 33 33 35
REMARK SMILES IDX 35 37 37 39 38 41 39 42 40 43 7 45 43 47 44 48 45 50 46 51
REMARK SMILES IDX 47 53 48 54 49 55 50 57 51 58 52 59 53 60 54 61 66 62 55 63
REMARK SMILES IDX 65 64 56 65 62 66 57 67 61 68 58 69 63 70 60 71 59 72 64 73
REMARK SMILES IDX 4 74 2 75 1 77 3 78
REMARK H PARENT 31 24 18 32 20 34 33 36 35 38 37 40 40 44 7 46 44 49 46 52
REMARK H PARENT 48 56 4 76
REMARK Flexibility Score: inf
ROOT
ATOM      1  C   UNL     1      16.476  29.038  18.136  1.00  0.00     0.272 C 
ATOM      2  C   UNL     1      17.536  28.131  17.656  1.00  0.00     0.113 C 
ATOM      3  C   UNL     1      18.924  28.642  18.013  1.00  0.00     0.145 C 
ATOM      4  C   UNL     1      19.075  30.096  17.507  1.00  0.00     0.142 C 
ATOM      5  C   UNL     1      17.855  30.887  17.763  1.00  0.00     0.178 C 
ATOM      6  O   UNL     1      17.076  30.208  18.678  1.00  0.00    -0.332 OA
ENDROOT
BRANCH   1   7
ATOM      7  O   UNL     1      15.507  28.626  18.980  1.00  0.00    -0.338 OA
BRANCH   7   8
ATOM      8  C   UNL     1      15.533  28.346  20.243  1.00  0.00     0.199 C 
BRANCH   8   9
ATOM      9  C   UNL     1      14.282  28.646  21.054  1.00  0.00     0.179 C 
ATOM     10  C   UNL     1      14.438  29.870  23.056  1.00  0.00     0.282 C 
ATOM     11  O   UNL     1      14.668  28.695  22.402  1.00  0.00    -0.341 OA
ATOM     12  C   UNL     1      13.021  30.334  22.999  1.00  0.00     0.202 C 
ATOM     13  C   UNL     1      12.596  30.374  21.572  1.00  0.00     0.179 C 
ATOM     14  C   UNL     1      13.638  29.921  20.610  1.00  0.00     0.177 C 
BRANCH  10  15
ATOM     15  O   UNL     1      15.368  30.855  22.774  1.00  0.00    -0.341 OA
BRANCH  15  16
ATOM     16  C   UNL     1      15.922  31.453  23.888  1.00  0.00     0.184 C 
ATOM     17  C   UNL     1      15.877  32.927  23.814  1.00  0.00     0.178 C 
ATOM     18  O   UNL     1      16.284  33.530  25.008  1.00  0.00    -0.341 OA
ATOM     19  C   UNL     1      16.950  32.655  25.868  1.00  0.00     0.281 C 
ATOM     20  C   UNL     1      17.452  31.117  23.915  1.00  0.00     0.180 C 
ATOM     21  C   UNL     1      17.950  31.755  25.171  1.00  0.00     0.202 C 
BRANCH  17  22
ATOM     22  C   UNL     1      14.614  33.554  23.337  1.00  0.00     0.191 C 
BRANCH  22  23
ATOM     23  O   UNL     1      14.495  33.426  21.956  1.00  0.00    -0.394 OA
ATOM     24  H   UNL     1      15.047  32.662  21.656  1.00  0.00     0.210 HD
ENDBRANCH  22  23
ENDBRANCH  17  22
BRANCH  19  25
ATOM     25  O   UNL     1      16.097  32.007  26.718  1.00  0.00    -0.350 OA
BRANCH  25  26
ATOM     26  C   UNL     1      16.250  32.130  28.053  1.00  0.00     0.169 C 
BRANCH  26  27
ATOM     27  C   UNL     1      16.954  31.010  28.725  1.00  0.00     0.119 C 
BRANCH  27  28
ATOM     28  N   UNL     1      18.353  31.183  28.913  1.00  0.00    -0.092 NA
ATOM     29  N   UNL     1      19.123  30.272  29.231  1.00  0.00     0.001 N 
ATOM     30  N   UNL     1      19.975  29.713  29.930  1.00  0.00    -0.003 NA
ENDBRANCH  27  28
ENDBRANCH  26  27
ENDBRANCH  25  26
ENDBRANCH  19  25
BRANCH  20  31
ATOM     31  O   UNL     1      17.659  29.762  23.962  1.00  0.00    -0.387 OA
ATOM     32  H   UNL     1      16.806  29.284  24.147  1.00  0.00     0.211 HD
ENDBRANCH  20  31
BRANCH  21  33
ATOM     33  O   UNL     1      19.111  32.495  24.921  1.00  0.00    -0.385 OA
ATOM     34  H   UNL     1      19.336  32.404  23.984  1.00  0.00     0.211 HD
ENDBRANCH  21  33
ENDBRANCH  15  16
ENDBRANCH  10  15
BRANCH  12  35
ATOM     35  O   UNL     1      12.208  29.431  23.714  1.00  0.00    -0.385 OA
ATOM     36  H   UNL     1      12.132  29.775  24.643  1.00  0.00     0.211 HD
ENDBRANCH  12  35
BRANCH  13  37
ATOM     37  O   UNL     1      12.192  31.679  21.204  1.00  0.00    -0.387 OA
ATOM     38  H   UNL     1      12.337  32.305  21.954  1.00  0.00     0.211 HD
ENDBRANCH  13  37
BRANCH  14  39
ATOM     39  O   UNL     1      14.545  30.959  20.362  1.00  0.00    -0.387 OA
ATOM     40  H   UNL     1      15.038  30.694  19.533  1.00  0.00     0.211 HD
ENDBRANCH  14  39
ENDBRANCH   8   9
ENDBRANCH   7   8
ENDBRANCH   1   7
BRANCH   1  41
ATOM     41  C   UNL     1      15.708  29.509  16.917  1.00  0.00     0.364 C 
ATOM     42  O   UNL     1      15.959  29.175  15.748  1.00  0.00    -0.246 OA
BRANCH  41  43
ATOM     43  O   UNL     1      14.629  30.384  17.079  1.00  0.00    -0.477 OA
ATOM     44  H   UNL     1      14.575  31.243  16.519  1.00  0.00     0.296 HD
ENDBRANCH  41  43
ENDBRANCH   1  41
BRANCH   3  45
ATOM     45  O   UNL     1      19.249  28.523  19.346  1.00  0.00    -0.391 OA
ATOM     46  H   UNL     1      20.198  28.830  19.464  1.00  0.00     0.211 HD
ENDBRANCH   3  45
BRANCH   5  47
ATOM     47  C   UNL     1      18.197  32.194  18.571  1.00  0.00     0.176 C 
BRANCH  47  48
ATOM     48  O   UNL     1      19.635  32.330  18.354  1.00  0.00    -0.388 OA
ATOM     49  H   UNL     1      19.785  31.967  17.429  1.00  0.00     0.211 HD
ENDBRANCH  47  48
BRANCH  47  50
ATOM     50  C   UNL     1      18.124  31.984  20.047  1.00  0.00     0.165 C 
BRANCH  50  51
ATOM     51  O   UNL     1      16.876  32.311  20.524  1.00  0.00    -0.388 OA
ATOM     52  H   UNL     1      16.177  32.417  19.859  1.00  0.00     0.211 HD
ENDBRANCH  50  51
BRANCH  50  53
ATOM     53  C   UNL     1      19.250  32.536  20.837  1.00  0.00     0.154 C 
BRANCH  53  54
ATOM     54  N   UNL     1      20.041  31.459  21.432  1.00  0.00    -0.319 N 
ATOM     55  C   UNL     1      21.015  31.724  22.400  1.00  0.00     0.407 C 
ATOM     56  H   UNL     1      19.855  30.495  21.117  1.00  0.00     0.167 HD
ATOM     57  O   UNL     1      21.204  32.925  22.756  1.00  0.00    -0.225 OA
BRANCH  55  58
ATOM     58  O   UNL     1      21.787  30.730  22.991  1.00  0.00    -0.443 OA
BRANCH  58  59
ATOM     59  C   UNL     1      21.198  29.777  23.867  1.00  0.00     0.294 C 
BRANCH  59  60
ATOM     60  C   UNL     1      21.123  28.449  23.184  1.00  0.00     0.120 A 
ATOM     61  C   UNL     1      21.503  27.225  23.695  1.00  0.00     0.138 A 
ATOM     62  N   UNL     1      20.680  28.201  21.956  1.00  0.00    -0.132 NA
ATOM     63  N   UNL     1      21.285  26.274  22.776  1.00  0.00    -0.249 N 
ATOM     64  N   UNL     1      20.775  26.919  21.711  1.00  0.00    -0.067 NA
BRANCH  63  65
ATOM     65  C   UNL     1      21.514  24.850  22.825  1.00  0.00     0.112 C 
ATOM     66  C   UNL     1      22.123  24.292  21.572  1.00  0.00     0.046 C 
ATOM     67  C   UNL     1      22.523  24.577  23.952  1.00  0.00     0.046 C 
ATOM     68  C   UNL     1      23.553  24.741  21.427  1.00  0.00     0.058 C 
ATOM     69  C   UNL     1      23.846  25.240  23.622  1.00  0.00     0.058 C 
ATOM     70  N   UNL     1      23.737  25.877  22.321  1.00  0.00    -0.300 NA
ATOM     71  C   UNL     1      24.527  23.721  21.954  1.00  0.00     0.021 C 
ATOM     72  C   UNL     1      24.892  24.180  23.338  1.00  0.00     0.021 C 
ATOM     73  C   UNL     1      24.941  26.549  21.938  1.00  0.00     0.105 C 
ENDBRANCH  63  65
ENDBRANCH  59  60
ENDBRANCH  58  59
ENDBRANCH  55  58
ENDBRANCH  53  54
ENDBRANCH  50  53
ENDBRANCH  47  50
ENDBRANCH   5  47
BRANCH   4  74
ATOM     74  N   UNL     1      19.496  30.014  16.102  1.00  0.00    -0.348 N 
ATOM     75  C   UNL     1      20.830  30.411  15.709  1.00  0.00     0.217 C 
ATOM     76  H   UNL     1      18.893  29.681  15.327  1.00  0.00     0.163 HD
ATOM     77  C   UNL     1      21.327  30.360  14.331  1.00  0.00     0.114 C 
ATOM     78  O   UNL     1      21.578  30.818  16.622  1.00  0.00    -0.275 OA
ENDBRANCH   4  74
TORSDOF 30
