REMARK VINA RESULT:    -5.465      8.404     15.595
REMARK INTER + INTRA:         -23.976
REMARK INTER:                 -14.757
REMARK INTRA:                  -9.219
REMARK UNBOUND:                -9.245
REMARK SMILES CC(=O)N[C@@H]1[C@@H](O)C[C@](OC[C@H]2O[C@@H](O[C@H]3[C@H](O)[C@@H](O)[C@H](OCCN=[N+]=[N-])O[C@@H]3CO)[C@H](O)[C@@H](O)[C@H]2O)(C(=O)O)O[C@H]1C(O)[C@H](O)CNC(=O)OCc1cn([C@@H](C)C(=O)OCc2ccccc2)nn1
REMARK SMILES IDX 43 1 42 2 9 3 8 4 41 5 6 6 5 7 10 8 11 9 12 10 14 11 13 12
REMARK SMILES IDX 32 13 34 14 36 15 15 16 16 17 29 18 28 19 21 20 17 21 19 22
REMARK SMILES IDX 30 23 31 24 22 26 23 27 24 28 25 29 26 30 27 31 18 32 20 34
REMARK SMILES IDX 33 36 35 38 37 40 38 42 39 43 40 44 7 46 4 48 2 49 1 51 3 52
REMARK SMILES IDX 44 53 45 55 46 56 47 58 48 59 49 60 50 62 51 63 52 64 53 65
REMARK SMILES IDX 54 66 69 67 55 68 68 69 56 70 57 71 58 72 59 73 60 74 61 75
REMARK SMILES IDX 62 76 63 77 67 78 64 79 66 80 65 81
REMARK H PARENT 31 25 18 33 20 35 33 37 35 39 37 41 40 45 7 47 4 50 44 54
REMARK H PARENT 46 57 48 61
REMARK Flexibility Score: inf
ROOT
ATOM      1  C   UNL     1      17.509  29.577  21.002  1.00  0.00     0.176 C 
ENDROOT
BRANCH   1   2
ATOM      2  C   UNL     1      17.434  30.026  19.595  1.00  0.00     0.178 C 
ATOM      3  C   UNL     1      15.141  29.977  19.161  1.00  0.00     0.272 C 
ATOM      4  C   UNL     1      15.373  28.876  18.199  1.00  0.00     0.113 C 
ATOM      5  O   UNL     1      16.338  30.773  19.255  1.00  0.00    -0.332 OA
ATOM      6  C   UNL     1      16.563  28.010  18.539  1.00  0.00     0.145 C 
ATOM      7  C   UNL     1      17.765  28.898  18.653  1.00  0.00     0.142 C 
BRANCH   3   8
ATOM      8  O   UNL     1      14.786  29.744  20.398  1.00  0.00    -0.338 OA
BRANCH   8   9
ATOM      9  C   UNL     1      13.749  29.172  20.938  1.00  0.00     0.199 C 
BRANCH   9  10
ATOM     10  C   UNL     1      13.287  29.450  22.340  1.00  0.00     0.179 C 
ATOM     11  C   UNL     1      14.186  30.145  24.371  1.00  0.00     0.282 C 
ATOM     12  O   UNL     1      14.364  29.451  23.177  1.00  0.00    -0.341 OA
ATOM     13  C   UNL     1      12.754  30.290  24.744  1.00  0.00     0.202 C 
ATOM     14  C   UNL     1      12.008  31.097  23.718  1.00  0.00     0.179 C 
ATOM     15  C   UNL     1      12.558  30.810  22.368  1.00  0.00     0.177 C 
BRANCH  11  16
ATOM     16  O   UNL     1      14.927  31.291  24.284  1.00  0.00    -0.341 OA
BRANCH  16  17
ATOM     17  C   UNL     1      15.299  31.848  25.471  1.00  0.00     0.184 C 
ATOM     18  C   UNL     1      16.001  33.157  25.209  1.00  0.00     0.178 C 
ATOM     19  O   UNL     1      16.523  33.665  26.404  1.00  0.00    -0.341 OA
ATOM     20  C   UNL     1      17.765  32.998  26.564  1.00  0.00     0.281 C 
ATOM     21  C   UNL     1      16.265  30.977  26.257  1.00  0.00     0.180 C 
ATOM     22  C   UNL     1      17.640  31.519  26.379  1.00  0.00     0.202 C 
BRANCH  18  23
ATOM     23  C   UNL     1      15.169  34.174  24.487  1.00  0.00     0.191 C 
BRANCH  23  24
ATOM     24  O   UNL     1      15.137  33.784  23.145  1.00  0.00    -0.394 OA
ATOM     25  H   UNL     1      14.386  33.179  22.936  1.00  0.00     0.210 HD
ENDBRANCH  23  24
ENDBRANCH  18  23
BRANCH  20  26
ATOM     26  O   UNL     1      18.287  33.380  27.758  1.00  0.00    -0.350 OA
BRANCH  26  27
ATOM     27  C   UNL     1      19.467  32.849  28.164  1.00  0.00     0.169 C 
BRANCH  27  28
ATOM     28  C   UNL     1      19.520  32.203  29.501  1.00  0.00     0.119 C 
BRANCH  28  29
ATOM     29  N   UNL     1      19.170  30.831  29.579  1.00  0.00    -0.092 NA
ATOM     30  N   UNL     1      18.069  30.454  29.963  1.00  0.00     0.001 N 
ATOM     31  N   UNL     1      16.924  30.015  30.177  1.00  0.00    -0.003 NA
ENDBRANCH  28  29
ENDBRANCH  27  28
ENDBRANCH  26  27
ENDBRANCH  20  26
BRANCH  21  32
ATOM     32  O   UNL     1      15.774  30.699  27.536  1.00  0.00    -0.387 OA
ATOM     33  H   UNL     1      14.889  31.094  27.704  1.00  0.00     0.211 HD
ENDBRANCH  21  32
BRANCH  22  34
ATOM     34  O   UNL     1      18.426  31.032  25.329  1.00  0.00    -0.385 OA
ATOM     35  H   UNL     1      19.326  30.850  25.710  1.00  0.00     0.211 HD
ENDBRANCH  22  34
ENDBRANCH  16  17
ENDBRANCH  11  16
BRANCH  13  36
ATOM     36  O   UNL     1      12.197  28.995  24.870  1.00  0.00    -0.385 OA
ATOM     37  H   UNL     1      11.383  29.130  25.444  1.00  0.00     0.211 HD
ENDBRANCH  13  36
BRANCH  14  38
ATOM     38  O   UNL     1      12.068  32.430  24.072  1.00  0.00    -0.387 OA
ATOM     39  H   UNL     1      11.922  33.036  23.295  1.00  0.00     0.211 HD
ENDBRANCH  14  38
BRANCH  15  40
ATOM     40  O   UNL     1      13.369  31.830  21.890  1.00  0.00    -0.387 OA
ATOM     41  H   UNL     1      13.803  32.297  22.669  1.00  0.00     0.211 HD
ENDBRANCH  15  40
ENDBRANCH   9  10
ENDBRANCH   8   9
ENDBRANCH   3   8
BRANCH   3  42
ATOM     42  C   UNL     1      14.247  30.992  18.476  1.00  0.00     0.364 C 
ATOM     43  O   UNL     1      14.412  32.210  18.630  1.00  0.00    -0.246 OA
BRANCH  42  44
ATOM     44  O   UNL     1      13.205  30.578  17.648  1.00  0.00    -0.477 OA
ATOM     45  H   UNL     1      13.202  29.698  17.142  1.00  0.00     0.296 HD
ENDBRANCH  42  44
ENDBRANCH   3  42
BRANCH   6  46
ATOM     46  O   UNL     1      16.361  27.230  19.674  1.00  0.00    -0.391 OA
ATOM     47  H   UNL     1      15.547  27.573  20.111  1.00  0.00     0.211 HD
ENDBRANCH   6  46
BRANCH   7  48
ATOM     48  N   UNL     1      18.104  29.395  17.326  1.00  0.00    -0.348 N 
ATOM     49  C   UNL     1      19.206  28.797  16.637  1.00  0.00     0.217 C 
ATOM     50  H   UNL     1      17.593  30.162  16.847  1.00  0.00     0.163 HD
ATOM     51  C   UNL     1      19.555  29.307  15.277  1.00  0.00     0.114 C 
ATOM     52  O   UNL     1      19.860  27.862  17.174  1.00  0.00    -0.275 OA
ENDBRANCH   7  48
ENDBRANCH   1   2
BRANCH   1  53
ATOM     53  O   UNL     1      18.715  28.856  21.181  1.00  0.00    -0.388 OA
ATOM     54  H   UNL     1      19.323  29.349  21.798  1.00  0.00     0.211 HD
ENDBRANCH   1  53
BRANCH   1  55
ATOM     55  C   UNL     1      17.627  30.730  22.012  1.00  0.00     0.165 C 
BRANCH  55  56
ATOM     56  O   UNL     1      16.492  31.475  22.085  1.00  0.00    -0.388 OA
ATOM     57  H   UNL     1      16.133  31.489  23.003  1.00  0.00     0.211 HD
ENDBRANCH  55  56
BRANCH  55  58
ATOM     58  C   UNL     1      18.897  31.490  21.808  1.00  0.00     0.154 C 
BRANCH  58  59
ATOM     59  N   UNL     1      19.962  30.923  22.589  1.00  0.00    -0.319 N 
ATOM     60  C   UNL     1      21.304  30.760  22.172  1.00  0.00     0.407 C 
ATOM     61  H   UNL     1      19.773  30.579  23.584  1.00  0.00     0.167 HD
ATOM     62  O   UNL     1      21.667  31.096  21.043  1.00  0.00    -0.225 OA
BRANCH  60  63
ATOM     63  O   UNL     1      22.267  30.210  23.032  1.00  0.00    -0.443 OA
BRANCH  63  64
ATOM     64  C   UNL     1      22.021  30.012  24.402  1.00  0.00     0.294 C 
BRANCH  64  65
ATOM     65  C   UNL     1      21.437  28.661  24.562  1.00  0.00     0.120 A 
ATOM     66  C   UNL     1      22.024  27.444  24.297  1.00  0.00     0.139 A 
ATOM     67  N   UNL     1      20.200  28.399  25.000  1.00  0.00    -0.132 NA
ATOM     68  N   UNL     1      21.124  26.462  24.581  1.00  0.00    -0.238 N 
ATOM     69  N   UNL     1      20.032  27.069  25.004  1.00  0.00    -0.066 NA
BRANCH  68  70
ATOM     70  C   UNL     1      21.429  25.064  24.399  1.00  0.00     0.215 C 
ATOM     71  C   UNL     1      21.124  24.614  22.982  1.00  0.00     0.046 C 
BRANCH  70  72
ATOM     72  C   UNL     1      22.879  24.797  24.709  1.00  0.00     0.331 C 
ATOM     73  O   UNL     1      23.659  24.550  23.775  1.00  0.00    -0.250 OA
BRANCH  72  74
ATOM     74  O   UNL     1      23.352  24.822  26.001  1.00  0.00    -0.459 OA
BRANCH  74  75
ATOM     75  C   UNL     1      22.620  24.433  27.137  1.00  0.00     0.268 C 
BRANCH  75  76
ATOM     76  C   UNL     1      22.546  25.475  28.182  1.00  0.00    -0.011 A 
ATOM     77  C   UNL     1      21.706  26.554  28.086  1.00  0.00     0.007 A 
ATOM     78  C   UNL     1      23.341  25.384  29.298  1.00  0.00     0.007 A 
ATOM     79  C   UNL     1      21.637  27.528  29.056  1.00  0.00     0.000 A 
ATOM     80  C   UNL     1      23.305  26.334  30.293  1.00  0.00     0.000 A 
ATOM     81  C   UNL     1      22.441  27.414  30.161  1.00  0.00     0.000 A 
ENDBRANCH  75  76
ENDBRANCH  74  75
ENDBRANCH  72  74
ENDBRANCH  70  72
ENDBRANCH  68  70
ENDBRANCH  64  65
ENDBRANCH  63  64
ENDBRANCH  60  63
ENDBRANCH  58  59
ENDBRANCH  55  58
ENDBRANCH   1  55
TORSDOF 34
