REMARK VINA RESULT:    -6.148     22.440     26.902
REMARK INTER + INTRA:         -21.859
REMARK INTER:                 -13.059
REMARK INTRA:                  -8.800
REMARK UNBOUND:                -6.367
REMARK SMILES CC(=O)N[C@@H]1[C@@H](O)C[C@](OC[C@H]2O[C@@H](O[C@H]3[C@H](O)[C@@H](O)[C@H](OCCN=[N+]=[N-])O[C@@H]3CO)[C@H](O)[C@@H](O)[C@H]2O)(C(=O)O)O[C@H]1C(O)[C@H](O)CNC(=O)OCc1cn(-c2ncn3c2c(=O)n(C(C)C)c2ccccc23)nn1
REMARK SMILES IDX 9 1 8 2 6 3 5 4 42 5 41 6 10 7 11 8 12 9 14 10 13 11 32 12
REMARK SMILES IDX 34 13 36 14 15 15 16 16 29 17 28 18 21 19 17 20 19 21 30 22
REMARK SMILES IDX 31 23 22 25 23 26 24 27 25 28 26 29 27 30 18 31 20 33 33 35
REMARK SMILES IDX 35 37 37 39 38 41 39 42 40 43 7 45 43 47 44 48 45 50 46 51
REMARK SMILES IDX 47 53 48 54 49 55 50 57 51 58 52 59 53 60 54 61 74 62 55 63
REMARK SMILES IDX 73 64 56 65 57 66 60 67 58 68 59 69 61 70 72 71 63 72 62 73
REMARK SMILES IDX 71 74 67 75 70 76 68 77 69 78 64 79 65 80 66 81 4 82 2 83
REMARK SMILES IDX 1 85 3 86
REMARK H PARENT 31 24 18 32 20 34 33 36 35 38 37 40 40 44 7 46 44 49 46 52
REMARK H PARENT 48 56 4 84
REMARK Flexibility Score: inf
ROOT
ATOM      1  C   UNL     1       0.520  22.851  33.143  1.00  0.00     0.272 C 
ATOM      2  C   UNL     1       0.292  22.641  34.616  1.00  0.00     0.113 C 
ATOM      3  C   UNL     1       0.565  21.262  35.049  1.00  0.00     0.145 C 
ATOM      4  C   UNL     1       1.826  20.665  34.495  1.00  0.00     0.142 C 
ATOM      5  C   UNL     1       2.224  21.220  33.175  1.00  0.00     0.178 C 
ATOM      6  O   UNL     1       1.874  22.471  32.881  1.00  0.00    -0.332 OA
ENDROOT
BRANCH   1   7
ATOM      7  O   UNL     1       0.580  24.204  32.957  1.00  0.00    -0.338 OA
BRANCH   7   8
ATOM      8  C   UNL     1      -0.246  24.948  32.276  1.00  0.00     0.199 C 
BRANCH   8   9
ATOM      9  C   UNL     1       0.053  26.275  31.669  1.00  0.00     0.179 C 
ATOM     10  C   UNL     1       1.774  27.840  31.775  1.00  0.00     0.282 C 
ATOM     11  O   UNL     1       1.325  26.628  32.228  1.00  0.00    -0.341 OA
ATOM     12  C   UNL     1       2.039  27.836  30.280  1.00  0.00     0.202 C 
ATOM     13  C   UNL     1       0.827  27.325  29.522  1.00  0.00     0.179 C 
ATOM     14  C   UNL     1       0.351  26.061  30.183  1.00  0.00     0.177 C 
BRANCH  10  15
ATOM     15  O   UNL     1       2.980  28.094  32.418  1.00  0.00    -0.341 OA
BRANCH  15  16
ATOM     16  C   UNL     1       3.784  26.983  32.419  1.00  0.00     0.184 C 
ATOM     17  C   UNL     1       4.547  26.892  33.691  1.00  0.00     0.178 C 
ATOM     18  O   UNL     1       5.837  27.357  33.660  1.00  0.00    -0.341 OA
ATOM     19  C   UNL     1       6.115  28.312  32.717  1.00  0.00     0.281 C 
ATOM     20  C   UNL     1       4.676  26.901  31.198  1.00  0.00     0.180 C 
ATOM     21  C   UNL     1       5.797  27.867  31.311  1.00  0.00     0.202 C 
BRANCH  17  22
ATOM     22  C   UNL     1       4.530  25.474  34.221  1.00  0.00     0.191 C 
BRANCH  22  23
ATOM     23  O   UNL     1       3.426  24.851  33.591  1.00  0.00    -0.394 OA
ATOM     24  H   UNL     1       2.747  24.728  34.293  1.00  0.00     0.210 HD
ENDBRANCH  22  23
ENDBRANCH  17  22
BRANCH  19  25
ATOM     25  O   UNL     1       7.504  28.528  32.743  1.00  0.00    -0.350 OA
BRANCH  25  26
ATOM     26  C   UNL     1       8.190  27.664  33.551  1.00  0.00     0.169 C 
BRANCH  26  27
ATOM     27  C   UNL     1       9.682  27.759  33.493  1.00  0.00     0.119 C 
BRANCH  27  28
ATOM     28  N   UNL     1      10.190  26.617  34.269  1.00  0.00    -0.092 NA
ATOM     29  N   UNL     1       9.992  25.459  33.971  1.00  0.00     0.001 N 
ATOM     30  N   UNL     1       9.620  24.282  33.920  1.00  0.00    -0.003 NA
ENDBRANCH  27  28
ENDBRANCH  26  27
ENDBRANCH  25  26
ENDBRANCH  19  25
BRANCH  20  31
ATOM     31  O   UNL     1       5.092  25.574  31.035  1.00  0.00    -0.387 OA
ATOM     32  H   UNL     1       6.038  25.560  31.365  1.00  0.00     0.211 HD
ENDBRANCH  20  31
BRANCH  21  33
ATOM     33  O   UNL     1       5.443  29.009  30.569  1.00  0.00    -0.385 OA
ATOM     34  H   UNL     1       5.891  29.824  30.915  1.00  0.00     0.211 HD
ENDBRANCH  21  33
ENDBRANCH  15  16
ENDBRANCH  10  15
BRANCH  12  35
ATOM     35  O   UNL     1       2.212  29.160  29.885  1.00  0.00    -0.385 OA
ATOM     36  H   UNL     1       1.719  29.791  30.461  1.00  0.00     0.211 HD
ENDBRANCH  12  35
BRANCH  13  37
ATOM     37  O   UNL     1       1.286  26.955  28.244  1.00  0.00    -0.387 OA
ATOM     38  H   UNL     1       0.513  26.732  27.655  1.00  0.00     0.211 HD
ENDBRANCH  13  37
BRANCH  14  39
ATOM     39  O   UNL     1       1.433  25.147  30.095  1.00  0.00    -0.387 OA
ATOM     40  H   UNL     1       2.068  25.300  30.835  1.00  0.00     0.211 HD
ENDBRANCH  14  39
ENDBRANCH   8   9
ENDBRANCH   7   8
ENDBRANCH   1   7
BRANCH   1  41
ATOM     41  C   UNL     1      -0.330  22.053  32.271  1.00  0.00     0.364 C 
ATOM     42  O   UNL     1      -0.010  21.659  31.149  1.00  0.00    -0.246 OA
BRANCH  41  43
ATOM     43  O   UNL     1      -1.620  21.675  32.688  1.00  0.00    -0.477 OA
ATOM     44  H   UNL     1      -1.869  21.752  33.666  1.00  0.00     0.296 HD
ENDBRANCH  41  43
ENDBRANCH   1  41
BRANCH   3  45
ATOM     45  O   UNL     1       0.649  21.289  36.466  1.00  0.00    -0.391 OA
ATOM     46  H   UNL     1       1.401  21.852  36.759  1.00  0.00     0.211 HD
ENDBRANCH   3  45
BRANCH   5  47
ATOM     47  C   UNL     1       3.706  21.044  32.899  1.00  0.00     0.176 C 
BRANCH  47  48
ATOM     48  O   UNL     1       4.438  21.524  33.962  1.00  0.00    -0.388 OA
ATOM     49  H   UNL     1       5.039  22.275  33.723  1.00  0.00     0.211 HD
ENDBRANCH  47  48
BRANCH  47  50
ATOM     50  C   UNL     1       4.175  21.642  31.619  1.00  0.00     0.165 C 
BRANCH  50  51
ATOM     51  O   UNL     1       4.274  23.006  31.581  1.00  0.00    -0.388 OA
ATOM     52  H   UNL     1       4.333  23.436  32.465  1.00  0.00     0.211 HD
ENDBRANCH  50  51
BRANCH  50  53
ATOM     53  C   UNL     1       3.441  21.139  30.413  1.00  0.00     0.154 C 
BRANCH  53  54
ATOM     54  N   UNL     1       2.828  22.253  29.680  1.00  0.00    -0.319 N 
ATOM     55  C   UNL     1       2.091  22.069  28.499  1.00  0.00     0.407 C 
ATOM     56  H   UNL     1       2.940  23.245  30.050  1.00  0.00     0.167 HD
ATOM     57  O   UNL     1       1.933  20.925  28.003  1.00  0.00    -0.225 OA
BRANCH  55  58
ATOM     58  O   UNL     1       1.534  23.200  27.884  1.00  0.00    -0.443 OA
BRANCH  58  59
ATOM     59  C   UNL     1       2.084  23.714  26.705  1.00  0.00     0.294 C 
BRANCH  59  60
ATOM     60  C   UNL     1       3.161  24.742  26.971  1.00  0.00     0.121 A 
ATOM     61  C   UNL     1       3.945  25.364  26.027  1.00  0.00     0.146 A 
ATOM     62  N   UNL     1       3.552  25.245  28.153  1.00  0.00    -0.131 NA
ATOM     63  N   UNL     1       4.797  26.232  26.648  1.00  0.00    -0.200 N 
ATOM     64  N   UNL     1       4.524  26.127  27.934  1.00  0.00    -0.060 NA
BRANCH  63  65
ATOM     65  C   UNL     1       5.759  27.062  25.998  1.00  0.00     0.186 A 
ATOM     66  N   UNL     1       6.698  26.624  25.143  1.00  0.00    -0.216 NA
ATOM     67  C   UNL     1       5.966  28.416  26.085  1.00  0.00     0.158 A 
ATOM     68  C   UNL     1       7.450  27.659  24.721  1.00  0.00     0.207 A 
ATOM     69  N   UNL     1       7.007  28.794  25.301  1.00  0.00    -0.291 N 
ATOM     70  C   UNL     1       5.294  29.360  26.818  1.00  0.00     0.279 A 
ATOM     71  C   UNL     1       7.400  30.078  25.225  1.00  0.00     0.071 A 
ATOM     72  N   UNL     1       5.667  30.664  26.762  1.00  0.00    -0.302 N 
ATOM     73  O   UNL     1       4.316  29.034  27.560  1.00  0.00    -0.267 OA
ATOM     74  C   UNL     1       8.453  30.461  24.440  1.00  0.00     0.029 A 
ATOM     75  C   UNL     1       6.709  31.007  25.973  1.00  0.00     0.068 A 
ATOM     76  C   UNL     1       8.867  31.801  24.366  1.00  0.00     0.002 A 
ATOM     77  C   UNL     1       7.120  32.324  25.896  1.00  0.00     0.028 A 
ATOM     78  C   UNL     1       8.186  32.738  25.107  1.00  0.00     0.002 A 
BRANCH  72  79
ATOM     79  C   UNL     1       4.946  31.673  27.538  1.00  0.00     0.085 C 
ATOM     80  C   UNL     1       3.466  31.633  27.341  1.00  0.00     0.031 C 
ATOM     81  C   UNL     1       5.384  31.706  28.980  1.00  0.00     0.031 C 
ENDBRANCH  72  79
ENDBRANCH  63  65
ENDBRANCH  59  60
ENDBRANCH  58  59
ENDBRANCH  55  58
ENDBRANCH  53  54
ENDBRANCH  50  53
ENDBRANCH  47  50
ENDBRANCH   5  47
BRANCH   4  82
ATOM     82  N   UNL     1       1.681  19.224  34.478  1.00  0.00    -0.348 N 
ATOM     83  C   UNL     1       2.657  18.338  34.986  1.00  0.00     0.217 C 
ATOM     84  H   UNL     1       0.814  18.795  34.072  1.00  0.00     0.163 HD
ATOM     85  C   UNL     1       2.494  16.854  34.962  1.00  0.00     0.114 C 
ATOM     86  O   UNL     1       3.709  18.840  35.479  1.00  0.00    -0.275 OA
ENDBRANCH   4  82
TORSDOF 31
