REMARK VINA RESULT:    -5.289     11.804     16.034
REMARK INTER + INTRA:         -20.670
REMARK INTER:                 -13.294
REMARK INTRA:                  -7.376
REMARK UNBOUND:                -7.652
REMARK SMILES CC(=O)N[C@@H]1[C@@H](O)C[C@](OC[C@H]2O[C@@H](O[C@H]3[C@H](O)[C@@H](O)[C@H](OCCN=[N+]=[N-])O[C@@H]3CO)[C@H](O)[C@@H](O)[C@H]2O)(C(=O)O)O[C@H]1C(O)[C@H](O)CNC(=O)OCc1cn(-c2ccc(Br)cc2)nn1
REMARK SMILES IDX 9 1 8 2 6 3 5 4 42 5 41 6 10 7 11 8 12 9 14 10 13 11 32 12
REMARK SMILES IDX 34 13 36 14 15 15 16 16 29 17 28 18 21 19 17 20 19 21 30 22
REMARK SMILES IDX 31 23 22 25 23 26 24 27 25 28 26 29 27 30 18 31 20 33 33 35
REMARK SMILES IDX 35 37 37 39 38 41 39 42 40 43 7 45 43 47 44 48 45 50 46 51
REMARK SMILES IDX 47 53 48 54 49 55 50 57 51 58 52 59 53 60 54 61 64 62 55 63
REMARK SMILES IDX 63 64 56 65 57 66 62 67 58 68 61 69 59 70 60 71 4 72 2 73
REMARK SMILES IDX 1 75 3 76
REMARK H PARENT 31 24 18 32 20 34 33 36 35 38 37 40 40 44 7 46 44 49 46 52
REMARK H PARENT 48 56 4 74
REMARK Flexibility Score: inf
ROOT
ATOM      1  C   UNL     1      15.034  30.271  21.358  1.00  0.00     0.272 C 
ATOM      2  C   UNL     1      13.713  29.734  21.974  1.00  0.00     0.113 C 
ATOM      3  C   UNL     1      13.950  29.488  23.417  1.00  0.00     0.145 C 
ATOM      4  C   UNL     1      14.407  30.827  24.029  1.00  0.00     0.142 C 
ATOM      5  C   UNL     1      15.768  31.078  23.424  1.00  0.00     0.178 C 
ATOM      6  O   UNL     1      15.546  31.307  22.085  1.00  0.00    -0.332 OA
ENDROOT
BRANCH   1   7
ATOM      7  O   UNL     1      14.606  30.766  20.121  1.00  0.00    -0.338 OA
BRANCH   7   8
ATOM      8  C   UNL     1      15.555  31.387  19.369  1.00  0.00     0.199 C 
BRANCH   8   9
ATOM      9  C   UNL     1      15.024  31.411  17.921  1.00  0.00     0.179 C 
ATOM     10  C   UNL     1      15.729  30.672  15.832  1.00  0.00     0.282 C 
ATOM     11  O   UNL     1      16.040  31.292  17.017  1.00  0.00    -0.341 OA
ATOM     12  C   UNL     1      14.299  30.718  15.472  1.00  0.00     0.202 C 
ATOM     13  C   UNL     1      13.335  30.319  16.543  1.00  0.00     0.179 C 
ATOM     14  C   UNL     1      14.045  30.249  17.856  1.00  0.00     0.177 C 
BRANCH  10  15
ATOM     15  O   UNL     1      16.321  29.410  15.878  1.00  0.00    -0.341 OA
BRANCH  15  16
ATOM     16  C   UNL     1      17.702  29.483  15.840  1.00  0.00     0.184 C 
ATOM     17  C   UNL     1      18.263  28.836  14.614  1.00  0.00     0.178 C 
ATOM     18  O   UNL     1      19.606  29.068  14.536  1.00  0.00    -0.341 OA
ATOM     19  C   UNL     1      20.271  29.460  15.658  1.00  0.00     0.281 C 
ATOM     20  C   UNL     1      18.312  28.698  17.013  1.00  0.00     0.180 C 
ATOM     21  C   UNL     1      19.820  28.813  16.948  1.00  0.00     0.202 C 
BRANCH  17  22
ATOM     22  C   UNL     1      17.611  29.438  13.383  1.00  0.00     0.191 C 
BRANCH  22  23
ATOM     23  O   UNL     1      16.537  28.681  12.980  1.00  0.00    -0.394 OA
ATOM     24  H   UNL     1      16.599  28.449  12.036  1.00  0.00     0.210 HD
ENDBRANCH  22  23
ENDBRANCH  17  22
BRANCH  19  25
ATOM     25  O   UNL     1      20.378  30.841  15.778  1.00  0.00    -0.350 OA
BRANCH  25  26
ATOM     26  C   UNL     1      20.738  31.486  14.611  1.00  0.00     0.169 C 
BRANCH  26  27
ATOM     27  C   UNL     1      19.775  32.533  14.160  1.00  0.00     0.119 C 
BRANCH  27  28
ATOM     28  N   UNL     1      20.345  33.281  13.052  1.00  0.00    -0.092 NA
ATOM     29  N   UNL     1      21.106  34.210  13.333  1.00  0.00     0.001 N 
ATOM     30  N   UNL     1      21.981  35.083  13.518  1.00  0.00    -0.003 NA
ENDBRANCH  27  28
ENDBRANCH  26  27
ENDBRANCH  25  26
ENDBRANCH  19  25
BRANCH  20  31
ATOM     31  O   UNL     1      17.771  29.128  18.211  1.00  0.00    -0.387 OA
ATOM     32  H   UNL     1      17.890  28.450  18.930  1.00  0.00     0.211 HD
ENDBRANCH  20  31
BRANCH  21  33
ATOM     33  O   UNL     1      20.479  27.620  17.145  1.00  0.00    -0.385 OA
ATOM     34  H   UNL     1      19.931  27.056  17.741  1.00  0.00     0.211 HD
ENDBRANCH  21  33
ENDBRANCH  15  16
ENDBRANCH  10  15
BRANCH  12  35
ATOM     35  O   UNL     1      14.035  32.042  15.024  1.00  0.00    -0.385 OA
ATOM     36  H   UNL     1      14.768  32.333  14.408  1.00  0.00     0.211 HD
ENDBRANCH  12  35
BRANCH  13  37
ATOM     37  O   UNL     1      12.780  29.047  16.263  1.00  0.00    -0.387 OA
ATOM     38  H   UNL     1      12.022  29.223  15.651  1.00  0.00     0.211 HD
ENDBRANCH  13  37
BRANCH  14  39
ATOM     39  O   UNL     1      14.682  29.026  18.053  1.00  0.00    -0.387 OA
ATOM     40  H   UNL     1      14.361  28.592  18.882  1.00  0.00     0.211 HD
ENDBRANCH  14  39
ENDBRANCH   8   9
ENDBRANCH   7   8
ENDBRANCH   1   7
BRANCH   1  41
ATOM     41  C   UNL     1      15.891  29.109  21.138  1.00  0.00     0.364 C 
ATOM     42  O   UNL     1      15.475  28.013  20.693  1.00  0.00    -0.246 OA
BRANCH  41  43
ATOM     43  O   UNL     1      17.242  29.174  21.418  1.00  0.00    -0.477 OA
ATOM     44  H   UNL     1      17.789  28.389  21.769  1.00  0.00     0.296 HD
ENDBRANCH  41  43
ENDBRANCH   1  41
BRANCH   3  45
ATOM     45  O   UNL     1      12.781  29.162  24.090  1.00  0.00    -0.391 OA
ATOM     46  H   UNL     1      12.010  29.501  23.589  1.00  0.00     0.211 HD
ENDBRANCH   3  45
BRANCH   5  47
ATOM     47  C   UNL     1      16.494  32.261  23.967  1.00  0.00     0.176 C 
BRANCH  47  48
ATOM     48  O   UNL     1      16.659  33.137  22.856  1.00  0.00    -0.388 OA
ATOM     49  H   UNL     1      17.496  33.649  22.989  1.00  0.00     0.211 HD
ENDBRANCH  47  48
BRANCH  47  50
ATOM     50  C   UNL     1      17.922  31.981  24.409  1.00  0.00     0.165 C 
BRANCH  50  51
ATOM     51  O   UNL     1      18.069  32.795  25.566  1.00  0.00    -0.388 OA
ATOM     52  H   UNL     1      17.361  32.539  26.237  1.00  0.00     0.211 HD
ENDBRANCH  50  51
BRANCH  50  53
ATOM     53  C   UNL     1      18.919  32.473  23.418  1.00  0.00     0.154 C 
BRANCH  53  54
ATOM     54  N   UNL     1      19.253  31.475  22.454  1.00  0.00    -0.319 N 
ATOM     55  C   UNL     1      19.113  31.622  21.038  1.00  0.00     0.407 C 
ATOM     56  H   UNL     1      19.642  30.528  22.768  1.00  0.00     0.167 HD
ATOM     57  O   UNL     1      18.657  32.699  20.588  1.00  0.00    -0.225 OA
BRANCH  55  58
ATOM     58  O   UNL     1      19.465  30.622  20.161  1.00  0.00    -0.443 OA
BRANCH  58  59
ATOM     59  C   UNL     1      20.792  30.165  20.106  1.00  0.00     0.294 C 
BRANCH  59  60
ATOM     60  C   UNL     1      20.863  28.831  20.744  1.00  0.00     0.121 A 
ATOM     61  C   UNL     1      21.318  28.605  22.049  1.00  0.00     0.144 A 
ATOM     62  N   UNL     1      20.546  27.616  20.274  1.00  0.00    -0.131 NA
ATOM     63  N   UNL     1      21.257  27.286  22.302  1.00  0.00    -0.220 N 
ATOM     64  N   UNL     1      20.786  26.717  21.210  1.00  0.00    -0.062 NA
BRANCH  63  65
ATOM     65  C   UNL     1      21.650  26.705  23.538  1.00  0.00     0.066 A 
ATOM     66  C   UNL     1      22.037  27.400  24.639  1.00  0.00     0.029 A 
ATOM     67  C   UNL     1      21.617  25.316  23.599  1.00  0.00     0.029 A 
ATOM     68  C   UNL     1      22.385  26.713  25.783  1.00  0.00     0.018 A 
ATOM     69  C   UNL     1      21.967  24.643  24.748  1.00  0.00     0.018 A 
ATOM     70  C   UNL     1      22.361  25.342  25.870  1.00  0.00     0.018 A 
ATOM     71  Br  UNL     1      22.847  24.430  27.474  1.00  0.00    -0.051 Br
ENDBRANCH  63  65
ENDBRANCH  59  60
ENDBRANCH  58  59
ENDBRANCH  55  58
ENDBRANCH  53  54
ENDBRANCH  50  53
ENDBRANCH  47  50
ENDBRANCH   5  47
BRANCH   4  72
ATOM     72  N   UNL     1      14.395  30.647  25.449  1.00  0.00    -0.348 N 
ATOM     73  C   UNL     1      13.792  31.585  26.330  1.00  0.00     0.217 C 
ATOM     74  H   UNL     1      14.839  29.806  25.859  1.00  0.00     0.163 HD
ATOM     75  C   UNL     1      13.766  31.426  27.803  1.00  0.00     0.114 C 
ATOM     76  O   UNL     1      13.239  32.628  25.851  1.00  0.00    -0.275 OA
ENDBRANCH   4  72
TORSDOF 30
