REMARK VINA RESULT:    -6.037     10.521     14.714
REMARK INTER + INTRA:         -21.075
REMARK INTER:                 -14.894
REMARK INTRA:                  -6.182
REMARK UNBOUND:                -5.863
REMARK SMILES CC(=O)N[C@@H]1[C@@H](O)C[C@](OC[C@H]2O[C@@H](O[C@H]3[C@H](O)[C@@H](O)[C@H](OCCN=[N+]=[N-])O[C@@H]3CO)[C@H](O)[C@@H](O)[C@H]2O)(C(=O)O)O[C@H]1C(O)[C@H](O)CNC(=O)OCc1cn(-c2ncccc2C#N)nn1
REMARK SMILES IDX 9 1 8 2 6 3 5 4 42 5 41 6 10 7 11 8 12 9 14 10 13 11 32 12
REMARK SMILES IDX 34 13 36 14 15 15 16 16 29 17 28 18 21 19 17 20 19 21 30 22
REMARK SMILES IDX 31 23 22 25 23 26 24 27 25 28 26 29 27 30 18 31 20 33 33 35
REMARK SMILES IDX 35 37 37 39 38 41 39 42 40 43 7 45 43 47 44 48 45 50 46 51
REMARK SMILES IDX 47 53 48 54 49 55 50 57 51 58 52 59 53 60 54 61 65 62 55 63
REMARK SMILES IDX 64 64 56 65 57 66 61 67 58 68 60 69 59 70 62 71 63 72 4 73
REMARK SMILES IDX 2 74 1 76 3 77
REMARK H PARENT 31 24 18 32 20 34 33 36 35 38 37 40 40 44 7 46 44 49 46 52
REMARK H PARENT 48 56 4 75
REMARK Flexibility Score: inf
ROOT
ATOM      1  C   UNL     1      33.385  17.830  27.573  1.00  0.00     0.272 C 
ATOM      2  C   UNL     1      32.245  17.762  28.498  1.00  0.00     0.113 C 
ATOM      3  C   UNL     1      32.601  17.267  29.844  1.00  0.00     0.145 C 
ATOM      4  C   UNL     1      33.994  17.537  30.311  1.00  0.00     0.142 C 
ATOM      5  C   UNL     1      34.855  18.361  29.397  1.00  0.00     0.178 C 
ATOM      6  O   UNL     1      34.566  18.279  28.118  1.00  0.00    -0.332 OA
ENDROOT
BRANCH   1   7
ATOM      7  O   UNL     1      33.296  18.484  26.411  1.00  0.00    -0.338 OA
BRANCH   7   8
ATOM      8  C   UNL     1      34.007  18.552  25.328  1.00  0.00     0.199 C 
BRANCH   8   9
ATOM      9  C   UNL     1      33.176  19.307  24.285  1.00  0.00     0.179 C 
ATOM     10  C   UNL     1      31.072  19.738  23.560  1.00  0.00     0.282 C 
ATOM     11  O   UNL     1      31.929  18.754  24.175  1.00  0.00    -0.341 OA
ATOM     12  C   UNL     1      30.779  20.820  24.534  1.00  0.00     0.202 C 
ATOM     13  C   UNL     1      32.072  21.385  25.130  1.00  0.00     0.179 C 
ATOM     14  C   UNL     1      33.218  20.784  24.409  1.00  0.00     0.177 C 
BRANCH  10  15
ATOM     15  O   UNL     1      29.952  19.154  23.077  1.00  0.00    -0.341 OA
BRANCH  15  16
ATOM     16  C   UNL     1      29.993  18.786  21.762  1.00  0.00     0.184 C 
ATOM     17  C   UNL     1      31.128  19.564  21.034  1.00  0.00     0.178 C 
ATOM     18  O   UNL     1      30.534  20.472  20.159  1.00  0.00    -0.341 OA
ATOM     19  C   UNL     1      29.620  21.289  20.840  1.00  0.00     0.281 C 
ATOM     20  C   UNL     1      28.714  19.020  21.000  1.00  0.00     0.180 C 
ATOM     21  C   UNL     1      28.353  20.509  21.055  1.00  0.00     0.202 C 
BRANCH  17  22
ATOM     22  C   UNL     1      32.006  18.579  20.332  1.00  0.00     0.191 C 
BRANCH  22  23
ATOM     23  O   UNL     1      31.288  17.449  19.901  1.00  0.00    -0.394 OA
ATOM     24  H   UNL     1      30.658  17.127  20.589  1.00  0.00     0.210 HD
ENDBRANCH  22  23
ENDBRANCH  17  22
BRANCH  19  25
ATOM     25  O   UNL     1      29.436  22.410  20.062  1.00  0.00    -0.350 OA
BRANCH  25  26
ATOM     26  C   UNL     1      29.834  22.185  18.731  1.00  0.00     0.169 C 
BRANCH  26  27
ATOM     27  C   UNL     1      28.854  22.827  17.772  1.00  0.00     0.119 C 
BRANCH  27  28
ATOM     28  N   UNL     1      27.675  21.951  17.743  1.00  0.00    -0.092 NA
ATOM     29  N   UNL     1      27.905  20.750  17.446  1.00  0.00     0.001 N 
ATOM     30  N   UNL     1      27.988  19.677  16.830  1.00  0.00    -0.003 NA
ENDBRANCH  27  28
ENDBRANCH  26  27
ENDBRANCH  25  26
ENDBRANCH  19  25
BRANCH  20  31
ATOM     31  O   UNL     1      28.784  18.609  19.690  1.00  0.00    -0.387 OA
ATOM     32  H   UNL     1      27.947  18.479  19.214  1.00  0.00     0.211 HD
ENDBRANCH  20  31
BRANCH  21  33
ATOM     33  O   UNL     1      27.754  20.803  22.275  1.00  0.00    -0.385 OA
ATOM     34  H   UNL     1      27.454  19.937  22.666  1.00  0.00     0.211 HD
ENDBRANCH  21  33
ENDBRANCH  15  16
ENDBRANCH  10  15
BRANCH  12  35
ATOM     35  O   UNL     1      30.075  21.849  23.934  1.00  0.00    -0.385 OA
ATOM     36  H   UNL     1      30.182  22.668  24.522  1.00  0.00     0.211 HD
ENDBRANCH  12  35
BRANCH  13  37
ATOM     37  O   UNL     1      32.108  21.085  26.513  1.00  0.00    -0.387 OA
ATOM     38  H   UNL     1      31.796  21.873  27.040  1.00  0.00     0.211 HD
ENDBRANCH  13  37
BRANCH  14  39
ATOM     39  O   UNL     1      34.464  21.183  24.904  1.00  0.00    -0.387 OA
ATOM     40  H   UNL     1      34.420  21.280  25.909  1.00  0.00     0.211 HD
ENDBRANCH  14  39
ENDBRANCH   8   9
ENDBRANCH   7   8
ENDBRANCH   1   7
BRANCH   1  41
ATOM     41  C   UNL     1      33.669  16.381  27.182  1.00  0.00     0.364 C 
ATOM     42  O   UNL     1      34.761  15.842  27.254  1.00  0.00    -0.246 OA
BRANCH  41  43
ATOM     43  O   UNL     1      32.607  15.589  26.701  1.00  0.00    -0.477 OA
ATOM     44  H   UNL     1      31.701  15.572  27.142  1.00  0.00     0.296 HD
ENDBRANCH  41  43
ENDBRANCH   1  41
BRANCH   3  45
ATOM     45  O   UNL     1      31.651  17.686  30.794  1.00  0.00    -0.391 OA
ATOM     46  H   UNL     1      32.158  18.333  31.386  1.00  0.00     0.211 HD
ENDBRANCH   3  45
BRANCH   5  47
ATOM     47  C   UNL     1      34.970  19.826  29.907  1.00  0.00     0.176 C 
BRANCH  47  48
ATOM     48  O   UNL     1      34.415  19.821  31.221  1.00  0.00    -0.388 OA
ATOM     49  H   UNL     1      33.599  19.294  31.251  1.00  0.00     0.211 HD
ENDBRANCH  47  48
BRANCH  47  50
ATOM     50  C   UNL     1      34.252  20.825  29.157  1.00  0.00     0.165 C 
BRANCH  50  51
ATOM     51  O   UNL     1      34.647  21.035  27.813  1.00  0.00    -0.388 OA
ATOM     52  H   UNL     1      34.232  21.895  27.488  1.00  0.00     0.211 HD
ENDBRANCH  50  51
BRANCH  50  53
ATOM     53  C   UNL     1      34.281  22.200  29.744  1.00  0.00     0.154 C 
BRANCH  53  54
ATOM     54  N   UNL     1      33.148  23.034  29.666  1.00  0.00    -0.319 N 
ATOM     55  C   UNL     1      32.662  23.783  28.595  1.00  0.00     0.407 C 
ATOM     56  H   UNL     1      32.548  23.129  30.574  1.00  0.00     0.167 HD
ATOM     57  O   UNL     1      33.289  23.730  27.509  1.00  0.00    -0.225 OA
BRANCH  55  58
ATOM     58  O   UNL     1      31.497  24.559  28.758  1.00  0.00    -0.443 OA
BRANCH  58  59
ATOM     59  C   UNL     1      31.311  25.249  29.958  1.00  0.00     0.294 C 
BRANCH  59  60
ATOM     60  C   UNL     1      29.998  25.856  30.061  1.00  0.00     0.121 A 
ATOM     61  C   UNL     1      28.822  25.254  29.816  1.00  0.00     0.146 A 
ATOM     62  N   UNL     1      29.717  27.195  30.370  1.00  0.00    -0.131 NA
ATOM     63  N   UNL     1      27.829  26.123  29.948  1.00  0.00    -0.201 N 
ATOM     64  N   UNL     1      28.422  27.232  30.273  1.00  0.00    -0.060 NA
BRANCH  63  65
ATOM     65  C   UNL     1      26.430  25.954  29.852  1.00  0.00     0.173 A 
ATOM     66  N   UNL     1      25.825  25.427  30.949  1.00  0.00    -0.236 NA
ATOM     67  C   UNL     1      25.733  26.172  28.657  1.00  0.00     0.097 A 
ATOM     68  C   UNL     1      24.425  25.084  30.842  1.00  0.00     0.113 A 
ATOM     69  C   UNL     1      24.403  25.813  28.628  1.00  0.00     0.025 A 
ATOM     70  C   UNL     1      23.814  25.291  29.702  1.00  0.00     0.022 A 
BRANCH  67  71
ATOM     71  C   UNL     1      26.273  26.818  27.503  1.00  0.00     0.103 C 
ATOM     72  N   UNL     1      26.729  27.346  26.515  1.00  0.00    -0.192 NA
ENDBRANCH  67  71
ENDBRANCH  63  65
ENDBRANCH  59  60
ENDBRANCH  58  59
ENDBRANCH  55  58
ENDBRANCH  53  54
ENDBRANCH  50  53
ENDBRANCH  47  50
ENDBRANCH   5  47
BRANCH   4  73
ATOM     73  N   UNL     1      34.522  16.260  30.738  1.00  0.00    -0.348 N 
ATOM     74  C   UNL     1      34.847  15.853  32.035  1.00  0.00     0.217 C 
ATOM     75  H   UNL     1      34.710  15.515  29.973  1.00  0.00     0.163 HD
ATOM     76  C   UNL     1      35.347  14.445  32.300  1.00  0.00     0.114 C 
ATOM     77  O   UNL     1      34.761  16.569  33.056  1.00  0.00    -0.275 OA
ENDBRANCH   4  73
TORSDOF 31
