REMARK VINA RESULT:    -6.457     11.605     18.984
REMARK INTER + INTRA:         -22.494
REMARK INTER:                 -17.024
REMARK INTRA:                  -5.470
REMARK UNBOUND:                -6.033
REMARK SMILES CC(=O)N[C@@H]1[C@@H](O)C[C@](OC[C@H]2O[C@@H](O[C@H]3[C@H](O)[C@@H](O)[C@H](OCCN=[N+]=[N-])O[C@@H]3CO)[C@H](O)[C@@H](O)[C@H]2O)(C(=O)O)O[C@H]1C(O)[C@H](O)CNC(=O)OCc1cn(-c2cccc(S(N)(=O)=O)c2)nn1
REMARK SMILES IDX 9 1 8 2 6 3 5 4 42 5 41 6 10 7 11 8 12 9 14 10 13 11 32 12
REMARK SMILES IDX 34 13 36 14 15 15 16 16 29 17 28 18 21 19 17 20 19 21 30 22
REMARK SMILES IDX 31 23 22 25 23 26 24 27 25 28 26 29 27 30 18 31 20 33 33 35
REMARK SMILES IDX 35 37 37 39 38 41 39 42 40 43 7 45 43 47 44 48 45 50 46 51
REMARK SMILES IDX 47 53 48 54 49 55 50 57 51 58 52 59 53 60 54 61 67 62 55 63
REMARK SMILES IDX 66 64 56 65 65 66 57 67 60 68 58 69 59 70 61 71 63 72 64 73
REMARK SMILES IDX 62 74 4 77 2 78 1 80 3 81
REMARK H PARENT 31 24 18 32 20 34 33 36 35 38 37 40 40 44 7 46 44 49 46 52
REMARK H PARENT 48 56 62 75 62 76 4 79
REMARK Flexibility Score: inf
ROOT
ATOM      1  C   UNL     1      16.482  29.340  15.920  1.00  0.00     0.272 C 
ATOM      2  C   UNL     1      16.447  30.879  15.856  1.00  0.00     0.113 C 
ATOM      3  C   UNL     1      15.023  31.302  15.763  1.00  0.00     0.145 C 
ATOM      4  C   UNL     1      14.243  30.813  16.932  1.00  0.00     0.142 C 
ATOM      5  C   UNL     1      14.726  29.506  17.452  1.00  0.00     0.178 C 
ATOM      6  O   UNL     1      15.863  28.944  17.028  1.00  0.00    -0.332 OA
ENDROOT
BRANCH   1   7
ATOM      7  O   UNL     1      17.875  29.062  15.969  1.00  0.00    -0.338 OA
BRANCH   7   8
ATOM      8  C   UNL     1      18.119  28.242  17.027  1.00  0.00     0.199 C 
BRANCH   8   9
ATOM      9  C   UNL     1      19.274  28.711  17.884  1.00  0.00     0.179 C 
ATOM     10  C   UNL     1      19.877  28.844  20.034  1.00  0.00     0.282 C 
ATOM     11  O   UNL     1      19.400  27.949  19.043  1.00  0.00    -0.341 OA
ATOM     12  C   UNL     1      21.019  29.656  19.543  1.00  0.00     0.202 C 
ATOM     13  C   UNL     1      21.623  29.189  18.243  1.00  0.00     0.179 C 
ATOM     14  C   UNL     1      20.590  28.774  17.212  1.00  0.00     0.177 C 
BRANCH  10  15
ATOM     15  O   UNL     1      20.047  28.211  21.239  1.00  0.00    -0.341 OA
BRANCH  15  16
ATOM     16  C   UNL     1      21.351  27.951  21.590  1.00  0.00     0.184 C 
ATOM     17  C   UNL     1      21.504  26.476  21.873  1.00  0.00     0.178 C 
ATOM     18  O   UNL     1      22.295  26.266  23.008  1.00  0.00    -0.341 OA
ATOM     19  C   UNL     1      21.546  26.596  24.113  1.00  0.00     0.281 C 
ATOM     20  C   UNL     1      21.646  28.776  22.822  1.00  0.00     0.180 C 
ATOM     21  C   UNL     1      21.314  28.072  24.099  1.00  0.00     0.202 C 
BRANCH  17  22
ATOM     22  C   UNL     1      22.138  25.708  20.757  1.00  0.00     0.191 C 
BRANCH  22  23
ATOM     23  O   UNL     1      23.423  26.204  20.463  1.00  0.00    -0.394 OA
ATOM     24  H   UNL     1      23.903  26.460  21.286  1.00  0.00     0.210 HD
ENDBRANCH  22  23
ENDBRANCH  17  22
BRANCH  19  25
ATOM     25  O   UNL     1      22.177  26.255  25.309  1.00  0.00    -0.350 OA
BRANCH  25  26
ATOM     26  C   UNL     1      23.513  26.548  25.363  1.00  0.00     0.169 C 
BRANCH  26  27
ATOM     27  C   UNL     1      23.959  27.222  26.643  1.00  0.00     0.119 C 
BRANCH  27  28
ATOM     28  N   UNL     1      24.491  26.261  27.590  1.00  0.00    -0.092 NA
ATOM     29  N   UNL     1      23.826  25.816  28.522  1.00  0.00     0.001 N 
ATOM     30  N   UNL     1      23.260  25.322  29.482  1.00  0.00    -0.003 NA
ENDBRANCH  27  28
ENDBRANCH  26  27
ENDBRANCH  25  26
ENDBRANCH  19  25
BRANCH  20  31
ATOM     31  O   UNL     1      23.022  29.065  22.844  1.00  0.00    -0.387 OA
ATOM     32  H   UNL     1      23.276  29.730  22.156  1.00  0.00     0.211 HD
ENDBRANCH  20  31
BRANCH  21  33
ATOM     33  O   UNL     1      19.957  28.290  24.433  1.00  0.00    -0.385 OA
ATOM     34  H   UNL     1      19.828  27.949  25.349  1.00  0.00     0.211 HD
ENDBRANCH  21  33
ENDBRANCH  15  16
ENDBRANCH  10  15
BRANCH  12  35
ATOM     35  O   UNL     1      20.733  31.042  19.486  1.00  0.00    -0.385 OA
ATOM     36  H   UNL     1      21.551  31.465  19.901  1.00  0.00     0.211 HD
ENDBRANCH  12  35
BRANCH  13  37
ATOM     37  O   UNL     1      22.615  28.247  18.442  1.00  0.00    -0.387 OA
ATOM     38  H   UNL     1      22.650  27.695  17.597  1.00  0.00     0.211 HD
ENDBRANCH  13  37
BRANCH  14  39
ATOM     39  O   UNL     1      20.939  27.490  16.778  1.00  0.00    -0.387 OA
ATOM     40  H   UNL     1      21.136  27.467  15.808  1.00  0.00     0.211 HD
ENDBRANCH  14  39
ENDBRANCH   8   9
ENDBRANCH   7   8
ENDBRANCH   1   7
BRANCH   1  41
ATOM     41  C   UNL     1      15.931  28.874  14.623  1.00  0.00     0.364 C 
ATOM     42  O   UNL     1      16.535  29.235  13.547  1.00  0.00    -0.246 OA
BRANCH  41  43
ATOM     43  O   UNL     1      14.833  28.088  14.435  1.00  0.00    -0.477 OA
ATOM     44  H   UNL     1      14.123  28.279  13.716  1.00  0.00     0.296 HD
ENDBRANCH  41  43
ENDBRANCH   1  41
BRANCH   3  45
ATOM     45  O   UNL     1      15.050  32.725  15.732  1.00  0.00    -0.391 OA
ATOM     46  H   UNL     1      14.536  32.991  16.558  1.00  0.00     0.211 HD
ENDBRANCH   3  45
BRANCH   5  47
ATOM     47  C   UNL     1      14.740  29.602  18.997  1.00  0.00     0.176 C 
BRANCH  47  48
ATOM     48  O   UNL     1      14.289  30.857  19.362  1.00  0.00    -0.388 OA
ATOM     49  H   UNL     1      14.869  31.601  19.128  1.00  0.00     0.211 HD
ENDBRANCH  47  48
BRANCH  47  50
ATOM     50  C   UNL     1      16.059  29.198  19.532  1.00  0.00     0.165 C 
BRANCH  50  51
ATOM     51  O   UNL     1      15.948  27.938  20.115  1.00  0.00    -0.388 OA
ATOM     52  H   UNL     1      16.097  28.095  21.091  1.00  0.00     0.211 HD
ENDBRANCH  50  51
BRANCH  50  53
ATOM     53  C   UNL     1      16.570  30.148  20.602  1.00  0.00     0.154 C 
BRANCH  53  54
ATOM     54  N   UNL     1      15.858  29.868  21.825  1.00  0.00    -0.319 N 
ATOM     55  C   UNL     1      16.597  29.713  23.058  1.00  0.00     0.407 C 
ATOM     56  H   UNL     1      14.818  29.765  21.862  1.00  0.00     0.167 HD
ATOM     57  O   UNL     1      17.850  29.818  23.081  1.00  0.00    -0.225 OA
BRANCH  55  58
ATOM     58  O   UNL     1      15.852  29.451  24.190  1.00  0.00    -0.443 OA
BRANCH  58  59
ATOM     59  C   UNL     1      15.134  30.458  24.836  1.00  0.00     0.294 C 
BRANCH  59  60
ATOM     60  C   UNL     1      13.812  30.670  24.227  1.00  0.00     0.121 A 
ATOM     61  C   UNL     1      12.619  30.152  24.752  1.00  0.00     0.144 A 
ATOM     62  N   UNL     1      13.479  31.344  23.134  1.00  0.00    -0.131 NA
ATOM     63  N   UNL     1      11.636  30.541  23.948  1.00  0.00    -0.220 N 
ATOM     64  N   UNL     1      12.169  31.249  22.993  1.00  0.00    -0.062 NA
BRANCH  63  65
ATOM     65  C   UNL     1      10.256  30.215  24.161  1.00  0.00     0.068 A 
ATOM     66  C   UNL     1       9.929  28.931  24.606  1.00  0.00     0.050 A 
ATOM     67  C   UNL     1       9.275  31.133  23.939  1.00  0.00     0.028 A 
ATOM     68  C   UNL     1       8.624  28.569  24.827  1.00  0.00     0.084 A 
ATOM     69  C   UNL     1       7.980  30.787  24.154  1.00  0.00     0.004 A 
ATOM     70  C   UNL     1       7.629  29.509  24.598  1.00  0.00     0.022 A 
BRANCH  68  71
ATOM     71  S   UNL     1       8.146  26.990  25.382  1.00  0.00     0.238 S 
ATOM     72  O   UNL     1       6.926  27.133  26.248  1.00  0.00    -0.207 OA
ATOM     73  O   UNL     1       9.239  26.368  26.189  1.00  0.00    -0.207 OA
BRANCH  71  74
ATOM     74  N   UNL     1       7.781  26.003  23.996  1.00  0.00    -0.225 NA
ATOM     75  H   UNL     1       6.820  26.243  23.665  1.00  0.00     0.137 HD
ATOM     76  H   UNL     1       7.924  24.991  24.194  1.00  0.00     0.137 HD
ENDBRANCH  71  74
ENDBRANCH  68  71
ENDBRANCH  63  65
ENDBRANCH  59  60
ENDBRANCH  58  59
ENDBRANCH  55  58
ENDBRANCH  53  54
ENDBRANCH  50  53
ENDBRANCH  47  50
ENDBRANCH   5  47
BRANCH   4  77
ATOM     77  N   UNL     1      12.852  30.651  16.480  1.00  0.00    -0.348 N 
ATOM     78  C   UNL     1      11.867  31.661  16.647  1.00  0.00     0.217 C 
ATOM     79  H   UNL     1      12.571  29.762  16.017  1.00  0.00     0.163 HD
ATOM     80  C   UNL     1      10.480  31.439  16.168  1.00  0.00     0.114 C 
ATOM     81  O   UNL     1      12.214  32.739  17.213  1.00  0.00    -0.275 OA
ENDBRANCH   4  77
TORSDOF 32
