REMARK VINA RESULT:    -5.895      7.543     12.988
REMARK INTER + INTRA:         -20.554
REMARK INTER:                 -14.511
REMARK INTRA:                  -6.043
REMARK UNBOUND:                -6.043
REMARK SMILES CC(=O)N[C@@H]1[C@@H](O)C[C@](OC[C@H]2O[C@@H](O[C@H]3[C@H](O)[C@@H](O)[C@H](OCCN=[N+]=[N-])O[C@@H]3CO)[C@H](O)[C@@H](O)[C@H]2O)(C(=O)O)O[C@H]1C(O)[C@H](O)CNC(=O)OCc1cn(-c2ccccc2I)nn1
REMARK SMILES IDX 9 1 8 2 6 3 5 4 42 5 41 6 10 7 11 8 12 9 14 10 13 11 32 12
REMARK SMILES IDX 34 13 36 14 15 15 16 16 29 17 28 18 21 19 17 20 19 21 30 22
REMARK SMILES IDX 31 23 22 25 23 26 24 27 25 28 26 29 27 30 18 31 20 33 33 35
REMARK SMILES IDX 35 37 37 39 38 41 39 42 40 43 7 45 43 47 44 48 45 50 46 51
REMARK SMILES IDX 47 53 48 54 49 55 50 57 51 58 52 59 53 60 54 61 64 62 55 63
REMARK SMILES IDX 63 64 56 65 57 66 61 67 58 68 60 69 62 70 59 71 4 72 2 73
REMARK SMILES IDX 1 75 3 76
REMARK H PARENT 31 24 18 32 20 34 33 36 35 38 37 40 40 44 7 46 44 49 46 52
REMARK H PARENT 48 56 4 74
REMARK Flexibility Score: inf
ROOT
ATOM      1  C   UNL     1      25.304  19.978  12.411  1.00  0.00     0.272 C 
ATOM      2  C   UNL     1      24.407  20.142  11.217  1.00  0.00     0.113 C 
ATOM      3  C   UNL     1      23.639  21.473  11.276  1.00  0.00     0.145 C 
ATOM      4  C   UNL     1      22.723  21.346  12.528  1.00  0.00     0.142 C 
ATOM      5  C   UNL     1      23.572  20.928  13.696  1.00  0.00     0.178 C 
ATOM      6  O   UNL     1      24.914  21.028  13.311  1.00  0.00    -0.332 OA
ENDROOT
BRANCH   1   7
ATOM      7  O   UNL     1      26.635  20.199  12.247  1.00  0.00    -0.338 OA
BRANCH   7   8
ATOM      8  C   UNL     1      27.405  21.036  12.876  1.00  0.00     0.199 C 
BRANCH   8   9
ATOM      9  C   UNL     1      28.872  20.867  12.917  1.00  0.00     0.179 C 
ATOM     10  C   UNL     1      29.704  21.424  14.970  1.00  0.00     0.282 C 
ATOM     11  O   UNL     1      29.604  21.745  13.644  1.00  0.00    -0.341 OA
ATOM     12  C   UNL     1      30.692  20.284  15.176  1.00  0.00     0.202 C 
ATOM     13  C   UNL     1      30.646  19.387  13.917  1.00  0.00     0.179 C 
ATOM     14  C   UNL     1      29.227  19.422  13.384  1.00  0.00     0.177 C 
BRANCH  10  15
ATOM     15  O   UNL     1      28.566  21.368  15.710  1.00  0.00    -0.341 OA
BRANCH  15  16
ATOM     16  C   UNL     1      28.703  21.643  17.052  1.00  0.00     0.184 C 
ATOM     17  C   UNL     1      28.020  20.683  17.990  1.00  0.00     0.178 C 
ATOM     18  O   UNL     1      27.756  21.303  19.209  1.00  0.00    -0.341 OA
ATOM     19  C   UNL     1      28.661  22.321  19.531  1.00  0.00     0.281 C 
ATOM     20  C   UNL     1      27.949  22.969  17.296  1.00  0.00     0.180 C 
ATOM     21  C   UNL     1      28.528  23.499  18.601  1.00  0.00     0.202 C 
BRANCH  17  22
ATOM     22  C   UNL     1      28.699  19.362  18.152  1.00  0.00     0.191 C 
BRANCH  22  23
ATOM     23  O   UNL     1      28.324  18.574  17.057  1.00  0.00    -0.394 OA
ATOM     24  H   UNL     1      28.897  17.760  17.059  1.00  0.00     0.210 HD
ENDBRANCH  22  23
ENDBRANCH  17  22
BRANCH  19  25
ATOM     25  O   UNL     1      29.936  21.869  19.684  1.00  0.00    -0.350 OA
BRANCH  25  26
ATOM     26  C   UNL     1      30.385  21.968  20.964  1.00  0.00     0.169 C 
BRANCH  26  27
ATOM     27  C   UNL     1      29.410  21.666  22.057  1.00  0.00     0.119 C 
BRANCH  27  28
ATOM     28  N   UNL     1      29.125  20.279  22.293  1.00  0.00    -0.092 NA
ATOM     29  N   UNL     1      30.067  19.582  22.714  1.00  0.00     0.001 N 
ATOM     30  N   UNL     1      30.860  18.703  23.055  1.00  0.00    -0.003 NA
ENDBRANCH  27  28
ENDBRANCH  26  27
ENDBRANCH  25  26
ENDBRANCH  19  25
BRANCH  20  31
ATOM     31  O   UNL     1      28.159  23.851  16.253  1.00  0.00    -0.387 OA
ATOM     32  H   UNL     1      29.143  23.939  16.145  1.00  0.00     0.211 HD
ENDBRANCH  20  31
BRANCH  21  33
ATOM     33  O   UNL     1      27.739  24.524  19.119  1.00  0.00    -0.385 OA
ATOM     34  H   UNL     1      28.183  24.860  19.964  1.00  0.00     0.211 HD
ENDBRANCH  21  33
ENDBRANCH  15  16
ENDBRANCH  10  15
BRANCH  12  35
ATOM     35  O   UNL     1      32.007  20.719  15.271  1.00  0.00    -0.385 OA
ATOM     36  H   UNL     1      32.339  20.826  14.341  1.00  0.00     0.211 HD
ENDBRANCH  12  35
BRANCH  13  37
ATOM     37  O   UNL     1      31.083  18.119  14.131  1.00  0.00    -0.387 OA
ATOM     38  H   UNL     1      31.370  17.612  13.312  1.00  0.00     0.211 HD
ENDBRANCH  13  37
BRANCH  14  39
ATOM     39  O   UNL     1      28.351  19.134  14.417  1.00  0.00    -0.387 OA
ATOM     40  H   UNL     1      28.052  19.993  14.854  1.00  0.00     0.211 HD
ENDBRANCH  14  39
ENDBRANCH   8   9
ENDBRANCH   7   8
ENDBRANCH   1   7
BRANCH   1  41
ATOM     41  C   UNL     1      25.027  18.694  13.080  1.00  0.00     0.364 C 
ATOM     42  O   UNL     1      25.717  18.197  13.986  1.00  0.00    -0.246 OA
BRANCH  41  43
ATOM     43  O   UNL     1      23.907  17.919  12.706  1.00  0.00    -0.477 OA
ATOM     44  H   UNL     1      23.007  18.082  13.180  1.00  0.00     0.296 HD
ENDBRANCH  41  43
ENDBRANCH   1  41
BRANCH   3  45
ATOM     45  O   UNL     1      24.478  22.559  11.394  1.00  0.00    -0.391 OA
ATOM     46  H   UNL     1      25.412  22.293  11.221  1.00  0.00     0.211 HD
ENDBRANCH   3  45
BRANCH   5  47
ATOM     47  C   UNL     1      23.461  21.997  14.816  1.00  0.00     0.176 C 
BRANCH  47  48
ATOM     48  O   UNL     1      22.342  22.831  14.426  1.00  0.00    -0.388 OA
ATOM     49  H   UNL     1      21.544  22.223  14.482  1.00  0.00     0.211 HD
ENDBRANCH  47  48
BRANCH  47  50
ATOM     50  C   UNL     1      24.602  22.968  14.776  1.00  0.00     0.165 C 
BRANCH  50  51
ATOM     51  O   UNL     1      25.699  22.419  15.492  1.00  0.00    -0.388 OA
ATOM     52  H   UNL     1      25.682  22.708  16.439  1.00  0.00     0.211 HD
ENDBRANCH  50  51
BRANCH  50  53
ATOM     53  C   UNL     1      24.382  24.341  15.249  1.00  0.00     0.154 C 
BRANCH  53  54
ATOM     54  N   UNL     1      24.180  24.492  16.678  1.00  0.00    -0.319 N 
ATOM     55  C   UNL     1      22.923  24.975  17.150  1.00  0.00     0.407 C 
ATOM     56  H   UNL     1      24.899  24.270  17.395  1.00  0.00     0.167 HD
ATOM     57  O   UNL     1      22.016  25.270  16.304  1.00  0.00    -0.225 OA
BRANCH  55  58
ATOM     58  O   UNL     1      22.593  25.156  18.478  1.00  0.00    -0.443 OA
BRANCH  58  59
ATOM     59  C   UNL     1      22.715  24.095  19.415  1.00  0.00     0.294 C 
BRANCH  59  60
ATOM     60  C   UNL     1      22.530  24.675  20.794  1.00  0.00     0.121 A 
ATOM     61  C   UNL     1      23.217  24.367  21.945  1.00  0.00     0.144 A 
ATOM     62  N   UNL     1      21.631  25.615  21.132  1.00  0.00    -0.131 NA
ATOM     63  N   UNL     1      22.685  25.143  22.909  1.00  0.00    -0.219 N 
ATOM     64  N   UNL     1      21.725  25.898  22.410  1.00  0.00    -0.062 NA
BRANCH  63  65
ATOM     65  C   UNL     1      23.065  25.173  24.280  1.00  0.00     0.080 A 
ATOM     66  C   UNL     1      22.286  24.549  25.247  1.00  0.00     0.029 A 
ATOM     67  C   UNL     1      24.206  25.824  24.686  1.00  0.00     0.039 A 
ATOM     68  C   UNL     1      22.694  24.610  26.585  1.00  0.00     0.002 A 
ATOM     69  C   UNL     1      24.600  25.874  26.030  1.00  0.00     0.017 A 
ATOM     70  I   UNL     1      25.410  26.785  23.238  1.00  0.00    -0.042 I 
ATOM     71  C   UNL     1      23.836  25.260  26.989  1.00  0.00     0.001 A 
ENDBRANCH  63  65
ENDBRANCH  59  60
ENDBRANCH  58  59
ENDBRANCH  55  58
ENDBRANCH  53  54
ENDBRANCH  50  53
ENDBRANCH  47  50
ENDBRANCH   5  47
BRANCH   4  72
ATOM     72  N   UNL     1      21.687  20.454  12.152  1.00  0.00    -0.348 N 
ATOM     73  C   UNL     1      20.293  20.813  12.202  1.00  0.00     0.217 C 
ATOM     74  H   UNL     1      21.864  19.491  11.817  1.00  0.00     0.163 HD
ATOM     75  C   UNL     1      19.207  19.893  11.813  1.00  0.00     0.114 C 
ATOM     76  O   UNL     1      20.034  21.978  12.604  1.00  0.00    -0.275 OA
ENDBRANCH   4  72
TORSDOF 30
