REMARK VINA RESULT:    -5.543      4.409      7.957
REMARK INTER + INTRA:         -20.748
REMARK INTER:                 -13.371
REMARK INTRA:                  -7.377
REMARK UNBOUND:                -6.131
REMARK SMILES COCC(C(N)=O)n1cc(COC(=O)NC[C@@H](O)C(O)[C@@H]2O[C@@](OC[C@H]3O[C@@H](O[C@H]4[C@H](O)[C@@H](O)[C@H](OCCN=[N+]=[N-])O[C@@H]4CO)[C@H](O)[C@@H](O)[C@H]3O)(C(=O)O)C[C@H](O)[C@H]2NC(C)=O)nn1
REMARK SMILES IDX 23 1 55 2 56 3 58 4 21 5 22 6 24 7 25 8 26 9 28 10 27 11
REMARK SMILES IDX 46 12 48 13 50 14 29 15 30 16 43 17 42 18 35 19 31 20 33 21
REMARK SMILES IDX 44 22 45 23 36 25 37 26 38 27 39 28 40 29 41 30 32 31 34 33
REMARK SMILES IDX 47 35 49 37 51 39 52 41 53 42 54 43 57 45 19 47 20 48 17 50
REMARK SMILES IDX 18 51 16 53 15 54 13 55 14 57 12 58 11 59 10 60 9 61 63 62
REMARK SMILES IDX 8 63 64 64 4 65 3 66 2 67 1 68 5 69 7 70 6 71 59 74 60 75
REMARK SMILES IDX 61 77 62 78
REMARK H PARENT 45 24 32 32 34 34 47 36 49 38 51 40 54 44 57 46 20 49 18 52
REMARK H PARENT 15 56 6 72 6 73 59 76
REMARK Flexibility Score: inf
ROOT
ATOM      1  C   UNL     1      22.853  25.223  22.550  1.00  0.00     0.272 C 
ATOM      2  C   UNL     1      23.398  23.913  22.131  1.00  0.00     0.113 C 
ATOM      3  C   UNL     1      24.604  23.925  21.265  1.00  0.00     0.145 C 
ATOM      4  C   UNL     1      24.521  25.057  20.277  1.00  0.00     0.142 C 
ATOM      5  C   UNL     1      23.070  25.513  20.243  1.00  0.00     0.178 C 
ATOM      6  O   UNL     1      22.740  26.072  21.450  1.00  0.00    -0.332 OA
ENDROOT
BRANCH   1   7
ATOM      7  O   UNL     1      23.529  25.906  23.522  1.00  0.00    -0.338 OA
BRANCH   7   8
ATOM      8  C   UNL     1      23.728  25.293  24.715  1.00  0.00     0.199 C 
BRANCH   8   9
ATOM      9  C   UNL     1      24.782  26.006  25.572  1.00  0.00     0.179 C 
ATOM     10  C   UNL     1      23.841  27.989  26.329  1.00  0.00     0.282 C 
ATOM     11  O   UNL     1      24.708  27.363  25.444  1.00  0.00    -0.341 OA
ATOM     12  C   UNL     1      24.099  27.639  27.753  1.00  0.00     0.202 C 
ATOM     13  C   UNL     1      24.058  26.166  27.991  1.00  0.00     0.179 C 
ATOM     14  C   UNL     1      24.868  25.470  26.957  1.00  0.00     0.177 C 
BRANCH  10  15
ATOM     15  O   UNL     1      22.512  27.807  25.990  1.00  0.00    -0.341 OA
BRANCH  15  16
ATOM     16  C   UNL     1      21.955  28.989  25.508  1.00  0.00     0.184 C 
ATOM     17  C   UNL     1      20.785  29.495  26.263  1.00  0.00     0.178 C 
ATOM     18  O   UNL     1      20.406  30.746  25.844  1.00  0.00    -0.341 OA
ATOM     19  C   UNL     1      20.635  30.999  24.490  1.00  0.00     0.281 C 
ATOM     20  C   UNL     1      21.460  28.661  24.088  1.00  0.00     0.180 C 
ATOM     21  C   UNL     1      20.503  29.725  23.671  1.00  0.00     0.202 C 
BRANCH  17  22
ATOM     22  C   UNL     1      20.988  29.581  27.764  1.00  0.00     0.191 C 
BRANCH  22  23
ATOM     23  O   UNL     1      20.894  28.310  28.328  1.00  0.00    -0.394 OA
ATOM     24  H   UNL     1      21.778  27.897  28.462  1.00  0.00     0.210 HD
ENDBRANCH  22  23
ENDBRANCH  17  22
BRANCH  19  25
ATOM     25  O   UNL     1      21.825  31.618  24.336  1.00  0.00    -0.350 OA
BRANCH  25  26
ATOM     26  C   UNL     1      22.019  32.872  24.801  1.00  0.00     0.169 C 
BRANCH  26  27
ATOM     27  C   UNL     1      22.851  33.802  23.988  1.00  0.00     0.119 C 
BRANCH  27  28
ATOM     28  N   UNL     1      23.867  34.462  24.745  1.00  0.00    -0.092 NA
ATOM     29  N   UNL     1      24.841  33.833  25.151  1.00  0.00     0.001 N 
ATOM     30  N   UNL     1      26.012  33.421  25.172  1.00  0.00    -0.003 NA
ENDBRANCH  27  28
ENDBRANCH  26  27
ENDBRANCH  25  26
ENDBRANCH  19  25
BRANCH  20  31
ATOM     31  O   UNL     1      22.548  28.579  23.222  1.00  0.00    -0.387 OA
ATOM     32  H   UNL     1      23.310  28.271  23.765  1.00  0.00     0.211 HD
ENDBRANCH  20  31
BRANCH  21  33
ATOM     33  O   UNL     1      19.169  29.292  23.828  1.00  0.00    -0.385 OA
ATOM     34  H   UNL     1      18.928  28.698  23.060  1.00  0.00     0.211 HD
ENDBRANCH  21  33
ENDBRANCH  15  16
ENDBRANCH  10  15
BRANCH  12  35
ATOM     35  O   UNL     1      25.410  28.060  28.046  1.00  0.00    -0.385 OA
ATOM     36  H   UNL     1      25.450  28.488  28.927  1.00  0.00     0.211 HD
ENDBRANCH  12  35
BRANCH  13  37
ATOM     37  O   UNL     1      22.760  25.677  28.129  1.00  0.00    -0.387 OA
ATOM     38  H   UNL     1      22.690  25.323  29.057  1.00  0.00     0.211 HD
ENDBRANCH  13  37
BRANCH  14  39
ATOM     39  O   UNL     1      24.573  24.105  26.926  1.00  0.00    -0.387 OA
ATOM     40  H   UNL     1      25.371  23.568  27.175  1.00  0.00     0.211 HD
ENDBRANCH  14  39
ENDBRANCH   8   9
ENDBRANCH   7   8
ENDBRANCH   1   7
BRANCH   1  41
ATOM     41  C   UNL     1      21.427  24.988  22.980  1.00  0.00     0.364 C 
ATOM     42  O   UNL     1      21.155  24.311  23.989  1.00  0.00    -0.246 OA
BRANCH  41  43
ATOM     43  O   UNL     1      20.421  25.539  22.232  1.00  0.00    -0.477 OA
ATOM     44  H   UNL     1      20.424  26.501  21.929  1.00  0.00     0.296 HD
ENDBRANCH  41  43
ENDBRANCH   1  41
BRANCH   3  45
ATOM     45  O   UNL     1      25.807  23.922  21.964  1.00  0.00    -0.391 OA
ATOM     46  H   UNL     1      26.211  23.018  21.937  1.00  0.00     0.211 HD
ENDBRANCH   3  45
BRANCH   5  47
ATOM     47  C   UNL     1      22.886  26.539  19.142  1.00  0.00     0.176 C 
BRANCH  47  48
ATOM     48  O   UNL     1      22.296  26.033  18.024  1.00  0.00    -0.388 OA
ATOM     49  H   UNL     1      21.597  25.374  18.129  1.00  0.00     0.211 HD
ENDBRANCH  47  48
BRANCH  47  50
ATOM     50  C   UNL     1      22.109  27.720  19.658  1.00  0.00     0.165 C 
BRANCH  50  51
ATOM     51  O   UNL     1      20.814  27.235  19.970  1.00  0.00    -0.388 OA
ATOM     52  H   UNL     1      20.189  28.007  20.046  1.00  0.00     0.211 HD
ENDBRANCH  50  51
BRANCH  50  53
ATOM     53  C   UNL     1      21.914  28.819  18.669  1.00  0.00     0.154 C 
BRANCH  53  54
ATOM     54  N   UNL     1      20.564  29.187  18.400  1.00  0.00    -0.319 N 
ATOM     55  C   UNL     1      19.775  28.558  17.400  1.00  0.00     0.407 C 
ATOM     56  H   UNL     1      20.096  29.960  18.947  1.00  0.00     0.167 HD
ATOM     57  O   UNL     1      20.271  27.647  16.721  1.00  0.00    -0.225 OA
BRANCH  55  58
ATOM     58  O   UNL     1      18.450  28.937  17.157  1.00  0.00    -0.443 OA
BRANCH  58  59
ATOM     59  C   UNL     1      17.364  28.331  17.791  1.00  0.00     0.294 C 
BRANCH  59  60
ATOM     60  C   UNL     1      17.163  28.725  19.190  1.00  0.00     0.120 A 
ATOM     61  C   UNL     1      15.996  29.250  19.686  1.00  0.00     0.139 A 
ATOM     62  N   UNL     1      18.063  28.636  20.177  1.00  0.00    -0.132 NA
ATOM     63  N   UNL     1      16.217  29.472  20.984  1.00  0.00    -0.237 N 
ATOM     64  N   UNL     1      17.467  29.097  21.265  1.00  0.00    -0.066 NA
BRANCH  63  65
ATOM     65  C   UNL     1      15.252  30.026  21.916  1.00  0.00     0.223 C 
BRANCH  65  66
ATOM     66  C   UNL     1      14.145  29.039  22.096  1.00  0.00     0.197 C 
BRANCH  66  67
ATOM     67  O   UNL     1      12.999  29.427  21.448  1.00  0.00    -0.382 OA
ATOM     68  C   UNL     1      12.852  30.788  21.453  1.00  0.00     0.195 C 
ENDBRANCH  66  67
ENDBRANCH  65  66
BRANCH  65  69
ATOM     69  C   UNL     1      15.986  30.242  23.207  1.00  0.00     0.244 C 
ATOM     70  O   UNL     1      15.760  29.470  24.161  1.00  0.00    -0.273 OA
ATOM     71  N   UNL     1      16.910  31.313  23.302  1.00  0.00    -0.368 N 
ATOM     72  H   UNL     1      16.738  32.184  23.830  1.00  0.00     0.159 HD
ATOM     73  H   UNL     1      17.819  31.209  22.802  1.00  0.00     0.159 HD
ENDBRANCH  65  69
ENDBRANCH  63  65
ENDBRANCH  59  60
ENDBRANCH  58  59
ENDBRANCH  55  58
ENDBRANCH  53  54
ENDBRANCH  50  53
ENDBRANCH  47  50
ENDBRANCH   5  47
BRANCH   4  74
ATOM     74  N   UNL     1      24.989  24.642  18.957  1.00  0.00    -0.348 N 
ATOM     75  C   UNL     1      26.358  24.647  18.575  1.00  0.00     0.217 C 
ATOM     76  H   UNL     1      24.305  24.315  18.230  1.00  0.00     0.163 HD
ATOM     77  C   UNL     1      26.853  24.232  17.252  1.00  0.00     0.114 C 
ATOM     78  O   UNL     1      27.202  25.039  19.450  1.00  0.00    -0.275 OA
ENDBRANCH   4  74
TORSDOF 33
