REMARK VINA RESULT:    -5.246      3.070      8.990
REMARK INTER + INTRA:         -21.951
REMARK INTER:                 -15.312
REMARK INTRA:                  -6.639
REMARK UNBOUND:                -8.118
REMARK SMILES CC(=O)N[C@@H]1[C@@H](O)C[C@](OC[C@H]2O[C@@H](O[C@H]3[C@H](O)[C@@H](O)[C@H](OCCN=[N+]=[N-])O[C@@H]3CO)[C@H](O)[C@@H](O)[C@H]2O)(C(=O)O)O[C@H]1C(O)[C@H](O)CNC(=O)OCc1cn(CCOC(C)=O)nn1
REMARK SMILES IDX 43 1 42 2 9 3 8 4 41 5 6 6 5 7 10 8 11 9 12 10 14 11 13 12
REMARK SMILES IDX 32 13 34 14 36 15 15 16 16 17 29 18 28 19 21 20 17 21 19 22
REMARK SMILES IDX 30 23 31 24 22 26 23 27 24 28 25 29 26 30 27 31 18 32 20 34
REMARK SMILES IDX 33 36 35 38 37 40 38 42 39 43 40 44 7 46 4 48 2 49 1 51 3 52
REMARK SMILES IDX 44 53 45 55 46 56 47 58 48 59 49 60 50 62 51 63 52 64 53 65
REMARK SMILES IDX 54 66 63 67 55 68 62 69 56 70 57 71 58 72 59 73 61 74 60 75
REMARK H PARENT 31 25 18 33 20 35 33 37 35 39 37 41 40 45 7 47 4 50 44 54
REMARK H PARENT 46 57 48 61
REMARK Flexibility Score: inf
ROOT
ATOM      1  C   UNL     1       4.386  21.274  32.277  1.00  0.00     0.176 C 
ENDROOT
BRANCH   1   2
ATOM      2  C   UNL     1       3.074  21.833  32.765  1.00  0.00     0.178 C 
ATOM      3  C   UNL     1       2.228  23.878  33.576  1.00  0.00     0.272 C 
ATOM      4  C   UNL     1       0.960  23.061  33.515  1.00  0.00     0.113 C 
ATOM      5  O   UNL     1       3.313  23.211  32.946  1.00  0.00    -0.332 OA
ATOM      6  C   UNL     1       1.100  21.715  34.130  1.00  0.00     0.145 C 
ATOM      7  C   UNL     1       2.608  21.337  34.098  1.00  0.00     0.142 C 
BRANCH   3   8
ATOM      8  O   UNL     1       2.660  24.243  34.758  1.00  0.00    -0.338 OA
BRANCH   8   9
ATOM      9  C   UNL     1       3.037  25.392  35.245  1.00  0.00     0.199 C 
BRANCH   9  10
ATOM     10  C   UNL     1       4.414  25.824  35.520  1.00  0.00     0.179 C 
ATOM     11  C   UNL     1       6.342  25.026  36.500  1.00  0.00     0.282 C 
ATOM     12  O   UNL     1       5.197  24.635  35.790  1.00  0.00    -0.341 OA
ATOM     13  C   UNL     1       6.978  26.255  36.001  1.00  0.00     0.202 C 
ATOM     14  C   UNL     1       6.463  26.836  34.731  1.00  0.00     0.179 C 
ATOM     15  C   UNL     1       5.142  26.336  34.261  1.00  0.00     0.177 C 
BRANCH  11  16
ATOM     16  O   UNL     1       7.150  23.905  36.594  1.00  0.00    -0.341 OA
BRANCH  16  17
ATOM     17  C   UNL     1       8.481  24.174  36.408  1.00  0.00     0.184 C 
ATOM     18  C   UNL     1       9.054  23.235  35.371  1.00  0.00     0.178 C 
ATOM     19  O   UNL     1      10.397  23.610  35.227  1.00  0.00    -0.341 OA
ATOM     20  C   UNL     1      11.120  23.140  36.282  1.00  0.00     0.281 C 
ATOM     21  C   UNL     1       9.273  24.058  37.700  1.00  0.00     0.180 C 
ATOM     22  C   UNL     1      10.379  23.060  37.596  1.00  0.00     0.202 C 
BRANCH  18  23
ATOM     23  C   UNL     1       8.352  23.439  34.041  1.00  0.00     0.191 C 
BRANCH  23  24
ATOM     24  O   UNL     1       7.114  22.825  34.066  1.00  0.00    -0.394 OA
ATOM     25  H   UNL     1       6.455  23.525  33.777  1.00  0.00     0.210 HD
ENDBRANCH  23  24
ENDBRANCH  18  23
BRANCH  20  26
ATOM     26  O   UNL     1      12.263  23.942  36.399  1.00  0.00    -0.350 OA
BRANCH  26  27
ATOM     27  C   UNL     1      12.177  25.068  35.590  1.00  0.00     0.169 C 
BRANCH  27  28
ATOM     28  C   UNL     1      13.047  26.130  36.271  1.00  0.00     0.119 C 
BRANCH  28  29
ATOM     29  N   UNL     1      14.030  26.594  35.306  1.00  0.00    -0.092 NA
ATOM     30  N   UNL     1      13.895  27.652  34.679  1.00  0.00     0.001 N 
ATOM     31  N   UNL     1      13.590  28.470  33.791  1.00  0.00    -0.003 NA
ENDBRANCH  28  29
ENDBRANCH  27  28
ENDBRANCH  26  27
ENDBRANCH  20  26
BRANCH  21  32
ATOM     32  O   UNL     1       9.738  25.281  38.165  1.00  0.00    -0.387 OA
ATOM     33  H   UNL     1      10.137  25.239  39.069  1.00  0.00     0.211 HD
ENDBRANCH  21  32
BRANCH  22  34
ATOM     34  O   UNL     1       9.930  21.789  37.896  1.00  0.00    -0.385 OA
ATOM     35  H   UNL     1       9.434  21.829  38.764  1.00  0.00     0.211 HD
ENDBRANCH  22  34
ENDBRANCH  16  17
ENDBRANCH  11  16
BRANCH  13  36
ATOM     36  O   UNL     1       7.074  27.246  37.014  1.00  0.00    -0.385 OA
ATOM     37  H   UNL     1       6.770  28.121  36.695  1.00  0.00     0.211 HD
ENDBRANCH  13  36
BRANCH  14  38
ATOM     38  O   UNL     1       7.379  26.674  33.680  1.00  0.00    -0.387 OA
ATOM     39  H   UNL     1       6.864  26.678  32.820  1.00  0.00     0.211 HD
ENDBRANCH  14  38
BRANCH  15  40
ATOM     40  O   UNL     1       5.400  25.205  33.439  1.00  0.00    -0.387 OA
ATOM     41  H   UNL     1       4.593  24.940  32.954  1.00  0.00     0.211 HD
ENDBRANCH  15  40
ENDBRANCH   9  10
ENDBRANCH   8   9
ENDBRANCH   3   8
BRANCH   3  42
ATOM     42  C   UNL     1       2.007  25.004  32.626  1.00  0.00     0.364 C 
ATOM     43  O   UNL     1       2.834  25.451  31.810  1.00  0.00    -0.246 OA
BRANCH  42  44
ATOM     44  O   UNL     1       0.759  25.664  32.606  1.00  0.00    -0.477 OA
ATOM     45  H   UNL     1       0.019  25.315  33.196  1.00  0.00     0.296 HD
ENDBRANCH  42  44
ENDBRANCH   3  42
BRANCH   6  46
ATOM     46  O   UNL     1       0.592  21.587  35.402  1.00  0.00    -0.391 OA
ATOM     47  H   UNL     1      -0.119  22.244  35.613  1.00  0.00     0.211 HD
ENDBRANCH   6  46
BRANCH   7  48
ATOM     48  N   UNL     1       2.746  19.946  34.374  1.00  0.00    -0.348 N 
ATOM     49  C   UNL     1       3.043  19.460  35.674  1.00  0.00     0.217 C 
ATOM     50  H   UNL     1       2.602  19.262  33.615  1.00  0.00     0.163 HD
ATOM     51  C   UNL     1       3.187  17.999  35.956  1.00  0.00     0.114 C 
ATOM     52  O   UNL     1       3.201  20.244  36.659  1.00  0.00    -0.275 OA
ENDBRANCH   7  48
ENDBRANCH   1   2
BRANCH   1  53
ATOM     53  O   UNL     1       5.112  22.421  31.825  1.00  0.00    -0.388 OA
ATOM     54  H   UNL     1       5.724  22.729  32.525  1.00  0.00     0.211 HD
ENDBRANCH   1  53
BRANCH   1  55
ATOM     55  C   UNL     1       4.174  20.465  31.020  1.00  0.00     0.165 C 
BRANCH  55  56
ATOM     56  O   UNL     1       5.351  20.486  30.256  1.00  0.00    -0.388 OA
ATOM     57  H   UNL     1       6.075  20.113  30.800  1.00  0.00     0.211 HD
ENDBRANCH  55  56
BRANCH  55  58
ATOM     58  C   UNL     1       2.989  20.912  30.222  1.00  0.00     0.154 C 
BRANCH  58  59
ATOM     59  N   UNL     1       3.258  21.876  29.202  1.00  0.00    -0.319 N 
ATOM     60  C   UNL     1       2.459  23.014  28.976  1.00  0.00     0.407 C 
ATOM     61  H   UNL     1       4.096  21.781  28.549  1.00  0.00     0.167 HD
ATOM     62  O   UNL     1       1.449  23.278  29.661  1.00  0.00    -0.225 OA
BRANCH  60  63
ATOM     63  O   UNL     1       2.749  23.930  27.952  1.00  0.00    -0.443 OA
BRANCH  63  64
ATOM     64  C   UNL     1       3.071  25.267  28.207  1.00  0.00     0.294 C 
BRANCH  64  65
ATOM     65  C   UNL     1       3.693  25.924  27.024  1.00  0.00     0.120 A 
ATOM     66  C   UNL     1       4.229  27.200  27.046  1.00  0.00     0.138 A 
ATOM     67  N   UNL     1       3.871  25.479  25.784  1.00  0.00    -0.132 NA
ATOM     68  N   UNL     1       4.701  27.461  25.824  1.00  0.00    -0.249 N 
ATOM     69  N   UNL     1       4.474  26.400  25.071  1.00  0.00    -0.067 NA
BRANCH  68  70
ATOM     70  C   UNL     1       5.347  28.700  25.366  1.00  0.00     0.187 C 
BRANCH  70  71
ATOM     71  C   UNL     1       6.689  28.858  26.045  1.00  0.00     0.256 C 
BRANCH  71  72
ATOM     72  O   UNL     1       7.708  28.553  25.100  1.00  0.00    -0.464 OA
BRANCH  72  73
ATOM     73  C   UNL     1       8.111  27.236  24.897  1.00  0.00     0.302 C 
ATOM     74  O   UNL     1       7.889  26.718  23.777  1.00  0.00    -0.253 OA
ATOM     75  C   UNL     1       8.791  26.433  25.966  1.00  0.00     0.139 C 
ENDBRANCH  72  73
ENDBRANCH  71  72
ENDBRANCH  70  71
ENDBRANCH  68  70
ENDBRANCH  64  65
ENDBRANCH  63  64
ENDBRANCH  60  63
ENDBRANCH  58  59
ENDBRANCH  55  58
ENDBRANCH   1  55
TORSDOF 33
