REMARK VINA RESULT:    -7.000      3.186      8.520
REMARK INTER + INTRA:         -22.771
REMARK INTER:                 -14.029
REMARK INTRA:                  -8.741
REMARK UNBOUND:                -5.539
REMARK SMILES CC(=O)N[C@@H]1[C@@H](O)C[C@](OC[C@H]2O[C@@H](O[C@H]3[C@H](O)[C@@H](O)[C@H](OCCN=[N+]=[N-])O[C@@H]3CO)[C@H](O)[C@@H](O)[C@H]2O)(C(=O)O)O[C@H]1C(O)[C@H](O)CNC(=O)OCc1cn(-c2c3ccccc3nc3ccccc23)nn1
REMARK SMILES IDX 9 1 8 2 6 3 5 4 42 5 41 6 10 7 11 8 12 9 14 10 13 11 32 12
REMARK SMILES IDX 34 13 36 14 15 15 16 16 29 17 28 18 21 19 17 20 19 21 30 22
REMARK SMILES IDX 31 23 22 25 23 26 24 27 25 28 26 29 27 30 18 31 20 33 33 35
REMARK SMILES IDX 35 37 37 39 38 41 39 42 40 43 7 45 43 47 44 48 45 50 46 51
REMARK SMILES IDX 47 53 48 54 49 55 50 57 51 58 52 59 53 60 54 61 71 62 55 63
REMARK SMILES IDX 70 64 56 65 57 66 69 67 58 68 62 69 64 70 68 71 59 72 61 73
REMARK SMILES IDX 63 74 65 75 67 76 60 77 66 78 4 79 2 80 1 82 3 83
REMARK H PARENT 31 24 18 32 20 34 33 36 35 38 37 40 40 44 7 46 44 49 46 52
REMARK H PARENT 48 56 4 81
REMARK Flexibility Score: inf
ROOT
ATOM      1  C   UNL     1      10.750  27.931  34.133  1.00  0.00     0.272 C 
ATOM      2  C   UNL     1      10.818  28.751  35.514  1.00  0.00     0.113 C 
ATOM      3  C   UNL     1      10.544  30.150  35.099  1.00  0.00     0.145 C 
ATOM      4  C   UNL     1       9.258  30.342  34.323  1.00  0.00     0.142 C 
ATOM      5  C   UNL     1       8.817  29.158  33.570  1.00  0.00     0.178 C 
ATOM      6  O   UNL     1       9.462  27.991  33.804  1.00  0.00    -0.332 OA
ENDROOT
BRANCH   1   7
ATOM      7  O   UNL     1      11.046  26.659  34.628  1.00  0.00    -0.338 OA
BRANCH   7   8
ATOM      8  C   UNL     1      11.298  26.559  35.954  1.00  0.00     0.199 C 
BRANCH   8   9
ATOM      9  C   UNL     1      10.762  25.351  36.620  1.00  0.00     0.179 C 
ATOM     10  C   UNL     1       8.847  24.227  37.337  1.00  0.00     0.282 C 
ATOM     11  O   UNL     1       9.403  25.390  36.763  1.00  0.00    -0.341 OA
ATOM     12  C   UNL     1       9.837  23.282  37.876  1.00  0.00     0.202 C 
ATOM     13  C   UNL     1      10.905  22.937  36.865  1.00  0.00     0.179 C 
ATOM     14  C   UNL     1      11.197  24.059  35.923  1.00  0.00     0.177 C 
BRANCH  10  15
ATOM     15  O   UNL     1       7.955  23.646  36.444  1.00  0.00    -0.341 OA
BRANCH  15  16
ATOM     16  C   UNL     1       6.878  24.503  36.120  1.00  0.00     0.184 C 
ATOM     17  C   UNL     1       5.603  23.883  36.531  1.00  0.00     0.178 C 
ATOM     18  O   UNL     1       4.471  24.408  35.855  1.00  0.00    -0.341 OA
ATOM     19  C   UNL     1       4.626  24.081  34.513  1.00  0.00     0.281 C 
ATOM     20  C   UNL     1       6.973  24.645  34.593  1.00  0.00     0.180 C 
ATOM     21  C   UNL     1       5.669  25.079  33.986  1.00  0.00     0.202 C 
BRANCH  17  22
ATOM     22  C   UNL     1       5.337  24.079  38.015  1.00  0.00     0.191 C 
BRANCH  22  23
ATOM     23  O   UNL     1       5.906  23.114  38.805  1.00  0.00    -0.394 OA
ATOM     24  H   UNL     1       6.661  22.698  38.313  1.00  0.00     0.210 HD
ENDBRANCH  22  23
ENDBRANCH  17  22
BRANCH  19  25
ATOM     25  O   UNL     1       3.406  24.216  33.900  1.00  0.00    -0.350 OA
BRANCH  25  26
ATOM     26  C   UNL     1       3.056  23.154  33.072  1.00  0.00     0.169 C 
BRANCH  26  27
ATOM     27  C   UNL     1       3.866  21.910  33.366  1.00  0.00     0.119 C 
BRANCH  27  28
ATOM     28  N   UNL     1       4.902  21.824  32.342  1.00  0.00    -0.092 NA
ATOM     29  N   UNL     1       6.067  21.546  32.648  1.00  0.00     0.001 N 
ATOM     30  N   UNL     1       7.228  21.208  32.887  1.00  0.00    -0.003 NA
ENDBRANCH  27  28
ENDBRANCH  26  27
ENDBRANCH  25  26
ENDBRANCH  19  25
BRANCH  20  31
ATOM     31  O   UNL     1       8.027  25.483  34.263  1.00  0.00    -0.387 OA
ATOM     32  H   UNL     1       7.809  26.442  34.375  1.00  0.00     0.211 HD
ENDBRANCH  20  31
BRANCH  21  33
ATOM     33  O   UNL     1       5.759  25.025  32.613  1.00  0.00    -0.385 OA
ATOM     34  H   UNL     1       4.929  25.454  32.245  1.00  0.00     0.211 HD
ENDBRANCH  21  33
ENDBRANCH  15  16
ENDBRANCH  10  15
BRANCH  12  35
ATOM     35  O   UNL     1      10.379  23.756  39.080  1.00  0.00    -0.385 OA
ATOM     36  H   UNL     1       9.943  23.209  39.800  1.00  0.00     0.211 HD
ENDBRANCH  12  35
BRANCH  13  37
ATOM     37  O   UNL     1      10.481  21.784  36.178  1.00  0.00    -0.387 OA
ATOM     38  H   UNL     1       9.680  21.451  36.696  1.00  0.00     0.211 HD
ENDBRANCH  13  37
BRANCH  14  39
ATOM     39  O   UNL     1      10.608  23.906  34.685  1.00  0.00    -0.387 OA
ATOM     40  H   UNL     1       9.619  23.861  34.726  1.00  0.00     0.211 HD
ENDBRANCH  14  39
ENDBRANCH   8   9
ENDBRANCH   7   8
ENDBRANCH   1   7
BRANCH   1  41
ATOM     41  C   UNL     1      11.798  28.517  33.366  1.00  0.00     0.364 C 
ATOM     42  O   UNL     1      12.989  28.566  33.813  1.00  0.00    -0.246 OA
BRANCH  41  43
ATOM     43  O   UNL     1      11.670  29.082  32.092  1.00  0.00    -0.477 OA
ATOM     44  H   UNL     1      12.193  29.922  31.878  1.00  0.00     0.296 HD
ENDBRANCH  41  43
ENDBRANCH   1  41
BRANCH   3  45
ATOM     45  O   UNL     1      10.516  30.923  36.286  1.00  0.00    -0.391 OA
ATOM     46  H   UNL     1      10.218  30.346  37.037  1.00  0.00     0.211 HD
ENDBRANCH   3  45
BRANCH   5  47
ATOM     47  C   UNL     1       7.319  28.839  33.830  1.00  0.00     0.176 C 
BRANCH  47  48
ATOM     48  O   UNL     1       6.882  27.863  32.984  1.00  0.00    -0.388 OA
ATOM     49  H   UNL     1       6.646  26.995  33.440  1.00  0.00     0.211 HD
ENDBRANCH  47  48
BRANCH  47  50
ATOM     50  C   UNL     1       6.968  28.778  35.246  1.00  0.00     0.165 C 
BRANCH  50  51
ATOM     51  O   UNL     1       7.610  27.807  36.018  1.00  0.00    -0.388 OA
ATOM     52  H   UNL     1       8.554  27.690  35.748  1.00  0.00     0.211 HD
ENDBRANCH  50  51
BRANCH  50  53
ATOM     53  C   UNL     1       5.569  29.037  35.653  1.00  0.00     0.154 C 
BRANCH  53  54
ATOM     54  N   UNL     1       4.558  29.191  34.676  1.00  0.00    -0.319 N 
ATOM     55  C   UNL     1       3.932  30.407  34.327  1.00  0.00     0.407 C 
ATOM     56  H   UNL     1       4.230  28.301  34.142  1.00  0.00     0.167 HD
ATOM     57  O   UNL     1       4.172  31.503  34.855  1.00  0.00    -0.225 OA
BRANCH  55  58
ATOM     58  O   UNL     1       2.957  30.445  33.312  1.00  0.00    -0.443 OA
BRANCH  58  59
ATOM     59  C   UNL     1       2.371  29.277  32.763  1.00  0.00     0.294 C 
BRANCH  59  60
ATOM     60  C   UNL     1       3.303  28.679  31.763  1.00  0.00     0.121 A 
ATOM     61  C   UNL     1       3.372  28.919  30.408  1.00  0.00     0.144 A 
ATOM     62  N   UNL     1       4.257  27.768  32.004  1.00  0.00    -0.131 NA
ATOM     63  N   UNL     1       4.348  28.166  29.851  1.00  0.00    -0.219 N 
ATOM     64  N   UNL     1       4.868  27.474  30.851  1.00  0.00    -0.062 NA
BRANCH  63  65
ATOM     65  C   UNL     1       4.721  28.136  28.461  1.00  0.00     0.085 A 
ATOM     66  C   UNL     1       4.449  27.014  27.694  1.00  0.00     0.027 A 
ATOM     67  C   UNL     1       5.354  29.194  27.851  1.00  0.00     0.027 A 
ATOM     68  C   UNL     1       3.816  25.922  28.247  1.00  0.00     0.012 A 
ATOM     69  C   UNL     1       4.794  26.933  26.347  1.00  0.00     0.073 A 
ATOM     70  C   UNL     1       5.678  29.075  26.518  1.00  0.00     0.073 A 
ATOM     71  C   UNL     1       5.651  30.330  28.545  1.00  0.00     0.012 A 
ATOM     72  C   UNL     1       3.544  24.807  27.485  1.00  0.00     0.001 A 
ATOM     73  C   UNL     1       4.520  25.817  25.589  1.00  0.00     0.029 A 
ATOM     74  N   UNL     1       5.409  27.981  25.783  1.00  0.00    -0.248 NA
ATOM     75  C   UNL     1       6.313  30.115  25.871  1.00  0.00     0.029 A 
ATOM     76  C   UNL     1       6.290  31.361  27.869  1.00  0.00     0.001 A 
ATOM     77  C   UNL     1       3.889  24.727  26.139  1.00  0.00     0.002 A 
ATOM     78  C   UNL     1       6.632  31.284  26.536  1.00  0.00     0.002 A 
ENDBRANCH  63  65
ENDBRANCH  59  60
ENDBRANCH  58  59
ENDBRANCH  55  58
ENDBRANCH  53  54
ENDBRANCH  50  53
ENDBRANCH  47  50
ENDBRANCH   5  47
BRANCH   4  79
ATOM     79  N   UNL     1       9.367  31.542  33.524  1.00  0.00    -0.348 N 
ATOM     80  C   UNL     1       8.377  32.568  33.471  1.00  0.00     0.217 C 
ATOM     81  H   UNL     1      10.207  31.711  32.924  1.00  0.00     0.163 HD
ATOM     82  C   UNL     1       8.605  33.767  32.596  1.00  0.00     0.114 C 
ATOM     83  O   UNL     1       7.355  32.424  34.161  1.00  0.00    -0.275 OA
ENDBRANCH   4  79
TORSDOF 30
