REMARK VINA RESULT:    -6.706      4.220      8.289
REMARK INTER + INTRA:         -23.145
REMARK INTER:                 -15.188
REMARK INTRA:                  -7.957
REMARK UNBOUND:                -5.463
REMARK SMILES CC(=O)N[C@@H]1[C@@H](O)C[C@](OC[C@H]2O[C@@H](O[C@H]3[C@H](O)[C@@H](O)[C@H](OCCN=[N+]=[N-])O[C@@H]3CO)[C@H](O)[C@@H](O)[C@H]2O)(C(=O)O)O[C@H]1C(O)[C@H](O)CNC(=O)OCc1cn(COCc2ccccc2)nn1
REMARK SMILES IDX 43 1 42 2 9 3 8 4 41 5 6 6 5 7 10 8 11 9 12 10 14 11 13 12
REMARK SMILES IDX 32 13 34 14 36 15 15 16 16 17 29 18 28 19 21 20 17 21 19 22
REMARK SMILES IDX 30 23 31 24 22 26 23 27 24 28 25 29 26 30 27 31 18 32 20 34
REMARK SMILES IDX 33 36 35 38 37 40 38 42 39 43 40 44 7 46 4 48 2 49 1 51 3 52
REMARK SMILES IDX 44 53 45 55 46 56 47 58 48 59 49 60 50 62 51 63 52 64 53 65
REMARK SMILES IDX 54 66 66 67 55 68 65 69 56 70 57 71 58 72 59 73 60 74 64 75
REMARK SMILES IDX 61 76 63 77 62 78
REMARK H PARENT 31 25 18 33 20 35 33 37 35 39 37 41 40 45 7 47 4 50 44 54
REMARK H PARENT 46 57 48 61
REMARK Flexibility Score: inf
ROOT
ATOM      1  C   UNL     1      14.907  33.158  21.983  1.00  0.00     0.176 C 
ENDROOT
BRANCH   1   2
ATOM      2  C   UNL     1      14.401  31.713  22.194  1.00  0.00     0.178 C 
ATOM      3  C   UNL     1      15.288  29.573  22.007  1.00  0.00     0.272 C 
ATOM      4  C   UNL     1      13.982  29.099  21.378  1.00  0.00     0.113 C 
ATOM      5  O   UNL     1      15.402  30.888  21.678  1.00  0.00    -0.332 OA
ATOM      6  C   UNL     1      13.392  30.207  20.539  1.00  0.00     0.145 C 
ATOM      7  C   UNL     1      13.131  31.444  21.451  1.00  0.00     0.142 C 
BRANCH   3   8
ATOM      8  O   UNL     1      16.365  28.826  21.488  1.00  0.00    -0.338 OA
BRANCH   8   9
ATOM      9  C   UNL     1      16.535  28.831  20.157  1.00  0.00     0.199 C 
BRANCH   9  10
ATOM     10  C   UNL     1      17.960  29.189  19.805  1.00  0.00     0.179 C 
ATOM     11  C   UNL     1      20.052  28.447  19.351  1.00  0.00     0.282 C 
ATOM     12  O   UNL     1      18.733  28.023  19.634  1.00  0.00    -0.341 OA
ATOM     13  C   UNL     1      20.145  28.961  17.918  1.00  0.00     0.202 C 
ATOM     14  C   UNL     1      18.697  29.224  17.481  1.00  0.00     0.179 C 
ATOM     15  C   UNL     1      18.085  30.045  18.598  1.00  0.00     0.177 C 
BRANCH  11  16
ATOM     16  O   UNL     1      20.873  27.358  19.460  1.00  0.00    -0.341 OA
BRANCH  16  17
ATOM     17  C   UNL     1      21.687  27.376  20.584  1.00  0.00     0.184 C 
ATOM     18  C   UNL     1      23.140  27.389  20.265  1.00  0.00     0.178 C 
ATOM     19  O   UNL     1      23.522  26.168  19.797  1.00  0.00    -0.341 OA
ATOM     20  C   UNL     1      23.487  25.150  20.721  1.00  0.00     0.281 C 
ATOM     21  C   UNL     1      21.321  26.235  21.468  1.00  0.00     0.180 C 
ATOM     22  C   UNL     1      22.333  25.164  21.645  1.00  0.00     0.202 C 
BRANCH  18  23
ATOM     23  C   UNL     1      23.923  27.865  21.466  1.00  0.00     0.191 C 
BRANCH  23  24
ATOM     24  O   UNL     1      25.259  28.117  21.133  1.00  0.00    -0.394 OA
ATOM     25  H   UNL     1      25.309  28.922  20.558  1.00  0.00     0.210 HD
ENDBRANCH  23  24
ENDBRANCH  18  23
BRANCH  20  26
ATOM     26  O   UNL     1      24.669  25.239  21.467  1.00  0.00    -0.350 OA
BRANCH  26  27
ATOM     27  C   UNL     1      25.213  24.027  21.807  1.00  0.00     0.169 C 
BRANCH  27  28
ATOM     28  C   UNL     1      26.602  24.308  22.353  1.00  0.00     0.119 C 
BRANCH  28  29
ATOM     29  N   UNL     1      27.636  23.673  21.567  1.00  0.00    -0.092 NA
ATOM     30  N   UNL     1      27.667  22.434  21.458  1.00  0.00     0.001 N 
ATOM     31  N   UNL     1      27.981  21.282  21.816  1.00  0.00    -0.003 NA
ENDBRANCH  28  29
ENDBRANCH  27  28
ENDBRANCH  26  27
ENDBRANCH  20  26
BRANCH  21  32
ATOM     32  O   UNL     1      21.012  26.718  22.769  1.00  0.00    -0.387 OA
ATOM     33  H   UNL     1      20.751  26.004  23.371  1.00  0.00     0.211 HD
ENDBRANCH  21  32
BRANCH  22  34
ATOM     34  O   UNL     1      21.674  23.918  21.482  1.00  0.00    -0.385 OA
ATOM     35  H   UNL     1      21.959  23.578  20.594  1.00  0.00     0.211 HD
ENDBRANCH  22  34
ENDBRANCH  16  17
ENDBRANCH  11  16
BRANCH  13  36
ATOM     36  O   UNL     1      20.788  30.197  17.848  1.00  0.00    -0.385 OA
ATOM     37  H   UNL     1      21.716  30.062  18.164  1.00  0.00     0.211 HD
ENDBRANCH  13  36
BRANCH  14  38
ATOM     38  O   UNL     1      18.089  27.976  17.467  1.00  0.00    -0.387 OA
ATOM     39  H   UNL     1      17.911  27.631  16.556  1.00  0.00     0.211 HD
ENDBRANCH  14  38
BRANCH  15  40
ATOM     40  O   UNL     1      16.905  30.659  18.213  1.00  0.00    -0.387 OA
ATOM     41  H   UNL     1      16.810  30.746  17.230  1.00  0.00     0.211 HD
ENDBRANCH  15  40
ENDBRANCH   9  10
ENDBRANCH   8   9
ENDBRANCH   3   8
BRANCH   3  42
ATOM     42  C   UNL     1      15.333  29.367  23.454  1.00  0.00     0.364 C 
ATOM     43  O   UNL     1      16.346  29.406  24.202  1.00  0.00    -0.246 OA
BRANCH  42  44
ATOM     44  O   UNL     1      14.126  29.090  24.139  1.00  0.00    -0.477 OA
ATOM     45  H   UNL     1      13.291  28.812  23.625  1.00  0.00     0.296 HD
ENDBRANCH  42  44
ENDBRANCH   3  42
BRANCH   6  46
ATOM     46  O   UNL     1      14.115  30.640  19.484  1.00  0.00    -0.391 OA
ATOM     47  H   UNL     1      13.573  31.183  18.832  1.00  0.00     0.211 HD
ENDBRANCH   6  46
BRANCH   7  48
ATOM     48  N   UNL     1      12.055  31.016  22.312  1.00  0.00    -0.348 N 
ATOM     49  C   UNL     1      11.018  31.925  22.609  1.00  0.00     0.217 C 
ATOM     50  H   UNL     1      12.042  30.072  22.705  1.00  0.00     0.163 HD
ATOM     51  C   UNL     1       9.891  31.502  23.482  1.00  0.00     0.114 C 
ATOM     52  O   UNL     1      11.028  33.105  22.135  1.00  0.00    -0.275 OA
ENDBRANCH   7  48
ENDBRANCH   1   2
BRANCH   1  53
ATOM     53  O   UNL     1      13.884  33.805  21.189  1.00  0.00    -0.388 OA
ATOM     54  H   UNL     1      13.259  33.069  20.917  1.00  0.00     0.211 HD
ENDBRANCH   1  53
BRANCH   1  55
ATOM     55  C   UNL     1      16.163  33.277  21.196  1.00  0.00     0.165 C 
BRANCH  55  56
ATOM     56  O   UNL     1      16.210  32.656  19.980  1.00  0.00    -0.388 OA
ATOM     57  H   UNL     1      16.623  33.183  19.261  1.00  0.00     0.211 HD
ENDBRANCH  55  56
BRANCH  55  58
ATOM     58  C   UNL     1      17.471  33.268  21.887  1.00  0.00     0.154 C 
BRANCH  58  59
ATOM     59  N   UNL     1      18.392  32.212  21.575  1.00  0.00    -0.319 N 
ATOM     60  C   UNL     1      19.701  32.408  21.061  1.00  0.00     0.407 C 
ATOM     61  H   UNL     1      18.119  31.217  21.738  1.00  0.00     0.167 HD
ATOM     62  O   UNL     1      20.124  33.552  20.860  1.00  0.00    -0.225 OA
BRANCH  60  63
ATOM     63  O   UNL     1      20.581  31.364  20.754  1.00  0.00    -0.443 OA
BRANCH  63  64
ATOM     64  C   UNL     1      21.564  30.962  21.710  1.00  0.00     0.294 C 
BRANCH  64  65
ATOM     65  C   UNL     1      20.978  30.199  22.836  1.00  0.00     0.120 A 
ATOM     66  C   UNL     1      21.588  30.060  24.065  1.00  0.00     0.141 A 
ATOM     67  N   UNL     1      19.827  29.521  22.909  1.00  0.00    -0.132 NA
ATOM     68  N   UNL     1      20.782  29.297  24.843  1.00  0.00    -0.226 N 
ATOM     69  N   UNL     1      19.722  28.988  24.110  1.00  0.00    -0.065 NA
BRANCH  68  70
ATOM     70  C   UNL     1      20.990  28.882  26.212  1.00  0.00     0.307 C 
BRANCH  70  71
ATOM     71  O   UNL     1      20.650  27.571  26.412  1.00  0.00    -0.355 OA
BRANCH  71  72
ATOM     72  C   UNL     1      21.437  27.025  27.413  1.00  0.00     0.198 C 
BRANCH  72  73
ATOM     73  C   UNL     1      22.433  26.084  26.788  1.00  0.00    -0.022 A 
ATOM     74  C   UNL     1      23.646  25.915  27.422  1.00  0.00     0.006 A 
ATOM     75  C   UNL     1      22.139  25.422  25.624  1.00  0.00     0.006 A 
ATOM     76  C   UNL     1      24.585  25.063  26.881  1.00  0.00     0.000 A 
ATOM     77  C   UNL     1      23.083  24.585  25.105  1.00  0.00     0.000 A 
ATOM     78  C   UNL     1      24.314  24.385  25.711  1.00  0.00     0.000 A 
ENDBRANCH  72  73
ENDBRANCH  71  72
ENDBRANCH  70  71
ENDBRANCH  68  70
ENDBRANCH  64  65
ENDBRANCH  63  64
ENDBRANCH  60  63
ENDBRANCH  58  59
ENDBRANCH  55  58
ENDBRANCH   1  55
TORSDOF 33
