REMARK VINA RESULT:    -5.203     13.069     16.936
REMARK INTER + INTRA:         -20.458
REMARK INTER:                 -13.709
REMARK INTRA:                  -6.749
REMARK UNBOUND:                -7.652
REMARK SMILES CC(=O)N[C@@H]1[C@@H](O)C[C@](OC[C@H]2O[C@@H](O[C@H]3[C@H](O)[C@@H](O)[C@H](OCCN=[N+]=[N-])O[C@@H]3CO)[C@H](O)[C@@H](O)[C@H]2O)(C(=O)O)O[C@H]1C(O)[C@H](O)CNC(=O)OCc1cn(-c2ccc(Br)cc2)nn1
REMARK SMILES IDX 9 1 8 2 6 3 5 4 42 5 41 6 10 7 11 8 12 9 14 10 13 11 32 12
REMARK SMILES IDX 34 13 36 14 15 15 16 16 29 17 28 18 21 19 17 20 19 21 30 22
REMARK SMILES IDX 31 23 22 25 23 26 24 27 25 28 26 29 27 30 18 31 20 33 33 35
REMARK SMILES IDX 35 37 37 39 38 41 39 42 40 43 7 45 43 47 44 48 45 50 46 51
REMARK SMILES IDX 47 53 48 54 49 55 50 57 51 58 52 59 53 60 54 61 64 62 55 63
REMARK SMILES IDX 63 64 56 65 57 66 62 67 58 68 61 69 59 70 60 71 4 72 2 73
REMARK SMILES IDX 1 75 3 76
REMARK H PARENT 31 24 18 32 20 34 33 36 35 38 37 40 40 44 7 46 44 49 46 52
REMARK H PARENT 48 56 4 74
REMARK Flexibility Score: inf
ROOT
ATOM      1  C   UNL     1      14.596  30.401  14.514  1.00  0.00     0.272 C 
ATOM      2  C   UNL     1      13.522  31.335  13.892  1.00  0.00     0.113 C 
ATOM      3  C   UNL     1      12.295  31.233  14.720  1.00  0.00     0.145 C 
ATOM      4  C   UNL     1      12.692  31.630  16.156  1.00  0.00     0.142 C 
ATOM      5  C   UNL     1      13.599  30.516  16.623  1.00  0.00     0.178 C 
ATOM      6  O   UNL     1      14.737  30.613  15.854  1.00  0.00    -0.332 OA
ENDROOT
BRANCH   1   7
ATOM      7  O   UNL     1      15.765  30.823  13.872  1.00  0.00    -0.338 OA
BRANCH   7   8
ATOM      8  C   UNL     1      15.846  30.545  12.541  1.00  0.00     0.199 C 
BRANCH   8   9
ATOM      9  C   UNL     1      17.337  30.649  12.159  1.00  0.00     0.179 C 
ATOM     10  C   UNL     1      19.390  30.229  13.167  1.00  0.00     0.282 C 
ATOM     11  O   UNL     1      18.127  30.759  13.267  1.00  0.00    -0.341 OA
ATOM     12  C   UNL     1      19.904  30.124  11.789  1.00  0.00     0.202 C 
ATOM     13  C   UNL     1      18.989  29.492  10.789  1.00  0.00     0.179 C 
ATOM     14  C   UNL     1      17.616  29.381  11.367  1.00  0.00     0.177 C 
BRANCH  10  15
ATOM     15  O   UNL     1      19.389  29.059  13.926  1.00  0.00    -0.341 OA
BRANCH  15  16
ATOM     16  C   UNL     1      19.640  29.305  15.263  1.00  0.00     0.184 C 
ATOM     17  C   UNL     1      20.892  28.635  15.731  1.00  0.00     0.178 C 
ATOM     18  O   UNL     1      21.186  29.031  17.004  1.00  0.00    -0.341 OA
ATOM     19  C   UNL     1      20.206  29.600  17.758  1.00  0.00     0.281 C 
ATOM     20  C   UNL     1      18.524  28.709  16.136  1.00  0.00     0.180 C 
ATOM     21  C   UNL     1      18.823  29.012  17.589  1.00  0.00     0.202 C 
BRANCH  17  22
ATOM     22  C   UNL     1      22.047  29.041  14.834  1.00  0.00     0.191 C 
BRANCH  22  23
ATOM     23  O   UNL     1      22.281  28.084  13.876  1.00  0.00    -0.394 OA
ATOM     24  H   UNL     1      22.262  27.188  14.256  1.00  0.00     0.210 HD
ENDBRANCH  22  23
ENDBRANCH  17  22
BRANCH  19  25
ATOM     25  O   UNL     1      20.193  30.989  17.686  1.00  0.00    -0.350 OA
BRANCH  25  26
ATOM     26  C   UNL     1      19.111  31.578  18.311  1.00  0.00     0.169 C 
BRANCH  26  27
ATOM     27  C   UNL     1      19.334  31.917  19.747  1.00  0.00     0.119 C 
BRANCH  27  28
ATOM     28  N   UNL     1      18.238  31.402  20.550  1.00  0.00    -0.092 NA
ATOM     29  N   UNL     1      17.216  32.090  20.614  1.00  0.00     0.001 N 
ATOM     30  N   UNL     1      16.102  32.655  20.636  1.00  0.00    -0.003 NA
ENDBRANCH  27  28
ENDBRANCH  26  27
ENDBRANCH  25  26
ENDBRANCH  19  25
BRANCH  20  31
ATOM     31  O   UNL     1      17.288  29.165  15.715  1.00  0.00    -0.387 OA
ATOM     32  H   UNL     1      16.731  29.470  16.480  1.00  0.00     0.211 HD
ENDBRANCH  20  31
BRANCH  21  33
ATOM     33  O   UNL     1      18.651  27.935  18.430  1.00  0.00    -0.385 OA
ATOM     34  H   UNL     1      17.971  27.338  18.036  1.00  0.00     0.211 HD
ENDBRANCH  21  33
ENDBRANCH  15  16
ENDBRANCH  10  15
BRANCH  12  35
ATOM     35  O   UNL     1      20.259  31.441  11.385  1.00  0.00    -0.385 OA
ATOM     36  H   UNL     1      19.661  31.726  10.636  1.00  0.00     0.211 HD
ENDBRANCH  12  35
BRANCH  13  37
ATOM     37  O   UNL     1      19.442  28.195  10.452  1.00  0.00    -0.387 OA
ATOM     38  H   UNL     1      20.116  27.966  11.140  1.00  0.00     0.211 HD
ENDBRANCH  13  37
BRANCH  14  39
ATOM     39  O   UNL     1      17.457  28.239  12.148  1.00  0.00    -0.387 OA
ATOM     40  H   UNL     1      17.378  28.475  13.106  1.00  0.00     0.211 HD
ENDBRANCH  14  39
ENDBRANCH   8   9
ENDBRANCH   7   8
ENDBRANCH   1   7
BRANCH   1  41
ATOM     41  C   UNL     1      14.271  29.046  14.072  1.00  0.00     0.364 C 
ATOM     42  O   UNL     1      13.244  28.757  13.414  1.00  0.00    -0.246 OA
BRANCH  41  43
ATOM     43  O   UNL     1      15.115  27.993  14.370  1.00  0.00    -0.477 OA
ATOM     44  H   UNL     1      15.767  27.990  15.153  1.00  0.00     0.296 HD
ENDBRANCH  41  43
ENDBRANCH   1  41
BRANCH   3  45
ATOM     45  O   UNL     1      11.332  32.157  14.341  1.00  0.00    -0.391 OA
ATOM     46  H   UNL     1      10.474  31.700  14.213  1.00  0.00     0.211 HD
ENDBRANCH   3  45
BRANCH   5  47
ATOM     47  C   UNL     1      14.015  30.596  18.052  1.00  0.00     0.176 C 
BRANCH  47  48
ATOM     48  O   UNL     1      14.419  31.948  18.246  1.00  0.00    -0.388 OA
ATOM     49  H   UNL     1      14.856  32.014  19.133  1.00  0.00     0.211 HD
ENDBRANCH  47  48
BRANCH  47  50
ATOM     50  C   UNL     1      15.268  29.802  18.392  1.00  0.00     0.165 C 
BRANCH  50  51
ATOM     51  O   UNL     1      15.252  28.747  17.438  1.00  0.00    -0.388 OA
ATOM     52  H   UNL     1      15.172  29.144  16.514  1.00  0.00     0.211 HD
ENDBRANCH  50  51
BRANCH  50  53
ATOM     53  C   UNL     1      15.173  29.160  19.732  1.00  0.00     0.154 C 
BRANCH  53  54
ATOM     54  N   UNL     1      14.564  30.018  20.696  1.00  0.00    -0.319 N 
ATOM     55  C   UNL     1      13.665  29.591  21.724  1.00  0.00     0.407 C 
ATOM     56  H   UNL     1      14.765  31.069  20.687  1.00  0.00     0.167 HD
ATOM     57  O   UNL     1      13.372  28.375  21.798  1.00  0.00    -0.225 OA
BRANCH  55  58
ATOM     58  O   UNL     1      13.120  30.470  22.630  1.00  0.00    -0.443 OA
BRANCH  58  59
ATOM     59  C   UNL     1      12.790  30.038  23.925  1.00  0.00     0.294 C 
BRANCH  59  60
ATOM     60  C   UNL     1      11.319  30.075  24.080  1.00  0.00     0.121 A 
ATOM     61  C   UNL     1      10.537  28.973  24.445  1.00  0.00     0.144 A 
ATOM     62  N   UNL     1      10.445  31.080  23.918  1.00  0.00    -0.131 NA
ATOM     63  N   UNL     1       9.249  29.356  24.486  1.00  0.00    -0.220 N 
ATOM     64  N   UNL     1       9.227  30.633  24.163  1.00  0.00    -0.062 NA
BRANCH  63  65
ATOM     65  C   UNL     1       8.179  28.480  24.820  1.00  0.00     0.066 A 
ATOM     66  C   UNL     1       8.246  27.124  24.798  1.00  0.00     0.029 A 
ATOM     67  C   UNL     1       6.988  29.088  25.203  1.00  0.00     0.029 A 
ATOM     68  C   UNL     1       7.136  26.388  25.156  1.00  0.00     0.018 A 
ATOM     69  C   UNL     1       5.888  28.339  25.557  1.00  0.00     0.018 A 
ATOM     70  C   UNL     1       5.949  26.961  25.538  1.00  0.00     0.018 A 
ATOM     71  Br  UNL     1       4.437  25.906  26.028  1.00  0.00    -0.051 Br
ENDBRANCH  63  65
ENDBRANCH  59  60
ENDBRANCH  58  59
ENDBRANCH  55  58
ENDBRANCH  53  54
ENDBRANCH  50  53
ENDBRANCH  47  50
ENDBRANCH   5  47
BRANCH   4  72
ATOM     72  N   UNL     1      11.469  31.768  16.888  1.00  0.00    -0.348 N 
ATOM     73  C   UNL     1      11.211  32.882  17.733  1.00  0.00     0.217 C 
ATOM     74  H   UNL     1      10.742  31.036  16.807  1.00  0.00     0.163 HD
ATOM     75  C   UNL     1       9.957  33.050  18.504  1.00  0.00     0.114 C 
ATOM     76  O   UNL     1      12.090  33.797  17.851  1.00  0.00    -0.275 OA
ENDBRANCH   4  72
TORSDOF 30
