REMARK VINA RESULT:    -5.710     12.564     18.273
REMARK INTER + INTRA:         -22.023
REMARK INTER:                 -15.886
REMARK INTRA:                  -6.137
REMARK UNBOUND:                -7.468
REMARK SMILES CC(=O)N[C@@H]1[C@@H](O)C[C@](OC[C@H]2O[C@@H](O[C@H]3[C@H](O)[C@@H](O)[C@H](OCCN=[N+]=[N-])O[C@@H]3CO)[C@H](O)[C@@H](O)[C@H]2O)(C(=O)O)O[C@H]1C(O)[C@H](O)CNC(=O)OCc1cn(CC(=O)O)nn1
REMARK SMILES IDX 9 1 8 2 6 3 5 4 42 5 41 6 10 7 11 8 12 9 14 10 13 11 32 12
REMARK SMILES IDX 34 13 36 14 15 15 16 16 29 17 28 18 21 19 17 20 19 21 30 22
REMARK SMILES IDX 31 23 22 25 23 26 24 27 25 28 26 29 27 30 18 31 20 33 33 35
REMARK SMILES IDX 35 37 37 39 38 41 39 42 40 43 7 45 43 47 44 48 45 50 46 51
REMARK SMILES IDX 47 53 48 54 49 55 50 57 51 58 52 59 53 60 54 61 61 62 55 63
REMARK SMILES IDX 60 64 56 65 57 66 58 67 59 68 4 70 2 71 1 73 3 74
REMARK H PARENT 31 24 18 32 20 34 33 36 35 38 37 40 40 44 7 46 44 49 46 52
REMARK H PARENT 48 56 59 69 4 72
REMARK Flexibility Score: inf
ROOT
ATOM      1  C   UNL     1      19.587  28.638  19.316  1.00  0.00     0.272 C 
ATOM      2  C   UNL     1      19.980  29.996  19.823  1.00  0.00     0.113 C 
ATOM      3  C   UNL     1      19.275  30.487  21.017  1.00  0.00     0.145 C 
ATOM      4  C   UNL     1      17.975  29.774  21.370  1.00  0.00     0.142 C 
ATOM      5  C   UNL     1      17.483  29.147  20.103  1.00  0.00     0.178 C 
ATOM      6  O   UNL     1      18.449  28.133  19.863  1.00  0.00    -0.332 OA
ENDROOT
BRANCH   1   7
ATOM      7  O   UNL     1      20.624  27.696  19.494  1.00  0.00    -0.338 OA
BRANCH   7   8
ATOM      8  C   UNL     1      21.868  28.233  19.620  1.00  0.00     0.199 C 
BRANCH   8   9
ATOM      9  C   UNL     1      22.431  27.898  21.011  1.00  0.00     0.179 C 
ATOM     10  C   UNL     1      21.630  26.531  22.688  1.00  0.00     0.282 C 
ATOM     11  O   UNL     1      21.448  27.747  21.956  1.00  0.00    -0.341 OA
ATOM     12  C   UNL     1      21.407  25.456  21.688  1.00  0.00     0.202 C 
ATOM     13  C   UNL     1      22.690  25.396  20.842  1.00  0.00     0.179 C 
ATOM     14  C   UNL     1      23.388  26.727  20.912  1.00  0.00     0.177 C 
BRANCH  10  15
ATOM     15  O   UNL     1      20.799  26.573  23.768  1.00  0.00    -0.341 OA
BRANCH  15  16
ATOM     16  C   UNL     1      21.464  26.640  24.992  1.00  0.00     0.184 C 
ATOM     17  C   UNL     1      22.200  27.946  25.059  1.00  0.00     0.178 C 
ATOM     18  O   UNL     1      23.326  27.844  25.829  1.00  0.00    -0.341 OA
ATOM     19  C   UNL     1      23.253  27.041  26.938  1.00  0.00     0.281 C 
ATOM     20  C   UNL     1      22.472  25.519  25.132  1.00  0.00     0.180 C 
ATOM     21  C   UNL     1      23.006  25.589  26.565  1.00  0.00     0.202 C 
BRANCH  17  22
ATOM     22  C   UNL     1      21.282  29.008  25.638  1.00  0.00     0.191 C 
BRANCH  22  23
ATOM     23  O   UNL     1      20.252  29.176  24.709  1.00  0.00    -0.394 OA
ATOM     24  H   UNL     1      19.853  28.311  24.467  1.00  0.00     0.210 HD
ENDBRANCH  22  23
ENDBRANCH  17  22
BRANCH  19  25
ATOM     25  O   UNL     1      22.334  27.519  27.832  1.00  0.00    -0.350 OA
BRANCH  25  26
ATOM     26  C   UNL     1      22.800  27.646  29.116  1.00  0.00     0.169 C 
BRANCH  26  27
ATOM     27  C   UNL     1      22.580  26.439  29.989  1.00  0.00     0.119 C 
BRANCH  27  28
ATOM     28  N   UNL     1      23.846  25.943  30.533  1.00  0.00    -0.092 NA
ATOM     29  N   UNL     1      24.845  26.108  29.803  1.00  0.00     0.001 N 
ATOM     30  N   UNL     1      25.905  25.784  29.235  1.00  0.00    -0.003 NA
ENDBRANCH  27  28
ENDBRANCH  26  27
ENDBRANCH  25  26
ENDBRANCH  19  25
BRANCH  20  31
ATOM     31  O   UNL     1      21.930  24.269  24.963  1.00  0.00    -0.387 OA
ATOM     32  H   UNL     1      20.973  24.242  24.808  1.00  0.00     0.211 HD
ENDBRANCH  20  31
BRANCH  21  33
ATOM     33  O   UNL     1      24.180  24.872  26.697  1.00  0.00    -0.385 OA
ATOM     34  H   UNL     1      24.504  24.866  27.634  1.00  0.00     0.211 HD
ENDBRANCH  21  33
ENDBRANCH  15  16
ENDBRANCH  10  15
BRANCH  12  35
ATOM     35  O   UNL     1      21.031  24.232  22.158  1.00  0.00    -0.385 OA
ATOM     36  H   UNL     1      20.437  23.792  21.528  1.00  0.00     0.211 HD
ENDBRANCH  12  35
BRANCH  13  37
ATOM     37  O   UNL     1      22.300  25.108  19.542  1.00  0.00    -0.387 OA
ATOM     38  H   UNL     1      22.507  25.847  18.904  1.00  0.00     0.211 HD
ENDBRANCH  13  37
BRANCH  14  39
ATOM     39  O   UNL     1      24.103  26.859  19.722  1.00  0.00    -0.387 OA
ATOM     40  H   UNL     1      24.444  27.774  19.586  1.00  0.00     0.211 HD
ENDBRANCH  14  39
ENDBRANCH   8   9
ENDBRANCH   7   8
ENDBRANCH   1   7
BRANCH   1  41
ATOM     41  C   UNL     1      19.405  28.731  17.849  1.00  0.00     0.364 C 
ATOM     42  O   UNL     1      18.816  27.843  17.205  1.00  0.00    -0.246 OA
BRANCH  41  43
ATOM     43  O   UNL     1      19.880  29.811  17.124  1.00  0.00    -0.477 OA
ATOM     44  H   UNL     1      19.766  29.892  16.106  1.00  0.00     0.296 HD
ENDBRANCH  41  43
ENDBRANCH   1  41
BRANCH   3  45
ATOM     45  O   UNL     1      20.092  30.658  22.140  1.00  0.00    -0.391 OA
ATOM     46  H   UNL     1      19.850  30.093  22.893  1.00  0.00     0.211 HD
ENDBRANCH   3  45
BRANCH   5  47
ATOM     47  C   UNL     1      16.130  28.522  20.125  1.00  0.00     0.176 C 
BRANCH  47  48
ATOM     48  O   UNL     1      16.311  27.259  19.469  1.00  0.00    -0.388 OA
ATOM     49  H   UNL     1      17.281  27.134  19.263  1.00  0.00     0.211 HD
ENDBRANCH  47  48
BRANCH  47  50
ATOM     50  C   UNL     1      15.075  29.291  19.360  1.00  0.00     0.165 C 
BRANCH  50  51
ATOM     51  O   UNL     1      15.334  30.680  19.498  1.00  0.00    -0.388 OA
ATOM     52  H   UNL     1      15.840  30.795  20.332  1.00  0.00     0.211 HD
ENDBRANCH  50  51
BRANCH  50  53
ATOM     53  C   UNL     1      13.695  29.005  19.806  1.00  0.00     0.154 C 
BRANCH  53  54
ATOM     54  N   UNL     1      13.589  28.870  21.230  1.00  0.00    -0.319 N 
ATOM     55  C   UNL     1      13.322  29.891  22.168  1.00  0.00     0.407 C 
ATOM     56  H   UNL     1      13.716  27.900  21.695  1.00  0.00     0.167 HD
ATOM     57  O   UNL     1      13.159  31.063  21.821  1.00  0.00    -0.225 OA
BRANCH  55  58
ATOM     58  O   UNL     1      13.231  29.634  23.541  1.00  0.00    -0.443 OA
BRANCH  58  59
ATOM     59  C   UNL     1      12.231  30.249  24.334  1.00  0.00     0.294 C 
BRANCH  59  60
ATOM     60  C   UNL     1      11.069  29.327  24.522  1.00  0.00     0.120 A 
ATOM     61  C   UNL     1       9.729  29.630  24.322  1.00  0.00     0.139 A 
ATOM     62  N   UNL     1      11.091  28.045  24.917  1.00  0.00    -0.132 NA
ATOM     63  N   UNL     1       9.005  28.531  24.600  1.00  0.00    -0.241 N 
ATOM     64  N   UNL     1       9.854  27.581  24.960  1.00  0.00    -0.066 NA
BRANCH  63  65
ATOM     65  C   UNL     1       7.549  28.376  24.528  1.00  0.00     0.268 C 
BRANCH  65  66
ATOM     66  C   UNL     1       7.232  26.949  24.723  1.00  0.00     0.325 C 
ATOM     67  O   UNL     1       6.469  26.596  25.634  1.00  0.00    -0.250 OA
BRANCH  66  68
ATOM     68  O   UNL     1       7.790  26.005  23.886  1.00  0.00    -0.480 OA
ATOM     69  H   UNL     1       7.876  25.040  24.131  1.00  0.00     0.296 HD
ENDBRANCH  66  68
ENDBRANCH  65  66
ENDBRANCH  63  65
ENDBRANCH  59  60
ENDBRANCH  58  59
ENDBRANCH  55  58
ENDBRANCH  53  54
ENDBRANCH  50  53
ENDBRANCH  47  50
ENDBRANCH   5  47
BRANCH   4  70
ATOM     70  N   UNL     1      17.088  30.634  22.074  1.00  0.00    -0.348 N 
ATOM     71  C   UNL     1      16.985  30.629  23.508  1.00  0.00     0.217 C 
ATOM     72  H   UNL     1      16.487  31.314  21.568  1.00  0.00     0.163 HD
ATOM     73  C   UNL     1      16.034  31.561  24.157  1.00  0.00     0.114 C 
ATOM     74  O   UNL     1      17.684  29.855  24.202  1.00  0.00    -0.275 OA
ENDBRANCH   4  70
TORSDOF 32
