REMARK VINA RESULT:    -6.319      2.550      7.267
REMARK INTER + INTRA:         -20.570
REMARK INTER:                 -14.206
REMARK INTRA:                  -6.364
REMARK UNBOUND:                -5.017
REMARK SMILES CC(=O)N[C@@H]1[C@@H](O)C[C@](OC[C@H]2O[C@@H](O[C@H]3[C@H](O)[C@@H](O)[C@H](OCCN=[N+]=[N-])O[C@@H]3CO)[C@H](O)[C@@H](O)[C@H]2O)(C(=O)O)O[C@H]1C(O)[C@H](O)CNC(=O)OCc1cn(C2CCCCC2)nn1
REMARK SMILES IDX 9 1 8 2 6 3 5 4 42 5 41 6 10 7 11 8 12 9 14 10 13 11 32 12
REMARK SMILES IDX 34 13 36 14 15 15 16 16 29 17 28 18 21 19 17 20 19 21 30 22
REMARK SMILES IDX 31 23 22 25 23 26 24 27 25 28 26 29 27 30 18 31 20 33 33 35
REMARK SMILES IDX 35 37 37 39 38 41 39 42 40 43 7 45 43 47 44 48 45 50 46 51
REMARK SMILES IDX 47 53 48 54 49 55 50 57 51 58 52 59 53 60 54 61 63 62 55 63
REMARK SMILES IDX 62 64 56 65 57 66 61 67 58 68 60 69 59 70 4 71 2 72 1 74
REMARK SMILES IDX 3 75
REMARK H PARENT 31 24 18 32 20 34 33 36 35 38 37 40 40 44 7 46 44 49 46 52
REMARK H PARENT 48 56 4 73
REMARK Flexibility Score: inf
ROOT
ATOM      1  C   UNL     1      17.339  31.666  13.437  1.00  0.00     0.272 C 
ATOM      2  C   UNL     1      18.570  31.488  12.473  1.00  0.00     0.113 C 
ATOM      3  C   UNL     1      19.238  30.179  12.760  1.00  0.00     0.145 C 
ATOM      4  C   UNL     1      19.632  30.079  14.210  1.00  0.00     0.142 C 
ATOM      5  C   UNL     1      18.638  30.678  15.141  1.00  0.00     0.178 C 
ATOM      6  O   UNL     1      17.707  31.510  14.720  1.00  0.00    -0.332 OA
ENDROOT
BRANCH   1   7
ATOM      7  O   UNL     1      16.488  30.745  13.007  1.00  0.00    -0.338 OA
BRANCH   7   8
ATOM      8  C   UNL     1      15.252  30.741  12.637  1.00  0.00     0.199 C 
BRANCH   8   9
ATOM      9  C   UNL     1      14.295  29.612  12.980  1.00  0.00     0.179 C 
ATOM     10  C   UNL     1      13.439  29.272  15.137  1.00  0.00     0.282 C 
ATOM     11  O   UNL     1      14.484  29.122  14.232  1.00  0.00    -0.341 OA
ATOM     12  C   UNL     1      12.195  28.715  14.556  1.00  0.00     0.202 C 
ATOM     13  C   UNL     1      11.890  29.217  13.166  1.00  0.00     0.179 C 
ATOM     14  C   UNL     1      12.910  30.210  12.755  1.00  0.00     0.177 C 
BRANCH  10  15
ATOM     15  O   UNL     1      13.458  30.545  15.575  1.00  0.00    -0.341 OA
BRANCH  15  16
ATOM     16  C   UNL     1      13.770  30.823  16.865  1.00  0.00     0.184 C 
ATOM     17  C   UNL     1      13.864  32.328  17.008  1.00  0.00     0.178 C 
ATOM     18  O   UNL     1      13.894  32.732  18.329  1.00  0.00    -0.341 OA
ATOM     19  C   UNL     1      14.392  31.800  19.199  1.00  0.00     0.281 C 
ATOM     20  C   UNL     1      15.125  30.305  17.297  1.00  0.00     0.180 C 
ATOM     21  C   UNL     1      15.479  30.988  18.598  1.00  0.00     0.202 C 
BRANCH  17  22
ATOM     22  C   UNL     1      12.852  33.075  16.188  1.00  0.00     0.191 C 
BRANCH  22  23
ATOM     23  O   UNL     1      13.489  33.503  15.022  1.00  0.00    -0.394 OA
ATOM     24  H   UNL     1      13.180  33.008  14.226  1.00  0.00     0.210 HD
ENDBRANCH  22  23
ENDBRANCH  17  22
BRANCH  19  25
ATOM     25  O   UNL     1      13.358  31.110  19.774  1.00  0.00    -0.350 OA
BRANCH  25  26
ATOM     26  C   UNL     1      13.633  30.609  21.037  1.00  0.00     0.169 C 
BRANCH  26  27
ATOM     27  C   UNL     1      13.625  29.106  21.112  1.00  0.00     0.119 C 
BRANCH  27  28
ATOM     28  N   UNL     1      14.919  28.670  21.594  1.00  0.00    -0.092 NA
ATOM     29  N   UNL     1      15.755  28.380  20.728  1.00  0.00     0.001 N 
ATOM     30  N   UNL     1      16.444  27.593  20.053  1.00  0.00    -0.003 NA
ENDBRANCH  27  28
ENDBRANCH  26  27
ENDBRANCH  25  26
ENDBRANCH  19  25
BRANCH  20  31
ATOM     31  O   UNL     1      15.161  28.946  17.496  1.00  0.00    -0.387 OA
ATOM     32  H   UNL     1      14.517  28.634  18.178  1.00  0.00     0.211 HD
ENDBRANCH  20  31
BRANCH  21  33
ATOM     33  O   UNL     1      16.535  31.881  18.291  1.00  0.00    -0.385 OA
ATOM     34  H   UNL     1      17.369  31.598  18.739  1.00  0.00     0.211 HD
ENDBRANCH  21  33
ENDBRANCH  15  16
ENDBRANCH  10  15
BRANCH  12  35
ATOM     35  O   UNL     1      12.416  27.319  14.423  1.00  0.00    -0.385 OA
ATOM     36  H   UNL     1      13.200  27.131  13.863  1.00  0.00     0.211 HD
ENDBRANCH  12  35
BRANCH  13  37
ATOM     37  O   UNL     1      10.606  29.795  13.108  1.00  0.00    -0.387 OA
ATOM     38  H   UNL     1       9.946  29.096  13.238  1.00  0.00     0.211 HD
ENDBRANCH  13  37
BRANCH  14  39
ATOM     39  O   UNL     1      12.772  31.481  13.241  1.00  0.00    -0.387 OA
ATOM     40  H   UNL     1      13.254  32.095  12.639  1.00  0.00     0.211 HD
ENDBRANCH  14  39
ENDBRANCH   8   9
ENDBRANCH   7   8
ENDBRANCH   1   7
BRANCH   1  41
ATOM     41  C   UNL     1      16.984  33.115  13.246  1.00  0.00     0.364 C 
ATOM     42  O   UNL     1      16.335  33.785  14.041  1.00  0.00    -0.246 OA
BRANCH  41  43
ATOM     43  O   UNL     1      17.411  33.785  12.082  1.00  0.00    -0.477 OA
ATOM     44  H   UNL     1      16.793  34.424  11.608  1.00  0.00     0.296 HD
ENDBRANCH  41  43
ENDBRANCH   1  41
BRANCH   3  45
ATOM     45  O   UNL     1      18.457  29.105  12.352  1.00  0.00    -0.391 OA
ATOM     46  H   UNL     1      18.551  29.025  11.359  1.00  0.00     0.211 HD
ENDBRANCH   3  45
BRANCH   5  47
ATOM     47  C   UNL     1      17.909  29.549  15.933  1.00  0.00     0.176 C 
BRANCH  47  48
ATOM     48  O   UNL     1      17.291  28.685  15.009  1.00  0.00    -0.388 OA
ATOM     49  H   UNL     1      16.547  29.121  14.547  1.00  0.00     0.211 HD
ENDBRANCH  47  48
BRANCH  47  50
ATOM     50  C   UNL     1      18.840  28.824  16.843  1.00  0.00     0.165 C 
BRANCH  50  51
ATOM     51  O   UNL     1      18.042  27.950  17.618  1.00  0.00    -0.388 OA
ATOM     52  H   UNL     1      18.262  27.014  17.448  1.00  0.00     0.211 HD
ENDBRANCH  50  51
BRANCH  50  53
ATOM     53  C   UNL     1      19.621  29.644  17.801  1.00  0.00     0.154 C 
BRANCH  53  54
ATOM     54  N   UNL     1      20.986  29.237  18.008  1.00  0.00    -0.319 N 
ATOM     55  C   UNL     1      21.365  28.214  18.918  1.00  0.00     0.407 C 
ATOM     56  H   UNL     1      21.736  29.705  17.469  1.00  0.00     0.167 HD
ATOM     57  O   UNL     1      20.489  27.615  19.590  1.00  0.00    -0.225 OA
BRANCH  55  58
ATOM     58  O   UNL     1      22.670  27.849  19.096  1.00  0.00    -0.443 OA
BRANCH  58  59
ATOM     59  C   UNL     1      23.281  26.659  18.658  1.00  0.00     0.294 C 
BRANCH  59  60
ATOM     60  C   UNL     1      23.004  25.589  19.641  1.00  0.00     0.120 A 
ATOM     61  C   UNL     1      23.416  25.651  20.941  1.00  0.00     0.138 A 
ATOM     62  N   UNL     1      22.355  24.430  19.486  1.00  0.00    -0.132 NA
ATOM     63  N   UNL     1      23.010  24.523  21.569  1.00  0.00    -0.249 N 
ATOM     64  N   UNL     1      22.366  23.798  20.657  1.00  0.00    -0.067 NA
BRANCH  63  65
ATOM     65  C   UNL     1      23.245  24.188  22.959  1.00  0.00     0.109 C 
ATOM     66  C   UNL     1      22.216  24.985  23.756  1.00  0.00     0.027 C 
ATOM     67  C   UNL     1      24.626  24.635  23.384  1.00  0.00     0.027 C 
ATOM     68  C   UNL     1      22.338  24.614  25.234  1.00  0.00     0.002 C 
ATOM     69  C   UNL     1      24.601  25.487  24.637  1.00  0.00     0.002 C 
ATOM     70  C   UNL     1      23.743  24.851  25.688  1.00  0.00     0.000 C 
ENDBRANCH  63  65
ENDBRANCH  59  60
ENDBRANCH  58  59
ENDBRANCH  55  58
ENDBRANCH  53  54
ENDBRANCH  50  53
ENDBRANCH  47  50
ENDBRANCH   5  47
BRANCH   4  71
ATOM     71  N   UNL     1      20.984  30.520  14.430  1.00  0.00    -0.348 N 
ATOM     72  C   UNL     1      22.129  29.753  14.162  1.00  0.00     0.217 C 
ATOM     73  H   UNL     1      21.189  31.494  14.826  1.00  0.00     0.163 HD
ATOM     74  C   UNL     1      23.515  30.283  14.403  1.00  0.00     0.114 C 
ATOM     75  O   UNL     1      22.049  28.608  13.715  1.00  0.00    -0.275 OA
ENDBRANCH   4  71
TORSDOF 30
