REMARK VINA RESULT:    -4.464      9.856     15.184
REMARK INTER + INTRA:         -22.087
REMARK INTER:                 -14.818
REMARK INTRA:                  -7.269
REMARK UNBOUND:               -10.839
REMARK SMILES CC(=O)N[C@@H]1[C@@H](O)C[C@](OC[C@H]2O[C@@H](O[C@H]3[C@H](O)[C@@H](O)[C@H](OCCN=[N+]=[N-])O[C@@H]3CO)[C@H](O)[C@@H](O)[C@H]2O)(C(=O)O)O[C@H]1C(O)[C@H](O)CNC(=O)OCc1cn(-c2ccccc2C(C)C)nn1
REMARK SMILES IDX 9 1 8 2 6 3 5 4 42 5 41 6 10 7 11 8 12 9 14 10 13 11 32 12
REMARK SMILES IDX 34 13 36 14 15 15 16 16 29 17 28 18 21 19 17 20 19 21 30 22
REMARK SMILES IDX 31 23 22 25 23 26 24 27 25 28 26 29 27 30 18 31 20 33 33 35
REMARK SMILES IDX 35 37 37 39 38 41 39 42 40 43 7 45 43 47 44 48 45 50 46 51
REMARK SMILES IDX 47 53 48 54 49 55 50 57 51 58 52 59 53 60 54 61 66 62 55 63
REMARK SMILES IDX 65 64 56 65 61 66 57 67 60 68 58 69 59 70 62 71 63 72 64 73
REMARK SMILES IDX 4 74 2 75 1 77 3 78
REMARK H PARENT 31 24 18 32 20 34 33 36 35 38 37 40 40 44 7 46 44 49 46 52
REMARK H PARENT 48 56 4 76
REMARK Flexibility Score: inf
ROOT
ATOM      1  C   UNL     1      14.292  30.616  20.997  1.00  0.00     0.272 C 
ATOM      2  C   UNL     1      12.802  30.828  20.855  1.00  0.00     0.113 C 
ATOM      3  C   UNL     1      12.450  32.106  21.601  1.00  0.00     0.145 C 
ATOM      4  C   UNL     1      12.647  31.814  23.099  1.00  0.00     0.142 C 
ATOM      5  C   UNL     1      13.994  31.218  23.260  1.00  0.00     0.178 C 
ATOM      6  O   UNL     1      14.732  31.407  22.100  1.00  0.00    -0.332 OA
ENDROOT
BRANCH   1   7
ATOM      7  O   UNL     1      14.985  31.118  19.957  1.00  0.00    -0.338 OA
BRANCH   7   8
ATOM      8  C   UNL     1      14.619  31.507  18.785  1.00  0.00     0.199 C 
BRANCH   8   9
ATOM      9  C   UNL     1      15.336  31.181  17.515  1.00  0.00     0.179 C 
ATOM     10  C   UNL     1      17.334  30.578  16.615  1.00  0.00     0.282 C 
ATOM     11  O   UNL     1      16.702  31.157  17.645  1.00  0.00    -0.341 OA
ATOM     12  C   UNL     1      16.529  30.403  15.335  1.00  0.00     0.202 C 
ATOM     13  C   UNL     1      15.235  29.677  15.586  1.00  0.00     0.179 C 
ATOM     14  C   UNL     1      14.904  29.771  17.047  1.00  0.00     0.177 C 
BRANCH  10  15
ATOM     15  O   UNL     1      18.007  29.417  16.843  1.00  0.00    -0.341 OA
BRANCH  15  16
ATOM     16  C   UNL     1      19.025  29.395  17.762  1.00  0.00     0.184 C 
ATOM     17  C   UNL     1      20.322  28.903  17.210  1.00  0.00     0.178 C 
ATOM     18  O   UNL     1      20.816  27.823  17.853  1.00  0.00    -0.341 OA
ATOM     19  C   UNL     1      21.002  27.852  19.200  1.00  0.00     0.281 C 
ATOM     20  C   UNL     1      18.705  28.756  19.052  1.00  0.00     0.180 C 
ATOM     21  C   UNL     1      19.968  28.739  19.895  1.00  0.00     0.202 C 
BRANCH  17  22
ATOM     22  C   UNL     1      21.418  29.980  17.178  1.00  0.00     0.191 C 
BRANCH  22  23
ATOM     23  O   UNL     1      20.774  31.231  17.311  1.00  0.00    -0.394 OA
ATOM     24  H   UNL     1      20.075  31.254  16.585  1.00  0.00     0.210 HD
ENDBRANCH  22  23
ENDBRANCH  17  22
BRANCH  19  25
ATOM     25  O   UNL     1      22.243  28.340  19.509  1.00  0.00    -0.350 OA
BRANCH  25  26
ATOM     26  C   UNL     1      23.137  27.504  20.100  1.00  0.00     0.169 C 
BRANCH  26  27
ATOM     27  C   UNL     1      23.383  27.651  21.556  1.00  0.00     0.119 C 
BRANCH  27  28
ATOM     28  N   UNL     1      22.996  26.492  22.286  1.00  0.00    -0.092 NA
ATOM     29  N   UNL     1      21.897  25.977  22.319  1.00  0.00     0.001 N 
ATOM     30  N   UNL     1      20.785  25.497  22.126  1.00  0.00    -0.003 NA
ENDBRANCH  27  28
ENDBRANCH  26  27
ENDBRANCH  25  26
ENDBRANCH  19  25
BRANCH  20  31
ATOM     31  O   UNL     1      17.745  29.427  19.807  1.00  0.00    -0.387 OA
ATOM     32  H   UNL     1      17.346  30.126  19.244  1.00  0.00     0.211 HD
ENDBRANCH  20  31
BRANCH  21  33
ATOM     33  O   UNL     1      19.713  28.192  21.155  1.00  0.00    -0.385 OA
ATOM     34  H   UNL     1      18.758  28.366  21.355  1.00  0.00     0.211 HD
ENDBRANCH  21  33
ENDBRANCH  15  16
ENDBRANCH  10  15
BRANCH  12  35
ATOM     35  O   UNL     1      16.298  31.659  14.801  1.00  0.00    -0.385 OA
ATOM     36  H   UNL     1      15.741  31.577  13.964  1.00  0.00     0.211 HD
ENDBRANCH  12  35
BRANCH  13  37
ATOM     37  O   UNL     1      15.370  28.343  15.178  1.00  0.00    -0.387 OA
ATOM     38  H   UNL     1      15.190  27.787  15.976  1.00  0.00     0.211 HD
ENDBRANCH  13  37
BRANCH  14  39
ATOM     39  O   UNL     1      15.656  28.860  17.758  1.00  0.00    -0.387 OA
ATOM     40  H   UNL     1      15.845  28.091  17.163  1.00  0.00     0.211 HD
ENDBRANCH  14  39
ENDBRANCH   8   9
ENDBRANCH   7   8
ENDBRANCH   1   7
BRANCH   1  41
ATOM     41  C   UNL     1      14.618  29.216  21.291  1.00  0.00     0.364 C 
ATOM     42  O   UNL     1      13.646  28.380  21.227  1.00  0.00    -0.246 OA
BRANCH  41  43
ATOM     43  O   UNL     1      15.826  28.668  21.631  1.00  0.00    -0.477 OA
ATOM     44  H   UNL     1      16.568  29.114  22.137  1.00  0.00     0.296 HD
ENDBRANCH  41  43
ENDBRANCH   1  41
BRANCH   3  45
ATOM     45  O   UNL     1      13.389  33.100  21.303  1.00  0.00    -0.391 OA
ATOM     46  H   UNL     1      13.328  33.781  22.018  1.00  0.00     0.211 HD
ENDBRANCH   3  45
BRANCH   5  47
ATOM     47  C   UNL     1      14.856  31.749  24.365  1.00  0.00     0.176 C 
BRANCH  47  48
ATOM     48  O   UNL     1      14.816  33.173  24.157  1.00  0.00    -0.388 OA
ATOM     49  H   UNL     1      13.822  33.337  24.105  1.00  0.00     0.211 HD
ENDBRANCH  47  48
BRANCH  47  50
ATOM     50  C   UNL     1      16.306  31.387  24.324  1.00  0.00     0.165 C 
BRANCH  50  51
ATOM     51  O   UNL     1      16.638  30.308  25.099  1.00  0.00    -0.388 OA
ATOM     52  H   UNL     1      15.914  29.640  24.983  1.00  0.00     0.211 HD
ENDBRANCH  50  51
BRANCH  50  53
ATOM     53  C   UNL     1      17.219  32.554  24.329  1.00  0.00     0.154 C 
BRANCH  53  54
ATOM     54  N   UNL     1      18.591  32.274  23.952  1.00  0.00    -0.319 N 
ATOM     55  C   UNL     1      19.556  31.874  24.909  1.00  0.00     0.407 C 
ATOM     56  H   UNL     1      18.927  32.353  22.968  1.00  0.00     0.167 HD
ATOM     57  O   UNL     1      19.311  31.738  26.129  1.00  0.00    -0.225 OA
BRANCH  55  58
ATOM     58  O   UNL     1      20.900  31.589  24.565  1.00  0.00    -0.443 OA
BRANCH  58  59
ATOM     59  C   UNL     1      21.184  30.576  23.649  1.00  0.00     0.294 C 
BRANCH  59  60
ATOM     60  C   UNL     1      21.032  29.261  24.333  1.00  0.00     0.121 A 
ATOM     61  C   UNL     1      21.929  28.535  25.086  1.00  0.00     0.144 A 
ATOM     62  N   UNL     1      19.899  28.490  24.338  1.00  0.00    -0.131 NA
ATOM     63  N   UNL     1      21.378  27.391  25.524  1.00  0.00    -0.220 N 
ATOM     64  N   UNL     1      20.127  27.401  25.042  1.00  0.00    -0.062 NA
BRANCH  63  65
ATOM     65  C   UNL     1      21.941  26.363  26.331  1.00  0.00     0.070 A 
ATOM     66  C   UNL     1      21.925  26.495  27.702  1.00  0.00    -0.020 A 
ATOM     67  C   UNL     1      22.524  25.228  25.813  1.00  0.00     0.029 A 
ATOM     68  C   UNL     1      22.473  25.525  28.518  1.00  0.00     0.006 A 
ATOM     69  C   UNL     1      23.076  24.247  26.616  1.00  0.00     0.002 A 
ATOM     70  C   UNL     1      23.052  24.397  27.988  1.00  0.00     0.000 A 
BRANCH  66  71
ATOM     71  C   UNL     1      21.300  27.692  28.299  1.00  0.00     0.015 C 
ATOM     72  C   UNL     1      22.410  28.651  28.704  1.00  0.00     0.012 C 
ATOM     73  C   UNL     1      20.544  27.289  29.575  1.00  0.00     0.012 C 
ENDBRANCH  66  71
ENDBRANCH  63  65
ENDBRANCH  59  60
ENDBRANCH  58  59
ENDBRANCH  55  58
ENDBRANCH  53  54
ENDBRANCH  50  53
ENDBRANCH  47  50
ENDBRANCH   5  47
BRANCH   4  74
ATOM     74  N   UNL     1      11.581  30.923  23.497  1.00  0.00    -0.348 N 
ATOM     75  C   UNL     1      10.286  31.324  23.861  1.00  0.00     0.217 C 
ATOM     76  H   UNL     1      11.795  29.881  23.522  1.00  0.00     0.163 HD
ATOM     77  C   UNL     1       9.290  30.272  24.256  1.00  0.00     0.114 C 
ATOM     78  O   UNL     1       9.966  32.519  23.859  1.00  0.00    -0.275 OA
ENDBRANCH   4  74
TORSDOF 31
