REMARK VINA RESULT:    -5.801     10.826     14.846
REMARK INTER + INTRA:         -21.825
REMARK INTER:                 -13.709
REMARK INTRA:                  -8.116
REMARK UNBOUND:                -7.546
REMARK SMILES CC(=O)N[C@@H]1[C@@H](O)C[C@](OC[C@H]2O[C@@H](O[C@H]3[C@H](O)[C@@H](O)[C@H](OCCN=[N+]=[N-])O[C@@H]3CO)[C@H](O)[C@@H](O)[C@H]2O)(C(=O)O)O[C@H]1C(O)[C@H](O)CNC(=O)OCc1cn(-c2ccc3[nH]ncc3c2)nn1
REMARK SMILES IDX 9 1 8 2 6 3 5 4 42 5 41 6 10 7 11 8 12 9 14 10 13 11 32 12
REMARK SMILES IDX 34 13 36 14 15 15 16 16 29 17 28 18 21 19 17 20 19 21 30 22
REMARK SMILES IDX 31 23 22 25 23 26 24 27 25 28 26 29 27 30 18 31 20 33 33 35
REMARK SMILES IDX 35 37 37 39 38 41 39 42 40 43 7 45 43 47 44 48 45 50 46 51
REMARK SMILES IDX 47 53 48 54 49 55 50 57 51 58 52 59 53 60 54 61 66 62 55 63
REMARK SMILES IDX 65 64 56 65 57 66 64 67 58 68 63 69 59 70 62 71 60 72 61 73
REMARK SMILES IDX 4 75 2 76 1 78 3 79
REMARK H PARENT 31 24 18 32 20 34 33 36 35 38 37 40 40 44 7 46 44 49 46 52
REMARK H PARENT 48 56 60 74 4 77
REMARK Flexibility Score: inf
ROOT
ATOM      1  C   UNL     1      20.353  19.221  10.692  1.00  0.00     0.272 C 
ATOM      2  C   UNL     1      20.100  18.538   9.398  1.00  0.00     0.113 C 
ATOM      3  C   UNL     1      19.433  19.378   8.340  1.00  0.00     0.145 C 
ATOM      4  C   UNL     1      20.391  20.582   8.138  1.00  0.00     0.142 C 
ATOM      5  C   UNL     1      20.545  21.180   9.482  1.00  0.00     0.178 C 
ATOM      6  O   UNL     1      21.035  20.417  10.485  1.00  0.00    -0.332 OA
ENDROOT
BRANCH   1   7
ATOM      7  O   UNL     1      21.170  18.381  11.481  1.00  0.00    -0.338 OA
BRANCH   7   8
ATOM      8  C   UNL     1      21.827  18.994  12.496  1.00  0.00     0.199 C 
BRANCH   8   9
ATOM      9  C   UNL     1      23.304  18.544  12.582  1.00  0.00     0.179 C 
ATOM     10  C   UNL     1      25.093  19.453  11.426  1.00  0.00     0.282 C 
ATOM     11  O   UNL     1      23.929  18.668  11.378  1.00  0.00    -0.341 OA
ATOM     12  C   UNL     1      24.659  20.825  11.827  1.00  0.00     0.202 C 
ATOM     13  C   UNL     1      24.260  20.737  13.308  1.00  0.00     0.179 C 
ATOM     14  C   UNL     1      23.991  19.309  13.697  1.00  0.00     0.177 C 
BRANCH  10  15
ATOM     15  O   UNL     1      25.756  19.369  10.215  1.00  0.00    -0.341 OA
BRANCH  15  16
ATOM     16  C   UNL     1      25.015  18.596   9.330  1.00  0.00     0.184 C 
ATOM     17  C   UNL     1      25.814  17.595   8.552  1.00  0.00     0.178 C 
ATOM     18  O   UNL     1      25.022  16.825   7.786  1.00  0.00    -0.341 OA
ATOM     19  C   UNL     1      23.758  17.203   7.464  1.00  0.00     0.281 C 
ATOM     20  C   UNL     1      24.424  19.503   8.234  1.00  0.00     0.180 C 
ATOM     21  C   UNL     1      23.482  18.667   7.439  1.00  0.00     0.202 C 
BRANCH  17  22
ATOM     22  C   UNL     1      26.705  16.713   9.401  1.00  0.00     0.191 C 
BRANCH  22  23
ATOM     23  O   UNL     1      26.296  16.676  10.721  1.00  0.00    -0.394 OA
ATOM     24  H   UNL     1      25.353  16.328  10.701  1.00  0.00     0.210 HD
ENDBRANCH  22  23
ENDBRANCH  17  22
BRANCH  19  25
ATOM     25  O   UNL     1      22.901  16.560   8.324  1.00  0.00    -0.350 OA
BRANCH  25  26
ATOM     26  C   UNL     1      22.594  15.273   8.048  1.00  0.00     0.169 C 
BRANCH  26  27
ATOM     27  C   UNL     1      21.140  15.019   7.814  1.00  0.00     0.119 C 
BRANCH  27  28
ATOM     28  N   UNL     1      20.506  15.880   6.860  1.00  0.00    -0.092 NA
ATOM     29  N   UNL     1      20.872  16.001   5.708  1.00  0.00     0.001 N 
ATOM     30  N   UNL     1      21.435  16.401   4.664  1.00  0.00    -0.003 NA
ENDBRANCH  27  28
ENDBRANCH  26  27
ENDBRANCH  25  26
ENDBRANCH  19  25
BRANCH  20  31
ATOM     31  O   UNL     1      23.830  20.618   8.760  1.00  0.00    -0.387 OA
ATOM     32  H   UNL     1      23.950  21.436   8.210  1.00  0.00     0.211 HD
ENDBRANCH  20  31
BRANCH  21  33
ATOM     33  O   UNL     1      23.490  19.166   6.123  1.00  0.00    -0.385 OA
ATOM     34  H   UNL     1      23.496  18.433   5.457  1.00  0.00     0.211 HD
ENDBRANCH  21  33
ENDBRANCH  15  16
ENDBRANCH  10  15
BRANCH  12  35
ATOM     35  O   UNL     1      25.569  21.830  11.621  1.00  0.00    -0.385 OA
ATOM     36  H   UNL     1      26.251  21.583  10.924  1.00  0.00     0.211 HD
ENDBRANCH  12  35
BRANCH  13  37
ATOM     37  O   UNL     1      23.247  21.618  13.622  1.00  0.00    -0.387 OA
ATOM     38  H   UNL     1      23.380  22.433  13.050  1.00  0.00     0.211 HD
ENDBRANCH  13  37
BRANCH  14  39
ATOM     39  O   UNL     1      23.083  19.357  14.784  1.00  0.00    -0.387 OA
ATOM     40  H   UNL     1      22.210  19.002  14.558  1.00  0.00     0.211 HD
ENDBRANCH  14  39
ENDBRANCH   8   9
ENDBRANCH   7   8
ENDBRANCH   1   7
BRANCH   1  41
ATOM     41  C   UNL     1      19.125  19.591  11.446  1.00  0.00     0.364 C 
ATOM     42  O   UNL     1      18.281  18.658  11.659  1.00  0.00    -0.246 OA
BRANCH  41  43
ATOM     43  O   UNL     1      18.794  20.816  11.934  1.00  0.00    -0.477 OA
ATOM     44  H   UNL     1      18.792  21.668  11.372  1.00  0.00     0.296 HD
ENDBRANCH  41  43
ENDBRANCH   1  41
BRANCH   3  45
ATOM     45  O   UNL     1      19.355  18.635   7.178  1.00  0.00    -0.391 OA
ATOM     46  H   UNL     1      20.263  18.354   6.853  1.00  0.00     0.211 HD
ENDBRANCH   3  45
BRANCH   5  47
ATOM     47  C   UNL     1      21.136  22.556   9.414  1.00  0.00     0.176 C 
BRANCH  47  48
ATOM     48  O   UNL     1      19.981  23.421   9.418  1.00  0.00    -0.388 OA
ATOM     49  H   UNL     1      19.165  22.896   9.542  1.00  0.00     0.211 HD
ENDBRANCH  47  48
BRANCH  47  50
ATOM     50  C   UNL     1      21.932  22.987  10.621  1.00  0.00     0.165 C 
BRANCH  50  51
ATOM     51  O   UNL     1      21.065  22.774  11.729  1.00  0.00    -0.388 OA
ATOM     52  H   UNL     1      20.451  22.035  11.579  1.00  0.00     0.211 HD
ENDBRANCH  50  51
BRANCH  50  53
ATOM     53  C   UNL     1      22.378  24.400  10.632  1.00  0.00     0.154 C 
BRANCH  53  54
ATOM     54  N   UNL     1      23.067  24.873  11.780  1.00  0.00    -0.319 N 
ATOM     55  C   UNL     1      24.464  25.017  11.946  1.00  0.00     0.407 C 
ATOM     56  H   UNL     1      22.494  25.164  12.636  1.00  0.00     0.167 HD
ATOM     57  O   UNL     1      25.253  24.736  11.039  1.00  0.00    -0.225 OA
BRANCH  55  58
ATOM     58  O   UNL     1      24.976  25.485  13.153  1.00  0.00    -0.443 OA
BRANCH  58  59
ATOM     59  C   UNL     1      24.893  24.833  14.384  1.00  0.00     0.294 C 
BRANCH  59  60
ATOM     60  C   UNL     1      25.892  23.776  14.596  1.00  0.00     0.121 A 
ATOM     61  C   UNL     1      26.063  23.028  15.738  1.00  0.00     0.144 A 
ATOM     62  N   UNL     1      26.822  23.367  13.707  1.00  0.00    -0.131 NA
ATOM     63  N   UNL     1      27.084  22.206  15.484  1.00  0.00    -0.220 N 
ATOM     64  N   UNL     1      27.524  22.425  14.259  1.00  0.00    -0.062 NA
BRANCH  63  65
ATOM     65  C   UNL     1      27.606  21.249  16.405  1.00  0.00     0.067 A 
ATOM     66  C   UNL     1      28.002  19.999  15.983  1.00  0.00     0.030 A 
ATOM     67  C   UNL     1      27.718  21.560  17.741  1.00  0.00     0.040 A 
ATOM     68  C   UNL     1      28.500  19.079  16.871  1.00  0.00     0.030 A 
ATOM     69  C   UNL     1      28.226  20.614  18.628  1.00  0.00     0.022 A 
ATOM     70  C   UNL     1      28.628  19.355  18.219  1.00  0.00     0.065 A 
ATOM     71  C   UNL     1      28.434  20.688  19.986  1.00  0.00     0.143 A 
ATOM     72  N   UNL     1      29.066  18.692  19.303  1.00  0.00    -0.278 N 
ATOM     73  N   UNL     1      28.944  19.495  20.335  1.00  0.00    -0.183 NA
ATOM     74  H   UNL     1      29.432  17.710  19.291  1.00  0.00     0.190 HD
ENDBRANCH  63  65
ENDBRANCH  59  60
ENDBRANCH  58  59
ENDBRANCH  55  58
ENDBRANCH  53  54
ENDBRANCH  50  53
ENDBRANCH  47  50
ENDBRANCH   5  47
BRANCH   4  75
ATOM     75  N   UNL     1      19.590  21.481   7.300  1.00  0.00    -0.348 N 
ATOM     76  C   UNL     1      19.892  21.590   5.941  1.00  0.00     0.217 C 
ATOM     77  H   UNL     1      18.810  22.039   7.686  1.00  0.00     0.163 HD
ATOM     78  C   UNL     1      19.125  22.491   5.018  1.00  0.00     0.114 C 
ATOM     79  O   UNL     1      20.848  20.902   5.454  1.00  0.00    -0.275 OA
ENDBRANCH   4  75
TORSDOF 30
