REMARK VINA RESULT:    -5.364      3.950     10.792
REMARK INTER + INTRA:         -21.557
REMARK INTER:                 -14.031
REMARK INTRA:                  -7.525
REMARK UNBOUND:                -8.354
REMARK SMILES CC(=O)N[C@@H]1[C@@H](O)C[C@](OC[C@H]2O[C@@H](O[C@H]3[C@H](O)[C@@H](O)[C@H](OCCN=[N+]=[N-])O[C@@H]3CO)[C@H](O)[C@@H](O)[C@H]2O)(C(=O)O)O[C@H]1C(O)[C@H](O)CNC(=O)OCc1cn(-c2cccc(Cl)c2)nn1
REMARK SMILES IDX 9 1 8 2 6 3 5 4 42 5 41 6 10 7 11 8 12 9 14 10 13 11 32 12
REMARK SMILES IDX 34 13 36 14 15 15 16 16 29 17 28 18 21 19 17 20 19 21 30 22
REMARK SMILES IDX 31 23 22 25 23 26 24 27 25 28 26 29 27 30 18 31 20 33 33 35
REMARK SMILES IDX 35 37 37 39 38 41 39 42 40 43 7 45 43 47 44 48 45 50 46 51
REMARK SMILES IDX 47 53 48 54 49 55 50 57 51 58 52 59 53 60 54 61 64 62 55 63
REMARK SMILES IDX 63 64 56 65 57 66 62 67 58 68 60 69 59 70 61 71 4 72 2 73
REMARK SMILES IDX 1 75 3 76
REMARK H PARENT 31 24 18 32 20 34 33 36 35 38 37 40 40 44 7 46 44 49 46 52
REMARK H PARENT 48 56 4 74
REMARK Flexibility Score: inf
ROOT
ATOM      1  C   UNL     1      13.832  30.390  21.154  1.00  0.00     0.272 C 
ATOM      2  C   UNL     1      12.677  30.581  22.031  1.00  0.00     0.113 C 
ATOM      3  C   UNL     1      12.835  31.409  23.262  1.00  0.00     0.145 C 
ATOM      4  C   UNL     1      14.242  31.909  23.471  1.00  0.00     0.142 C 
ATOM      5  C   UNL     1      15.144  30.774  22.960  1.00  0.00     0.178 C 
ATOM      6  O   UNL     1      15.068  30.862  21.602  1.00  0.00    -0.332 OA
ENDROOT
BRANCH   1   7
ATOM      7  O   UNL     1      13.761  30.738  19.840  1.00  0.00    -0.338 OA
BRANCH   7   8
ATOM      8  C   UNL     1      14.593  31.585  19.237  1.00  0.00     0.199 C 
BRANCH   8   9
ATOM      9  C   UNL     1      15.484  31.115  18.136  1.00  0.00     0.179 C 
ATOM     10  C   UNL     1      17.374  29.854  17.725  1.00  0.00     0.282 C 
ATOM     11  O   UNL     1      16.411  30.207  18.687  1.00  0.00    -0.341 OA
ATOM     12  C   UNL     1      16.695  29.175  16.576  1.00  0.00     0.202 C 
ATOM     13  C   UNL     1      15.489  29.853  16.006  1.00  0.00     0.179 C 
ATOM     14  C   UNL     1      14.609  30.303  17.151  1.00  0.00     0.177 C 
BRANCH  10  15
ATOM     15  O   UNL     1      18.157  28.917  18.346  1.00  0.00    -0.341 OA
BRANCH  15  16
ATOM     16  C   UNL     1      19.412  29.318  18.803  1.00  0.00     0.184 C 
ATOM     17  C   UNL     1      20.154  30.179  17.892  1.00  0.00     0.178 C 
ATOM     18  O   UNL     1      21.469  29.820  17.713  1.00  0.00    -0.341 OA
ATOM     19  C   UNL     1      21.714  28.450  17.733  1.00  0.00     0.281 C 
ATOM     20  C   UNL     1      20.035  28.100  19.392  1.00  0.00     0.180 C 
ATOM     21  C   UNL     1      21.519  28.071  19.197  1.00  0.00     0.202 C 
BRANCH  17  22
ATOM     22  C   UNL     1      20.215  31.619  18.431  1.00  0.00     0.191 C 
BRANCH  22  23
ATOM     23  O   UNL     1      19.613  31.600  19.714  1.00  0.00    -0.394 OA
ATOM     24  H   UNL     1      19.044  30.812  19.785  1.00  0.00     0.210 HD
ENDBRANCH  22  23
ENDBRANCH  17  22
BRANCH  19  25
ATOM     25  O   UNL     1      23.009  28.235  17.360  1.00  0.00    -0.350 OA
BRANCH  25  26
ATOM     26  C   UNL     1      23.206  27.487  16.227  1.00  0.00     0.169 C 
BRANCH  26  27
ATOM     27  C   UNL     1      21.993  26.746  15.730  1.00  0.00     0.119 C 
BRANCH  27  28
ATOM     28  N   UNL     1      21.987  25.436  16.400  1.00  0.00    -0.092 NA
ATOM     29  N   UNL     1      22.845  24.616  16.010  1.00  0.00     0.001 N 
ATOM     30  N   UNL     1      23.879  23.926  15.987  1.00  0.00    -0.003 NA
ENDBRANCH  27  28
ENDBRANCH  26  27
ENDBRANCH  25  26
ENDBRANCH  19  25
BRANCH  20  31
ATOM     31  O   UNL     1      19.698  27.988  20.755  1.00  0.00    -0.387 OA
ATOM     32  H   UNL     1      19.044  27.247  20.807  1.00  0.00     0.211 HD
ENDBRANCH  20  31
BRANCH  21  33
ATOM     33  O   UNL     1      21.956  26.757  19.400  1.00  0.00    -0.385 OA
ATOM     34  H   UNL     1      22.370  26.381  18.606  1.00  0.00     0.211 HD
ENDBRANCH  21  33
ENDBRANCH  15  16
ENDBRANCH  10  15
BRANCH  12  35
ATOM     35  O   UNL     1      17.572  29.000  15.494  1.00  0.00    -0.385 OA
ATOM     36  H   UNL     1      18.127  28.195  15.599  1.00  0.00     0.211 HD
ENDBRANCH  12  35
BRANCH  13  37
ATOM     37  O   UNL     1      14.763  28.914  15.271  1.00  0.00    -0.387 OA
ATOM     38  H   UNL     1      14.335  29.272  14.475  1.00  0.00     0.211 HD
ENDBRANCH  13  37
BRANCH  14  39
ATOM     39  O   UNL     1      14.306  29.129  17.880  1.00  0.00    -0.387 OA
ATOM     40  H   UNL     1      13.394  28.827  17.749  1.00  0.00     0.211 HD
ENDBRANCH  14  39
ENDBRANCH   8   9
ENDBRANCH   7   8
ENDBRANCH   1   7
BRANCH   1  41
ATOM     41  C   UNL     1      14.070  28.873  21.098  1.00  0.00     0.364 C 
ATOM     42  O   UNL     1      13.276  28.048  21.583  1.00  0.00    -0.246 OA
BRANCH  41  43
ATOM     43  O   UNL     1      15.228  28.394  20.474  1.00  0.00    -0.477 OA
ATOM     44  H   UNL     1      15.719  29.023  19.828  1.00  0.00     0.296 HD
ENDBRANCH  41  43
ENDBRANCH   1  41
BRANCH   3  45
ATOM     45  O   UNL     1      11.969  32.486  23.328  1.00  0.00    -0.391 OA
ATOM     46  H   UNL     1      11.835  32.914  22.451  1.00  0.00     0.211 HD
ENDBRANCH   3  45
BRANCH   5  47
ATOM     47  C   UNL     1      16.545  30.876  23.539  1.00  0.00     0.176 C 
BRANCH  47  48
ATOM     48  O   UNL     1      16.842  29.543  23.925  1.00  0.00    -0.388 OA
ATOM     49  H   UNL     1      16.158  29.280  24.611  1.00  0.00     0.211 HD
ENDBRANCH  47  48
BRANCH  47  50
ATOM     50  C   UNL     1      17.512  31.202  22.421  1.00  0.00     0.165 C 
BRANCH  50  51
ATOM     51  O   UNL     1      17.677  30.093  21.607  1.00  0.00    -0.388 OA
ATOM     52  H   UNL     1      18.108  29.334  22.060  1.00  0.00     0.211 HD
ENDBRANCH  50  51
BRANCH  50  53
ATOM     53  C   UNL     1      18.881  31.525  23.029  1.00  0.00     0.154 C 
BRANCH  53  54
ATOM     54  N   UNL     1      19.828  30.467  22.812  1.00  0.00    -0.319 N 
ATOM     55  C   UNL     1      20.277  29.551  23.776  1.00  0.00     0.407 C 
ATOM     56  H   UNL     1      20.233  30.364  21.828  1.00  0.00     0.167 HD
ATOM     57  O   UNL     1      19.826  29.599  24.945  1.00  0.00    -0.225 OA
BRANCH  55  58
ATOM     58  O   UNL     1      21.242  28.551  23.466  1.00  0.00    -0.443 OA
BRANCH  58  59
ATOM     59  C   UNL     1      21.018  27.224  23.861  1.00  0.00     0.294 C 
BRANCH  59  60
ATOM     60  C   UNL     1      21.608  26.212  22.946  1.00  0.00     0.121 A 
ATOM     61  C   UNL     1      22.962  25.902  22.784  1.00  0.00     0.144 A 
ATOM     62  N   UNL     1      20.991  25.395  22.076  1.00  0.00    -0.131 NA
ATOM     63  N   UNL     1      23.099  24.941  21.852  1.00  0.00    -0.220 N 
ATOM     64  N   UNL     1      21.898  24.643  21.431  1.00  0.00    -0.062 NA
BRANCH  63  65
ATOM     65  C   UNL     1      24.361  24.419  21.457  1.00  0.00     0.068 A 
ATOM     66  C   UNL     1      25.196  23.721  22.298  1.00  0.00     0.028 A 
ATOM     67  C   UNL     1      24.821  24.602  20.142  1.00  0.00     0.049 A 
ATOM     68  C   UNL     1      26.423  23.229  21.863  1.00  0.00     0.004 A 
ATOM     69  C   UNL     1      26.033  24.116  19.715  1.00  0.00     0.043 A 
ATOM     70  C   UNL     1      26.858  23.419  20.569  1.00  0.00     0.020 A 
ATOM     71  Cl  UNL     1      26.593  24.353  18.066  1.00  0.00    -0.084 Cl
ENDBRANCH  63  65
ENDBRANCH  59  60
ENDBRANCH  58  59
ENDBRANCH  55  58
ENDBRANCH  53  54
ENDBRANCH  50  53
ENDBRANCH  47  50
ENDBRANCH   5  47
BRANCH   4  72
ATOM     72  N   UNL     1      14.512  32.285  24.820  1.00  0.00    -0.348 N 
ATOM     73  C   UNL     1      13.928  31.575  25.928  1.00  0.00     0.217 C 
ATOM     74  H   UNL     1      15.136  33.075  25.109  1.00  0.00     0.163 HD
ATOM     75  C   UNL     1      14.191  31.942  27.327  1.00  0.00     0.114 C 
ATOM     76  O   UNL     1      13.171  30.613  25.677  1.00  0.00    -0.275 OA
ENDBRANCH   4  72
TORSDOF 30
