REMARK VINA RESULT:    -6.230      9.444     14.422
REMARK INTER + INTRA:         -21.563
REMARK INTER:                 -13.689
REMARK INTRA:                  -7.874
REMARK UNBOUND:                -5.863
REMARK SMILES CC(=O)N[C@@H]1[C@@H](O)C[C@](OC[C@H]2O[C@@H](O[C@H]3[C@H](O)[C@@H](O)[C@H](OCCN=[N+]=[N-])O[C@@H]3CO)[C@H](O)[C@@H](O)[C@H]2O)(C(=O)O)O[C@H]1C(O)[C@H](O)CNC(=O)OCc1cn(-c2ncccc2C#N)nn1
REMARK SMILES IDX 9 1 8 2 6 3 5 4 42 5 41 6 10 7 11 8 12 9 14 10 13 11 32 12
REMARK SMILES IDX 34 13 36 14 15 15 16 16 29 17 28 18 21 19 17 20 19 21 30 22
REMARK SMILES IDX 31 23 22 25 23 26 24 27 25 28 26 29 27 30 18 31 20 33 33 35
REMARK SMILES IDX 35 37 37 39 38 41 39 42 40 43 7 45 43 47 44 48 45 50 46 51
REMARK SMILES IDX 47 53 48 54 49 55 50 57 51 58 52 59 53 60 54 61 65 62 55 63
REMARK SMILES IDX 64 64 56 65 57 66 61 67 58 68 60 69 59 70 62 71 63 72 4 73
REMARK SMILES IDX 2 74 1 76 3 77
REMARK H PARENT 31 24 18 32 20 34 33 36 35 38 37 40 40 44 7 46 44 49 46 52
REMARK H PARENT 48 56 4 75
REMARK Flexibility Score: inf
ROOT
ATOM      1  C   UNL     1      21.608  22.341  12.005  1.00  0.00     0.272 C 
ATOM      2  C   UNL     1      20.214  22.011  12.333  1.00  0.00     0.113 C 
ATOM      3  C   UNL     1      19.707  20.812  11.633  1.00  0.00     0.145 C 
ATOM      4  C   UNL     1      20.714  19.767  11.279  1.00  0.00     0.142 C 
ATOM      5  C   UNL     1      22.119  20.008  11.752  1.00  0.00     0.178 C 
ATOM      6  O   UNL     1      22.462  21.268  11.893  1.00  0.00    -0.332 OA
ENDROOT
BRANCH   1   7
ATOM      7  O   UNL     1      22.298  23.229  12.727  1.00  0.00    -0.338 OA
BRANCH   7   8
ATOM      8  C   UNL     1      23.334  23.984  12.525  1.00  0.00     0.199 C 
BRANCH   8   9
ATOM      9  C   UNL     1      23.533  24.829  13.789  1.00  0.00     0.179 C 
ATOM     10  C   UNL     1      22.550  25.561  15.696  1.00  0.00     0.282 C 
ATOM     11  O   UNL     1      22.325  25.188  14.320  1.00  0.00    -0.341 OA
ATOM     12  C   UNL     1      22.824  24.343  16.501  1.00  0.00     0.202 C 
ATOM     13  C   UNL     1      23.948  23.513  15.874  1.00  0.00     0.179 C 
ATOM     14  C   UNL     1      24.525  24.285  14.748  1.00  0.00     0.177 C 
BRANCH  10  15
ATOM     15  O   UNL     1      21.505  26.275  16.170  1.00  0.00    -0.341 OA
BRANCH  15  16
ATOM     16  C   UNL     1      21.582  27.628  15.996  1.00  0.00     0.184 C 
ATOM     17  C   UNL     1      23.065  28.046  15.775  1.00  0.00     0.178 C 
ATOM     18  O   UNL     1      23.484  28.753  16.900  1.00  0.00    -0.341 OA
ATOM     19  C   UNL     1      23.263  28.004  18.066  1.00  0.00     0.281 C 
ATOM     20  C   UNL     1      21.040  28.444  17.140  1.00  0.00     0.180 C 
ATOM     21  C   UNL     1      21.806  28.097  18.422  1.00  0.00     0.202 C 
BRANCH  17  22
ATOM     22  C   UNL     1      23.149  28.857  14.522  1.00  0.00     0.191 C 
BRANCH  22  23
ATOM     23  O   UNL     1      22.485  28.236  13.448  1.00  0.00    -0.394 OA
ATOM     24  H   UNL     1      22.251  27.299  13.652  1.00  0.00     0.210 HD
ENDBRANCH  22  23
ENDBRANCH  17  22
BRANCH  19  25
ATOM     25  O   UNL     1      24.089  28.528  19.034  1.00  0.00    -0.350 OA
BRANCH  25  26
ATOM     26  C   UNL     1      23.871  27.918  20.283  1.00  0.00     0.169 C 
BRANCH  26  27
ATOM     27  C   UNL     1      25.178  27.771  21.034  1.00  0.00     0.119 C 
BRANCH  27  28
ATOM     28  N   UNL     1      25.268  26.358  21.427  1.00  0.00    -0.092 NA
ATOM     29  N   UNL     1      25.511  25.554  20.490  1.00  0.00     0.001 N 
ATOM     30  N   UNL     1      25.387  24.691  19.607  1.00  0.00    -0.003 NA
ENDBRANCH  27  28
ENDBRANCH  26  27
ENDBRANCH  25  26
ENDBRANCH  19  25
BRANCH  20  31
ATOM     31  O   UNL     1      21.105  29.799  16.915  1.00  0.00    -0.387 OA
ATOM     32  H   UNL     1      20.266  30.283  16.840  1.00  0.00     0.211 HD
ENDBRANCH  20  31
BRANCH  21  33
ATOM     33  O   UNL     1      21.317  26.909  18.955  1.00  0.00    -0.385 OA
ATOM     34  H   UNL     1      20.343  26.878  18.746  1.00  0.00     0.211 HD
ENDBRANCH  21  33
ENDBRANCH  15  16
ENDBRANCH  10  15
BRANCH  12  35
ATOM     35  O   UNL     1      23.183  24.677  17.795  1.00  0.00    -0.385 OA
ATOM     36  H   UNL     1      22.464  25.292  18.157  1.00  0.00     0.211 HD
ENDBRANCH  12  35
BRANCH  13  37
ATOM     37  O   UNL     1      23.416  22.275  15.440  1.00  0.00    -0.387 OA
ATOM     38  H   UNL     1      22.547  22.424  14.971  1.00  0.00     0.211 HD
ENDBRANCH  13  37
BRANCH  14  39
ATOM     39  O   UNL     1      25.529  23.602  14.056  1.00  0.00    -0.387 OA
ATOM     40  H   UNL     1      25.967  24.220  13.387  1.00  0.00     0.211 HD
ENDBRANCH  14  39
ENDBRANCH   8   9
ENDBRANCH   7   8
ENDBRANCH   1   7
BRANCH   1  41
ATOM     41  C   UNL     1      21.557  22.938  10.600  1.00  0.00     0.364 C 
ATOM     42  O   UNL     1      22.320  22.651   9.693  1.00  0.00    -0.246 OA
BRANCH  41  43
ATOM     43  O   UNL     1      20.564  23.894  10.307  1.00  0.00    -0.477 OA
ATOM     44  H   UNL     1      20.403  24.705  10.885  1.00  0.00     0.296 HD
ENDBRANCH  41  43
ENDBRANCH   1  41
BRANCH   3  45
ATOM     45  O   UNL     1      18.615  20.258  12.327  1.00  0.00    -0.391 OA
ATOM     46  H   UNL     1      18.437  20.915  13.078  1.00  0.00     0.211 HD
ENDBRANCH   3  45
BRANCH   5  47
ATOM     47  C   UNL     1      22.446  19.139  13.001  1.00  0.00     0.176 C 
BRANCH  47  48
ATOM     48  O   UNL     1      22.957  20.046  13.976  1.00  0.00    -0.388 OA
ATOM     49  H   UNL     1      23.513  20.726  13.560  1.00  0.00     0.211 HD
ENDBRANCH  47  48
BRANCH  47  50
ATOM     50  C   UNL     1      23.442  18.114  12.826  1.00  0.00     0.165 C 
BRANCH  50  51
ATOM     51  O   UNL     1      24.512  18.084  13.754  1.00  0.00    -0.388 OA
ATOM     52  H   UNL     1      25.300  18.566  13.349  1.00  0.00     0.211 HD
ENDBRANCH  50  51
BRANCH  50  53
ATOM     53  C   UNL     1      24.135  18.123  11.501  1.00  0.00     0.154 C 
BRANCH  53  54
ATOM     54  N   UNL     1      25.234  18.976  11.276  1.00  0.00    -0.319 N 
ATOM     55  C   UNL     1      26.598  18.687  11.244  1.00  0.00     0.407 C 
ATOM     56  H   UNL     1      25.006  20.030  11.103  1.00  0.00     0.167 HD
ATOM     57  O   UNL     1      26.950  17.496  11.429  1.00  0.00    -0.225 OA
BRANCH  55  58
ATOM     58  O   UNL     1      27.525  19.721  11.003  1.00  0.00    -0.443 OA
BRANCH  58  59
ATOM     59  C   UNL     1      27.311  20.967  11.596  1.00  0.00     0.294 C 
BRANCH  59  60
ATOM     60  C   UNL     1      27.034  20.874  13.017  1.00  0.00     0.121 A 
ATOM     61  C   UNL     1      27.941  20.733  13.997  1.00  0.00     0.146 A 
ATOM     62  N   UNL     1      25.768  20.847  13.621  1.00  0.00    -0.131 NA
ATOM     63  N   UNL     1      27.331  20.619  15.170  1.00  0.00    -0.201 N 
ATOM     64  N   UNL     1      26.068  20.695  14.877  1.00  0.00    -0.060 NA
BRANCH  63  65
ATOM     65  C   UNL     1      27.851  20.512  16.478  1.00  0.00     0.173 A 
ATOM     66  N   UNL     1      28.222  19.262  16.862  1.00  0.00    -0.236 NA
ATOM     67  C   UNL     1      27.845  21.589  17.373  1.00  0.00     0.097 A 
ATOM     68  C   UNL     1      28.605  19.072  18.243  1.00  0.00     0.113 A 
ATOM     69  C   UNL     1      28.215  21.329  18.675  1.00  0.00     0.025 A 
ATOM     70  C   UNL     1      28.573  20.103  19.051  1.00  0.00     0.022 A 
BRANCH  67  71
ATOM     71  C   UNL     1      27.571  22.945  17.018  1.00  0.00     0.103 C 
ATOM     72  N   UNL     1      27.339  24.088  16.696  1.00  0.00    -0.192 NA
ENDBRANCH  67  71
ENDBRANCH  63  65
ENDBRANCH  59  60
ENDBRANCH  58  59
ENDBRANCH  55  58
ENDBRANCH  53  54
ENDBRANCH  50  53
ENDBRANCH  47  50
ENDBRANCH   5  47
BRANCH   4  73
ATOM     73  N   UNL     1      20.530  19.504   9.869  1.00  0.00    -0.348 N 
ATOM     74  C   UNL     1      19.468  18.841   9.247  1.00  0.00     0.217 C 
ATOM     75  H   UNL     1      21.307  19.841   9.192  1.00  0.00     0.163 HD
ATOM     76  C   UNL     1      19.422  18.702   7.737  1.00  0.00     0.114 C 
ATOM     77  O   UNL     1      18.496  18.326   9.842  1.00  0.00    -0.275 OA
ENDBRANCH   4  73
TORSDOF 31
