REMARK VINA RESULT:    -5.129      4.401      8.679
REMARK INTER + INTRA:         -21.349
REMARK INTER:                 -14.978
REMARK INTRA:                  -6.370
REMARK UNBOUND:                -8.275
REMARK SMILES CC(=O)N[C@@H]1[C@@H](O)C[C@](OC[C@H]2O[C@@H](O[C@H]3[C@H](O)[C@@H](O)[C@H](OCCN=[N+]=[N-])O[C@@H]3CO)[C@H](O)[C@@H](O)[C@H]2O)(C(=O)O)O[C@H]1C(O)[C@H](O)CNC(=O)OCc1cn(C(C)(C)C(=O)O)nn1
REMARK SMILES IDX 9 1 8 2 6 3 5 4 42 5 41 6 10 7 11 8 12 9 14 10 13 11 32 12
REMARK SMILES IDX 34 13 36 14 15 15 16 16 29 17 28 18 21 19 17 20 19 21 30 22
REMARK SMILES IDX 31 23 22 25 23 26 24 27 25 28 26 29 27 30 18 31 20 33 33 35
REMARK SMILES IDX 35 37 37 39 38 41 39 42 40 43 7 45 43 47 44 48 45 50 46 51
REMARK SMILES IDX 47 53 48 54 49 55 50 57 51 58 52 59 53 60 54 61 63 62 55 63
REMARK SMILES IDX 62 64 56 65 57 66 58 67 59 68 60 69 61 70 4 72 2 73 1 75
REMARK SMILES IDX 3 76
REMARK H PARENT 31 24 18 32 20 34 33 36 35 38 37 40 40 44 7 46 44 49 46 52
REMARK H PARENT 48 56 61 71 4 74
REMARK Flexibility Score: inf
ROOT
ATOM      1  C   UNL     1      17.699  31.793  24.995  1.00  0.00     0.272 C 
ATOM      2  C   UNL     1      18.330  32.997  24.428  1.00  0.00     0.113 C 
ATOM      3  C   UNL     1      18.633  32.925  22.958  1.00  0.00     0.145 C 
ATOM      4  C   UNL     1      18.822  31.498  22.542  1.00  0.00     0.142 C 
ATOM      5  C   UNL     1      19.369  30.775  23.787  1.00  0.00     0.178 C 
ATOM      6  O   UNL     1      18.306  30.584  24.640  1.00  0.00    -0.332 OA
ENDROOT
BRANCH   1   7
ATOM      7  O   UNL     1      16.366  31.673  24.749  1.00  0.00    -0.338 OA
BRANCH   7   8
ATOM      8  C   UNL     1      15.920  30.565  24.100  1.00  0.00     0.199 C 
BRANCH   8   9
ATOM      9  C   UNL     1      14.893  30.918  23.047  1.00  0.00     0.179 C 
ATOM     10  C   UNL     1      14.667  31.102  20.757  1.00  0.00     0.282 C 
ATOM     11  O   UNL     1      15.457  30.547  21.828  1.00  0.00    -0.341 OA
ATOM     12  C   UNL     1      13.392  30.348  20.754  1.00  0.00     0.202 C 
ATOM     13  C   UNL     1      13.253  29.450  21.982  1.00  0.00     0.179 C 
ATOM     14  C   UNL     1      13.610  30.204  23.254  1.00  0.00     0.177 C 
BRANCH  10  15
ATOM     15  O   UNL     1      15.488  31.004  19.675  1.00  0.00    -0.341 OA
BRANCH  15  16
ATOM     16  C   UNL     1      15.186  29.978  18.796  1.00  0.00     0.184 C 
ATOM     17  C   UNL     1      16.404  29.142  18.558  1.00  0.00     0.178 C 
ATOM     18  O   UNL     1      16.309  28.426  17.355  1.00  0.00    -0.341 OA
ATOM     19  C   UNL     1      16.462  29.233  16.238  1.00  0.00     0.281 C 
ATOM     20  C   UNL     1      14.753  30.545  17.443  1.00  0.00     0.180 C 
ATOM     21  C   UNL     1      15.942  30.626  16.520  1.00  0.00     0.202 C 
BRANCH  17  22
ATOM     22  C   UNL     1      16.561  28.057  19.636  1.00  0.00     0.191 C 
BRANCH  22  23
ATOM     23  O   UNL     1      17.086  28.664  20.759  1.00  0.00    -0.394 OA
ATOM     24  H   UNL     1      16.416  28.589  21.502  1.00  0.00     0.210 HD
ENDBRANCH  22  23
ENDBRANCH  17  22
BRANCH  19  25
ATOM     25  O   UNL     1      15.741  28.621  15.214  1.00  0.00    -0.350 OA
BRANCH  25  26
ATOM     26  C   UNL     1      15.856  29.222  13.987  1.00  0.00     0.169 C 
BRANCH  26  27
ATOM     27  C   UNL     1      14.424  29.378  13.454  1.00  0.00     0.119 C 
BRANCH  27  28
ATOM     28  N   UNL     1      13.512  28.440  14.064  1.00  0.00    -0.092 NA
ATOM     29  N   UNL     1      12.579  27.997  13.376  1.00  0.00     0.001 N 
ATOM     30  N   UNL     1      11.543  27.768  12.768  1.00  0.00    -0.003 NA
ENDBRANCH  27  28
ENDBRANCH  26  27
ENDBRANCH  25  26
ENDBRANCH  19  25
BRANCH  20  31
ATOM     31  O   UNL     1      13.819  29.691  16.865  1.00  0.00    -0.387 OA
ATOM     32  H   UNL     1      13.882  29.660  15.878  1.00  0.00     0.211 HD
ENDBRANCH  20  31
BRANCH  21  33
ATOM     33  O   UNL     1      16.905  31.425  17.124  1.00  0.00    -0.385 OA
ATOM     34  H   UNL     1      17.686  31.604  16.548  1.00  0.00     0.211 HD
ENDBRANCH  21  33
ENDBRANCH  15  16
ENDBRANCH  10  15
BRANCH  12  35
ATOM     35  O   UNL     1      12.332  31.274  20.875  1.00  0.00    -0.385 OA
ATOM     36  H   UNL     1      12.317  31.951  20.182  1.00  0.00     0.211 HD
ENDBRANCH  12  35
BRANCH  13  37
ATOM     37  O   UNL     1      14.019  28.309  21.833  1.00  0.00    -0.387 OA
ATOM     38  H   UNL     1      13.707  27.597  22.449  1.00  0.00     0.211 HD
ENDBRANCH  13  37
BRANCH  14  39
ATOM     39  O   UNL     1      13.714  29.262  24.264  1.00  0.00    -0.387 OA
ATOM     40  H   UNL     1      13.091  29.533  24.997  1.00  0.00     0.211 HD
ENDBRANCH  14  39
ENDBRANCH   8   9
ENDBRANCH   7   8
ENDBRANCH   1   7
BRANCH   1  41
ATOM     41  C   UNL     1      17.938  31.851  26.509  1.00  0.00     0.364 C 
ATOM     42  O   UNL     1      17.309  31.090  27.275  1.00  0.00    -0.246 OA
BRANCH  41  43
ATOM     43  O   UNL     1      18.844  32.739  27.055  1.00  0.00    -0.477 OA
ATOM     44  H   UNL     1      19.556  33.215  26.525  1.00  0.00     0.296 HD
ENDBRANCH  41  43
ENDBRANCH   1  41
BRANCH   3  45
ATOM     45  O   UNL     1      17.582  33.468  22.250  1.00  0.00    -0.391 OA
ATOM     46  H   UNL     1      17.861  34.229  21.677  1.00  0.00     0.211 HD
ENDBRANCH   3  45
BRANCH   5  47
ATOM     47  C   UNL     1      20.010  29.465  23.426  1.00  0.00     0.176 C 
BRANCH  47  48
ATOM     48  O   UNL     1      19.578  29.068  22.163  1.00  0.00    -0.388 OA
ATOM     49  H   UNL     1      19.909  29.702  21.460  1.00  0.00     0.211 HD
ENDBRANCH  47  48
BRANCH  47  50
ATOM     50  C   UNL     1      21.512  29.623  23.379  1.00  0.00     0.165 C 
BRANCH  50  51
ATOM     51  O   UNL     1      22.037  29.068  22.204  1.00  0.00    -0.388 OA
ATOM     52  H   UNL     1      23.017  29.071  22.277  1.00  0.00     0.211 HD
ENDBRANCH  50  51
BRANCH  50  53
ATOM     53  C   UNL     1      22.205  28.986  24.554  1.00  0.00     0.154 C 
BRANCH  53  54
ATOM     54  N   UNL     1      22.336  27.560  24.383  1.00  0.00    -0.319 N 
ATOM     55  C   UNL     1      21.457  26.652  25.021  1.00  0.00     0.407 C 
ATOM     56  H   UNL     1      23.090  27.175  23.781  1.00  0.00     0.167 HD
ATOM     57  O   UNL     1      20.519  27.039  25.764  1.00  0.00    -0.225 OA
BRANCH  55  58
ATOM     58  O   UNL     1      21.596  25.267  24.850  1.00  0.00    -0.443 OA
BRANCH  58  59
ATOM     59  C   UNL     1      20.929  24.639  23.751  1.00  0.00     0.294 C 
BRANCH  59  60
ATOM     60  C   UNL     1      21.347  25.218  22.475  1.00  0.00     0.120 A 
ATOM     61  C   UNL     1      22.409  24.817  21.706  1.00  0.00     0.139 A 
ATOM     62  N   UNL     1      20.767  26.240  21.840  1.00  0.00    -0.132 NA
ATOM     63  N   UNL     1      22.457  25.604  20.613  1.00  0.00    -0.235 N 
ATOM     64  N   UNL     1      21.435  26.457  20.739  1.00  0.00    -0.066 NA
BRANCH  63  65
ATOM     65  C   UNL     1      23.388  25.584  19.504  1.00  0.00     0.155 C 
ATOM     66  C   UNL     1      24.570  24.720  19.829  1.00  0.00     0.049 C 
ATOM     67  C   UNL     1      23.902  26.989  19.205  1.00  0.00     0.049 C 
BRANCH  65  68
ATOM     68  C   UNL     1      22.659  25.108  18.307  1.00  0.00     0.331 C 
ATOM     69  O   UNL     1      22.349  25.919  17.422  1.00  0.00    -0.250 OA
BRANCH  68  70
ATOM     70  O   UNL     1      22.341  23.765  18.206  1.00  0.00    -0.479 OA
ATOM     71  H   UNL     1      21.867  23.373  17.401  1.00  0.00     0.296 HD
ENDBRANCH  68  70
ENDBRANCH  65  68
ENDBRANCH  63  65
ENDBRANCH  59  60
ENDBRANCH  58  59
ENDBRANCH  55  58
ENDBRANCH  53  54
ENDBRANCH  50  53
ENDBRANCH  47  50
ENDBRANCH   5  47
BRANCH   4  72
ATOM     72  N   UNL     1      19.824  31.342  21.521  1.00  0.00    -0.348 N 
ATOM     73  C   UNL     1      19.579  31.513  20.129  1.00  0.00     0.217 C 
ATOM     74  H   UNL     1      20.789  31.091  21.814  1.00  0.00     0.163 HD
ATOM     75  C   UNL     1      20.679  31.331  19.132  1.00  0.00     0.114 C 
ATOM     76  O   UNL     1      18.421  31.821  19.742  1.00  0.00    -0.275 OA
ENDBRANCH   4  72
TORSDOF 32
