REMARK VINA RESULT:    -5.901      2.433      7.440
REMARK INTER + INTRA:         -21.122
REMARK INTER:                 -13.328
REMARK INTRA:                  -7.794
REMARK UNBOUND:                -6.597
REMARK SMILES CC(=O)N[C@@H]1[C@@H](O)C[C@](OC[C@H]2O[C@@H](O[C@H]3[C@H](O)[C@@H](O)[C@H](OCCN=[N+]=[N-])O[C@@H]3CO)[C@H](O)[C@@H](O)[C@H]2O)(C(=O)O)O[C@H]1C(O)[C@H](O)CNC(=O)OCc1cn(-c2ccccc2)nn1
REMARK SMILES IDX 9 1 8 2 6 3 5 4 42 5 41 6 10 7 11 8 12 9 14 10 13 11 32 12
REMARK SMILES IDX 34 13 36 14 15 15 16 16 29 17 28 18 21 19 17 20 19 21 30 22
REMARK SMILES IDX 31 23 22 25 23 26 24 27 25 28 26 29 27 30 18 31 20 33 33 35
REMARK SMILES IDX 35 37 37 39 38 41 39 42 40 43 7 45 43 47 44 48 45 50 46 51
REMARK SMILES IDX 47 53 48 54 49 55 50 57 51 58 52 59 53 60 54 61 63 62 55 63
REMARK SMILES IDX 62 64 56 65 57 66 61 67 58 68 60 69 59 70 4 71 2 72 1 74
REMARK SMILES IDX 3 75
REMARK H PARENT 31 24 18 32 20 34 33 36 35 38 37 40 40 44 7 46 44 49 46 52
REMARK H PARENT 48 56 4 73
REMARK Flexibility Score: inf
ROOT
ATOM      1  C   UNL     1      15.814  29.426  19.901  1.00  0.00     0.272 C 
ATOM      2  C   UNL     1      14.427  29.107  20.319  1.00  0.00     0.113 C 
ATOM      3  C   UNL     1      14.229  28.943  21.779  1.00  0.00     0.145 C 
ATOM      4  C   UNL     1      15.003  30.001  22.544  1.00  0.00     0.142 C 
ATOM      5  C   UNL     1      16.450  29.834  22.139  1.00  0.00     0.178 C 
ATOM      6  O   UNL     1      16.518  30.248  20.834  1.00  0.00    -0.332 OA
ENDROOT
BRANCH   1   7
ATOM      7  O   UNL     1      15.926  30.152  18.751  1.00  0.00    -0.338 OA
BRANCH   7   8
ATOM      8  C   UNL     1      16.331  29.667  17.592  1.00  0.00     0.199 C 
BRANCH   8   9
ATOM      9  C   UNL     1      17.581  30.088  16.924  1.00  0.00     0.179 C 
ATOM     10  C   UNL     1      19.811  30.505  17.470  1.00  0.00     0.282 C 
ATOM     11  O   UNL     1      18.514  30.303  17.989  1.00  0.00    -0.341 OA
ATOM     12  C   UNL     1      19.865  30.635  15.984  1.00  0.00     0.202 C 
ATOM     13  C   UNL     1      19.294  29.410  15.304  1.00  0.00     0.179 C 
ATOM     14  C   UNL     1      18.149  28.904  16.132  1.00  0.00     0.177 C 
BRANCH  10  15
ATOM     15  O   UNL     1      20.573  29.462  17.851  1.00  0.00    -0.341 OA
BRANCH  15  16
ATOM     16  C   UNL     1      21.100  29.370  19.086  1.00  0.00     0.184 C 
ATOM     17  C   UNL     1      22.570  29.704  19.189  1.00  0.00     0.178 C 
ATOM     18  O   UNL     1      23.031  29.033  20.338  1.00  0.00    -0.341 OA
ATOM     19  C   UNL     1      23.294  27.714  19.910  1.00  0.00     0.281 C 
ATOM     20  C   UNL     1      20.878  28.000  19.729  1.00  0.00     0.180 C 
ATOM     21  C   UNL     1      22.025  27.073  19.385  1.00  0.00     0.202 C 
BRANCH  17  22
ATOM     22  C   UNL     1      22.811  31.181  19.419  1.00  0.00     0.191 C 
BRANCH  22  23
ATOM     23  O   UNL     1      24.111  31.484  19.004  1.00  0.00    -0.394 OA
ATOM     24  H   UNL     1      24.686  31.767  19.782  1.00  0.00     0.210 HD
ENDBRANCH  22  23
ENDBRANCH  17  22
BRANCH  19  25
ATOM     25  O   UNL     1      23.798  26.937  20.907  1.00  0.00    -0.350 OA
BRANCH  25  26
ATOM     26  C   UNL     1      24.014  25.613  20.639  1.00  0.00     0.169 C 
BRANCH  26  27
ATOM     27  C   UNL     1      24.056  24.718  21.836  1.00  0.00     0.119 C 
BRANCH  27  28
ATOM     28  N   UNL     1      22.843  24.008  22.014  1.00  0.00    -0.092 NA
ATOM     29  N   UNL     1      21.735  24.575  21.981  1.00  0.00     0.001 N 
ATOM     30  N   UNL     1      20.784  25.326  22.250  1.00  0.00    -0.003 NA
ENDBRANCH  27  28
ENDBRANCH  26  27
ENDBRANCH  25  26
ENDBRANCH  19  25
BRANCH  20  31
ATOM     31  O   UNL     1      20.800  28.056  21.114  1.00  0.00    -0.387 OA
ATOM     32  H   UNL     1      20.746  28.988  21.438  1.00  0.00     0.211 HD
ENDBRANCH  20  31
BRANCH  21  33
ATOM     33  O   UNL     1      22.120  26.827  18.030  1.00  0.00    -0.385 OA
ATOM     34  H   UNL     1      22.624  27.514  17.538  1.00  0.00     0.211 HD
ENDBRANCH  21  33
ENDBRANCH  15  16
ENDBRANCH  10  15
BRANCH  12  35
ATOM     35  O   UNL     1      19.370  31.833  15.485  1.00  0.00    -0.385 OA
ATOM     36  H   UNL     1      18.991  32.338  16.249  1.00  0.00     0.211 HD
ENDBRANCH  12  35
BRANCH  13  37
ATOM     37  O   UNL     1      20.272  28.433  15.256  1.00  0.00    -0.387 OA
ATOM     38  H   UNL     1      20.954  28.575  14.553  1.00  0.00     0.211 HD
ENDBRANCH  13  37
BRANCH  14  39
ATOM     39  O   UNL     1      18.596  27.980  17.104  1.00  0.00    -0.387 OA
ATOM     40  H   UNL     1      19.557  28.074  17.270  1.00  0.00     0.211 HD
ENDBRANCH  14  39
ENDBRANCH   8   9
ENDBRANCH   7   8
ENDBRANCH   1   7
BRANCH   1  41
ATOM     41  C   UNL     1      16.636  28.195  19.902  1.00  0.00     0.364 C 
ATOM     42  O   UNL     1      16.152  27.088  19.668  1.00  0.00    -0.246 OA
BRANCH  41  43
ATOM     43  O   UNL     1      18.017  28.266  20.179  1.00  0.00    -0.477 OA
ATOM     44  H   UNL     1      18.311  28.268  21.154  1.00  0.00     0.296 HD
ENDBRANCH  41  43
ENDBRANCH   1  41
BRANCH   3  45
ATOM     45  O   UNL     1      12.869  28.992  22.075  1.00  0.00    -0.391 OA
ATOM     46  H   UNL     1      12.565  28.074  22.181  1.00  0.00     0.211 HD
ENDBRANCH   3  45
BRANCH   5  47
ATOM     47  C   UNL     1      17.355  30.769  22.935  1.00  0.00     0.176 C 
BRANCH  47  48
ATOM     48  O   UNL     1      17.967  30.029  23.911  1.00  0.00    -0.388 OA
ATOM     49  H   UNL     1      17.518  29.182  24.125  1.00  0.00     0.211 HD
ENDBRANCH  47  48
BRANCH  47  50
ATOM     50  C   UNL     1      18.303  31.571  22.146  1.00  0.00     0.165 C 
BRANCH  50  51
ATOM     51  O   UNL     1      19.370  30.687  21.789  1.00  0.00    -0.388 OA
ATOM     52  H   UNL     1      20.148  30.987  22.293  1.00  0.00     0.211 HD
ENDBRANCH  50  51
BRANCH  50  53
ATOM     53  C   UNL     1      19.006  32.639  23.002  1.00  0.00     0.154 C 
BRANCH  53  54
ATOM     54  N   UNL     1      20.243  32.154  23.561  1.00  0.00    -0.319 N 
ATOM     55  C   UNL     1      21.507  32.753  23.226  1.00  0.00     0.407 C 
ATOM     56  H   UNL     1      20.294  31.357  24.228  1.00  0.00     0.167 HD
ATOM     57  O   UNL     1      21.567  33.729  22.444  1.00  0.00    -0.225 OA
BRANCH  55  58
ATOM     58  O   UNL     1      22.686  32.270  23.762  1.00  0.00    -0.443 OA
BRANCH  58  59
ATOM     59  C   UNL     1      23.455  31.281  23.087  1.00  0.00     0.294 C 
BRANCH  59  60
ATOM     60  C   UNL     1      22.885  29.969  23.514  1.00  0.00     0.121 A 
ATOM     61  C   UNL     1      23.641  28.964  24.102  1.00  0.00     0.144 A 
ATOM     62  N   UNL     1      21.641  29.489  23.444  1.00  0.00    -0.131 NA
ATOM     63  N   UNL     1      22.835  27.905  24.372  1.00  0.00    -0.220 N 
ATOM     64  N   UNL     1      21.637  28.257  23.961  1.00  0.00    -0.062 NA
BRANCH  63  65
ATOM     65  C   UNL     1      23.216  26.675  24.967  1.00  0.00     0.066 A 
ATOM     66  C   UNL     1      22.288  25.798  25.478  1.00  0.00     0.028 A 
ATOM     67  C   UNL     1      24.547  26.329  25.038  1.00  0.00     0.028 A 
ATOM     68  C   UNL     1      22.650  24.597  26.052  1.00  0.00     0.002 A 
ATOM     69  C   UNL     1      24.908  25.121  25.616  1.00  0.00     0.002 A 
ATOM     70  C   UNL     1      23.996  24.233  26.132  1.00  0.00     0.000 A 
ENDBRANCH  63  65
ENDBRANCH  59  60
ENDBRANCH  58  59
ENDBRANCH  55  58
ENDBRANCH  53  54
ENDBRANCH  50  53
ENDBRANCH  47  50
ENDBRANCH   5  47
BRANCH   4  71
ATOM     71  N   UNL     1      14.728  29.962  23.936  1.00  0.00    -0.348 N 
ATOM     72  C   UNL     1      13.788  30.875  24.481  1.00  0.00     0.217 C 
ATOM     73  H   UNL     1      15.177  29.280  24.574  1.00  0.00     0.163 HD
ATOM     74  C   UNL     1      13.478  30.856  25.942  1.00  0.00     0.114 C 
ATOM     75  O   UNL     1      13.179  31.731  23.769  1.00  0.00    -0.275 OA
ENDBRANCH   4  71
TORSDOF 30
