REMARK VINA RESULT:    -5.432      2.777     11.003
REMARK INTER + INTRA:         -21.453
REMARK INTER:                 -16.409
REMARK INTRA:                  -5.044
REMARK UNBOUND:                -7.606
REMARK SMILES CC(=O)N[C@@H]1[C@@H](O)C[C@](OC[C@H]2O[C@@H](O[C@H]3[C@H](O)[C@@H](O)[C@H](OCCN=[N+]=[N-])O[C@@H]3CO)[C@H](O)[C@@H](O)[C@H]2O)(C(=O)O)O[C@H]1C(O)[C@H](O)CNC(=O)OCc1cn(-c2ccc(CO)cn2)nn1
REMARK SMILES IDX 9 1 8 2 6 3 5 4 42 5 41 6 10 7 11 8 12 9 14 10 13 11 32 12
REMARK SMILES IDX 34 13 36 14 15 15 16 16 29 17 28 18 21 19 17 20 19 21 30 22
REMARK SMILES IDX 31 23 22 25 23 26 24 27 25 28 26 29 27 30 18 31 20 33 33 35
REMARK SMILES IDX 35 37 37 39 38 41 39 42 40 43 7 45 43 47 44 48 45 50 46 51
REMARK SMILES IDX 47 53 48 54 49 55 50 57 51 58 52 59 53 60 54 61 65 62 55 63
REMARK SMILES IDX 64 64 56 65 57 66 63 67 58 68 62 69 59 70 60 71 61 72 4 74
REMARK SMILES IDX 2 75 1 77 3 78
REMARK H PARENT 31 24 18 32 20 34 33 36 35 38 37 40 40 44 7 46 44 49 46 52
REMARK H PARENT 48 56 61 73 4 76
REMARK Flexibility Score: inf
ROOT
ATOM      1  C   UNL     1      22.262  26.118  23.532  1.00  0.00     0.272 C 
ATOM      2  C   UNL     1      23.119  25.524  24.586  1.00  0.00     0.113 C 
ATOM      3  C   UNL     1      23.966  24.394  24.070  1.00  0.00     0.145 C 
ATOM      4  C   UNL     1      24.653  24.805  22.782  1.00  0.00     0.142 C 
ATOM      5  C   UNL     1      23.678  25.367  21.831  1.00  0.00     0.178 C 
ATOM      6  O   UNL     1      22.911  26.354  22.347  1.00  0.00    -0.332 OA
ENDROOT
BRANCH   1   7
ATOM      7  O   UNL     1      21.658  27.306  23.905  1.00  0.00    -0.338 OA
BRANCH   7   8
ATOM      8  C   UNL     1      22.136  28.401  23.215  1.00  0.00     0.199 C 
BRANCH   8   9
ATOM      9  C   UNL     1      20.988  29.191  22.665  1.00  0.00     0.179 C 
ATOM     10  C   UNL     1      19.552  29.293  20.922  1.00  0.00     0.282 C 
ATOM     11  O   UNL     1      20.153  28.403  21.850  1.00  0.00    -0.341 OA
ATOM     12  C   UNL     1      18.953  30.436  21.632  1.00  0.00     0.202 C 
ATOM     13  C   UNL     1      18.817  30.284  23.137  1.00  0.00     0.179 C 
ATOM     14  C   UNL     1      20.117  29.757  23.739  1.00  0.00     0.177 C 
BRANCH  10  15
ATOM     15  O   UNL     1      18.674  28.577  20.101  1.00  0.00    -0.341 OA
BRANCH  15  16
ATOM     16  C   UNL     1      18.741  28.968  18.781  1.00  0.00     0.184 C 
ATOM     17  C   UNL     1      18.312  30.373  18.498  1.00  0.00     0.178 C 
ATOM     18  O   UNL     1      17.130  30.459  17.767  1.00  0.00    -0.341 OA
ATOM     19  C   UNL     1      16.075  29.815  18.362  1.00  0.00     0.281 C 
ATOM     20  C   UNL     1      17.775  28.045  18.016  1.00  0.00     0.180 C 
ATOM     21  C   UNL     1      16.404  28.341  18.640  1.00  0.00     0.202 C 
BRANCH  17  22
ATOM     22  C   UNL     1      19.384  30.990  17.580  1.00  0.00     0.191 C 
BRANCH  22  23
ATOM     23  O   UNL     1      20.408  31.549  18.361  1.00  0.00    -0.394 OA
ATOM     24  H   UNL     1      20.088  31.705  19.300  1.00  0.00     0.210 HD
ENDBRANCH  22  23
ENDBRANCH  17  22
BRANCH  19  25
ATOM     25  O   UNL     1      14.982  29.876  17.501  1.00  0.00    -0.350 OA
BRANCH  25  26
ATOM     26  C   UNL     1      13.778  29.949  18.153  1.00  0.00     0.169 C 
BRANCH  26  27
ATOM     27  C   UNL     1      13.878  31.045  19.206  1.00  0.00     0.119 C 
BRANCH  27  28
ATOM     28  N   UNL     1      13.369  30.566  20.484  1.00  0.00    -0.092 NA
ATOM     29  N   UNL     1      13.456  29.408  20.857  1.00  0.00     0.001 N 
ATOM     30  N   UNL     1      13.833  28.406  21.463  1.00  0.00    -0.003 NA
ENDBRANCH  27  28
ENDBRANCH  26  27
ENDBRANCH  25  26
ENDBRANCH  19  25
BRANCH  20  31
ATOM     31  O   UNL     1      17.807  28.243  16.663  1.00  0.00    -0.387 OA
ATOM     32  H   UNL     1      17.534  29.149  16.458  1.00  0.00     0.211 HD
ENDBRANCH  20  31
BRANCH  21  33
ATOM     33  O   UNL     1      16.551  28.137  20.009  1.00  0.00    -0.385 OA
ATOM     34  H   UNL     1      15.861  27.484  20.288  1.00  0.00     0.211 HD
ENDBRANCH  21  33
ENDBRANCH  15  16
ENDBRANCH  10  15
BRANCH  12  35
ATOM     35  O   UNL     1      19.735  31.589  21.385  1.00  0.00    -0.385 OA
ATOM     36  H   UNL     1      20.330  31.794  22.151  1.00  0.00     0.211 HD
ENDBRANCH  12  35
BRANCH  13  37
ATOM     37  O   UNL     1      17.715  29.525  23.489  1.00  0.00    -0.387 OA
ATOM     38  H   UNL     1      17.079  29.388  22.771  1.00  0.00     0.211 HD
ENDBRANCH  13  37
BRANCH  14  39
ATOM     39  O   UNL     1      19.780  28.811  24.682  1.00  0.00    -0.387 OA
ATOM     40  H   UNL     1      20.330  28.013  24.555  1.00  0.00     0.211 HD
ENDBRANCH  14  39
ENDBRANCH   8   9
ENDBRANCH   7   8
ENDBRANCH   1   7
BRANCH   1  41
ATOM     41  C   UNL     1      21.115  25.198  23.169  1.00  0.00     0.364 C 
ATOM     42  O   UNL     1      20.735  24.257  23.905  1.00  0.00    -0.246 OA
BRANCH  41  43
ATOM     43  O   UNL     1      20.433  25.369  21.981  1.00  0.00    -0.477 OA
ATOM     44  H   UNL     1      20.913  25.193  21.089  1.00  0.00     0.296 HD
ENDBRANCH  41  43
ENDBRANCH   1  41
BRANCH   3  45
ATOM     45  O   UNL     1      24.996  24.210  25.012  1.00  0.00    -0.391 OA
ATOM     46  H   UNL     1      24.683  23.860  25.866  1.00  0.00     0.211 HD
ENDBRANCH   3  45
BRANCH   5  47
ATOM     47  C   UNL     1      24.297  25.809  20.518  1.00  0.00     0.176 C 
BRANCH  47  48
ATOM     48  O   UNL     1      25.409  26.610  20.772  1.00  0.00    -0.388 OA
ATOM     49  H   UNL     1      26.205  26.055  20.945  1.00  0.00     0.211 HD
ENDBRANCH  47  48
BRANCH  47  50
ATOM     50  C   UNL     1      23.394  26.541  19.600  1.00  0.00     0.165 C 
BRANCH  50  51
ATOM     51  O   UNL     1      22.060  26.118  19.688  1.00  0.00    -0.388 OA
ATOM     52  H   UNL     1      21.949  25.160  19.592  1.00  0.00     0.211 HD
ENDBRANCH  50  51
BRANCH  50  53
ATOM     53  C   UNL     1      23.834  26.629  18.167  1.00  0.00     0.154 C 
BRANCH  53  54
ATOM     54  N   UNL     1      23.249  25.573  17.383  1.00  0.00    -0.319 N 
ATOM     55  C   UNL     1      24.001  24.413  17.081  1.00  0.00     0.407 C 
ATOM     56  H   UNL     1      22.242  25.668  17.027  1.00  0.00     0.167 HD
ATOM     57  O   UNL     1      25.178  24.245  17.470  1.00  0.00    -0.225 OA
BRANCH  55  58
ATOM     58  O   UNL     1      23.453  23.376  16.318  1.00  0.00    -0.443 OA
BRANCH  58  59
ATOM     59  C   UNL     1      23.817  23.248  14.974  1.00  0.00     0.294 C 
BRANCH  59  60
ATOM     60  C   UNL     1      23.519  21.965  14.351  1.00  0.00     0.121 A 
ATOM     61  C   UNL     1      22.710  21.744  13.263  1.00  0.00     0.146 A 
ATOM     62  N   UNL     1      23.974  20.758  14.724  1.00  0.00    -0.131 NA
ATOM     63  N   UNL     1      22.693  20.421  13.006  1.00  0.00    -0.202 N 
ATOM     64  N   UNL     1      23.471  19.860  13.913  1.00  0.00    -0.061 NA
BRANCH  63  65
ATOM     65  C   UNL     1      21.961  19.810  11.955  1.00  0.00     0.155 A 
ATOM     66  C   UNL     1      22.348  18.593  11.404  1.00  0.00     0.049 A 
ATOM     67  N   UNL     1      20.864  20.393  11.443  1.00  0.00    -0.237 NA
ATOM     68  C   UNL     1      21.624  18.015  10.370  1.00  0.00     0.011 A 
ATOM     69  C   UNL     1      20.142  19.847  10.435  1.00  0.00     0.119 A 
ATOM     70  C   UNL     1      20.503  18.637   9.866  1.00  0.00    -0.004 A 
BRANCH  70  71
ATOM     71  C   UNL     1      19.732  18.014   8.756  1.00  0.00     0.193 C 
BRANCH  71  72
ATOM     72  O   UNL     1      18.855  18.933   8.183  1.00  0.00    -0.392 OA
ATOM     73  H   UNL     1      18.012  18.521   7.900  1.00  0.00     0.211 HD
ENDBRANCH  71  72
ENDBRANCH  70  71
ENDBRANCH  63  65
ENDBRANCH  59  60
ENDBRANCH  58  59
ENDBRANCH  55  58
ENDBRANCH  53  54
ENDBRANCH  50  53
ENDBRANCH  47  50
ENDBRANCH   5  47
BRANCH   4  74
ATOM     74  N   UNL     1      25.372  23.656  22.231  1.00  0.00    -0.348 N 
ATOM     75  C   UNL     1      26.708  23.723  21.842  1.00  0.00     0.217 C 
ATOM     76  H   UNL     1      24.854  22.760  22.139  1.00  0.00     0.163 HD
ATOM     77  C   UNL     1      27.327  22.463  21.281  1.00  0.00     0.114 C 
ATOM     78  O   UNL     1      27.408  24.742  21.927  1.00  0.00    -0.275 OA
ENDBRANCH   4  74
TORSDOF 32
