REMARK VINA RESULT:    -6.542      2.956      8.238
REMARK INTER + INTRA:         -22.711
REMARK INTER:                 -13.968
REMARK INTRA:                  -8.742
REMARK UNBOUND:                -6.033
REMARK SMILES CC(=O)N[C@@H]1[C@@H](O)C[C@](OC[C@H]2O[C@@H](O[C@H]3[C@H](O)[C@@H](O)[C@H](OCCN=[N+]=[N-])O[C@@H]3CO)[C@H](O)[C@@H](O)[C@H]2O)(C(=O)O)O[C@H]1C(O)[C@H](O)CNC(=O)OCc1cn(-c2cccc(S(N)(=O)=O)c2)nn1
REMARK SMILES IDX 9 1 8 2 6 3 5 4 42 5 41 6 10 7 11 8 12 9 14 10 13 11 32 12
REMARK SMILES IDX 34 13 36 14 15 15 16 16 29 17 28 18 21 19 17 20 19 21 30 22
REMARK SMILES IDX 31 23 22 25 23 26 24 27 25 28 26 29 27 30 18 31 20 33 33 35
REMARK SMILES IDX 35 37 37 39 38 41 39 42 40 43 7 45 43 47 44 48 45 50 46 51
REMARK SMILES IDX 47 53 48 54 49 55 50 57 51 58 52 59 53 60 54 61 67 62 55 63
REMARK SMILES IDX 66 64 56 65 65 66 57 67 60 68 58 69 59 70 61 71 63 72 64 73
REMARK SMILES IDX 62 74 4 77 2 78 1 80 3 81
REMARK H PARENT 31 24 18 32 20 34 33 36 35 38 37 40 40 44 7 46 44 49 46 52
REMARK H PARENT 48 56 62 75 62 76 4 79
REMARK Flexibility Score: inf
ROOT
ATOM      1  C   UNL     1       3.177  22.581  34.940  1.00  0.00     0.272 C 
ATOM      2  C   UNL     1       2.403  23.867  34.592  1.00  0.00     0.113 C 
ATOM      3  C   UNL     1       3.065  25.004  35.290  1.00  0.00     0.145 C 
ATOM      4  C   UNL     1       4.489  25.126  34.876  1.00  0.00     0.142 C 
ATOM      5  C   UNL     1       5.122  23.819  34.558  1.00  0.00     0.178 C 
ATOM      6  O   UNL     1       4.416  22.687  34.467  1.00  0.00    -0.332 OA
ENDROOT
BRANCH   1   7
ATOM      7  O   UNL     1       2.439  21.579  34.255  1.00  0.00    -0.338 OA
BRANCH   7   8
ATOM      8  C   UNL     1       1.745  22.164  33.241  1.00  0.00     0.199 C 
BRANCH   8   9
ATOM      9  C   UNL     1       2.215  21.722  31.872  1.00  0.00     0.179 C 
ATOM     10  C   UNL     1       2.550  22.547  29.820  1.00  0.00     0.282 C 
ATOM     11  O   UNL     1       2.858  22.752  31.189  1.00  0.00    -0.341 OA
ATOM     12  C   UNL     1       2.757  21.134  29.412  1.00  0.00     0.202 C 
ATOM     13  C   UNL     1       3.505  20.284  30.408  1.00  0.00     0.179 C 
ATOM     14  C   UNL     1       3.080  20.523  31.845  1.00  0.00     0.177 C 
BRANCH  10  15
ATOM     15  O   UNL     1       3.131  23.505  29.029  1.00  0.00    -0.341 OA
BRANCH  15  16
ATOM     16  C   UNL     1       2.289  24.121  28.134  1.00  0.00     0.184 C 
ATOM     17  C   UNL     1       2.625  23.658  26.737  1.00  0.00     0.178 C 
ATOM     18  O   UNL     1       2.603  24.730  25.837  1.00  0.00    -0.341 OA
ATOM     19  C   UNL     1       3.724  25.494  26.061  1.00  0.00     0.281 C 
ATOM     20  C   UNL     1       2.505  25.611  28.282  1.00  0.00     0.180 C 
ATOM     21  C   UNL     1       3.592  26.141  27.402  1.00  0.00     0.202 C 
BRANCH  17  22
ATOM     22  C   UNL     1       1.687  22.625  26.199  1.00  0.00     0.191 C 
BRANCH  22  23
ATOM     23  O   UNL     1       2.338  21.387  26.028  1.00  0.00    -0.394 OA
ATOM     24  H   UNL     1       3.236  21.508  25.637  1.00  0.00     0.210 HD
ENDBRANCH  22  23
ENDBRANCH  17  22
BRANCH  19  25
ATOM     25  O   UNL     1       3.893  26.491  25.100  1.00  0.00    -0.350 OA
BRANCH  25  26
ATOM     26  C   UNL     1       4.549  27.610  25.537  1.00  0.00     0.169 C 
BRANCH  26  27
ATOM     27  C   UNL     1       5.998  27.699  25.108  1.00  0.00     0.119 C 
BRANCH  27  28
ATOM     28  N   UNL     1       6.895  27.407  26.209  1.00  0.00    -0.092 NA
ATOM     29  N   UNL     1       8.019  26.942  26.041  1.00  0.00     0.001 N 
ATOM     30  N   UNL     1       9.142  26.471  25.984  1.00  0.00    -0.003 NA
ENDBRANCH  27  28
ENDBRANCH  26  27
ENDBRANCH  25  26
ENDBRANCH  19  25
BRANCH  20  31
ATOM     31  O   UNL     1       1.315  26.270  27.926  1.00  0.00    -0.387 OA
ATOM     32  H   UNL     1       1.458  26.942  27.215  1.00  0.00     0.211 HD
ENDBRANCH  20  31
BRANCH  21  33
ATOM     33  O   UNL     1       4.843  26.022  28.052  1.00  0.00    -0.385 OA
ATOM     34  H   UNL     1       4.657  25.804  28.995  1.00  0.00     0.211 HD
ENDBRANCH  21  33
ENDBRANCH  15  16
ENDBRANCH  10  15
BRANCH  12  35
ATOM     35  O   UNL     1       1.561  20.490  29.012  1.00  0.00    -0.385 OA
ATOM     36  H   UNL     1       1.232  21.064  28.248  1.00  0.00     0.211 HD
ENDBRANCH  12  35
BRANCH  13  37
ATOM     37  O   UNL     1       4.873  20.347  30.218  1.00  0.00    -0.387 OA
ATOM     38  H   UNL     1       5.035  21.138  29.611  1.00  0.00     0.211 HD
ENDBRANCH  13  37
BRANCH  14  39
ATOM     39  O   UNL     1       4.244  20.786  32.576  1.00  0.00    -0.387 OA
ATOM     40  H   UNL     1       4.966  20.141  32.370  1.00  0.00     0.211 HD
ENDBRANCH  14  39
ENDBRANCH   8   9
ENDBRANCH   7   8
ENDBRANCH   1   7
BRANCH   1  41
ATOM     41  C   UNL     1       3.015  22.400  36.404  1.00  0.00     0.364 C 
ATOM     42  O   UNL     1       1.823  22.272  36.867  1.00  0.00    -0.246 OA
BRANCH  41  43
ATOM     43  O   UNL     1       4.007  22.352  37.338  1.00  0.00    -0.477 OA
ATOM     44  H   UNL     1       4.435  21.472  37.655  1.00  0.00     0.296 HD
ENDBRANCH  41  43
ENDBRANCH   1  41
BRANCH   3  45
ATOM     45  O   UNL     1       2.327  26.162  34.915  1.00  0.00    -0.391 OA
ATOM     46  H   UNL     1       1.488  25.786  34.503  1.00  0.00     0.211 HD
ENDBRANCH   3  45
BRANCH   5  47
ATOM     47  C   UNL     1       5.959  24.014  33.271  1.00  0.00     0.176 C 
BRANCH  47  48
ATOM     48  O   UNL     1       5.141  23.795  32.179  1.00  0.00    -0.388 OA
ATOM     49  H   UNL     1       5.541  23.308  31.439  1.00  0.00     0.211 HD
ENDBRANCH  47  48
BRANCH  47  50
ATOM     50  C   UNL     1       7.200  23.211  33.331  1.00  0.00     0.165 C 
BRANCH  50  51
ATOM     51  O   UNL     1       6.869  21.869  33.496  1.00  0.00    -0.388 OA
ATOM     52  H   UNL     1       7.616  21.487  34.040  1.00  0.00     0.211 HD
ENDBRANCH  50  51
BRANCH  50  53
ATOM     53  C   UNL     1       8.092  23.604  34.497  1.00  0.00     0.154 C 
BRANCH  53  54
ATOM     54  N   UNL     1       8.446  24.995  34.341  1.00  0.00    -0.319 N 
ATOM     55  C   UNL     1       8.785  25.777  35.508  1.00  0.00     0.407 C 
ATOM     56  H   UNL     1       8.463  25.471  33.411  1.00  0.00     0.167 HD
ATOM     57  O   UNL     1       8.776  25.265  36.658  1.00  0.00    -0.225 OA
BRANCH  55  58
ATOM     58  O   UNL     1       9.117  27.097  35.286  1.00  0.00    -0.443 OA
BRANCH  58  59
ATOM     59  C   UNL     1       9.276  27.598  33.993  1.00  0.00     0.294 C 
BRANCH  59  60
ATOM     60  C   UNL     1       8.128  28.415  33.573  1.00  0.00     0.121 A 
ATOM     61  C   UNL     1       7.205  28.019  32.594  1.00  0.00     0.144 A 
ATOM     62  N   UNL     1       7.736  29.611  33.994  1.00  0.00    -0.131 NA
ATOM     63  N   UNL     1       6.312  28.995  32.479  1.00  0.00    -0.220 N 
ATOM     64  N   UNL     1       6.647  29.932  33.321  1.00  0.00    -0.062 NA
BRANCH  63  65
ATOM     65  C   UNL     1       5.197  28.954  31.578  1.00  0.00     0.068 A 
ATOM     66  C   UNL     1       4.034  28.290  31.976  1.00  0.00     0.050 A 
ATOM     67  C   UNL     1       5.261  29.550  30.354  1.00  0.00     0.028 A 
ATOM     68  C   UNL     1       2.939  28.223  31.152  1.00  0.00     0.084 A 
ATOM     69  C   UNL     1       4.184  29.491  29.530  1.00  0.00     0.004 A 
ATOM     70  C   UNL     1       3.011  28.833  29.906  1.00  0.00     0.022 A 
BRANCH  68  71
ATOM     71  S   UNL     1       1.459  27.416  31.584  1.00  0.00     0.238 S 
ATOM     72  O   UNL     1       1.769  25.978  31.894  1.00  0.00    -0.207 OA
ATOM     73  O   UNL     1       0.488  27.464  30.449  1.00  0.00    -0.207 OA
BRANCH  71  74
ATOM     74  N   UNL     1       0.789  28.199  32.986  1.00  0.00    -0.225 NA
ATOM     75  H   UNL     1       0.811  27.522  33.782  1.00  0.00     0.137 HD
ATOM     76  H   UNL     1      -0.151  28.600  32.792  1.00  0.00     0.137 HD
ENDBRANCH  71  74
ENDBRANCH  68  71
ENDBRANCH  63  65
ENDBRANCH  59  60
ENDBRANCH  58  59
ENDBRANCH  55  58
ENDBRANCH  53  54
ENDBRANCH  50  53
ENDBRANCH  47  50
ENDBRANCH   5  47
BRANCH   4  77
ATOM     77  N   UNL     1       5.211  25.732  36.007  1.00  0.00    -0.348 N 
ATOM     78  C   UNL     1       5.351  27.137  36.164  1.00  0.00     0.217 C 
ATOM     79  H   UNL     1       5.639  25.112  36.724  1.00  0.00     0.163 HD
ATOM     80  C   UNL     1       6.089  27.689  37.328  1.00  0.00     0.114 C 
ATOM     81  O   UNL     1       4.831  27.887  35.287  1.00  0.00    -0.275 OA
ENDBRANCH   4  77
TORSDOF 32
