REMARK VINA RESULT:    -6.039     19.196     25.443
REMARK INTER + INTRA:         -22.810
REMARK INTER:                 -15.509
REMARK INTRA:                  -7.301
REMARK UNBOUND:                -6.885
REMARK SMILES CCOC(=O)c1cccc(-n2cc(COC(=O)NC[C@@H](O)C(O)[C@@H]3O[C@@](OC[C@H]4O[C@@H](O[C@H]5[C@H](O)[C@@H](O)[C@H](OCCN=[N+]=[N-])O[C@@H]5CO)[C@H](O)[C@@H](O)[C@H]4O)(C(=O)O)C[C@H](O)[C@H]3NC(C)=O)nn2)c1
REMARK SMILES IDX 22 1 24 2 26 3 58 4 25 5 59 6 61 7 27 8 28 9 29 10 31 11
REMARK SMILES IDX 30 12 49 13 51 14 53 15 32 16 33 17 46 18 45 19 38 20 34 21
REMARK SMILES IDX 36 22 47 23 48 24 39 26 40 27 41 28 42 29 43 30 44 31 35 32
REMARK SMILES IDX 37 34 50 36 52 38 54 40 55 42 56 43 57 44 60 46 62 48 63 49
REMARK SMILES IDX 64 51 65 52 23 53 20 55 21 56 19 58 18 59 16 60 17 62 15 63
REMARK SMILES IDX 14 64 13 65 12 66 66 67 11 68 67 69 10 70 68 71 9 72 6 73
REMARK SMILES IDX 8 74 7 75 4 76 5 77 3 78 2 79 1 80
REMARK H PARENT 48 25 35 33 37 35 50 37 52 39 54 41 57 45 60 47 62 50 23 54
REMARK H PARENT 21 57 18 61
REMARK Flexibility Score: inf
ROOT
ATOM      1  C   UNL     1      23.777  19.386  13.352  1.00  0.00     0.176 C 
ENDROOT
BRANCH   1   2
ATOM      2  C   UNL     1      23.659  20.796  12.950  1.00  0.00     0.178 C 
ATOM      3  C   UNL     1      25.083  22.682  12.996  1.00  0.00     0.272 C 
ATOM      4  C   UNL     1      23.857  23.248  12.357  1.00  0.00     0.113 C 
ATOM      5  O   UNL     1      24.574  21.534  13.704  1.00  0.00    -0.332 OA
ATOM      6  C   UNL     1      22.585  22.981  13.145  1.00  0.00     0.145 C 
ATOM      7  C   UNL     1      22.324  21.439  13.085  1.00  0.00     0.142 C 
BRANCH   3   8
ATOM      8  O   UNL     1      25.546  23.517  13.965  1.00  0.00    -0.338 OA
BRANCH   8   9
ATOM      9  C   UNL     1      25.756  24.806  13.859  1.00  0.00     0.199 C 
BRANCH   9  10
ATOM     10  C   UNL     1      25.362  25.863  14.800  1.00  0.00     0.179 C 
ATOM     11  C   UNL     1      24.431  26.270  16.907  1.00  0.00     0.282 C 
ATOM     12  O   UNL     1      24.519  25.441  15.765  1.00  0.00    -0.341 OA
ATOM     13  C   UNL     1      24.987  27.634  16.636  1.00  0.00     0.202 C 
ATOM     14  C   UNL     1      26.393  27.615  16.129  1.00  0.00     0.179 C 
ATOM     15  C   UNL     1      26.686  26.292  15.510  1.00  0.00     0.177 C 
BRANCH  11  16
ATOM     16  O   UNL     1      25.023  25.560  17.910  1.00  0.00    -0.341 OA
BRANCH  16  17
ATOM     17  C   UNL     1      24.467  25.556  19.143  1.00  0.00     0.184 C 
ATOM     18  C   UNL     1      25.562  25.373  20.160  1.00  0.00     0.178 C 
ATOM     19  O   UNL     1      25.059  25.412  21.462  1.00  0.00    -0.341 OA
ATOM     20  C   UNL     1      24.275  24.240  21.653  1.00  0.00     0.281 C 
ATOM     21  C   UNL     1      23.482  24.392  19.344  1.00  0.00     0.180 C 
ATOM     22  C   UNL     1      23.048  24.446  20.807  1.00  0.00     0.202 C 
BRANCH  18  23
ATOM     23  C   UNL     1      26.611  26.439  20.028  1.00  0.00     0.191 C 
BRANCH  23  24
ATOM     24  O   UNL     1      27.623  26.022  19.124  1.00  0.00    -0.394 OA
ATOM     25  H   UNL     1      27.746  25.040  19.178  1.00  0.00     0.210 HD
ENDBRANCH  23  24
ENDBRANCH  18  23
BRANCH  20  26
ATOM     26  O   UNL     1      24.029  24.115  22.989  1.00  0.00    -0.350 OA
BRANCH  26  27
ATOM     27  C   UNL     1      24.327  25.272  23.695  1.00  0.00     0.169 C 
BRANCH  27  28
ATOM     28  C   UNL     1      24.579  25.038  25.155  1.00  0.00     0.119 C 
BRANCH  28  29
ATOM     29  N   UNL     1      23.373  25.394  25.911  1.00  0.00    -0.092 NA
ATOM     30  N   UNL     1      23.011  24.622  26.809  1.00  0.00     0.001 N 
ATOM     31  N   UNL     1      22.670  24.086  27.882  1.00  0.00    -0.003 NA
ENDBRANCH  28  29
ENDBRANCH  27  28
ENDBRANCH  26  27
ENDBRANCH  20  26
BRANCH  21  32
ATOM     32  O   UNL     1      22.320  24.587  18.612  1.00  0.00    -0.387 OA
ATOM     33  H   UNL     1      22.397  24.047  17.790  1.00  0.00     0.211 HD
ENDBRANCH  21  32
BRANCH  22  34
ATOM     34  O   UNL     1      22.065  23.498  21.069  1.00  0.00    -0.385 OA
ATOM     35  H   UNL     1      21.753  23.508  22.024  1.00  0.00     0.211 HD
ENDBRANCH  22  34
ENDBRANCH  16  17
ENDBRANCH  11  16
BRANCH  13  36
ATOM     36  O   UNL     1      24.113  28.321  15.770  1.00  0.00    -0.385 OA
ATOM     37  H   UNL     1      23.243  28.507  16.190  1.00  0.00     0.211 HD
ENDBRANCH  13  36
BRANCH  14  38
ATOM     38  O   UNL     1      27.318  28.063  17.045  1.00  0.00    -0.387 OA
ATOM     39  H   UNL     1      27.133  27.592  17.901  1.00  0.00     0.211 HD
ENDBRANCH  14  38
BRANCH  15  40
ATOM     40  O   UNL     1      27.109  25.361  16.406  1.00  0.00    -0.387 OA
ATOM     41  H   UNL     1      27.850  25.732  16.947  1.00  0.00     0.211 HD
ENDBRANCH  15  40
ENDBRANCH   9  10
ENDBRANCH   8   9
ENDBRANCH   3   8
BRANCH   3  42
ATOM     42  C   UNL     1      26.114  22.196  12.091  1.00  0.00     0.364 C 
ATOM     43  O   UNL     1      26.093  22.420  10.871  1.00  0.00    -0.246 OA
BRANCH  42  44
ATOM     44  O   UNL     1      27.186  21.445  12.577  1.00  0.00    -0.477 OA
ATOM     45  H   UNL     1      27.536  21.515  13.509  1.00  0.00     0.296 HD
ENDBRANCH  42  44
ENDBRANCH   3  42
BRANCH   6  46
ATOM     46  O   UNL     1      22.820  23.273  14.465  1.00  0.00    -0.391 OA
ATOM     47  H   UNL     1      22.228  22.725  15.035  1.00  0.00     0.211 HD
ENDBRANCH   6  46
BRANCH   7  48
ATOM     48  N   UNL     1      21.467  21.229  11.941  1.00  0.00    -0.348 N 
ATOM     49  C   UNL     1      20.522  20.156  11.838  1.00  0.00     0.217 C 
ATOM     50  H   UNL     1      21.489  21.875  11.096  1.00  0.00     0.163 HD
ATOM     51  C   UNL     1      19.656  19.969  10.645  1.00  0.00     0.114 C 
ATOM     52  O   UNL     1      20.411  19.339  12.775  1.00  0.00    -0.275 OA
ENDBRANCH   7  48
ENDBRANCH   1   2
BRANCH   1  53
ATOM     53  O   UNL     1      23.039  18.993  14.437  1.00  0.00    -0.388 OA
ATOM     54  H   UNL     1      23.075  18.021  14.591  1.00  0.00     0.211 HD
ENDBRANCH   1  53
BRANCH   1  55
ATOM     55  C   UNL     1      23.729  18.356  12.253  1.00  0.00     0.165 C 
BRANCH  55  56
ATOM     56  O   UNL     1      22.658  17.479  12.447  1.00  0.00    -0.388 OA
ATOM     57  H   UNL     1      22.662  16.773  11.749  1.00  0.00     0.211 HD
ENDBRANCH  55  56
BRANCH  55  58
ATOM     58  C   UNL     1      25.040  17.695  11.952  1.00  0.00     0.154 C 
BRANCH  58  59
ATOM     59  N   UNL     1      26.134  18.288  12.688  1.00  0.00    -0.319 N 
ATOM     60  C   UNL     1      27.475  18.114  12.281  1.00  0.00     0.407 C 
ATOM     61  H   UNL     1      25.944  18.874  13.558  1.00  0.00     0.167 HD
ATOM     62  O   UNL     1      27.848  17.463  11.279  1.00  0.00    -0.225 OA
BRANCH  60  63
ATOM     63  O   UNL     1      28.521  18.688  13.030  1.00  0.00    -0.443 OA
BRANCH  63  64
ATOM     64  C   UNL     1      28.806  18.390  14.362  1.00  0.00     0.294 C 
BRANCH  64  65
ATOM     65  C   UNL     1      28.271  19.327  15.360  1.00  0.00     0.121 A 
ATOM     66  C   UNL     1      28.687  19.441  16.682  1.00  0.00     0.144 A 
ATOM     67  N   UNL     1      27.309  20.226  15.196  1.00  0.00    -0.131 NA
ATOM     68  N   UNL     1      27.957  20.399  17.252  1.00  0.00    -0.220 N 
ATOM     69  N   UNL     1      27.127  20.869  16.349  1.00  0.00    -0.062 NA
BRANCH  68  70
ATOM     70  C   UNL     1      28.065  20.830  18.592  1.00  0.00     0.067 A 
ATOM     71  C   UNL     1      28.632  20.023  19.575  1.00  0.00     0.044 A 
ATOM     72  C   UNL     1      27.632  22.066  18.991  1.00  0.00     0.028 A 
ATOM     73  C   UNL     1      28.770  20.401  20.883  1.00  0.00     0.062 A 
ATOM     74  C   UNL     1      27.754  22.487  20.307  1.00  0.00     0.003 A 
ATOM     75  C   UNL     1      28.318  21.663  21.252  1.00  0.00     0.016 A 
BRANCH  73  76
ATOM     76  C   UNL     1      29.366  19.510  21.856  1.00  0.00     0.338 C 
ATOM     77  O   UNL     1      29.464  18.295  21.596  1.00  0.00    -0.246 OA
BRANCH  76  78
ATOM     78  O   UNL     1      29.821  20.001  23.052  1.00  0.00    -0.462 OA
BRANCH  78  79
ATOM     79  C   UNL     1      31.182  20.191  23.364  1.00  0.00     0.230 C 
ATOM     80  C   UNL     1      31.355  20.322  24.861  1.00  0.00     0.049 C 
ENDBRANCH  78  79
ENDBRANCH  76  78
ENDBRANCH  73  76
ENDBRANCH  68  70
ENDBRANCH  64  65
ENDBRANCH  63  64
ENDBRANCH  60  63
ENDBRANCH  58  59
ENDBRANCH  55  58
ENDBRANCH   1  55
TORSDOF 33
