REMARK VINA RESULT:    -5.111      3.988     11.504
REMARK INTER + INTRA:         -19.868
REMARK INTER:                 -11.638
REMARK INTRA:                  -8.229
REMARK UNBOUND:                -6.390
REMARK SMILES CCOC(=O)Cn1cc(COC(=O)NC[C@@H](O)C(O)[C@@H]2O[C@@](OC[C@H]3O[C@@H](O[C@H]4[C@H](O)[C@@H](O)[C@H](OCCN=[N+]=[N-])O[C@@H]4CO)[C@H](O)[C@@H](O)[C@H]3O)(C(=O)O)C[C@H](O)[C@H]2NC(C)=O)nn1
REMARK SMILES IDX 18 1 20 2 22 3 54 4 21 5 55 6 57 7 23 8 24 9 25 10 27 11
REMARK SMILES IDX 26 12 45 13 47 14 49 15 28 16 29 17 42 18 41 19 34 20 30 21
REMARK SMILES IDX 32 22 43 23 44 24 35 26 36 27 37 28 38 29 39 30 40 31 31 32
REMARK SMILES IDX 33 34 46 36 48 38 50 40 51 42 52 43 53 44 56 46 58 48 59 49
REMARK SMILES IDX 60 51 61 52 19 53 16 55 17 56 15 58 14 59 12 60 13 62 11 63
REMARK SMILES IDX 10 64 9 65 8 66 62 67 7 68 63 69 6 70 4 71 5 72 3 73 2 74
REMARK SMILES IDX 1 75
REMARK H PARENT 44 25 31 33 33 35 46 37 48 39 50 41 53 45 56 47 58 50 19 54
REMARK H PARENT 17 57 14 61
REMARK Flexibility Score: inf
ROOT
ATOM      1  C   UNL     1      15.272  29.960  21.457  1.00  0.00     0.176 C 
ENDROOT
BRANCH   1   2
ATOM      2  C   UNL     1      14.967  31.013  22.486  1.00  0.00     0.178 C 
ATOM      3  C   UNL     1      13.194  32.293  23.315  1.00  0.00     0.272 C 
ATOM      4  C   UNL     1      14.305  33.050  23.957  1.00  0.00     0.113 C 
ATOM      5  O   UNL     1      13.631  31.059  22.787  1.00  0.00    -0.332 OA
ATOM      6  C   UNL     1      15.461  33.327  23.050  1.00  0.00     0.145 C 
ATOM      7  C   UNL     1      15.403  32.341  21.895  1.00  0.00     0.142 C 
BRANCH   3   8
ATOM      8  O   UNL     1      12.500  32.970  22.336  1.00  0.00    -0.338 OA
BRANCH   8   9
ATOM      9  C   UNL     1      11.889  34.131  22.664  1.00  0.00     0.199 C 
BRANCH   9  10
ATOM     10  C   UNL     1      10.722  34.354  21.682  1.00  0.00     0.179 C 
ATOM     11  C   UNL     1      10.137  34.220  19.442  1.00  0.00     0.282 C 
ATOM     12  O   UNL     1      11.134  34.288  20.389  1.00  0.00    -0.341 OA
ATOM     13  C   UNL     1       9.120  33.152  19.706  1.00  0.00     0.202 C 
ATOM     14  C   UNL     1       8.469  33.482  21.025  1.00  0.00     0.179 C 
ATOM     15  C   UNL     1       9.547  33.500  22.055  1.00  0.00     0.177 C 
BRANCH  11  16
ATOM     16  O   UNL     1      10.622  34.049  18.156  1.00  0.00    -0.341 OA
BRANCH  16  17
ATOM     17  C   UNL     1      11.306  32.882  17.934  1.00  0.00     0.184 C 
ATOM     18  C   UNL     1      12.808  33.066  17.883  1.00  0.00     0.178 C 
ATOM     19  O   UNL     1      13.302  32.880  16.599  1.00  0.00    -0.341 OA
ATOM     20  C   UNL     1      13.143  31.545  16.159  1.00  0.00     0.281 C 
ATOM     21  C   UNL     1      10.851  32.270  16.610  1.00  0.00     0.180 C 
ATOM     22  C   UNL     1      11.744  31.062  16.371  1.00  0.00     0.202 C 
BRANCH  18  23
ATOM     23  C   UNL     1      13.472  32.198  18.920  1.00  0.00     0.191 C 
BRANCH  23  24
ATOM     24  O   UNL     1      12.537  31.752  19.874  1.00  0.00    -0.394 OA
ATOM     25  H   UNL     1      12.029  32.498  20.249  1.00  0.00     0.210 HD
ENDBRANCH  23  24
ENDBRANCH  18  23
BRANCH  20  26
ATOM     26  O   UNL     1      14.079  30.729  16.740  1.00  0.00    -0.350 OA
BRANCH  26  27
ATOM     27  C   UNL     1      15.201  30.392  16.064  1.00  0.00     0.169 C 
BRANCH  27  28
ATOM     28  C   UNL     1      15.258  29.102  15.336  1.00  0.00     0.119 C 
BRANCH  28  29
ATOM     29  N   UNL     1      14.590  29.023  14.082  1.00  0.00    -0.092 NA
ATOM     30  N   UNL     1      13.556  28.336  13.941  1.00  0.00     0.001 N 
ATOM     31  N   UNL     1      12.455  27.773  14.069  1.00  0.00    -0.003 NA
ENDBRANCH  28  29
ENDBRANCH  27  28
ENDBRANCH  26  27
ENDBRANCH  20  26
BRANCH  21  32
ATOM     32  O   UNL     1       9.521  31.859  16.727  1.00  0.00    -0.387 OA
ATOM     33  H   UNL     1       9.092  32.021  15.831  1.00  0.00     0.211 HD
ENDBRANCH  21  32
BRANCH  22  34
ATOM     34  O   UNL     1      11.248  30.330  15.288  1.00  0.00    -0.385 OA
ATOM     35  H   UNL     1      10.789  30.888  14.612  1.00  0.00     0.211 HD
ENDBRANCH  22  34
ENDBRANCH  16  17
ENDBRANCH  11  16
BRANCH  13  36
ATOM     36  O   UNL     1       8.177  33.172  18.685  1.00  0.00    -0.385 OA
ATOM     37  H   UNL     1       8.079  32.343  18.191  1.00  0.00     0.211 HD
ENDBRANCH  13  36
BRANCH  14  38
ATOM     38  O   UNL     1       7.558  32.444  21.325  1.00  0.00    -0.387 OA
ATOM     39  H   UNL     1       7.917  31.575  21.017  1.00  0.00     0.211 HD
ENDBRANCH  14  38
BRANCH  15  40
ATOM     40  O   UNL     1       9.937  32.159  22.279  1.00  0.00    -0.387 OA
ATOM     41  H   UNL     1       9.170  31.621  21.941  1.00  0.00     0.211 HD
ENDBRANCH  15  40
ENDBRANCH   9  10
ENDBRANCH   8   9
ENDBRANCH   3   8
BRANCH   3  42
ATOM     42  C   UNL     1      12.250  31.894  24.387  1.00  0.00     0.364 C 
ATOM     43  O   UNL     1      11.457  30.945  24.189  1.00  0.00    -0.246 OA
BRANCH  42  44
ATOM     44  O   UNL     1      12.233  32.549  25.586  1.00  0.00    -0.477 OA
ATOM     45  H   UNL     1      13.078  32.725  26.122  1.00  0.00     0.296 HD
ENDBRANCH  42  44
ENDBRANCH   3  42
BRANCH   6  46
ATOM     46  O   UNL     1      15.565  34.628  22.619  1.00  0.00    -0.391 OA
ATOM     47  H   UNL     1      16.479  34.766  22.242  1.00  0.00     0.211 HD
ENDBRANCH   6  46
BRANCH   7  48
ATOM     48  N   UNL     1      16.702  32.231  21.247  1.00  0.00    -0.348 N 
ATOM     49  C   UNL     1      17.094  33.090  20.193  1.00  0.00     0.217 C 
ATOM     50  H   UNL     1      17.360  31.502  21.573  1.00  0.00     0.163 HD
ATOM     51  C   UNL     1      18.423  32.987  19.520  1.00  0.00     0.114 C 
ATOM     52  O   UNL     1      16.279  33.976  19.816  1.00  0.00    -0.275 OA
ENDBRANCH   7  48
ENDBRANCH   1   2
BRANCH   1  53
ATOM     53  O   UNL     1      16.166  29.034  21.956  1.00  0.00    -0.388 OA
ATOM     54  H   UNL     1      17.099  29.387  22.039  1.00  0.00     0.211 HD
ENDBRANCH   1  53
BRANCH   1  55
ATOM     55  C   UNL     1      14.034  29.229  20.968  1.00  0.00     0.165 C 
BRANCH  55  56
ATOM     56  O   UNL     1      13.560  28.310  21.874  1.00  0.00    -0.388 OA
ATOM     57  H   UNL     1      13.421  27.410  21.498  1.00  0.00     0.211 HD
ENDBRANCH  55  56
BRANCH  55  58
ATOM     58  C   UNL     1      14.347  28.596  19.653  1.00  0.00     0.154 C 
BRANCH  58  59
ATOM     59  N   UNL     1      15.596  28.972  19.093  1.00  0.00    -0.319 N 
ATOM     60  C   UNL     1      16.631  28.077  18.712  1.00  0.00     0.407 C 
ATOM     61  H   UNL     1      15.820  30.015  18.925  1.00  0.00     0.167 HD
ATOM     62  O   UNL     1      16.518  26.846  18.839  1.00  0.00    -0.225 OA
BRANCH  60  63
ATOM     63  O   UNL     1      17.820  28.597  18.170  1.00  0.00    -0.443 OA
BRANCH  63  64
ATOM     64  C   UNL     1      18.480  29.655  18.781  1.00  0.00     0.294 C 
BRANCH  64  65
ATOM     65  C   UNL     1      19.195  29.287  20.018  1.00  0.00     0.120 A 
ATOM     66  C   UNL     1      20.373  28.570  20.102  1.00  0.00     0.139 A 
ATOM     67  N   UNL     1      18.851  29.557  21.284  1.00  0.00    -0.132 NA
ATOM     68  N   UNL     1      20.713  28.421  21.405  1.00  0.00    -0.241 N 
ATOM     69  N   UNL     1      19.771  29.032  22.090  1.00  0.00    -0.066 NA
BRANCH  68  70
ATOM     70  C   UNL     1      21.896  27.711  21.876  1.00  0.00     0.268 C 
BRANCH  70  71
ATOM     71  C   UNL     1      21.657  26.242  21.641  1.00  0.00     0.327 C 
ATOM     72  O   UNL     1      20.605  25.676  21.999  1.00  0.00    -0.250 OA
BRANCH  71  73
ATOM     73  O   UNL     1      22.606  25.455  21.012  1.00  0.00    -0.465 OA
BRANCH  73  74
ATOM     74  C   UNL     1      22.641  25.193  19.639  1.00  0.00     0.229 C 
ATOM     75  C   UNL     1      23.670  26.019  18.908  1.00  0.00     0.049 C 
ENDBRANCH  73  74
ENDBRANCH  71  73
ENDBRANCH  70  71
ENDBRANCH  68  70
ENDBRANCH  64  65
ENDBRANCH  63  64
ENDBRANCH  60  63
ENDBRANCH  58  59
ENDBRANCH  55  58
ENDBRANCH   1  55
TORSDOF 33
