REMARK VINA RESULT:    -4.839      2.588      4.281
REMARK INTER + INTRA:         -22.928
REMARK INTER:                 -13.376
REMARK INTRA:                  -9.553
REMARK UNBOUND:                -9.744
REMARK SMILES CC(=O)N[C@@H]1[C@@H](O)C[C@](OC[C@H]2O[C@@H](O[C@H]3[C@H](O)[C@@H](O)[C@H](OCCN=[N+]=[N-])O[C@@H]3CO)[C@H](O)[C@@H](O)[C@H]2O)(C(=O)O)O[C@H]1C(O)[C@H](O)CNC(=O)OCc1cn(CC(O)Cn2ccnc2[N+](=O)[O-])nn1
REMARK SMILES IDX 43 1 42 2 9 3 8 4 41 5 6 6 5 7 10 8 11 9 12 10 14 11 13 12
REMARK SMILES IDX 32 13 34 14 36 15 15 16 16 17 29 18 28 19 21 20 17 21 19 22
REMARK SMILES IDX 30 23 31 24 22 26 23 27 24 28 25 29 26 30 27 31 18 32 20 34
REMARK SMILES IDX 33 36 35 38 37 40 38 42 39 43 40 44 7 46 4 48 2 49 1 51 3 52
REMARK SMILES IDX 44 53 45 55 46 56 47 58 48 59 49 60 50 62 51 63 52 64 53 65
REMARK SMILES IDX 54 66 69 67 55 68 68 69 56 70 57 71 58 72 59 74 60 75 61 76
REMARK SMILES IDX 64 77 62 78 63 79 65 80 66 81 67 82
REMARK H PARENT 31 25 18 33 20 35 33 37 35 39 37 41 40 45 7 47 4 50 44 54
REMARK H PARENT 46 57 48 61 58 73
REMARK Flexibility Score: inf
ROOT
ATOM      1  C   UNL     1      18.840  31.802  17.321  1.00  0.00     0.176 C 
ENDROOT
BRANCH   1   2
ATOM      2  C   UNL     1      17.625  30.830  17.419  1.00  0.00     0.178 C 
ATOM      3  C   UNL     1      16.447  29.864  19.160  1.00  0.00     0.272 C 
ATOM      4  C   UNL     1      16.404  28.559  18.422  1.00  0.00     0.113 C 
ATOM      5  O   UNL     1      17.575  30.592  18.794  1.00  0.00    -0.332 OA
ATOM      6  C   UNL     1      17.666  28.344  17.597  1.00  0.00     0.145 C 
ATOM      7  C   UNL     1      17.947  29.568  16.733  1.00  0.00     0.142 C 
BRANCH   3   8
ATOM      8  O   UNL     1      16.592  29.710  20.533  1.00  0.00    -0.338 OA
BRANCH   8   9
ATOM      9  C   UNL     1      15.923  28.727  21.160  1.00  0.00     0.199 C 
BRANCH   9  10
ATOM     10  C   UNL     1      15.000  29.223  22.256  1.00  0.00     0.179 C 
ATOM     11  C   UNL     1      14.777  30.757  23.864  1.00  0.00     0.282 C 
ATOM     12  O   UNL     1      15.210  30.603  22.524  1.00  0.00    -0.341 OA
ATOM     13  C   UNL     1      13.321  30.386  23.996  1.00  0.00     0.202 C 
ATOM     14  C   UNL     1      12.759  30.280  22.580  1.00  0.00     0.179 C 
ATOM     15  C   UNL     1      13.534  29.152  21.891  1.00  0.00     0.177 C 
BRANCH  11  16
ATOM     16  O   UNL     1      14.976  32.042  24.324  1.00  0.00    -0.341 OA
BRANCH  16  17
ATOM     17  C   UNL     1      16.201  32.464  23.862  1.00  0.00     0.184 C 
ATOM     18  C   UNL     1      17.170  32.863  24.964  1.00  0.00     0.178 C 
ATOM     19  O   UNL     1      18.423  32.861  24.344  1.00  0.00    -0.341 OA
ATOM     20  C   UNL     1      18.591  33.842  23.406  1.00  0.00     0.281 C 
ATOM     21  C   UNL     1      16.090  33.701  22.982  1.00  0.00     0.180 C 
ATOM     22  C   UNL     1      17.424  34.184  22.554  1.00  0.00     0.202 C 
BRANCH  18  23
ATOM     23  C   UNL     1      17.152  31.963  26.147  1.00  0.00     0.191 C 
BRANCH  23  24
ATOM     24  O   UNL     1      16.044  32.280  26.922  1.00  0.00    -0.394 OA
ATOM     25  H   UNL     1      15.189  32.179  26.433  1.00  0.00     0.210 HD
ENDBRANCH  23  24
ENDBRANCH  18  23
BRANCH  20  26
ATOM     26  O   UNL     1      19.611  33.375  22.533  1.00  0.00    -0.350 OA
BRANCH  26  27
ATOM     27  C   UNL     1      20.441  32.460  23.129  1.00  0.00     0.169 C 
BRANCH  27  28
ATOM     28  C   UNL     1      20.848  31.476  22.024  1.00  0.00     0.119 C 
BRANCH  28  29
ATOM     29  N   UNL     1      19.957  30.360  21.938  1.00  0.00    -0.092 NA
ATOM     30  N   UNL     1      19.379  29.903  22.951  1.00  0.00     0.001 N 
ATOM     31  N   UNL     1      18.459  29.580  23.685  1.00  0.00    -0.003 NA
ENDBRANCH  28  29
ENDBRANCH  27  28
ENDBRANCH  26  27
ENDBRANCH  20  26
BRANCH  21  32
ATOM     32  O   UNL     1      15.333  33.381  21.836  1.00  0.00    -0.387 OA
ATOM     33  H   UNL     1      15.977  33.163  21.139  1.00  0.00     0.211 HD
ENDBRANCH  21  32
BRANCH  22  34
ATOM     34  O   UNL     1      17.341  35.600  22.533  1.00  0.00    -0.385 OA
ATOM     35  H   UNL     1      17.802  35.992  23.319  1.00  0.00     0.211 HD
ENDBRANCH  22  34
ENDBRANCH  16  17
ENDBRANCH  11  16
BRANCH  13  36
ATOM     36  O   UNL     1      13.233  29.161  24.657  1.00  0.00    -0.385 OA
ATOM     37  H   UNL     1      14.129  28.849  24.966  1.00  0.00     0.211 HD
ENDBRANCH  13  36
BRANCH  14  38
ATOM     38  O   UNL     1      13.102  31.442  21.913  1.00  0.00    -0.387 OA
ATOM     39  H   UNL     1      14.064  31.479  21.772  1.00  0.00     0.211 HD
ENDBRANCH  14  38
BRANCH  15  40
ATOM     40  O   UNL     1      13.310  29.319  20.543  1.00  0.00    -0.387 OA
ATOM     41  H   UNL     1      12.617  28.703  20.196  1.00  0.00     0.211 HD
ENDBRANCH  15  40
ENDBRANCH   9  10
ENDBRANCH   8   9
ENDBRANCH   3   8
BRANCH   3  42
ATOM     42  C   UNL     1      15.251  30.670  18.884  1.00  0.00     0.364 C 
ATOM     43  O   UNL     1      14.444  30.383  17.932  1.00  0.00    -0.246 OA
BRANCH  42  44
ATOM     44  O   UNL     1      14.894  31.791  19.608  1.00  0.00    -0.477 OA
ATOM     45  H   UNL     1      14.161  32.443  19.313  1.00  0.00     0.296 HD
ENDBRANCH  42  44
ENDBRANCH   3  42
BRANCH   6  46
ATOM     46  O   UNL     1      18.749  28.011  18.386  1.00  0.00    -0.391 OA
ATOM     47  H   UNL     1      19.607  28.171  17.917  1.00  0.00     0.211 HD
ENDBRANCH   6  46
BRANCH   7  48
ATOM     48  N   UNL     1      17.456  29.372  15.406  1.00  0.00    -0.348 N 
ATOM     49  C   UNL     1      18.176  29.142  14.239  1.00  0.00     0.217 C 
ATOM     50  H   UNL     1      16.359  29.390  15.263  1.00  0.00     0.163 HD
ATOM     51  C   UNL     1      17.471  28.921  12.910  1.00  0.00     0.114 C 
ATOM     52  O   UNL     1      19.407  29.098  14.184  1.00  0.00    -0.275 OA
ENDBRANCH   7  48
ENDBRANCH   1   2
BRANCH   1  53
ATOM     53  O   UNL     1      19.632  31.350  16.236  1.00  0.00    -0.388 OA
ATOM     54  H   UNL     1      19.306  30.517  15.861  1.00  0.00     0.211 HD
ENDBRANCH   1  53
BRANCH   1  55
ATOM     55  C   UNL     1      19.645  31.921  18.529  1.00  0.00     0.165 C 
BRANCH  55  56
ATOM     56  O   UNL     1      19.320  32.913  19.418  1.00  0.00    -0.388 OA
ATOM     57  H   UNL     1      19.923  33.690  19.394  1.00  0.00     0.211 HD
ENDBRANCH  55  56
BRANCH  55  58
ATOM     58  C   UNL     1      21.163  31.992  18.239  1.00  0.00     0.154 C 
BRANCH  58  59
ATOM     59  N   UNL     1      21.606  30.608  18.119  1.00  0.00    -0.319 N 
ATOM     60  C   UNL     1      22.750  30.120  18.831  1.00  0.00     0.407 C 
ATOM     61  H   UNL     1      21.089  29.939  17.505  1.00  0.00     0.167 HD
ATOM     62  O   UNL     1      23.389  30.892  19.577  1.00  0.00    -0.225 OA
BRANCH  60  63
ATOM     63  O   UNL     1      23.166  28.810  18.708  1.00  0.00    -0.443 OA
BRANCH  63  64
ATOM     64  C   UNL     1      22.379  27.700  18.404  1.00  0.00     0.294 C 
BRANCH  64  65
ATOM     65  C   UNL     1      21.911  27.052  19.655  1.00  0.00     0.120 A 
ATOM     66  C   UNL     1      22.489  25.970  20.292  1.00  0.00     0.138 A 
ATOM     67  N   UNL     1      20.856  27.371  20.420  1.00  0.00    -0.132 NA
ATOM     68  N   UNL     1      21.769  25.684  21.406  1.00  0.00    -0.249 N 
ATOM     69  N   UNL     1      20.787  26.547  21.456  1.00  0.00    -0.067 NA
BRANCH  68  70
ATOM     70  C   UNL     1      22.130  24.619  22.336  1.00  0.00     0.181 C 
BRANCH  70  71
ATOM     71  C   UNL     1      21.406  24.961  23.636  1.00  0.00     0.170 C 
BRANCH  71  72
ATOM     72  O   UNL     1      20.171  24.358  23.620  1.00  0.00    -0.388 OA
ATOM     73  H   UNL     1      20.265  23.382  23.731  1.00  0.00     0.211 HD
ENDBRANCH  71  72
BRANCH  71  74
ATOM     74  C   UNL     1      22.242  24.574  24.817  1.00  0.00     0.239 C 
BRANCH  74  75
ATOM     75  N   UNL     1      23.061  25.703  25.228  1.00  0.00    -0.227 N 
ATOM     76  C   UNL     1      24.385  25.804  24.881  1.00  0.00     0.204 A 
ATOM     77  C   UNL     1      22.708  26.774  25.939  1.00  0.00     0.434 A 
ATOM     78  C   UNL     1      24.850  26.989  25.405  1.00  0.00     0.245 A 
ATOM     79  N   UNL     1      23.813  27.564  26.045  1.00  0.00    -0.074 NA
BRANCH  77  80
ATOM     80  N   UNL     1      21.433  27.043  26.495  1.00  0.00    -0.047 N 
ATOM     81  O   UNL     1      20.485  27.481  25.771  1.00  0.00    -0.390 OA
ATOM     82  O   UNL     1      21.131  26.865  27.817  1.00  0.00    -0.390 OA
ENDBRANCH  77  80
ENDBRANCH  74  75
ENDBRANCH  71  74
ENDBRANCH  70  71
ENDBRANCH  68  70
ENDBRANCH  64  65
ENDBRANCH  63  64
ENDBRANCH  60  63
ENDBRANCH  58  59
ENDBRANCH  55  58
ENDBRANCH   1  55
TORSDOF 35
