REMARK VINA RESULT:    -5.790      8.708     14.695
REMARK INTER + INTRA:         -23.653
REMARK INTER:                 -16.724
REMARK INTRA:                  -6.929
REMARK UNBOUND:                -7.877
REMARK SMILES CC(=O)N[C@@H]1[C@@H](O)C[C@](OC[C@H]2O[C@@H](O[C@H]3[C@H](O)[C@@H](O)[C@H](OCCN=[N+]=[N-])O[C@@H]3CO)[C@H](O)[C@@H](O)[C@H]2O)(C(=O)O)O[C@H]1C(O)[C@H](O)CNC(=O)OCc1cn(CC(O)CCc2ccccc2)nn1
REMARK SMILES IDX 43 1 42 2 9 3 8 4 41 5 6 6 5 7 10 8 11 9 12 10 14 11 13 12
REMARK SMILES IDX 32 13 34 14 36 15 15 16 16 17 29 18 28 19 21 20 17 21 19 22
REMARK SMILES IDX 30 23 31 24 22 26 23 27 24 28 25 29 26 30 27 31 18 32 20 34
REMARK SMILES IDX 33 36 35 38 37 40 38 42 39 43 40 44 7 46 4 48 2 49 1 51 3 52
REMARK SMILES IDX 44 53 45 55 46 56 47 58 48 59 49 60 50 62 51 63 52 64 53 65
REMARK SMILES IDX 54 66 68 67 55 68 67 69 56 70 57 71 58 72 59 74 60 75 61 76
REMARK SMILES IDX 62 77 66 78 63 79 65 80 64 81
REMARK H PARENT 31 25 18 33 20 35 33 37 35 39 37 41 40 45 7 47 4 50 44 54
REMARK H PARENT 46 57 48 61 58 73
REMARK Flexibility Score: inf
ROOT
ATOM      1  C   UNL     1      12.649  31.188  24.854  1.00  0.00     0.176 C 
ENDROOT
BRANCH   1   2
ATOM      2  C   UNL     1      12.354  32.297  23.827  1.00  0.00     0.178 C 
ATOM      3  C   UNL     1      12.688  32.195  21.481  1.00  0.00     0.272 C 
ATOM      4  C   UNL     1      14.100  32.601  21.746  1.00  0.00     0.113 C 
ATOM      5  O   UNL     1      12.126  31.732  22.640  1.00  0.00    -0.332 OA
ATOM      6  C   UNL     1      14.169  33.673  22.774  1.00  0.00     0.145 C 
ATOM      7  C   UNL     1      13.358  33.372  23.999  1.00  0.00     0.142 C 
BRANCH   3   8
ATOM      8  O   UNL     1      12.631  31.234  20.452  1.00  0.00    -0.338 OA
BRANCH   8   9
ATOM      9  C   UNL     1      13.387  30.128  20.611  1.00  0.00     0.199 C 
BRANCH   9  10
ATOM     10  C   UNL     1      13.883  29.587  19.250  1.00  0.00     0.179 C 
ATOM     11  C   UNL     1      14.134  30.033  17.039  1.00  0.00     0.282 C 
ATOM     12  O   UNL     1      13.540  30.390  18.222  1.00  0.00    -0.341 OA
ATOM     13  C   UNL     1      15.658  30.199  17.296  1.00  0.00     0.202 C 
ATOM     14  C   UNL     1      15.982  28.950  18.121  1.00  0.00     0.179 C 
ATOM     15  C   UNL     1      15.302  29.194  19.440  1.00  0.00     0.177 C 
BRANCH  11  16
ATOM     16  O   UNL     1      13.799  30.876  16.040  1.00  0.00    -0.341 OA
BRANCH  16  17
ATOM     17  C   UNL     1      13.000  30.429  15.013  1.00  0.00     0.184 C 
ATOM     18  C   UNL     1      12.064  29.338  15.412  1.00  0.00     0.178 C 
ATOM     19  O   UNL     1      12.129  28.173  14.716  1.00  0.00    -0.341 OA
ATOM     20  C   UNL     1      12.492  28.221  13.404  1.00  0.00     0.281 C 
ATOM     21  C   UNL     1      13.902  30.142  13.847  1.00  0.00     0.180 C 
ATOM     22  C   UNL     1      13.906  28.746  13.340  1.00  0.00     0.202 C 
BRANCH  18  23
ATOM     23  C   UNL     1      10.641  29.845  15.322  1.00  0.00     0.191 C 
BRANCH  23  24
ATOM     24  O   UNL     1      10.543  31.169  15.745  1.00  0.00    -0.394 OA
ATOM     25  H   UNL     1      10.678  31.148  16.740  1.00  0.00     0.210 HD
ENDBRANCH  23  24
ENDBRANCH  18  23
BRANCH  20  26
ATOM     26  O   UNL     1      11.620  28.937  12.599  1.00  0.00    -0.350 OA
BRANCH  26  27
ATOM     27  C   UNL     1      11.074  28.089  11.634  1.00  0.00     0.169 C 
BRANCH  27  28
ATOM     28  C   UNL     1       9.557  28.248  11.717  1.00  0.00     0.119 C 
BRANCH  28  29
ATOM     29  N   UNL     1       8.905  26.976  11.874  1.00  0.00    -0.092 NA
ATOM     30  N   UNL     1       8.423  26.411  10.871  1.00  0.00     0.001 N 
ATOM     31  N   UNL     1       7.707  26.004   9.937  1.00  0.00    -0.003 NA
ENDBRANCH  28  29
ENDBRANCH  27  28
ENDBRANCH  26  27
ENDBRANCH  20  26
BRANCH  21  32
ATOM     32  O   UNL     1      13.572  30.958  12.732  1.00  0.00    -0.387 OA
ATOM     33  H   UNL     1      14.125  31.772  12.696  1.00  0.00     0.211 HD
ENDBRANCH  21  32
BRANCH  22  34
ATOM     34  O   UNL     1      14.700  27.921  14.143  1.00  0.00    -0.385 OA
ATOM     35  H   UNL     1      15.394  27.458  13.631  1.00  0.00     0.211 HD
ENDBRANCH  22  34
ENDBRANCH  16  17
ENDBRANCH  11  16
BRANCH  13  36
ATOM     36  O   UNL     1      16.392  30.313  16.162  1.00  0.00    -0.385 OA
ATOM     37  H   UNL     1      15.971  30.079  15.319  1.00  0.00     0.211 HD
ENDBRANCH  13  36
BRANCH  14  38
ATOM     38  O   UNL     1      17.357  28.782  18.256  1.00  0.00    -0.387 OA
ATOM     39  H   UNL     1      17.626  27.888  17.946  1.00  0.00     0.211 HD
ENDBRANCH  14  38
BRANCH  15  40
ATOM     40  O   UNL     1      16.008  30.231  20.059  1.00  0.00    -0.387 OA
ATOM     41  H   UNL     1      15.936  30.178  21.040  1.00  0.00     0.211 HD
ENDBRANCH  15  40
ENDBRANCH   9  10
ENDBRANCH   8   9
ENDBRANCH   3   8
BRANCH   3  42
ATOM     42  C   UNL     1      11.953  33.350  20.908  1.00  0.00     0.364 C 
ATOM     43  O   UNL     1      12.375  33.868  19.835  1.00  0.00    -0.246 OA
BRANCH  42  44
ATOM     44  O   UNL     1      10.835  33.891  21.478  1.00  0.00    -0.477 OA
ATOM     45  H   UNL     1      10.586  34.850  21.280  1.00  0.00     0.296 HD
ENDBRANCH  42  44
ENDBRANCH   3  42
BRANCH   6  46
ATOM     46  O   UNL     1      15.549  33.816  23.086  1.00  0.00    -0.391 OA
ATOM     47  H   UNL     1      15.970  32.955  23.283  1.00  0.00     0.211 HD
ENDBRANCH   6  46
BRANCH   7  48
ATOM     48  N   UNL     1      12.803  34.551  24.613  1.00  0.00    -0.348 N 
ATOM     49  C   UNL     1      13.509  35.368  25.538  1.00  0.00     0.217 C 
ATOM     50  H   UNL     1      11.808  34.856  24.392  1.00  0.00     0.163 HD
ATOM     51  C   UNL     1      12.830  36.557  26.096  1.00  0.00     0.114 C 
ATOM     52  O   UNL     1      14.667  35.094  25.869  1.00  0.00    -0.275 OA
ENDBRANCH   7  48
ENDBRANCH   1   2
BRANCH   1  53
ATOM     53  O   UNL     1      13.674  31.581  25.692  1.00  0.00    -0.388 OA
ATOM     54  H   UNL     1      13.684  32.554  25.861  1.00  0.00     0.211 HD
ENDBRANCH   1  53
BRANCH   1  55
ATOM     55  C   UNL     1      12.750  29.821  24.290  1.00  0.00     0.165 C 
BRANCH  55  56
ATOM     56  O   UNL     1      11.897  28.972  24.947  1.00  0.00    -0.388 OA
ATOM     57  H   UNL     1      11.638  28.189  24.421  1.00  0.00     0.211 HD
ENDBRANCH  55  56
BRANCH  55  58
ATOM     58  C   UNL     1      14.188  29.379  24.435  1.00  0.00     0.154 C 
BRANCH  58  59
ATOM     59  N   UNL     1      15.112  29.886  23.493  1.00  0.00    -0.319 N 
ATOM     60  C   UNL     1      16.329  30.572  23.751  1.00  0.00     0.407 C 
ATOM     61  H   UNL     1      14.919  29.763  22.438  1.00  0.00     0.167 HD
ATOM     62  O   UNL     1      16.700  30.772  24.913  1.00  0.00    -0.225 OA
BRANCH  60  63
ATOM     63  O   UNL     1      17.125  31.030  22.712  1.00  0.00    -0.443 OA
BRANCH  63  64
ATOM     64  C   UNL     1      18.502  31.028  22.636  1.00  0.00     0.294 C 
BRANCH  64  65
ATOM     65  C   UNL     1      19.135  29.925  21.896  1.00  0.00     0.120 A 
ATOM     66  C   UNL     1      20.470  29.541  21.940  1.00  0.00     0.138 A 
ATOM     67  N   UNL     1      18.530  29.108  21.009  1.00  0.00    -0.132 NA
ATOM     68  N   UNL     1      20.600  28.528  21.088  1.00  0.00    -0.250 N 
ATOM     69  N   UNL     1      19.437  28.278  20.540  1.00  0.00    -0.067 NA
BRANCH  68  70
ATOM     70  C   UNL     1      21.896  27.846  20.830  1.00  0.00     0.177 C 
BRANCH  70  71
ATOM     71  C   UNL     1      21.649  26.389  21.034  1.00  0.00     0.136 C 
BRANCH  71  72
ATOM     72  O   UNL     1      20.588  26.161  21.928  1.00  0.00    -0.391 OA
ATOM     73  H   UNL     1      20.875  26.214  22.864  1.00  0.00     0.211 HD
ENDBRANCH  71  72
BRANCH  71  74
ATOM     74  C   UNL     1      22.834  25.594  21.414  1.00  0.00     0.038 C 
BRANCH  74  75
ATOM     75  C   UNL     1      22.751  24.444  22.307  1.00  0.00     0.038 C 
BRANCH  75  76
ATOM     76  C   UNL     1      23.053  24.588  23.715  1.00  0.00    -0.048 A 
ATOM     77  C   UNL     1      24.370  24.616  24.164  1.00  0.00     0.004 A 
ATOM     78  C   UNL     1      22.045  24.625  24.679  1.00  0.00     0.004 A 
ATOM     79  C   UNL     1      24.651  24.677  25.497  1.00  0.00     0.000 A 
ATOM     80  C   UNL     1      22.362  24.686  26.014  1.00  0.00     0.000 A 
ATOM     81  C   UNL     1      23.676  24.712  26.463  1.00  0.00     0.000 A 
ENDBRANCH  75  76
ENDBRANCH  74  75
ENDBRANCH  71  74
ENDBRANCH  70  71
ENDBRANCH  68  70
ENDBRANCH  64  65
ENDBRANCH  63  64
ENDBRANCH  60  63
ENDBRANCH  58  59
ENDBRANCH  55  58
ENDBRANCH   1  55
TORSDOF 35
