REMARK VINA RESULT:    -5.777      7.326     13.007
REMARK INTER + INTRA:         -21.364
REMARK INTER:                 -13.891
REMARK INTRA:                  -7.474
REMARK UNBOUND:                -7.145
REMARK SMILES CC(=O)N[C@@H]1[C@@H](O)C[C@](OC[C@H]2O[C@@H](O[C@H]3[C@H](O)[C@@H](O)[C@H](OCCN=[N+]=[N-])O[C@@H]3CO)[C@H](O)[C@@H](O)[C@H]2O)(C(=O)O)O[C@H]1C(O)[C@H](O)CNC(=O)OCc1cn(-c2ccccc2Br)nn1
REMARK SMILES IDX 9 1 8 2 6 3 5 4 42 5 41 6 10 7 11 8 12 9 14 10 13 11 32 12
REMARK SMILES IDX 34 13 36 14 15 15 16 16 29 17 28 18 21 19 17 20 19 21 30 22
REMARK SMILES IDX 31 23 22 25 23 26 24 27 25 28 26 29 27 30 18 31 20 33 33 35
REMARK SMILES IDX 35 37 37 39 38 41 39 42 40 43 7 45 43 47 44 48 45 50 46 51
REMARK SMILES IDX 47 53 48 54 49 55 50 57 51 58 52 59 53 60 54 61 64 62 55 63
REMARK SMILES IDX 63 64 56 65 57 66 61 67 58 68 60 69 62 70 59 71 4 72 2 73
REMARK SMILES IDX 1 75 3 76
REMARK H PARENT 31 24 18 32 20 34 33 36 35 38 37 40 40 44 7 46 44 49 46 52
REMARK H PARENT 48 56 4 74
REMARK Flexibility Score: inf
ROOT
ATOM      1  C   UNL     1      17.541  29.660  19.475  1.00  0.00     0.272 C 
ATOM      2  C   UNL     1      16.608  30.400  18.593  1.00  0.00     0.113 C 
ATOM      3  C   UNL     1      15.314  30.703  19.274  1.00  0.00     0.145 C 
ATOM      4  C   UNL     1      15.419  31.207  20.669  1.00  0.00     0.142 C 
ATOM      5  C   UNL     1      16.783  31.022  21.236  1.00  0.00     0.178 C 
ATOM      6  O   UNL     1      17.493  29.946  20.823  1.00  0.00    -0.332 OA
ENDROOT
BRANCH   1   7
ATOM      7  O   UNL     1      18.882  29.774  19.154  1.00  0.00    -0.338 OA
BRANCH   7   8
ATOM      8  C   UNL     1      19.209  30.539  18.086  1.00  0.00     0.199 C 
BRANCH   8   9
ATOM      9  C   UNL     1      20.536  29.978  17.519  1.00  0.00     0.179 C 
ATOM     10  C   UNL     1      22.233  28.573  18.217  1.00  0.00     0.282 C 
ATOM     11  O   UNL     1      21.391  29.618  18.490  1.00  0.00    -0.341 OA
ATOM     12  C   UNL     1      22.748  28.586  16.796  1.00  0.00     0.202 C 
ATOM     13  C   UNL     1      21.602  28.607  15.806  1.00  0.00     0.179 C 
ATOM     14  C   UNL     1      20.294  28.943  16.495  1.00  0.00     0.177 C 
BRANCH  10  15
ATOM     15  O   UNL     1      21.703  27.342  18.577  1.00  0.00    -0.341 OA
BRANCH  15  16
ATOM     16  C   UNL     1      22.175  26.843  19.769  1.00  0.00     0.184 C 
ATOM     17  C   UNL     1      22.552  25.382  19.725  1.00  0.00     0.178 C 
ATOM     18  O   UNL     1      23.369  25.155  20.822  1.00  0.00    -0.341 OA
ATOM     19  C   UNL     1      22.817  25.445  22.028  1.00  0.00     0.281 C 
ATOM     20  C   UNL     1      21.112  26.927  20.859  1.00  0.00     0.180 C 
ATOM     21  C   UNL     1      21.557  26.204  22.062  1.00  0.00     0.202 C 
BRANCH  17  22
ATOM     22  C   UNL     1      23.259  24.958  18.481  1.00  0.00     0.191 C 
BRANCH  22  23
ATOM     23  O   UNL     1      22.316  24.600  17.521  1.00  0.00    -0.394 OA
ATOM     24  H   UNL     1      21.882  23.768  17.779  1.00  0.00     0.210 HD
ENDBRANCH  22  23
ENDBRANCH  17  22
BRANCH  19  25
ATOM     25  O   UNL     1      23.795  26.173  22.746  1.00  0.00    -0.350 OA
BRANCH  25  26
ATOM     26  C   UNL     1      25.077  25.812  22.442  1.00  0.00     0.169 C 
BRANCH  26  27
ATOM     27  C   UNL     1      25.905  26.868  21.779  1.00  0.00     0.119 C 
BRANCH  27  28
ATOM     28  N   UNL     1      27.006  26.193  21.109  1.00  0.00    -0.092 NA
ATOM     29  N   UNL     1      26.789  25.220  20.401  1.00  0.00     0.001 N 
ATOM     30  N   UNL     1      26.588  24.288  19.632  1.00  0.00    -0.003 NA
ENDBRANCH  27  28
ENDBRANCH  26  27
ENDBRANCH  25  26
ENDBRANCH  19  25
BRANCH  20  31
ATOM     31  O   UNL     1      20.812  28.242  21.176  1.00  0.00    -0.387 OA
ATOM     32  H   UNL     1      19.938  28.347  21.619  1.00  0.00     0.211 HD
ENDBRANCH  20  31
BRANCH  21  33
ATOM     33  O   UNL     1      20.467  25.364  22.436  1.00  0.00    -0.385 OA
ATOM     34  H   UNL     1      20.227  25.500  23.382  1.00  0.00     0.211 HD
ENDBRANCH  21  33
ENDBRANCH  15  16
ENDBRANCH  10  15
BRANCH  12  35
ATOM     35  O   UNL     1      23.647  29.633  16.586  1.00  0.00    -0.385 OA
ATOM     36  H   UNL     1      24.025  29.610  15.673  1.00  0.00     0.211 HD
ENDBRANCH  12  35
BRANCH  13  37
ATOM     37  O   UNL     1      21.552  27.434  15.080  1.00  0.00    -0.387 OA
ATOM     38  H   UNL     1      21.286  27.607  14.154  1.00  0.00     0.211 HD
ENDBRANCH  13  37
BRANCH  14  39
ATOM     39  O   UNL     1      19.760  27.765  16.989  1.00  0.00    -0.387 OA
ATOM     40  H   UNL     1      19.557  27.808  17.955  1.00  0.00     0.211 HD
ENDBRANCH  14  39
ENDBRANCH   8   9
ENDBRANCH   7   8
ENDBRANCH   1   7
BRANCH   1  41
ATOM     41  C   UNL     1      17.112  28.206  19.402  1.00  0.00     0.364 C 
ATOM     42  O   UNL     1      17.435  27.581  18.369  1.00  0.00    -0.246 OA
BRANCH  41  43
ATOM     43  O   UNL     1      16.410  27.574  20.384  1.00  0.00    -0.477 OA
ATOM     44  H   UNL     1      16.415  27.943  21.347  1.00  0.00     0.296 HD
ENDBRANCH  41  43
ENDBRANCH   1  41
BRANCH   3  45
ATOM     45  O   UNL     1      14.594  31.609  18.462  1.00  0.00    -0.391 OA
ATOM     46  H   UNL     1      13.989  32.126  19.063  1.00  0.00     0.211 HD
ENDBRANCH   3  45
BRANCH   5  47
ATOM     47  C   UNL     1      17.564  32.336  21.258  1.00  0.00     0.176 C 
BRANCH  47  48
ATOM     48  O   UNL     1      18.918  32.170  21.108  1.00  0.00    -0.388 OA
ATOM     49  H   UNL     1      19.155  31.212  20.935  1.00  0.00     0.211 HD
ENDBRANCH  47  48
BRANCH  47  50
ATOM     50  C   UNL     1      17.327  33.098  22.573  1.00  0.00     0.165 C 
BRANCH  50  51
ATOM     51  O   UNL     1      18.215  34.143  22.614  1.00  0.00    -0.388 OA
ATOM     52  H   UNL     1      18.922  34.096  23.281  1.00  0.00     0.211 HD
ENDBRANCH  50  51
BRANCH  50  53
ATOM     53  C   UNL     1      17.500  32.183  23.741  1.00  0.00     0.154 C 
BRANCH  53  54
ATOM     54  N   UNL     1      18.838  31.716  23.871  1.00  0.00    -0.319 N 
ATOM     55  C   UNL     1      19.897  32.316  24.583  1.00  0.00     0.407 C 
ATOM     56  H   UNL     1      19.092  30.802  23.378  1.00  0.00     0.167 HD
ATOM     57  O   UNL     1      19.725  33.369  25.205  1.00  0.00    -0.225 OA
BRANCH  55  58
ATOM     58  O   UNL     1      21.163  31.732  24.597  1.00  0.00    -0.443 OA
BRANCH  58  59
ATOM     59  C   UNL     1      21.567  30.676  23.759  1.00  0.00     0.294 C 
BRANCH  59  60
ATOM     60  C   UNL     1      21.211  29.349  24.358  1.00  0.00     0.121 A 
ATOM     61  C   UNL     1      22.069  28.584  25.149  1.00  0.00     0.144 A 
ATOM     62  N   UNL     1      20.088  28.655  24.261  1.00  0.00    -0.131 NA
ATOM     63  N   UNL     1      21.408  27.467  25.486  1.00  0.00    -0.219 N 
ATOM     64  N   UNL     1      20.214  27.515  24.948  1.00  0.00    -0.062 NA
BRANCH  63  65
ATOM     65  C   UNL     1      21.901  26.404  26.283  1.00  0.00     0.081 A 
ATOM     66  C   UNL     1      22.421  25.260  25.721  1.00  0.00     0.029 A 
ATOM     67  C   UNL     1      21.870  26.497  27.648  1.00  0.00     0.043 A 
ATOM     68  C   UNL     1      22.897  24.236  26.537  1.00  0.00     0.002 A 
ATOM     69  C   UNL     1      22.338  25.491  28.459  1.00  0.00     0.018 A 
ATOM     70  Br  UNL     1      21.154  28.062  28.466  1.00  0.00    -0.048 Br
ATOM     71  C   UNL     1      22.860  24.344  27.910  1.00  0.00     0.001 A 
ENDBRANCH  63  65
ENDBRANCH  59  60
ENDBRANCH  58  59
ENDBRANCH  55  58
ENDBRANCH  53  54
ENDBRANCH  50  53
ENDBRANCH  47  50
ENDBRANCH   5  47
BRANCH   4  72
ATOM     72  N   UNL     1      14.428  30.642  21.556  1.00  0.00    -0.348 N 
ATOM     73  C   UNL     1      13.116  31.172  21.627  1.00  0.00     0.217 C 
ATOM     74  H   UNL     1      14.667  29.830  22.158  1.00  0.00     0.163 HD
ATOM     75  C   UNL     1      12.155  30.527  22.571  1.00  0.00     0.114 C 
ATOM     76  O   UNL     1      12.754  32.144  20.937  1.00  0.00    -0.275 OA
ENDBRANCH   4  72
TORSDOF 30
