REMARK VINA RESULT:    -6.489      2.593     10.042
REMARK INTER + INTRA:         -21.818
REMARK INTER:                 -13.978
REMARK INTRA:                  -7.840
REMARK UNBOUND:                -5.087
REMARK SMILES CC(=O)N[C@@H]1[C@@H](O)C[C@](OC[C@H]2O[C@@H](O[C@H]3[C@H](O)[C@@H](O)[C@H](OCCN=[N+]=[N-])O[C@@H]3CO)[C@H](O)[C@@H](O)[C@H]2O)(C(=O)O)O[C@H]1C(O)[C@H](O)CNC(=O)OCc1cn(CS(=O)(=O)c2ccccc2)nn1
REMARK SMILES IDX 9 1 8 2 6 3 5 4 42 5 41 6 10 7 11 8 12 9 14 10 13 11 32 12
REMARK SMILES IDX 34 13 36 14 15 15 16 16 29 17 28 18 21 19 17 20 19 21 30 22
REMARK SMILES IDX 31 23 22 25 23 26 24 27 25 28 26 29 27 30 18 31 20 33 33 35
REMARK SMILES IDX 35 37 37 39 38 41 39 42 40 43 7 45 43 47 44 48 45 50 46 51
REMARK SMILES IDX 47 53 48 54 49 55 50 57 51 58 52 59 53 60 54 61 67 62 55 63
REMARK SMILES IDX 66 64 56 65 57 66 58 67 59 68 60 69 61 70 65 71 62 72 64 73
REMARK SMILES IDX 63 74 4 75 2 76 1 78 3 79
REMARK H PARENT 31 24 18 32 20 34 33 36 35 38 37 40 40 44 7 46 44 49 46 52
REMARK H PARENT 48 56 4 77
REMARK Flexibility Score: inf
ROOT
ATOM      1  C   UNL     1      23.472  25.504  22.159  1.00  0.00     0.272 C 
ATOM      2  C   UNL     1      22.507  24.430  22.454  1.00  0.00     0.113 C 
ATOM      3  C   UNL     1      21.256  24.873  23.186  1.00  0.00     0.145 C 
ATOM      4  C   UNL     1      21.708  25.676  24.356  1.00  0.00     0.142 C 
ATOM      5  C   UNL     1      22.700  26.746  23.999  1.00  0.00     0.178 C 
ATOM      6  O   UNL     1      23.715  26.407  23.181  1.00  0.00    -0.332 OA
ENDROOT
BRANCH   1   7
ATOM      7  O   UNL     1      23.259  26.121  20.944  1.00  0.00    -0.338 OA
BRANCH   7   8
ATOM      8  C   UNL     1      22.860  25.341  19.909  1.00  0.00     0.199 C 
BRANCH   8   9
ATOM      9  C   UNL     1      22.791  26.159  18.601  1.00  0.00     0.179 C 
ATOM     10  C   UNL     1      21.749  28.277  18.764  1.00  0.00     0.282 C 
ATOM     11  O   UNL     1      21.689  26.917  18.658  1.00  0.00    -0.341 OA
ATOM     12  C   UNL     1      22.950  28.725  19.507  1.00  0.00     0.202 C 
ATOM     13  C   UNL     1      24.210  28.133  18.953  1.00  0.00     0.179 C 
ATOM     14  C   UNL     1      24.043  26.849  18.249  1.00  0.00     0.177 C 
BRANCH  10  15
ATOM     15  O   UNL     1      20.551  28.643  19.400  1.00  0.00    -0.341 OA
BRANCH  15  16
ATOM     16  C   UNL     1      19.691  29.400  18.680  1.00  0.00     0.184 C 
ATOM     17  C   UNL     1      18.919  30.369  19.525  1.00  0.00     0.178 C 
ATOM     18  O   UNL     1      18.424  31.354  18.675  1.00  0.00    -0.341 OA
ATOM     19  C   UNL     1      17.819  30.893  17.540  1.00  0.00     0.281 C 
ATOM     20  C   UNL     1      18.580  28.531  18.038  1.00  0.00     0.180 C 
ATOM     21  C   UNL     1      17.552  29.438  17.487  1.00  0.00     0.202 C 
BRANCH  17  22
ATOM     22  C   UNL     1      19.677  31.023  20.627  1.00  0.00     0.191 C 
BRANCH  22  23
ATOM     23  O   UNL     1      19.769  30.149  21.704  1.00  0.00    -0.394 OA
ATOM     24  H   UNL     1      20.569  30.359  22.239  1.00  0.00     0.210 HD
ENDBRANCH  22  23
ENDBRANCH  17  22
BRANCH  19  25
ATOM     25  O   UNL     1      18.646  31.241  16.476  1.00  0.00    -0.350 OA
BRANCH  25  26
ATOM     26  C   UNL     1      18.054  30.915  15.233  1.00  0.00     0.169 C 
BRANCH  26  27
ATOM     27  C   UNL     1      16.753  31.675  15.092  1.00  0.00     0.119 C 
BRANCH  27  28
ATOM     28  N   UNL     1      15.810  30.810  14.390  1.00  0.00    -0.092 NA
ATOM     29  N   UNL     1      14.780  30.462  15.001  1.00  0.00     0.001 N 
ATOM     30  N   UNL     1      13.922  29.947  15.742  1.00  0.00    -0.003 NA
ENDBRANCH  27  28
ENDBRANCH  26  27
ENDBRANCH  25  26
ENDBRANCH  19  25
BRANCH  20  31
ATOM     31  O   UNL     1      19.113  27.732  17.040  1.00  0.00    -0.387 OA
ATOM     32  H   UNL     1      20.011  28.085  16.812  1.00  0.00     0.211 HD
ENDBRANCH  20  31
BRANCH  21  33
ATOM     33  O   UNL     1      16.352  29.214  18.208  1.00  0.00    -0.385 OA
ATOM     34  H   UNL     1      16.507  29.118  19.171  1.00  0.00     0.211 HD
ENDBRANCH  21  33
ENDBRANCH  15  16
ENDBRANCH  10  15
BRANCH  12  35
ATOM     35  O   UNL     1      23.140  30.137  19.369  1.00  0.00    -0.385 OA
ATOM     36  H   UNL     1      23.515  30.253  18.464  1.00  0.00     0.211 HD
ENDBRANCH  12  35
BRANCH  13  37
ATOM     37  O   UNL     1      25.201  28.035  19.962  1.00  0.00    -0.387 OA
ATOM     38  H   UNL     1      26.088  27.864  19.535  1.00  0.00     0.211 HD
ENDBRANCH  13  37
BRANCH  14  39
ATOM     39  O   UNL     1      25.181  26.050  18.466  1.00  0.00    -0.387 OA
ATOM     40  H   UNL     1      25.184  25.786  19.422  1.00  0.00     0.211 HD
ENDBRANCH  14  39
ENDBRANCH   8   9
ENDBRANCH   7   8
ENDBRANCH   1   7
BRANCH   1  41
ATOM     41  C   UNL     1      24.818  24.806  22.047  1.00  0.00     0.364 C 
ATOM     42  O   UNL     1      24.914  23.652  22.496  1.00  0.00    -0.246 OA
BRANCH  41  43
ATOM     43  O   UNL     1      25.894  25.448  21.457  1.00  0.00    -0.477 OA
ATOM     44  H   UNL     1      26.068  25.344  20.446  1.00  0.00     0.296 HD
ENDBRANCH  41  43
ENDBRANCH   1  41
BRANCH   3  45
ATOM     45  O   UNL     1      20.436  25.530  22.311  1.00  0.00    -0.391 OA
ATOM     46  H   UNL     1      19.782  24.868  21.953  1.00  0.00     0.211 HD
ENDBRANCH   3  45
BRANCH   5  47
ATOM     47  C   UNL     1      22.041  28.060  23.646  1.00  0.00     0.176 C 
BRANCH  47  48
ATOM     48  O   UNL     1      21.419  28.056  22.400  1.00  0.00    -0.388 OA
ATOM     49  H   UNL     1      21.042  28.906  22.132  1.00  0.00     0.211 HD
ENDBRANCH  47  48
BRANCH  47  50
ATOM     50  C   UNL     1      21.048  28.523  24.702  1.00  0.00     0.165 C 
BRANCH  50  51
ATOM     51  O   UNL     1      19.752  28.560  24.240  1.00  0.00    -0.388 OA
ATOM     52  H   UNL     1      19.250  27.736  24.331  1.00  0.00     0.211 HD
ENDBRANCH  50  51
BRANCH  50  53
ATOM     53  C   UNL     1      21.430  29.774  25.397  1.00  0.00     0.154 C 
BRANCH  53  54
ATOM     54  N   UNL     1      20.400  30.740  25.632  1.00  0.00    -0.319 N 
ATOM     55  C   UNL     1      20.114  31.872  24.836  1.00  0.00     0.407 C 
ATOM     56  H   UNL     1      19.786  30.597  26.492  1.00  0.00     0.167 HD
ATOM     57  O   UNL     1      20.767  32.118  23.805  1.00  0.00    -0.225 OA
BRANCH  55  58
ATOM     58  O   UNL     1      19.083  32.712  25.224  1.00  0.00    -0.443 OA
BRANCH  58  59
ATOM     59  C   UNL     1      17.903  32.908  24.502  1.00  0.00     0.294 C 
BRANCH  59  60
ATOM     60  C   UNL     1      17.408  31.612  24.000  1.00  0.00     0.120 A 
ATOM     61  C   UNL     1      16.765  31.447  22.784  1.00  0.00     0.139 A 
ATOM     62  N   UNL     1      17.458  30.386  24.543  1.00  0.00    -0.132 NA
ATOM     63  N   UNL     1      16.450  30.149  22.625  1.00  0.00    -0.237 N 
ATOM     64  N   UNL     1      16.887  29.533  23.718  1.00  0.00    -0.066 NA
BRANCH  63  65
ATOM     65  C   UNL     1      15.783  29.554  21.501  1.00  0.00     0.287 C 
BRANCH  65  66
ATOM     66  S   UNL     1      14.034  29.532  21.894  1.00  0.00     0.198 S 
ATOM     67  O   UNL     1      13.813  29.823  23.329  1.00  0.00    -0.222 OA
ATOM     68  O   UNL     1      13.520  28.152  21.517  1.00  0.00    -0.222 OA
BRANCH  66  69
ATOM     69  C   UNL     1      13.261  30.729  20.887  1.00  0.00     0.069 A 
ATOM     70  C   UNL     1      13.562  30.865  19.549  1.00  0.00     0.020 A 
ATOM     71  C   UNL     1      12.315  31.586  21.405  1.00  0.00     0.020 A 
ATOM     72  C   UNL     1      12.957  31.806  18.758  1.00  0.00     0.001 A 
ATOM     73  C   UNL     1      11.700  32.533  20.627  1.00  0.00     0.001 A 
ATOM     74  C   UNL     1      12.025  32.641  19.298  1.00  0.00     0.000 A 
ENDBRANCH  66  69
ENDBRANCH  65  66
ENDBRANCH  63  65
ENDBRANCH  59  60
ENDBRANCH  58  59
ENDBRANCH  55  58
ENDBRANCH  53  54
ENDBRANCH  50  53
ENDBRANCH  47  50
ENDBRANCH   5  47
BRANCH   4  75
ATOM     75  N   UNL     1      22.366  24.784  25.303  1.00  0.00    -0.348 N 
ATOM     76  C   UNL     1      22.438  25.088  26.691  1.00  0.00     0.217 C 
ATOM     77  H   UNL     1      22.822  23.870  24.999  1.00  0.00     0.163 HD
ATOM     78  C   UNL     1      23.130  24.132  27.627  1.00  0.00     0.114 C 
ATOM     79  O   UNL     1      21.928  26.151  27.148  1.00  0.00    -0.275 OA
ENDBRANCH   4  75
TORSDOF 32
