REMARK VINA RESULT:    -5.096      4.724     10.656
REMARK INTER + INTRA:         -21.927
REMARK INTER:                 -14.198
REMARK INTRA:                  -7.729
REMARK UNBOUND:                -8.936
REMARK SMILES CC(=O)N[C@@H]1[C@@H](O)C[C@](OC[C@H]2O[C@@H](O[C@H]3[C@H](O)[C@@H](O)[C@H](OCCN=[N+]=[N-])O[C@@H]3CO)[C@H](O)[C@@H](O)[C@H]2O)(C(=O)O)O[C@H]1C(O)[C@H](O)CNC(=O)OCc1cn(-c2ccc(S(N)(=O)=O)cc2)nn1
REMARK SMILES IDX 9 1 8 2 6 3 5 4 42 5 41 6 10 7 11 8 12 9 14 10 13 11 32 12
REMARK SMILES IDX 34 13 36 14 15 15 16 16 29 17 28 18 21 19 17 20 19 21 30 22
REMARK SMILES IDX 31 23 22 25 23 26 24 27 25 28 26 29 27 30 18 31 20 33 33 35
REMARK SMILES IDX 35 37 37 39 38 41 39 42 40 43 7 45 43 47 44 48 45 50 46 51
REMARK SMILES IDX 47 53 48 54 49 55 50 57 51 58 52 59 53 60 54 61 67 62 55 63
REMARK SMILES IDX 66 64 56 65 57 66 65 67 58 68 64 69 59 70 60 71 62 72 63 73
REMARK SMILES IDX 61 74 4 77 2 78 1 80 3 81
REMARK H PARENT 31 24 18 32 20 34 33 36 35 38 37 40 40 44 7 46 44 49 46 52
REMARK H PARENT 48 56 61 75 61 76 4 79
REMARK Flexibility Score: inf
ROOT
ATOM      1  C   UNL     1      19.284  30.945  20.097  1.00  0.00     0.272 C 
ATOM      2  C   UNL     1      19.199  32.286  19.350  1.00  0.00     0.113 C 
ATOM      3  C   UNL     1      19.037  32.101  17.883  1.00  0.00     0.145 C 
ATOM      4  C   UNL     1      19.899  30.952  17.431  1.00  0.00     0.142 C 
ATOM      5  C   UNL     1      20.973  30.804  18.516  1.00  0.00     0.178 C 
ATOM      6  O   UNL     1      20.329  30.206  19.597  1.00  0.00    -0.332 OA
ENDROOT
BRANCH   1   7
ATOM      7  O   UNL     1      18.035  30.356  19.944  1.00  0.00    -0.338 OA
BRANCH   7   8
ATOM      8  C   UNL     1      17.985  29.034  20.287  1.00  0.00     0.199 C 
BRANCH   8   9
ATOM      9  C   UNL     1      16.741  28.430  19.612  1.00  0.00     0.179 C 
ATOM     10  C   UNL     1      14.661  29.214  18.883  1.00  0.00     0.282 C 
ATOM     11  O   UNL     1      15.714  29.288  19.847  1.00  0.00    -0.341 OA
ATOM     12  C   UNL     1      15.306  29.718  17.624  1.00  0.00     0.202 C 
ATOM     13  C   UNL     1      16.322  28.700  17.124  1.00  0.00     0.179 C 
ATOM     14  C   UNL     1      16.991  27.973  18.232  1.00  0.00     0.177 C 
BRANCH  10  15
ATOM     15  O   UNL     1      13.676  30.035  19.307  1.00  0.00    -0.341 OA
BRANCH  15  16
ATOM     16  C   UNL     1      13.982  30.789  20.471  1.00  0.00     0.184 C 
ATOM     17  C   UNL     1      12.874  30.646  21.410  1.00  0.00     0.178 C 
ATOM     18  O   UNL     1      12.490  31.774  22.106  1.00  0.00    -0.341 OA
ATOM     19  C   UNL     1      13.435  32.747  22.272  1.00  0.00     0.281 C 
ATOM     20  C   UNL     1      14.329  32.204  20.068  1.00  0.00     0.180 C 
ATOM     21  C   UNL     1      13.775  33.286  20.909  1.00  0.00     0.202 C 
BRANCH  17  22
ATOM     22  C   UNL     1      13.071  29.557  22.444  1.00  0.00     0.191 C 
BRANCH  22  23
ATOM     23  O   UNL     1      13.448  28.368  21.835  1.00  0.00    -0.394 OA
ATOM     24  H   UNL     1      12.803  27.639  22.013  1.00  0.00     0.210 HD
ENDBRANCH  22  23
ENDBRANCH  17  22
BRANCH  19  25
ATOM     25  O   UNL     1      14.546  32.395  22.999  1.00  0.00    -0.350 OA
BRANCH  25  26
ATOM     26  C   UNL     1      14.258  32.418  24.359  1.00  0.00     0.169 C 
BRANCH  26  27
ATOM     27  C   UNL     1      15.578  32.317  25.118  1.00  0.00     0.119 C 
BRANCH  27  28
ATOM     28  N   UNL     1      15.882  30.926  25.306  1.00  0.00    -0.092 NA
ATOM     29  N   UNL     1      16.565  30.278  24.483  1.00  0.00     0.001 N 
ATOM     30  N   UNL     1      16.691  29.489  23.529  1.00  0.00    -0.003 NA
ENDBRANCH  27  28
ENDBRANCH  26  27
ENDBRANCH  25  26
ENDBRANCH  19  25
BRANCH  20  31
ATOM     31  O   UNL     1      15.714  32.381  19.999  1.00  0.00    -0.387 OA
ATOM     32  H   UNL     1      16.002  32.310  19.060  1.00  0.00     0.211 HD
ENDBRANCH  20  31
BRANCH  21  33
ATOM     33  O   UNL     1      12.666  33.923  20.365  1.00  0.00    -0.385 OA
ATOM     34  H   UNL     1      12.646  34.826  20.819  1.00  0.00     0.211 HD
ENDBRANCH  21  33
ENDBRANCH  15  16
ENDBRANCH  10  15
BRANCH  12  35
ATOM     35  O   UNL     1      14.449  30.143  16.652  1.00  0.00    -0.385 OA
ATOM     36  H   UNL     1      14.175  31.079  16.710  1.00  0.00     0.211 HD
ENDBRANCH  12  35
BRANCH  13  37
ATOM     37  O   UNL     1      17.174  29.253  16.182  1.00  0.00    -0.387 OA
ATOM     38  H   UNL     1      16.917  29.110  15.248  1.00  0.00     0.211 HD
ENDBRANCH  13  37
BRANCH  14  39
ATOM     39  O   UNL     1      18.387  28.062  18.005  1.00  0.00    -0.387 OA
ATOM     40  H   UNL     1      18.693  27.113  17.913  1.00  0.00     0.211 HD
ENDBRANCH  14  39
ENDBRANCH   8   9
ENDBRANCH   7   8
ENDBRANCH   1   7
BRANCH   1  41
ATOM     41  C   UNL     1      19.504  31.348  21.536  1.00  0.00     0.364 C 
ATOM     42  O   UNL     1      20.624  31.205  22.084  1.00  0.00    -0.246 OA
BRANCH  41  43
ATOM     43  O   UNL     1      18.483  31.888  22.294  1.00  0.00    -0.477 OA
ATOM     44  H   UNL     1      18.004  31.285  22.945  1.00  0.00     0.296 HD
ENDBRANCH  41  43
ENDBRANCH   1  41
BRANCH   3  45
ATOM     45  O   UNL     1      17.684  31.921  17.603  1.00  0.00    -0.391 OA
ATOM     46  H   UNL     1      17.487  30.956  17.569  1.00  0.00     0.211 HD
ENDBRANCH   3  45
BRANCH   5  47
ATOM     47  C   UNL     1      22.088  29.906  18.050  1.00  0.00     0.176 C 
BRANCH  47  48
ATOM     48  O   UNL     1      23.119  30.568  17.416  1.00  0.00    -0.388 OA
ATOM     49  H   UNL     1      22.970  30.678  16.444  1.00  0.00     0.211 HD
ENDBRANCH  47  48
BRANCH  47  50
ATOM     50  C   UNL     1      22.631  29.100  19.207  1.00  0.00     0.165 C 
BRANCH  50  51
ATOM     51  O   UNL     1      22.971  29.954  20.278  1.00  0.00    -0.388 OA
ATOM     52  H   UNL     1      23.899  30.306  20.155  1.00  0.00     0.211 HD
ENDBRANCH  50  51
BRANCH  50  53
ATOM     53  C   UNL     1      23.832  28.280  18.809  1.00  0.00     0.154 C 
BRANCH  53  54
ATOM     54  N   UNL     1      24.025  27.147  19.683  1.00  0.00    -0.319 N 
ATOM     55  C   UNL     1      23.403  25.908  19.377  1.00  0.00     0.407 C 
ATOM     56  H   UNL     1      24.608  27.198  20.541  1.00  0.00     0.167 HD
ATOM     57  O   UNL     1      22.686  25.830  18.337  1.00  0.00    -0.225 OA
BRANCH  55  58
ATOM     58  O   UNL     1      23.529  24.764  20.147  1.00  0.00    -0.443 OA
BRANCH  58  59
ATOM     59  C   UNL     1      22.416  24.054  20.636  1.00  0.00     0.294 C 
BRANCH  59  60
ATOM     60  C   UNL     1      21.964  24.678  21.907  1.00  0.00     0.121 A 
ATOM     61  C   UNL     1      22.644  24.635  23.130  1.00  0.00     0.144 A 
ATOM     62  N   UNL     1      20.854  25.388  22.172  1.00  0.00    -0.131 NA
ATOM     63  N   UNL     1      21.926  25.310  24.061  1.00  0.00    -0.220 N 
ATOM     64  N   UNL     1      20.860  25.751  23.463  1.00  0.00    -0.062 NA
BRANCH  63  65
ATOM     65  C   UNL     1      22.273  25.497  25.438  1.00  0.00     0.066 A 
ATOM     66  C   UNL     1      22.085  26.710  26.062  1.00  0.00     0.030 A 
ATOM     67  C   UNL     1      22.804  24.468  26.183  1.00  0.00     0.030 A 
ATOM     68  C   UNL     1      22.421  26.887  27.403  1.00  0.00     0.024 A 
ATOM     69  C   UNL     1      23.143  24.635  27.523  1.00  0.00     0.024 A 
ATOM     70  C   UNL     1      22.954  25.853  28.146  1.00  0.00     0.082 A 
BRANCH  70  71
ATOM     71  S   UNL     1      23.368  26.110  29.840  1.00  0.00     0.238 S 
ATOM     72  O   UNL     1      24.451  27.151  29.979  1.00  0.00    -0.207 OA
ATOM     73  O   UNL     1      22.176  26.607  30.600  1.00  0.00    -0.207 OA
BRANCH  71  74
ATOM     74  N   UNL     1      23.908  24.633  30.576  1.00  0.00    -0.225 NA
ATOM     75  H   UNL     1      24.367  24.890  31.496  1.00  0.00     0.137 HD
ATOM     76  H   UNL     1      24.580  24.110  29.967  1.00  0.00     0.137 HD
ENDBRANCH  71  74
ENDBRANCH  70  71
ENDBRANCH  63  65
ENDBRANCH  59  60
ENDBRANCH  58  59
ENDBRANCH  55  58
ENDBRANCH  53  54
ENDBRANCH  50  53
ENDBRANCH  47  50
ENDBRANCH   5  47
BRANCH   4  77
ATOM     77  N   UNL     1      20.500  31.132  16.136  1.00  0.00    -0.348 N 
ATOM     78  C   UNL     1      20.380  30.129  15.151  1.00  0.00     0.217 C 
ATOM     79  H   UNL     1      21.025  31.996  15.907  1.00  0.00     0.163 HD
ATOM     80  C   UNL     1      21.015  30.352  13.828  1.00  0.00     0.114 C 
ATOM     81  O   UNL     1      19.761  29.057  15.343  1.00  0.00    -0.275 OA
ENDBRANCH   4  77
TORSDOF 32
