REMARK VINA RESULT:    -6.279      7.988     12.253
REMARK INTER + INTRA:         -21.420
REMARK INTER:                 -14.443
REMARK INTRA:                  -6.977
REMARK UNBOUND:                -5.964
REMARK SMILES CC(=O)N[C@@H]1[C@@H](O)C[C@](OC[C@H]2O[C@@H](O[C@H]3[C@H](O)[C@@H](O)[C@H](OCCN=[N+]=[N-])O[C@@H]3CO)[C@H](O)[C@@H](O)[C@H]2O)(C(=O)O)O[C@H]1C(O)[C@H](O)CNC(=O)OCc1cn(C2CCN(C)CC2)nn1
REMARK SMILES IDX 9 1 8 2 6 3 5 4 42 5 41 6 10 7 11 8 12 9 14 10 13 11 32 12
REMARK SMILES IDX 34 13 36 14 15 15 16 16 29 17 28 18 21 19 17 20 19 21 30 22
REMARK SMILES IDX 31 23 22 25 23 26 24 27 25 28 26 29 27 30 18 31 20 33 33 35
REMARK SMILES IDX 35 37 37 39 38 41 39 42 40 43 7 45 43 47 44 48 45 50 46 51
REMARK SMILES IDX 47 53 48 54 49 55 50 57 51 58 52 59 53 60 54 61 64 62 55 63
REMARK SMILES IDX 63 64 56 65 57 66 62 67 58 68 61 69 59 70 60 71 4 72 2 73
REMARK SMILES IDX 1 75 3 76
REMARK H PARENT 31 24 18 32 20 34 33 36 35 38 37 40 40 44 7 46 44 49 46 52
REMARK H PARENT 48 56 4 74
REMARK Flexibility Score: inf
ROOT
ATOM      1  C   UNL     1      23.063  25.752  25.298  1.00  0.00     0.272 C 
ATOM      2  C   UNL     1      22.663  24.632  26.242  1.00  0.00     0.113 C 
ATOM      3  C   UNL     1      23.447  24.509  27.480  1.00  0.00     0.145 C 
ATOM      4  C   UNL     1      23.839  25.823  28.119  1.00  0.00     0.142 C 
ATOM      5  C   UNL     1      23.822  26.965  27.177  1.00  0.00     0.178 C 
ATOM      6  O   UNL     1      23.056  26.944  26.093  1.00  0.00    -0.332 OA
ENDROOT
BRANCH   1   7
ATOM      7  O   UNL     1      22.049  25.970  24.446  1.00  0.00    -0.338 OA
BRANCH   7   8
ATOM      8  C   UNL     1      21.373  25.206  23.658  1.00  0.00     0.199 C 
BRANCH   8   9
ATOM      9  C   UNL     1      21.187  25.458  22.193  1.00  0.00     0.179 C 
ATOM     10  C   UNL     1      22.169  27.573  21.680  1.00  0.00     0.282 C 
ATOM     11  O   UNL     1      21.106  26.814  22.036  1.00  0.00    -0.341 OA
ATOM     12  C   UNL     1      23.430  26.838  21.539  1.00  0.00     0.202 C 
ATOM     13  C   UNL     1      23.127  25.668  20.588  1.00  0.00     0.179 C 
ATOM     14  C   UNL     1      22.191  24.779  21.324  1.00  0.00     0.177 C 
BRANCH  10  15
ATOM     15  O   UNL     1      22.131  28.647  22.559  1.00  0.00    -0.341 OA
BRANCH  15  16
ATOM     16  C   UNL     1      21.006  29.360  22.622  1.00  0.00     0.184 C 
ATOM     17  C   UNL     1      21.224  30.766  22.182  1.00  0.00     0.178 C 
ATOM     18  O   UNL     1      19.984  31.331  21.865  1.00  0.00    -0.341 OA
ATOM     19  C   UNL     1      19.229  31.472  23.007  1.00  0.00     0.281 C 
ATOM     20  C   UNL     1      20.438  29.505  24.043  1.00  0.00     0.180 C 
ATOM     21  C   UNL     1      19.110  30.230  23.848  1.00  0.00     0.202 C 
BRANCH  17  22
ATOM     22  C   UNL     1      22.227  30.946  21.096  1.00  0.00     0.191 C 
BRANCH  22  23
ATOM     23  O   UNL     1      23.498  30.946  21.654  1.00  0.00    -0.394 OA
ATOM     24  H   UNL     1      23.629  31.703  22.280  1.00  0.00     0.210 HD
ENDBRANCH  22  23
ENDBRANCH  17  22
BRANCH  19  25
ATOM     25  O   UNL     1      17.927  31.777  22.586  1.00  0.00    -0.350 OA
BRANCH  25  26
ATOM     26  C   UNL     1      17.550  31.148  21.427  1.00  0.00     0.169 C 
BRANCH  26  27
ATOM     27  C   UNL     1      16.176  30.514  21.500  1.00  0.00     0.119 C 
BRANCH  27  28
ATOM     28  N   UNL     1      16.273  29.069  21.592  1.00  0.00    -0.092 NA
ATOM     29  N   UNL     1      16.508  28.385  20.597  1.00  0.00     0.001 N 
ATOM     30  N   UNL     1      16.276  27.590  19.685  1.00  0.00    -0.003 NA
ENDBRANCH  27  28
ENDBRANCH  26  27
ENDBRANCH  25  26
ENDBRANCH  19  25
BRANCH  20  31
ATOM     31  O   UNL     1      20.146  28.304  24.633  1.00  0.00    -0.387 OA
ATOM     32  H   UNL     1      19.171  28.190  24.664  1.00  0.00     0.211 HD
ENDBRANCH  20  31
BRANCH  21  33
ATOM     33  O   UNL     1      18.575  30.534  25.075  1.00  0.00    -0.385 OA
ATOM     34  H   UNL     1      18.847  29.918  25.774  1.00  0.00     0.211 HD
ENDBRANCH  21  33
ENDBRANCH  15  16
ENDBRANCH  10  15
BRANCH  12  35
ATOM     35  O   UNL     1      24.446  27.528  20.880  1.00  0.00    -0.385 OA
ATOM     36  H   UNL     1      24.074  28.039  20.120  1.00  0.00     0.211 HD
ENDBRANCH  12  35
BRANCH  13  37
ATOM     37  O   UNL     1      24.262  25.022  20.168  1.00  0.00    -0.387 OA
ATOM     38  H   UNL     1      23.993  24.137  19.813  1.00  0.00     0.211 HD
ENDBRANCH  13  37
BRANCH  14  39
ATOM     39  O   UNL     1      22.940  23.899  22.102  1.00  0.00    -0.387 OA
ATOM     40  H   UNL     1      23.024  23.003  21.702  1.00  0.00     0.211 HD
ENDBRANCH  14  39
ENDBRANCH   8   9
ENDBRANCH   7   8
ENDBRANCH   1   7
BRANCH   1  41
ATOM     41  C   UNL     1      24.422  25.518  24.833  1.00  0.00     0.364 C 
ATOM     42  O   UNL     1      24.715  24.309  24.466  1.00  0.00    -0.246 OA
BRANCH  41  43
ATOM     43  O   UNL     1      25.486  26.371  24.711  1.00  0.00    -0.477 OA
ATOM     44  H   UNL     1      26.061  26.459  23.873  1.00  0.00     0.296 HD
ENDBRANCH  41  43
ENDBRANCH   1  41
BRANCH   3  45
ATOM     45  O   UNL     1      22.690  23.756  28.428  1.00  0.00    -0.391 OA
ATOM     46  H   UNL     1      21.855  24.216  28.652  1.00  0.00     0.211 HD
ENDBRANCH   3  45
BRANCH   5  47
ATOM     47  C   UNL     1      23.510  28.290  27.926  1.00  0.00     0.176 C 
BRANCH  47  48
ATOM     48  O   UNL     1      22.648  28.022  28.982  1.00  0.00    -0.388 OA
ATOM     49  H   UNL     1      22.886  28.500  29.803  1.00  0.00     0.211 HD
ENDBRANCH  47  48
BRANCH  47  50
ATOM     50  C   UNL     1      22.960  29.285  27.011  1.00  0.00     0.165 C 
BRANCH  50  51
ATOM     51  O   UNL     1      24.070  29.729  26.191  1.00  0.00    -0.388 OA
ATOM     52  H   UNL     1      24.736  29.003  26.136  1.00  0.00     0.211 HD
ENDBRANCH  50  51
BRANCH  50  53
ATOM     53  C   UNL     1      22.291  30.490  27.515  1.00  0.00     0.154 C 
BRANCH  53  54
ATOM     54  N   UNL     1      20.916  30.725  27.373  1.00  0.00    -0.319 N 
ATOM     55  C   UNL     1      19.886  30.379  28.282  1.00  0.00     0.407 C 
ATOM     56  H   UNL     1      20.594  31.222  26.473  1.00  0.00     0.167 HD
ATOM     57  O   UNL     1      20.138  29.835  29.375  1.00  0.00    -0.225 OA
BRANCH  55  58
ATOM     58  O   UNL     1      18.550  30.666  27.923  1.00  0.00    -0.443 OA
BRANCH  58  59
ATOM     59  C   UNL     1      17.628  30.975  28.936  1.00  0.00     0.294 C 
BRANCH  59  60
ATOM     60  C   UNL     1      16.288  31.143  28.323  1.00  0.00     0.120 A 
ATOM     61  C   UNL     1      16.030  31.360  26.958  1.00  0.00     0.138 A 
ATOM     62  N   UNL     1      15.068  31.123  28.878  1.00  0.00    -0.132 NA
ATOM     63  N   UNL     1      14.705  31.457  26.757  1.00  0.00    -0.249 N 
ATOM     64  N   UNL     1      14.149  31.310  27.931  1.00  0.00    -0.067 NA
BRANCH  63  65
ATOM     65  C   UNL     1      14.043  31.678  25.492  1.00  0.00     0.111 C 
ATOM     66  C   UNL     1      14.007  30.365  24.762  1.00  0.00     0.043 C 
ATOM     67  C   UNL     1      12.639  32.189  25.665  1.00  0.00     0.043 C 
ATOM     68  C   UNL     1      12.618  29.778  24.860  1.00  0.00     0.086 C 
ATOM     69  C   UNL     1      11.781  31.986  24.445  1.00  0.00     0.086 C 
ATOM     70  N   UNL     1      11.732  30.598  24.035  1.00  0.00    -0.306 NA
ATOM     71  C   UNL     1      12.189  30.493  22.660  1.00  0.00     0.105 C 
ENDBRANCH  63  65
ENDBRANCH  59  60
ENDBRANCH  58  59
ENDBRANCH  55  58
ENDBRANCH  53  54
ENDBRANCH  50  53
ENDBRANCH  47  50
ENDBRANCH   5  47
BRANCH   4  72
ATOM     72  N   UNL     1      25.110  25.724  28.809  1.00  0.00    -0.348 N 
ATOM     73  C   UNL     1      25.124  25.472  30.200  1.00  0.00     0.217 C 
ATOM     74  H   UNL     1      26.027  25.833  28.311  1.00  0.00     0.163 HD
ATOM     75  C   UNL     1      26.410  25.363  30.960  1.00  0.00     0.114 C 
ATOM     76  O   UNL     1      24.027  25.333  30.830  1.00  0.00    -0.275 OA
ENDBRANCH   4  72
TORSDOF 30
