REMARK VINA RESULT:    -5.635      8.803     15.384
REMARK INTER + INTRA:         -23.263
REMARK INTER:                 -16.059
REMARK INTRA:                  -7.204
REMARK UNBOUND:                -8.074
REMARK SMILES CC(=O)N[C@@H]1[C@@H](O)C[C@](OC[C@H]2O[C@@H](O[C@H]3[C@H](O)[C@@H](O)[C@H](OCCN=[N+]=[N-])O[C@@H]3CO)[C@H](O)[C@@H](O)[C@H]2O)(C(=O)O)O[C@H]1C(O)[C@H](O)CNC(=O)OCc1cn(C[C@@H](C)CN2CCN(c3ccc(Cl)cc3)CC2)nn1
REMARK SMILES IDX 43 1 42 2 9 3 8 4 41 5 6 6 5 7 10 8 11 9 12 10 14 11 13 12
REMARK SMILES IDX 32 13 34 14 36 15 15 16 16 17 29 18 28 19 21 20 17 21 19 22
REMARK SMILES IDX 30 23 31 24 22 26 23 27 24 28 25 29 26 30 27 31 18 32 20 34
REMARK SMILES IDX 33 36 35 38 37 40 38 42 39 43 40 44 7 46 4 48 2 49 1 51 3 52
REMARK SMILES IDX 44 53 45 55 46 56 47 58 48 59 49 60 50 62 51 63 52 64 53 65
REMARK SMILES IDX 54 66 74 67 55 68 73 69 56 70 57 71 58 72 59 73 60 74 61 75
REMARK SMILES IDX 72 76 62 77 71 78 63 79 64 80 65 81 70 82 66 83 69 84 67 85
REMARK SMILES IDX 68 86
REMARK H PARENT 31 25 18 33 20 35 33 37 35 39 37 41 40 45 7 47 4 50 44 54
REMARK H PARENT 46 57 48 61
REMARK Flexibility Score: inf
ROOT
ATOM      1  C   UNL     1      21.998  28.722  20.777  1.00  0.00     0.176 C 
ENDROOT
BRANCH   1   2
ATOM      2  C   UNL     1      21.511  29.885  21.630  1.00  0.00     0.178 C 
ATOM      3  C   UNL     1      19.629  30.777  22.745  1.00  0.00     0.272 C 
ATOM      4  C   UNL     1      20.313  32.047  22.626  1.00  0.00     0.113 C 
ATOM      5  O   UNL     1      20.168  29.843  21.806  1.00  0.00    -0.332 OA
ATOM      6  C   UNL     1      20.988  32.242  21.281  1.00  0.00     0.145 C 
ATOM      7  C   UNL     1      22.097  31.184  21.189  1.00  0.00     0.142 C 
BRANCH   3   8
ATOM      8  O   UNL     1      18.314  30.670  22.577  1.00  0.00    -0.338 OA
BRANCH   8   9
ATOM      9  C   UNL     1      17.369  31.533  22.845  1.00  0.00     0.199 C 
BRANCH   9  10
ATOM     10  C   UNL     1      16.067  31.588  22.099  1.00  0.00     0.179 C 
ATOM     11  C   UNL     1      14.881  30.036  20.823  1.00  0.00     0.282 C 
ATOM     12  O   UNL     1      16.016  30.780  21.000  1.00  0.00    -0.341 OA
ATOM     13  C   UNL     1      14.760  29.040  21.962  1.00  0.00     0.202 C 
ATOM     14  C   UNL     1      14.708  29.801  23.246  1.00  0.00     0.179 C 
ATOM     15  C   UNL     1      14.936  31.266  23.087  1.00  0.00     0.177 C 
BRANCH  11  16
ATOM     16  O   UNL     1      15.083  29.293  19.635  1.00  0.00    -0.341 OA
BRANCH  16  17
ATOM     17  C   UNL     1      16.271  29.664  19.058  1.00  0.00     0.184 C 
ATOM     18  C   UNL     1      16.105  30.131  17.627  1.00  0.00     0.178 C 
ATOM     19  O   UNL     1      16.635  29.300  16.688  1.00  0.00    -0.341 OA
ATOM     20  C   UNL     1      17.972  28.977  16.835  1.00  0.00     0.281 C 
ATOM     21  C   UNL     1      17.316  28.556  19.148  1.00  0.00     0.180 C 
ATOM     22  C   UNL     1      18.463  28.971  18.256  1.00  0.00     0.202 C 
BRANCH  18  23
ATOM     23  C   UNL     1      16.518  31.584  17.450  1.00  0.00     0.191 C 
BRANCH  23  24
ATOM     24  O   UNL     1      16.944  32.151  18.625  1.00  0.00    -0.394 OA
ATOM     25  H   UNL     1      17.864  32.520  18.454  1.00  0.00     0.210 HD
ENDBRANCH  23  24
ENDBRANCH  18  23
BRANCH  20  26
ATOM     26  O   UNL     1      18.799  29.778  16.056  1.00  0.00    -0.350 OA
BRANCH  26  27
ATOM     27  C   UNL     1      19.424  29.152  15.016  1.00  0.00     0.169 C 
BRANCH  27  28
ATOM     28  C   UNL     1      18.980  29.691  13.686  1.00  0.00     0.119 C 
BRANCH  28  29
ATOM     29  N   UNL     1      17.962  28.814  13.131  1.00  0.00    -0.092 NA
ATOM     30  N   UNL     1      16.761  29.125  13.240  1.00  0.00     0.001 N 
ATOM     31  N   UNL     1      15.625  29.546  13.415  1.00  0.00    -0.003 NA
ENDBRANCH  28  29
ENDBRANCH  27  28
ENDBRANCH  26  27
ENDBRANCH  20  26
BRANCH  21  32
ATOM     32  O   UNL     1      17.810  28.449  20.446  1.00  0.00    -0.387 OA
ATOM     33  H   UNL     1      18.606  27.844  20.379  1.00  0.00     0.211 HD
ENDBRANCH  21  32
BRANCH  22  34
ATOM     34  O   UNL     1      19.475  27.984  18.358  1.00  0.00    -0.385 OA
ATOM     35  H   UNL     1      19.179  27.103  18.081  1.00  0.00     0.211 HD
ENDBRANCH  22  34
ENDBRANCH  16  17
ENDBRANCH  11  16
BRANCH  13  36
ATOM     36  O   UNL     1      13.638  28.262  21.734  1.00  0.00    -0.385 OA
ATOM     37  H   UNL     1      13.945  27.308  21.736  1.00  0.00     0.211 HD
ENDBRANCH  13  36
BRANCH  14  38
ATOM     38  O   UNL     1      15.552  29.270  24.231  1.00  0.00    -0.387 OA
ATOM     39  H   UNL     1      16.069  28.509  23.884  1.00  0.00     0.211 HD
ENDBRANCH  14  38
BRANCH  15  40
ATOM     40  O   UNL     1      15.221  31.858  24.292  1.00  0.00    -0.387 OA
ATOM     41  H   UNL     1      15.214  32.841  24.242  1.00  0.00     0.211 HD
ENDBRANCH  15  40
ENDBRANCH   9  10
ENDBRANCH   8   9
ENDBRANCH   3   8
BRANCH   3  42
ATOM     42  C   UNL     1      20.015  30.098  24.045  1.00  0.00     0.364 C 
ATOM     43  O   UNL     1      19.507  28.965  24.358  1.00  0.00    -0.246 OA
BRANCH  42  44
ATOM     44  O   UNL     1      20.896  30.621  24.957  1.00  0.00    -0.477 OA
ATOM     45  H   UNL     1      20.598  30.899  25.884  1.00  0.00     0.296 HD
ENDBRANCH  42  44
ENDBRANCH   3  42
BRANCH   6  46
ATOM     46  O   UNL     1      20.021  32.013  20.303  1.00  0.00    -0.391 OA
ATOM     47  H   UNL     1      19.599  31.127  20.409  1.00  0.00     0.211 HD
ENDBRANCH   6  46
BRANCH   7  48
ATOM     48  N   UNL     1      23.180  31.628  22.042  1.00  0.00    -0.348 N 
ATOM     49  C   UNL     1      24.506  31.674  21.542  1.00  0.00     0.217 C 
ATOM     50  H   UNL     1      23.030  31.924  23.046  1.00  0.00     0.163 HD
ATOM     51  C   UNL     1      25.604  32.140  22.461  1.00  0.00     0.114 C 
ATOM     52  O   UNL     1      24.812  31.342  20.361  1.00  0.00    -0.275 OA
ENDBRANCH   7  48
ENDBRANCH   1   2
BRANCH   1  53
ATOM     53  O   UNL     1      23.386  28.675  20.896  1.00  0.00    -0.388 OA
ATOM     54  H   UNL     1      23.823  29.253  20.229  1.00  0.00     0.211 HD
ENDBRANCH   1  53
BRANCH   1  55
ATOM     55  C   UNL     1      21.485  27.381  21.223  1.00  0.00     0.165 C 
BRANCH  55  56
ATOM     56  O   UNL     1      20.128  27.215  21.147  1.00  0.00    -0.388 OA
ATOM     57  H   UNL     1      19.695  27.869  20.573  1.00  0.00     0.211 HD
ENDBRANCH  55  56
BRANCH  55  58
ATOM     58  C   UNL     1      22.013  26.920  22.539  1.00  0.00     0.154 C 
BRANCH  58  59
ATOM     59  N   UNL     1      22.703  25.644  22.339  1.00  0.00    -0.319 N 
ATOM     60  C   UNL     1      24.114  25.556  22.374  1.00  0.00     0.407 C 
ATOM     61  H   UNL     1      22.137  24.788  22.170  1.00  0.00     0.167 HD
ATOM     62  O   UNL     1      24.766  26.609  22.576  1.00  0.00    -0.225 OA
BRANCH  60  63
ATOM     63  O   UNL     1      24.747  24.334  22.189  1.00  0.00    -0.443 OA
BRANCH  63  64
ATOM     64  C   UNL     1      26.171  24.298  22.292  1.00  0.00     0.294 C 
BRANCH  64  65
ATOM     65  C   UNL     1      26.792  23.487  21.220  1.00  0.00     0.120 A 
ATOM     66  C   UNL     1      27.570  22.362  21.373  1.00  0.00     0.138 A 
ATOM     67  N   UNL     1      26.719  23.692  19.884  1.00  0.00    -0.132 NA
ATOM     68  N   UNL     1      27.922  21.953  20.159  1.00  0.00    -0.252 N 
ATOM     69  N   UNL     1      27.406  22.760  19.260  1.00  0.00    -0.067 NA
BRANCH  68  70
ATOM     70  C   UNL     1      28.766  20.787  19.892  1.00  0.00     0.150 C 
BRANCH  70  71
ATOM     71  C   UNL     1      29.246  20.157  21.203  1.00  0.00     0.022 C 
ATOM     72  C   UNL     1      28.767  18.722  21.170  1.00  0.00     0.011 C 
BRANCH  71  73
ATOM     73  C   UNL     1      30.739  20.240  21.268  1.00  0.00     0.089 C 
BRANCH  73  74
ATOM     74  N   UNL     1      31.369  20.050  22.508  1.00  0.00    -0.299 NA
ATOM     75  C   UNL     1      32.184  18.935  22.748  1.00  0.00     0.106 C 
ATOM     76  C   UNL     1      30.680  20.601  23.630  1.00  0.00     0.106 C 
ATOM     77  C   UNL     1      31.791  18.183  24.019  1.00  0.00     0.132 C 
ATOM     78  C   UNL     1      31.570  20.521  24.858  1.00  0.00     0.132 C 
ATOM     79  N   UNL     1      31.763  19.123  25.139  1.00  0.00    -0.369 N 
BRANCH  79  80
ATOM     80  C   UNL     1      31.916  18.639  26.443  1.00  0.00     0.037 A 
ATOM     81  C   UNL     1      32.066  17.281  26.717  1.00  0.00     0.027 A 
ATOM     82  C   UNL     1      31.940  19.471  27.555  1.00  0.00     0.027 A 
ATOM     83  C   UNL     1      32.226  16.781  27.987  1.00  0.00     0.022 A 
ATOM     84  C   UNL     1      32.100  18.972  28.832  1.00  0.00     0.022 A 
ATOM     85  C   UNL     1      32.245  17.623  29.069  1.00  0.00     0.041 A 
ATOM     86  Cl  UNL     1      32.447  16.993  30.670  1.00  0.00    -0.084 Cl
ENDBRANCH  79  80
ENDBRANCH  73  74
ENDBRANCH  71  73
ENDBRANCH  70  71
ENDBRANCH  68  70
ENDBRANCH  64  65
ENDBRANCH  63  64
ENDBRANCH  60  63
ENDBRANCH  58  59
ENDBRANCH  55  58
ENDBRANCH   1  55
TORSDOF 34
