REMARK VINA RESULT:    -5.903      7.243     14.253
REMARK INTER + INTRA:         -23.960
REMARK INTER:                 -17.838
REMARK INTRA:                  -6.122
REMARK UNBOUND:                -7.877
REMARK SMILES CC(=O)N[C@@H]1[C@@H](O)C[C@](OC[C@H]2O[C@@H](O[C@H]3[C@H](O)[C@@H](O)[C@H](OCCN=[N+]=[N-])O[C@@H]3CO)[C@H](O)[C@@H](O)[C@H]2O)(C(=O)O)O[C@H]1C(O)[C@H](O)CNC(=O)OCc1cn(CC(O)CCc2ccccc2)nn1
REMARK SMILES IDX 43 1 42 2 9 3 8 4 41 5 6 6 5 7 10 8 11 9 12 10 14 11 13 12
REMARK SMILES IDX 32 13 34 14 36 15 15 16 16 17 29 18 28 19 21 20 17 21 19 22
REMARK SMILES IDX 30 23 31 24 22 26 23 27 24 28 25 29 26 30 27 31 18 32 20 34
REMARK SMILES IDX 33 36 35 38 37 40 38 42 39 43 40 44 7 46 4 48 2 49 1 51 3 52
REMARK SMILES IDX 44 53 45 55 46 56 47 58 48 59 49 60 50 62 51 63 52 64 53 65
REMARK SMILES IDX 54 66 68 67 55 68 67 69 56 70 57 71 58 72 59 74 60 75 61 76
REMARK SMILES IDX 62 77 66 78 63 79 65 80 64 81
REMARK H PARENT 31 25 18 33 20 35 33 37 35 39 37 41 40 45 7 47 4 50 44 54
REMARK H PARENT 46 57 48 61 58 73
REMARK Flexibility Score: inf
ROOT
ATOM      1  C   UNL     1      16.034  30.942  24.783  1.00  0.00     0.176 C 
ENDROOT
BRANCH   1   2
ATOM      2  C   UNL     1      14.566  30.617  25.119  1.00  0.00     0.178 C 
ATOM      3  C   UNL     1      12.788  30.291  23.583  1.00  0.00     0.272 C 
ATOM      4  C   UNL     1      12.623  31.775  23.585  1.00  0.00     0.113 C 
ATOM      5  O   UNL     1      14.022  29.974  24.085  1.00  0.00    -0.332 OA
ATOM      6  C   UNL     1      12.738  32.329  24.959  1.00  0.00     0.145 C 
ATOM      7  C   UNL     1      13.941  31.827  25.701  1.00  0.00     0.142 C 
BRANCH   3   8
ATOM      8  O   UNL     1      12.602  29.771  22.287  1.00  0.00    -0.338 OA
BRANCH   8   9
ATOM      9  C   UNL     1      13.099  30.495  21.263  1.00  0.00     0.199 C 
BRANCH   9  10
ATOM     10  C   UNL     1      13.701  29.582  20.170  1.00  0.00     0.179 C 
ATOM     11  C   UNL     1      14.669  29.508  18.119  1.00  0.00     0.282 C 
ATOM     12  O   UNL     1      13.959  30.251  19.028  1.00  0.00    -0.341 OA
ATOM     13  C   UNL     1      16.023  29.210  18.823  1.00  0.00     0.202 C 
ATOM     14  C   UNL     1      15.636  28.097  19.802  1.00  0.00     0.179 C 
ATOM     15  C   UNL     1      14.773  28.787  20.821  1.00  0.00     0.177 C 
BRANCH  11  16
ATOM     16  O   UNL     1      14.942  30.217  17.003  1.00  0.00    -0.341 OA
BRANCH  16  17
ATOM     17  C   UNL     1      14.585  29.713  15.774  1.00  0.00     0.184 C 
ATOM     18  C   UNL     1      15.545  30.056  14.684  1.00  0.00     0.178 C 
ATOM     19  O   UNL     1      15.051  30.706  13.598  1.00  0.00    -0.341 OA
ATOM     20  C   UNL     1      13.762  30.464  13.228  1.00  0.00     0.281 C 
ATOM     21  C   UNL     1      13.151  30.091  15.543  1.00  0.00     0.180 C 
ATOM     22  C   UNL     1      12.869  30.932  14.351  1.00  0.00     0.202 C 
BRANCH  18  23
ATOM     23  C   UNL     1      16.213  28.789  14.193  1.00  0.00     0.191 C 
BRANCH  23  24
ATOM     24  O   UNL     1      16.594  28.899  12.857  1.00  0.00    -0.394 OA
ATOM     25  H   UNL     1      17.573  28.675  12.834  1.00  0.00     0.210 HD
ENDBRANCH  23  24
ENDBRANCH  18  23
BRANCH  20  26
ATOM     26  O   UNL     1      13.513  29.152  12.859  1.00  0.00    -0.350 OA
BRANCH  26  27
ATOM     27  C   UNL     1      12.600  29.129  11.804  1.00  0.00     0.169 C 
BRANCH  27  28
ATOM     28  C   UNL     1      11.757  27.867  11.980  1.00  0.00     0.119 C 
BRANCH  28  29
ATOM     29  N   UNL     1      10.361  28.185  12.115  1.00  0.00    -0.092 NA
ATOM     30  N   UNL     1      10.011  29.039  12.955  1.00  0.00     0.001 N 
ATOM     31  N   UNL     1       9.650  29.663  13.971  1.00  0.00    -0.003 NA
ENDBRANCH  28  29
ENDBRANCH  27  28
ENDBRANCH  26  27
ENDBRANCH  20  26
BRANCH  21  32
ATOM     32  O   UNL     1      12.334  28.937  15.404  1.00  0.00    -0.387 OA
ATOM     33  H   UNL     1      11.640  28.891  16.101  1.00  0.00     0.211 HD
ENDBRANCH  21  32
BRANCH  22  34
ATOM     34  O   UNL     1      13.171  32.274  14.601  1.00  0.00    -0.385 OA
ATOM     35  H   UNL     1      13.825  32.633  13.967  1.00  0.00     0.211 HD
ENDBRANCH  22  34
ENDBRANCH  16  17
ENDBRANCH  11  16
BRANCH  13  36
ATOM     36  O   UNL     1      17.018  28.868  17.968  1.00  0.00    -0.385 OA
ATOM     37  H   UNL     1      17.915  29.188  18.159  1.00  0.00     0.211 HD
ENDBRANCH  13  36
BRANCH  14  38
ATOM     38  O   UNL     1      16.766  27.516  20.370  1.00  0.00    -0.387 OA
ATOM     39  H   UNL     1      17.309  28.197  20.827  1.00  0.00     0.211 HD
ENDBRANCH  14  38
BRANCH  15  40
ATOM     40  O   UNL     1      15.620  29.631  21.547  1.00  0.00    -0.387 OA
ATOM     41  H   UNL     1      15.204  30.510  21.702  1.00  0.00     0.211 HD
ENDBRANCH  15  40
ENDBRANCH   9  10
ENDBRANCH   8   9
ENDBRANCH   3   8
BRANCH   3  42
ATOM     42  C   UNL     1      11.679  29.681  24.357  1.00  0.00     0.364 C 
ATOM     43  O   UNL     1      10.502  30.101  24.167  1.00  0.00    -0.246 OA
BRANCH  42  44
ATOM     44  O   UNL     1      11.857  28.682  25.272  1.00  0.00    -0.477 OA
ATOM     45  H   UNL     1      12.682  28.102  25.225  1.00  0.00     0.296 HD
ENDBRANCH  42  44
ENDBRANCH   3  42
BRANCH   6  46
ATOM     46  O   UNL     1      12.777  33.742  24.800  1.00  0.00    -0.391 OA
ATOM     47  H   UNL     1      11.882  34.123  24.695  1.00  0.00     0.211 HD
ENDBRANCH   6  46
BRANCH   7  48
ATOM     48  N   UNL     1      13.720  31.705  27.120  1.00  0.00    -0.348 N 
ATOM     49  C   UNL     1      13.921  32.765  28.045  1.00  0.00     0.217 C 
ATOM     50  H   UNL     1      13.394  30.782  27.536  1.00  0.00     0.163 HD
ATOM     51  C   UNL     1      13.654  32.516  29.478  1.00  0.00     0.114 C 
ATOM     52  O   UNL     1      14.309  33.874  27.662  1.00  0.00    -0.275 OA
ENDBRANCH   7  48
ENDBRANCH   1   2
BRANCH   1  53
ATOM     53  O   UNL     1      16.816  30.812  25.913  1.00  0.00    -0.388 OA
ATOM     54  H   UNL     1      16.973  29.871  26.170  1.00  0.00     0.211 HD
ENDBRANCH   1  53
BRANCH   1  55
ATOM     55  C   UNL     1      16.236  32.172  23.982  1.00  0.00     0.165 C 
BRANCH  55  56
ATOM     56  O   UNL     1      15.638  32.042  22.754  1.00  0.00    -0.388 OA
ATOM     57  H   UNL     1      16.161  32.423  22.020  1.00  0.00     0.211 HD
ENDBRANCH  55  56
BRANCH  55  58
ATOM     58  C   UNL     1      17.726  32.384  23.850  1.00  0.00     0.154 C 
BRANCH  58  59
ATOM     59  N   UNL     1      18.525  31.229  23.689  1.00  0.00    -0.319 N 
ATOM     60  C   UNL     1      18.741  30.480  22.501  1.00  0.00     0.407 C 
ATOM     61  H   UNL     1      19.059  30.827  24.537  1.00  0.00     0.167 HD
ATOM     62  O   UNL     1      18.213  30.828  21.438  1.00  0.00    -0.225 OA
BRANCH  60  63
ATOM     63  O   UNL     1      19.542  29.349  22.506  1.00  0.00    -0.443 OA
BRANCH  63  64
ATOM     64  C   UNL     1      20.854  29.238  22.094  1.00  0.00     0.294 C 
BRANCH  64  65
ATOM     65  C   UNL     1      21.191  28.111  21.211  1.00  0.00     0.120 A 
ATOM     66  C   UNL     1      21.702  26.874  21.585  1.00  0.00     0.138 A 
ATOM     67  N   UNL     1      21.095  28.096  19.865  1.00  0.00    -0.132 NA
ATOM     68  N   UNL     1      21.888  26.186  20.461  1.00  0.00    -0.250 N 
ATOM     69  N   UNL     1      21.521  26.924  19.444  1.00  0.00    -0.067 NA
BRANCH  68  70
ATOM     70  C   UNL     1      22.448  24.810  20.436  1.00  0.00     0.177 C 
BRANCH  70  71
ATOM     71  C   UNL     1      23.909  24.948  20.701  1.00  0.00     0.136 C 
BRANCH  71  72
ATOM     72  O   UNL     1      24.672  24.727  19.541  1.00  0.00    -0.391 OA
ATOM     73  H   UNL     1      25.498  24.233  19.730  1.00  0.00     0.211 HD
ENDBRANCH  71  72
BRANCH  71  74
ATOM     74  C   UNL     1      24.425  24.145  21.828  1.00  0.00     0.038 C 
BRANCH  74  75
ATOM     75  C   UNL     1      24.917  24.753  23.060  1.00  0.00     0.038 C 
BRANCH  75  76
ATOM     76  C   UNL     1      24.137  24.672  24.277  1.00  0.00    -0.048 A 
ATOM     77  C   UNL     1      22.746  24.671  24.236  1.00  0.00     0.004 A 
ATOM     78  C   UNL     1      24.742  24.671  25.534  1.00  0.00     0.004 A 
ATOM     79  C   UNL     1      22.014  24.670  25.387  1.00  0.00     0.000 A 
ATOM     80  C   UNL     1      23.976  24.670  26.674  1.00  0.00     0.000 A 
ATOM     81  C   UNL     1      22.589  24.671  26.634  1.00  0.00     0.000 A 
ENDBRANCH  75  76
ENDBRANCH  74  75
ENDBRANCH  71  74
ENDBRANCH  70  71
ENDBRANCH  68  70
ENDBRANCH  64  65
ENDBRANCH  63  64
ENDBRANCH  60  63
ENDBRANCH  58  59
ENDBRANCH  55  58
ENDBRANCH   1  55
TORSDOF 35
