REMARK VINA RESULT:    -5.606      1.879      3.806
REMARK INTER + INTRA:         -22.906
REMARK INTER:                 -13.133
REMARK INTRA:                  -9.773
REMARK UNBOUND:                -7.304
REMARK SMILES CC(=O)N[C@@H]1[C@@H](O)C[C@](OC[C@H]2O[C@@H](O[C@H]3[C@H](O)[C@@H](O)[C@H](OCCN=[N+]=[N-])O[C@@H]3CO)[C@H](O)[C@@H](O)[C@H]2O)(C(=O)O)O[C@H]1C(O)[C@H](O)CNC(=O)OCc1cn(CCCCCC(=O)O)nn1
REMARK SMILES IDX 47 1 45 2 43 3 42 4 9 5 8 6 41 7 6 8 5 9 10 10 11 11 12 12
REMARK SMILES IDX 14 13 13 14 32 15 34 16 36 17 15 18 16 19 29 20 28 21 21 22
REMARK SMILES IDX 17 23 19 24 30 25 31 26 22 28 23 29 24 30 25 31 26 32 27 33
REMARK SMILES IDX 18 34 20 36 33 38 35 40 37 42 38 44 39 45 40 46 7 48 4 50
REMARK SMILES IDX 2 51 1 53 3 54 44 55 46 57 48 59 49 60 50 62 51 63 52 64
REMARK SMILES IDX 53 65 54 66 65 67 55 68 64 69 56 70 57 71 58 72 59 73 60 74
REMARK SMILES IDX 61 75 62 76 63 77
REMARK H PARENT 31 27 18 35 20 37 33 39 35 41 37 43 40 47 7 49 4 52 44 56
REMARK H PARENT 46 58 48 61 63 78
REMARK Flexibility Score: inf
ROOT
ATOM      1  C   UNL     1      15.891  30.851  22.062  1.00  0.00     0.154 C 
ENDROOT
BRANCH   1   2
ATOM      2  C   UNL     1      16.689  30.684  23.333  1.00  0.00     0.165 C 
BRANCH   2   3
ATOM      3  C   UNL     1      18.128  30.836  22.962  1.00  0.00     0.176 C 
BRANCH   3   4
ATOM      4  C   UNL     1      19.117  30.529  24.033  1.00  0.00     0.178 C 
ATOM      5  C   UNL     1      20.509  28.978  24.888  1.00  0.00     0.272 C 
ATOM      6  C   UNL     1      21.135  30.169  25.538  1.00  0.00     0.113 C 
ATOM      7  O   UNL     1      19.250  29.186  24.343  1.00  0.00    -0.332 OA
ATOM      8  C   UNL     1      20.236  31.236  26.035  1.00  0.00     0.145 C 
ATOM      9  C   UNL     1      18.861  31.221  25.354  1.00  0.00     0.142 C 
BRANCH   5  10
ATOM     10  O   UNL     1      20.539  27.844  25.698  1.00  0.00    -0.338 OA
BRANCH  10  11
ATOM     11  C   UNL     1      21.337  27.883  26.796  1.00  0.00     0.199 C 
BRANCH  11  12
ATOM     12  C   UNL     1      22.239  26.665  26.723  1.00  0.00     0.179 C 
ATOM     13  C   UNL     1      22.832  24.799  25.642  1.00  0.00     0.282 C 
ATOM     14  O   UNL     1      22.364  26.132  25.449  1.00  0.00    -0.341 OA
ATOM     15  C   UNL     1      23.767  24.630  26.754  1.00  0.00     0.202 C 
ATOM     16  C   UNL     1      24.449  25.864  27.275  1.00  0.00     0.179 C 
ATOM     17  C   UNL     1      23.636  27.119  27.104  1.00  0.00     0.177 C 
BRANCH  13  18
ATOM     18  O   UNL     1      23.151  24.236  24.410  1.00  0.00    -0.341 OA
BRANCH  18  19
ATOM     19  C   UNL     1      23.384  25.105  23.411  1.00  0.00     0.184 C 
ATOM     20  C   UNL     1      22.683  24.745  22.136  1.00  0.00     0.178 C 
ATOM     21  O   UNL     1      22.699  25.921  21.358  1.00  0.00    -0.341 OA
ATOM     22  C   UNL     1      23.953  26.214  20.940  1.00  0.00     0.281 C 
ATOM     23  C   UNL     1      24.893  25.054  22.989  1.00  0.00     0.180 C 
ATOM     24  C   UNL     1      25.002  25.339  21.513  1.00  0.00     0.202 C 
BRANCH  20  25
ATOM     25  C   UNL     1      21.239  24.360  22.319  1.00  0.00     0.191 C 
BRANCH  25  26
ATOM     26  O   UNL     1      20.592  25.252  23.147  1.00  0.00    -0.394 OA
ATOM     27  H   UNL     1      21.046  26.132  23.052  1.00  0.00     0.210 HD
ENDBRANCH  25  26
ENDBRANCH  20  25
BRANCH  22  28
ATOM     28  O   UNL     1      24.294  27.564  21.097  1.00  0.00    -0.350 OA
BRANCH  28  29
ATOM     29  C   UNL     1      25.526  27.865  20.575  1.00  0.00     0.169 C 
BRANCH  29  30
ATOM     30  C   UNL     1      25.387  28.204  19.098  1.00  0.00     0.119 C 
BRANCH  30  31
ATOM     31  N   UNL     1      26.190  27.307  18.284  1.00  0.00    -0.092 NA
ATOM     32  N   UNL     1      25.693  26.243  17.870  1.00  0.00     0.001 N 
ATOM     33  N   UNL     1      25.457  25.035  17.818  1.00  0.00    -0.003 NA
ENDBRANCH  30  31
ENDBRANCH  29  30
ENDBRANCH  28  29
ENDBRANCH  22  28
BRANCH  23  34
ATOM     34  O   UNL     1      25.572  26.066  23.665  1.00  0.00    -0.387 OA
ATOM     35  H   UNL     1      26.097  25.657  24.413  1.00  0.00     0.211 HD
ENDBRANCH  23  34
BRANCH  24  36
ATOM     36  O   UNL     1      25.265  24.190  20.756  1.00  0.00    -0.385 OA
ATOM     37  H   UNL     1      24.713  23.418  21.039  1.00  0.00     0.211 HD
ENDBRANCH  24  36
ENDBRANCH  18  19
ENDBRANCH  13  18
BRANCH  15  38
ATOM     38  O   UNL     1      23.135  24.049  27.891  1.00  0.00    -0.385 OA
ATOM     39  H   UNL     1      22.770  24.744  28.468  1.00  0.00     0.211 HD
ENDBRANCH  15  38
BRANCH  16  40
ATOM     40  O   UNL     1      25.691  26.095  26.657  1.00  0.00    -0.387 OA
ATOM     41  H   UNL     1      25.948  25.385  26.043  1.00  0.00     0.211 HD
ENDBRANCH  16  40
BRANCH  17  42
ATOM     42  O   UNL     1      24.127  27.838  25.984  1.00  0.00    -0.387 OA
ATOM     43  H   UNL     1      24.999  28.237  26.298  1.00  0.00     0.211 HD
ENDBRANCH  17  42
ENDBRANCH  11  12
ENDBRANCH  10  11
ENDBRANCH   5  10
BRANCH   5  44
ATOM     44  C   UNL     1      21.373  28.631  23.725  1.00  0.00     0.364 C 
ATOM     45  O   UNL     1      22.591  28.918  23.725  1.00  0.00    -0.246 OA
BRANCH  44  46
ATOM     46  O   UNL     1      20.839  27.990  22.635  1.00  0.00    -0.477 OA
ATOM     47  H   UNL     1      20.717  28.445  21.715  1.00  0.00     0.296 HD
ENDBRANCH  44  46
ENDBRANCH   5  44
BRANCH   8  48
ATOM     48  O   UNL     1      20.133  31.334  27.419  1.00  0.00    -0.391 OA
ATOM     49  H   UNL     1      19.544  32.095  27.623  1.00  0.00     0.211 HD
ENDBRANCH   8  48
BRANCH   9  50
ATOM     50  N   UNL     1      18.308  32.526  25.253  1.00  0.00    -0.348 N 
ATOM     51  C   UNL     1      17.422  32.991  26.254  1.00  0.00     0.217 C 
ATOM     52  H   UNL     1      18.543  33.144  24.465  1.00  0.00     0.163 HD
ATOM     53  C   UNL     1      16.833  34.354  26.175  1.00  0.00     0.114 C 
ATOM     54  O   UNL     1      17.095  32.280  27.249  1.00  0.00    -0.275 OA
ENDBRANCH   9  50
ENDBRANCH   3   4
BRANCH   3  55
ATOM     55  O   UNL     1      18.391  32.131  22.461  1.00  0.00    -0.388 OA
ATOM     56  H   UNL     1      18.280  32.140  21.484  1.00  0.00     0.211 HD
ENDBRANCH   3  55
ENDBRANCH   2   3
BRANCH   2  57
ATOM     57  O   UNL     1      16.440  29.411  23.832  1.00  0.00    -0.388 OA
ATOM     58  H   UNL     1      16.439  29.484  24.820  1.00  0.00     0.211 HD
ENDBRANCH   2  57
ENDBRANCH   1   2
BRANCH   1  59
ATOM     59  N   UNL     1      16.314  30.012  20.987  1.00  0.00    -0.319 N 
ATOM     60  C   UNL     1      15.596  28.796  20.752  1.00  0.00     0.407 C 
ATOM     61  H   UNL     1      17.112  30.241  20.374  1.00  0.00     0.167 HD
ATOM     62  O   UNL     1      14.619  28.484  21.478  1.00  0.00    -0.225 OA
BRANCH  60  63
ATOM     63  O   UNL     1      15.940  27.930  19.741  1.00  0.00    -0.443 OA
BRANCH  63  64
ATOM     64  C   UNL     1      16.269  28.310  18.452  1.00  0.00     0.294 C 
BRANCH  64  65
ATOM     65  C   UNL     1      17.697  28.336  18.111  1.00  0.00     0.120 A 
ATOM     66  C   UNL     1      18.265  28.668  16.909  1.00  0.00     0.138 A 
ATOM     67  N   UNL     1      18.709  28.012  18.948  1.00  0.00    -0.132 NA
ATOM     68  N   UNL     1      19.587  28.541  17.038  1.00  0.00    -0.252 N 
ATOM     69  N   UNL     1      19.818  28.147  18.273  1.00  0.00    -0.067 NA
BRANCH  68  70
ATOM     70  C   UNL     1      20.574  28.805  16.000  1.00  0.00     0.146 C 
BRANCH  70  71
ATOM     71  C   UNL     1      21.594  29.797  16.558  1.00  0.00     0.024 C 
BRANCH  71  72
ATOM     72  C   UNL     1      21.127  31.213  16.389  1.00  0.00     0.002 C 
BRANCH  72  73
ATOM     73  C   UNL     1      20.803  31.807  17.729  1.00  0.00     0.012 C 
BRANCH  73  74
ATOM     74  C   UNL     1      21.557  31.178  18.854  1.00  0.00     0.122 C 
BRANCH  74  75
ATOM     75  C   UNL     1      20.640  30.964  20.009  1.00  0.00     0.303 C 
ATOM     76  O   UNL     1      21.101  30.909  21.170  1.00  0.00    -0.252 OA
BRANCH  75  77
ATOM     77  O   UNL     1      19.269  30.825  19.820  1.00  0.00    -0.481 OA
ATOM     78  H   UNL     1      18.912  30.538  18.906  1.00  0.00     0.296 HD
ENDBRANCH  75  77
ENDBRANCH  74  75
ENDBRANCH  73  74
ENDBRANCH  72  73
ENDBRANCH  71  72
ENDBRANCH  70  71
ENDBRANCH  68  70
ENDBRANCH  64  65
ENDBRANCH  63  64
ENDBRANCH  60  63
ENDBRANCH   1  59
TORSDOF 36
