REMARK VINA RESULT:    -5.164      4.603     10.682
REMARK INTER + INTRA:         -22.335
REMARK INTER:                 -13.483
REMARK INTRA:                  -8.852
REMARK UNBOUND:                -8.417
REMARK SMILES CC(=O)N[C@@H]1[C@@H](O)C[C@](OC[C@H]2O[C@@H](O[C@H]3[C@H](O)[C@@H](O)[C@H](OCCN=[N+]=[N-])O[C@@H]3CO)[C@H](O)[C@@H](O)[C@H]2O)(C(=O)O)O[C@H]1C(O)[C@H](O)CNC(=O)OCc1cn(CCNC(=O)NCc2ccco2)nn1
REMARK SMILES IDX 43 1 42 2 9 3 8 4 41 5 6 6 5 7 10 8 11 9 12 10 14 11 13 12
REMARK SMILES IDX 32 13 34 14 36 15 15 16 16 17 29 18 28 19 21 20 17 21 19 22
REMARK SMILES IDX 30 23 31 24 22 26 23 27 24 28 25 29 26 30 27 31 18 32 20 34
REMARK SMILES IDX 33 36 35 38 37 40 38 42 39 43 40 44 7 46 4 48 2 49 1 51 3 52
REMARK SMILES IDX 44 53 45 55 46 56 47 58 48 59 49 60 50 62 51 63 52 64 53 65
REMARK SMILES IDX 54 66 69 67 55 68 68 69 56 70 57 71 58 72 59 73 60 75 61 76
REMARK SMILES IDX 62 78 63 79 64 80 67 81 65 82 66 83
REMARK H PARENT 31 25 18 33 20 35 33 37 35 39 37 41 40 45 7 47 4 50 44 54
REMARK H PARENT 46 57 48 61 58 74 61 77
REMARK Flexibility Score: inf
ROOT
ATOM      1  C   UNL     1      15.819  31.254  24.412  1.00  0.00     0.176 C 
ENDROOT
BRANCH   1   2
ATOM      2  C   UNL     1      14.818  30.651  25.345  1.00  0.00     0.178 C 
ATOM      3  C   UNL     1      12.883  30.122  24.070  1.00  0.00     0.272 C 
ATOM      4  C   UNL     1      12.620  31.653  24.248  1.00  0.00     0.113 C 
ATOM      5  O   UNL     1      13.981  29.752  24.758  1.00  0.00    -0.332 OA
ATOM      6  C   UNL     1      12.878  32.120  25.625  1.00  0.00     0.145 C 
ATOM      7  C   UNL     1      14.137  31.595  26.269  1.00  0.00     0.142 C 
BRANCH   3   8
ATOM      8  O   UNL     1      13.152  30.001  22.723  1.00  0.00    -0.338 OA
BRANCH   8   9
ATOM      9  C   UNL     1      12.892  30.994  21.877  1.00  0.00     0.199 C 
BRANCH   9  10
ATOM     10  C   UNL     1      13.746  31.495  20.817  1.00  0.00     0.179 C 
ATOM     11  C   UNL     1      15.831  32.049  20.039  1.00  0.00     0.282 C 
ATOM     12  O   UNL     1      15.108  31.312  20.977  1.00  0.00    -0.341 OA
ATOM     13  C   UNL     1      15.078  32.428  18.818  1.00  0.00     0.202 C 
ATOM     14  C   UNL     1      14.005  31.472  18.384  1.00  0.00     0.179 C 
ATOM     15  C   UNL     1      13.402  30.717  19.531  1.00  0.00     0.177 C 
BRANCH  11  16
ATOM     16  O   UNL     1      17.012  31.422  19.677  1.00  0.00    -0.341 OA
BRANCH  16  17
ATOM     17  C   UNL     1      17.415  30.444  20.609  1.00  0.00     0.184 C 
ATOM     18  C   UNL     1      18.890  30.617  20.826  1.00  0.00     0.178 C 
ATOM     19  O   UNL     1      19.536  29.406  21.062  1.00  0.00    -0.341 OA
ATOM     20  C   UNL     1      19.459  28.681  19.878  1.00  0.00     0.281 C 
ATOM     21  C   UNL     1      16.996  29.114  20.080  1.00  0.00     0.180 C 
ATOM     22  C   UNL     1      18.070  28.167  19.700  1.00  0.00     0.202 C 
BRANCH  18  23
ATOM     23  C   UNL     1      19.087  31.454  22.090  1.00  0.00     0.191 C 
BRANCH  23  24
ATOM     24  O   UNL     1      18.800  32.793  21.744  1.00  0.00    -0.394 OA
ATOM     25  H   UNL     1      19.668  33.274  21.876  1.00  0.00     0.210 HD
ENDBRANCH  23  24
ENDBRANCH  18  23
BRANCH  20  26
ATOM     26  O   UNL     1      20.300  27.577  20.043  1.00  0.00    -0.350 OA
BRANCH  26  27
ATOM     27  C   UNL     1      21.177  27.757  21.113  1.00  0.00     0.169 C 
BRANCH  27  28
ATOM     28  C   UNL     1      22.138  26.565  21.090  1.00  0.00     0.119 C 
BRANCH  28  29
ATOM     29  N   UNL     1      21.328  25.379  21.310  1.00  0.00    -0.092 NA
ATOM     30  N   UNL     1      21.118  24.956  22.456  1.00  0.00     0.001 N 
ATOM     31  N   UNL     1      20.674  24.741  23.596  1.00  0.00    -0.003 NA
ENDBRANCH  28  29
ENDBRANCH  27  28
ENDBRANCH  26  27
ENDBRANCH  20  26
BRANCH  21  32
ATOM     32  O   UNL     1      16.156  28.528  21.048  1.00  0.00    -0.387 OA
ATOM     33  H   UNL     1      15.880  27.627  20.801  1.00  0.00     0.211 HD
ENDBRANCH  21  32
BRANCH  22  34
ATOM     34  O   UNL     1      17.936  27.878  18.319  1.00  0.00    -0.385 OA
ATOM     35  H   UNL     1      18.556  27.104  18.154  1.00  0.00     0.211 HD
ENDBRANCH  22  34
ENDBRANCH  16  17
ENDBRANCH  11  16
BRANCH  13  36
ATOM     36  O   UNL     1      14.622  33.753  18.847  1.00  0.00    -0.385 OA
ATOM     37  H   UNL     1      15.133  34.332  18.239  1.00  0.00     0.211 HD
ENDBRANCH  13  36
BRANCH  14  38
ATOM     38  O   UNL     1      14.460  30.589  17.396  1.00  0.00    -0.387 OA
ATOM     39  H   UNL     1      15.223  30.102  17.815  1.00  0.00     0.211 HD
ENDBRANCH  14  38
BRANCH  15  40
ATOM     40  O   UNL     1      13.811  29.408  19.617  1.00  0.00    -0.387 OA
ATOM     41  H   UNL     1      13.190  28.930  20.197  1.00  0.00     0.211 HD
ENDBRANCH  15  40
ENDBRANCH   9  10
ENDBRANCH   8   9
ENDBRANCH   3   8
BRANCH   3  42
ATOM     42  C   UNL     1      11.601  29.517  24.425  1.00  0.00     0.364 C 
ATOM     43  O   UNL     1      10.525  30.025  24.077  1.00  0.00    -0.246 OA
BRANCH  42  44
ATOM     44  O   UNL     1      11.487  28.340  25.172  1.00  0.00    -0.477 OA
ATOM     45  H   UNL     1      11.086  28.387  26.110  1.00  0.00     0.296 HD
ENDBRANCH  42  44
ENDBRANCH   3  42
BRANCH   6  46
ATOM     46  O   UNL     1      12.945  33.525  25.588  1.00  0.00    -0.391 OA
ATOM     47  H   UNL     1      13.050  33.867  26.512  1.00  0.00     0.211 HD
ENDBRANCH   6  46
BRANCH   7  48
ATOM     48  N   UNL     1      13.778  30.948  27.532  1.00  0.00    -0.348 N 
ATOM     49  C   UNL     1      13.590  31.692  28.704  1.00  0.00     0.217 C 
ATOM     50  H   UNL     1      13.665  29.912  27.534  1.00  0.00     0.163 HD
ATOM     51  C   UNL     1      13.225  31.078  30.016  1.00  0.00     0.114 C 
ATOM     52  O   UNL     1      13.744  32.952  28.627  1.00  0.00    -0.275 OA
ENDBRANCH   7  48
ENDBRANCH   1   2
BRANCH   1  53
ATOM     53  O   UNL     1      16.334  30.195  23.582  1.00  0.00    -0.388 OA
ATOM     54  H   UNL     1      15.553  29.726  23.251  1.00  0.00     0.211 HD
ENDBRANCH   1  53
BRANCH   1  55
ATOM     55  C   UNL     1      17.064  31.811  25.038  1.00  0.00     0.165 C 
BRANCH  55  56
ATOM     56  O   UNL     1      17.411  31.320  26.274  1.00  0.00    -0.388 OA
ATOM     57  H   UNL     1      17.790  30.406  26.246  1.00  0.00     0.211 HD
ENDBRANCH  55  56
BRANCH  55  58
ATOM     58  C   UNL     1      17.037  33.343  25.055  1.00  0.00     0.154 C 
BRANCH  58  59
ATOM     59  N   UNL     1      15.988  33.850  24.205  1.00  0.00    -0.319 N 
ATOM     60  C   UNL     1      16.219  34.753  23.142  1.00  0.00     0.407 C 
ATOM     61  H   UNL     1      15.015  33.535  24.382  1.00  0.00     0.167 HD
ATOM     62  O   UNL     1      17.393  35.143  22.909  1.00  0.00    -0.225 OA
BRANCH  60  63
ATOM     63  O   UNL     1      15.186  35.227  22.339  1.00  0.00    -0.443 OA
BRANCH  63  64
ATOM     64  C   UNL     1      14.237  36.126  22.904  1.00  0.00     0.294 C 
BRANCH  64  65
ATOM     65  C   UNL     1      12.912  35.456  22.732  1.00  0.00     0.120 A 
ATOM     66  C   UNL     1      12.470  34.863  21.580  1.00  0.00     0.138 A 
ATOM     67  N   UNL     1      11.941  35.319  23.668  1.00  0.00    -0.132 NA
ATOM     68  N   UNL     1      11.260  34.392  21.844  1.00  0.00    -0.250 N 
ATOM     69  N   UNL     1      10.946  34.670  23.109  1.00  0.00    -0.067 NA
BRANCH  68  70
ATOM     70  C   UNL     1      10.411  33.689  20.883  1.00  0.00     0.167 C 
BRANCH  70  71
ATOM     71  C   UNL     1       8.993  33.691  21.455  1.00  0.00     0.141 C 
BRANCH  71  72
ATOM     72  N   UNL     1       8.798  32.424  22.097  1.00  0.00    -0.336 N 
ATOM     73  C   UNL     1       8.026  32.243  23.263  1.00  0.00     0.315 C 
ATOM     74  H   UNL     1       9.272  31.594  21.651  1.00  0.00     0.165 HD
ATOM     75  O   UNL     1       7.469  33.210  23.828  1.00  0.00    -0.249 OA
ATOM     76  N   UNL     1       7.884  30.918  23.797  1.00  0.00    -0.331 N 
ATOM     77  H   UNL     1       8.369  30.136  23.288  1.00  0.00     0.165 HD
BRANCH  76  78
ATOM     78  C   UNL     1       7.103  30.693  24.981  1.00  0.00     0.193 C 
BRANCH  78  79
ATOM     79  C   UNL     1       7.050  29.241  25.298  1.00  0.00     0.122 A 
ATOM     80  C   UNL     1       7.663  28.250  24.541  1.00  0.00     0.047 A 
ATOM     81  O   UNL     1       6.448  28.683  26.293  1.00  0.00    -0.467 OA
ATOM     82  C   UNL     1       7.378  27.070  25.163  1.00  0.00     0.042 A 
ATOM     83  C   UNL     1       6.615  27.379  26.257  1.00  0.00     0.195 A 
ENDBRANCH  78  79
ENDBRANCH  76  78
ENDBRANCH  71  72
ENDBRANCH  70  71
ENDBRANCH  68  70
ENDBRANCH  64  65
ENDBRANCH  63  64
ENDBRANCH  60  63
ENDBRANCH  58  59
ENDBRANCH  55  58
ENDBRANCH   1  55
TORSDOF 34
