REMARK VINA RESULT:    -5.550      4.523     10.337
REMARK INTER + INTRA:         -22.750
REMARK INTER:                 -14.235
REMARK INTRA:                  -8.515
REMARK UNBOUND:                -7.304
REMARK SMILES CC(=O)N[C@@H]1[C@@H](O)C[C@](OC[C@H]2O[C@@H](O[C@H]3[C@H](O)[C@@H](O)[C@H](OCCN=[N+]=[N-])O[C@@H]3CO)[C@H](O)[C@@H](O)[C@H]2O)(C(=O)O)O[C@H]1C(O)[C@H](O)CNC(=O)OCc1cn(CCCCCC(=O)O)nn1
REMARK SMILES IDX 47 1 45 2 43 3 42 4 9 5 8 6 41 7 6 8 5 9 10 10 11 11 12 12
REMARK SMILES IDX 14 13 13 14 32 15 34 16 36 17 15 18 16 19 29 20 28 21 21 22
REMARK SMILES IDX 17 23 19 24 30 25 31 26 22 28 23 29 24 30 25 31 26 32 27 33
REMARK SMILES IDX 18 34 20 36 33 38 35 40 37 42 38 44 39 45 40 46 7 48 4 50
REMARK SMILES IDX 2 51 1 53 3 54 44 55 46 57 48 59 49 60 50 62 51 63 52 64
REMARK SMILES IDX 53 65 54 66 65 67 55 68 64 69 56 70 57 71 58 72 59 73 60 74
REMARK SMILES IDX 61 75 62 76 63 77
REMARK H PARENT 31 27 18 35 20 37 33 39 35 41 37 43 40 47 7 49 4 52 44 56
REMARK H PARENT 46 58 48 61 63 78
REMARK Flexibility Score: inf
ROOT
ATOM      1  C   UNL     1      23.789  25.530  20.120  1.00  0.00     0.154 C 
ENDROOT
BRANCH   1   2
ATOM      2  C   UNL     1      22.443  24.992  20.541  1.00  0.00     0.165 C 
BRANCH   2   3
ATOM      3  C   UNL     1      21.883  25.957  21.535  1.00  0.00     0.176 C 
BRANCH   3   4
ATOM      4  C   UNL     1      22.707  26.196  22.752  1.00  0.00     0.178 C 
ATOM      5  C   UNL     1      24.061  25.265  24.292  1.00  0.00     0.272 C 
ATOM      6  C   UNL     1      24.478  26.683  24.511  1.00  0.00     0.113 C 
ATOM      7  O   UNL     1      22.894  25.088  23.562  1.00  0.00    -0.332 OA
ATOM      8  C   UNL     1      23.429  27.727  24.454  1.00  0.00     0.145 C 
ATOM      9  C   UNL     1      22.187  27.280  23.671  1.00  0.00     0.142 C 
BRANCH   5  10
ATOM     10  O   UNL     1      24.051  24.519  25.470  1.00  0.00    -0.338 OA
BRANCH  10  11
ATOM     11  C   UNL     1      22.935  24.585  26.240  1.00  0.00     0.199 C 
BRANCH  11  12
ATOM     12  C   UNL     1      23.379  25.062  27.610  1.00  0.00     0.179 C 
ATOM     13  C   UNL     1      24.913  26.109  28.856  1.00  0.00     0.282 C 
ATOM     14  O   UNL     1      24.284  26.111  27.575  1.00  0.00    -0.341 OA
ATOM     15  C   UNL     1      24.039  25.749  29.970  1.00  0.00     0.202 C 
ATOM     16  C   UNL     1      22.556  25.843  29.742  1.00  0.00     0.179 C 
ATOM     17  C   UNL     1      22.152  25.618  28.310  1.00  0.00     0.177 C 
BRANCH  13  18
ATOM     18  O   UNL     1      25.722  27.236  28.977  1.00  0.00    -0.341 OA
BRANCH  18  19
ATOM     19  C   UNL     1      25.455  28.243  28.127  1.00  0.00     0.184 C 
ATOM     20  C   UNL     1      26.680  28.982  27.682  1.00  0.00     0.178 C 
ATOM     21  O   UNL     1      26.285  29.698  26.533  1.00  0.00    -0.341 OA
ATOM     22  C   UNL     1      25.430  30.698  26.851  1.00  0.00     0.281 C 
ATOM     23  C   UNL     1      24.635  29.363  28.854  1.00  0.00     0.180 C 
ATOM     24  C   UNL     1      25.003  30.703  28.270  1.00  0.00     0.202 C 
BRANCH  20  25
ATOM     25  C   UNL     1      27.819  28.087  27.270  1.00  0.00     0.191 C 
BRANCH  25  26
ATOM     26  O   UNL     1      28.688  28.749  26.430  1.00  0.00    -0.394 OA
ATOM     27  H   UNL     1      28.672  29.711  26.679  1.00  0.00     0.210 HD
ENDBRANCH  25  26
ENDBRANCH  20  25
BRANCH  22  28
ATOM     28  O   UNL     1      24.319  30.775  26.000  1.00  0.00    -0.350 OA
BRANCH  28  29
ATOM     29  C   UNL     1      23.583  31.917  26.189  1.00  0.00     0.169 C 
BRANCH  29  30
ATOM     30  C   UNL     1      22.120  31.639  25.876  1.00  0.00     0.119 C 
BRANCH  30  31
ATOM     31  N   UNL     1      21.626  30.521  26.663  1.00  0.00    -0.092 NA
ATOM     32  N   UNL     1      20.448  30.528  27.067  1.00  0.00     0.001 N 
ATOM     33  N   UNL     1      19.509  30.660  27.854  1.00  0.00    -0.003 NA
ENDBRANCH  30  31
ENDBRANCH  29  30
ENDBRANCH  28  29
ENDBRANCH  22  28
BRANCH  23  34
ATOM     34  O   UNL     1      23.281  29.150  28.599  1.00  0.00    -0.387 OA
ATOM     35  H   UNL     1      23.139  28.177  28.412  1.00  0.00     0.211 HD
ENDBRANCH  23  34
BRANCH  24  36
ATOM     36  O   UNL     1      25.832  31.454  29.114  1.00  0.00    -0.385 OA
ATOM     37  H   UNL     1      25.539  32.396  29.188  1.00  0.00     0.211 HD
ENDBRANCH  24  36
ENDBRANCH  18  19
ENDBRANCH  13  18
BRANCH  15  38
ATOM     38  O   UNL     1      24.261  24.410  30.405  1.00  0.00    -0.385 OA
ATOM     39  H   UNL     1      25.173  24.134  30.199  1.00  0.00     0.211 HD
ENDBRANCH  15  38
BRANCH  16  40
ATOM     40  O   UNL     1      22.030  27.090  30.123  1.00  0.00    -0.387 OA
ATOM     41  H   UNL     1      21.932  27.706  29.375  1.00  0.00     0.211 HD
ENDBRANCH  16  40
BRANCH  17  42
ATOM     42  O   UNL     1      21.895  26.873  27.700  1.00  0.00    -0.387 OA
ATOM     43  H   UNL     1      21.844  27.525  28.468  1.00  0.00     0.211 HD
ENDBRANCH  17  42
ENDBRANCH  11  12
ENDBRANCH  10  11
ENDBRANCH   5  10
BRANCH   5  44
ATOM     44  C   UNL     1      25.127  24.638  23.461  1.00  0.00     0.364 C 
ATOM     45  O   UNL     1      26.149  25.283  23.139  1.00  0.00    -0.246 OA
BRANCH  44  46
ATOM     46  O   UNL     1      24.997  23.339  23.037  1.00  0.00    -0.477 OA
ATOM     47  H   UNL     1      24.084  22.900  22.829  1.00  0.00     0.296 HD
ENDBRANCH  44  46
ENDBRANCH   5  44
BRANCH   8  48
ATOM     48  O   UNL     1      23.095  28.308  25.674  1.00  0.00    -0.391 OA
ATOM     49  H   UNL     1      22.143  28.128  25.842  1.00  0.00     0.211 HD
ENDBRANCH   8  48
BRANCH   9  50
ATOM     50  N   UNL     1      21.556  28.372  23.016  1.00  0.00    -0.348 N 
ATOM     51  C   UNL     1      20.391  28.948  23.578  1.00  0.00     0.217 C 
ATOM     52  H   UNL     1      21.932  28.757  22.139  1.00  0.00     0.163 HD
ATOM     53  C   UNL     1      19.714  30.094  22.915  1.00  0.00     0.114 C 
ATOM     54  O   UNL     1      19.880  28.522  24.654  1.00  0.00    -0.275 OA
ENDBRANCH   9  50
ENDBRANCH   3   4
BRANCH   3  55
ATOM     55  O   UNL     1      20.582  25.577  21.936  1.00  0.00    -0.388 OA
ATOM     56  H   UNL     1      19.927  26.235  21.610  1.00  0.00     0.211 HD
ENDBRANCH   3  55
ENDBRANCH   2   3
BRANCH   2  57
ATOM     57  O   UNL     1      22.641  23.745  21.122  1.00  0.00    -0.388 OA
ATOM     58  H   UNL     1      22.729  23.892  22.098  1.00  0.00     0.211 HD
ENDBRANCH   2  57
ENDBRANCH   1   2
BRANCH   1  59
ATOM     59  N   UNL     1      24.877  24.633  20.346  1.00  0.00    -0.319 N 
ATOM     60  C   UNL     1      26.174  25.007  19.868  1.00  0.00     0.407 C 
ATOM     61  H   UNL     1      24.772  23.730  20.835  1.00  0.00     0.167 HD
ATOM     62  O   UNL     1      26.342  26.099  19.269  1.00  0.00    -0.225 OA
BRANCH  60  63
ATOM     63  O   UNL     1      27.275  24.201  20.041  1.00  0.00    -0.443 OA
BRANCH  63  64
ATOM     64  C   UNL     1      27.229  22.833  20.247  1.00  0.00     0.294 C 
BRANCH  64  65
ATOM     65  C   UNL     1      28.117  22.288  21.282  1.00  0.00     0.120 A 
ATOM     66  C   UNL     1      29.154  22.924  21.914  1.00  0.00     0.138 A 
ATOM     67  N   UNL     1      28.063  21.032  21.780  1.00  0.00    -0.132 NA
ATOM     68  N   UNL     1      29.699  22.057  22.769  1.00  0.00    -0.252 N 
ATOM     69  N   UNL     1      29.020  20.932  22.662  1.00  0.00    -0.067 NA
BRANCH  68  70
ATOM     70  C   UNL     1      30.825  22.323  23.652  1.00  0.00     0.146 C 
BRANCH  70  71
ATOM     71  C   UNL     1      31.189  21.019  24.362  1.00  0.00     0.024 C 
BRANCH  71  72
ATOM     72  C   UNL     1      31.167  21.184  25.853  1.00  0.00     0.002 C 
BRANCH  72  73
ATOM     73  C   UNL     1      32.212  20.307  26.479  1.00  0.00     0.012 C 
BRANCH  73  74
ATOM     74  C   UNL     1      32.043  18.859  26.156  1.00  0.00     0.122 C 
BRANCH  74  75
ATOM     75  C   UNL     1      31.965  18.074  27.419  1.00  0.00     0.303 C 
ATOM     76  O   UNL     1      31.245  18.475  28.360  1.00  0.00    -0.252 OA
BRANCH  75  77
ATOM     77  O   UNL     1      32.681  16.891  27.574  1.00  0.00    -0.481 OA
ATOM     78  H   UNL     1      32.953  16.355  26.748  1.00  0.00     0.296 HD
ENDBRANCH  75  77
ENDBRANCH  74  75
ENDBRANCH  73  74
ENDBRANCH  72  73
ENDBRANCH  71  72
ENDBRANCH  70  71
ENDBRANCH  68  70
ENDBRANCH  64  65
ENDBRANCH  63  64
ENDBRANCH  60  63
ENDBRANCH   1  59
TORSDOF 36
