REMARK VINA RESULT:    -5.970     23.897     28.204
REMARK INTER + INTRA:         -20.128
REMARK INTER:                 -11.856
REMARK INTRA:                  -8.272
REMARK UNBOUND:                -4.909
REMARK SMILES CC(=O)N[C@@H]1[C@@H](O)C[C@](OC[C@H]2O[C@@H](O[C@H]3[C@H](O)[C@@H](O)[C@H](OCCN=[N+]=[N-])O[C@@H]3CO)[C@H](O)[C@@H](O)[C@H]2O)(C(=O)O)O[C@H]1C(O)[C@H](O)CNC(=O)OCc1cn(CCO)nn1
REMARK SMILES IDX 9 1 8 2 6 3 5 4 42 5 41 6 10 7 11 8 12 9 14 10 13 11 32 12
REMARK SMILES IDX 34 13 36 14 15 15 16 16 29 17 28 18 21 19 17 20 19 21 30 22
REMARK SMILES IDX 31 23 22 25 23 26 24 27 25 28 26 29 27 30 18 31 20 33 33 35
REMARK SMILES IDX 35 37 37 39 38 41 39 42 40 43 7 45 43 47 44 48 45 50 46 51
REMARK SMILES IDX 47 53 48 54 49 55 50 57 51 58 52 59 53 60 54 61 60 62 55 63
REMARK SMILES IDX 59 64 56 65 57 66 58 67 4 69 2 70 1 72 3 73
REMARK H PARENT 31 24 18 32 20 34 33 36 35 38 37 40 40 44 7 46 44 49 46 52
REMARK H PARENT 48 56 58 68 4 71
REMARK Flexibility Score: inf
ROOT
ATOM      1  C   UNL     1      20.494  19.746  11.363  1.00  0.00     0.272 C 
ATOM      2  C   UNL     1      20.726  18.585  10.452  1.00  0.00     0.113 C 
ATOM      3  C   UNL     1      20.003  18.798   9.150  1.00  0.00     0.145 C 
ATOM      4  C   UNL     1      20.516  20.129   8.598  1.00  0.00     0.142 C 
ATOM      5  C   UNL     1      20.034  21.198   9.571  1.00  0.00     0.178 C 
ATOM      6  O   UNL     1      20.775  20.928  10.745  1.00  0.00    -0.332 OA
ENDROOT
BRANCH   1   7
ATOM      7  O   UNL     1      21.313  19.660  12.512  1.00  0.00    -0.338 OA
BRANCH   7   8
ATOM      8  C   UNL     1      22.371  18.817  12.423  1.00  0.00     0.199 C 
BRANCH   8   9
ATOM      9  C   UNL     1      23.698  19.571  12.600  1.00  0.00     0.179 C 
ATOM     10  C   UNL     1      24.843  21.475  11.930  1.00  0.00     0.282 C 
ATOM     11  O   UNL     1      23.755  20.628  11.717  1.00  0.00    -0.341 OA
ATOM     12  C   UNL     1      24.791  22.142  13.279  1.00  0.00     0.202 C 
ATOM     13  C   UNL     1      23.927  21.419  14.281  1.00  0.00     0.179 C 
ATOM     14  C   UNL     1      23.975  19.940  14.017  1.00  0.00     0.177 C 
BRANCH  10  15
ATOM     15  O   UNL     1      24.789  22.411  10.970  1.00  0.00    -0.341 OA
BRANCH  15  16
ATOM     16  C   UNL     1      25.446  22.264   9.808  1.00  0.00     0.184 C 
ATOM     17  C   UNL     1      26.163  21.037   9.461  1.00  0.00     0.178 C 
ATOM     18  O   UNL     1      27.305  21.326   8.735  1.00  0.00    -0.341 OA
ATOM     19  C   UNL     1      27.226  22.284   7.775  1.00  0.00     0.281 C 
ATOM     20  C   UNL     1      26.498  23.404   9.803  1.00  0.00     0.180 C 
ATOM     21  C   UNL     1      26.786  23.645   8.337  1.00  0.00     0.202 C 
BRANCH  17  22
ATOM     22  C   UNL     1      25.334  20.060   8.633  1.00  0.00     0.191 C 
BRANCH  22  23
ATOM     23  O   UNL     1      23.966  20.317   8.743  1.00  0.00    -0.394 OA
ATOM     24  H   UNL     1      23.543  19.542   9.160  1.00  0.00     0.210 HD
ENDBRANCH  22  23
ENDBRANCH  17  22
BRANCH  19  25
ATOM     25  O   UNL     1      26.545  21.968   6.633  1.00  0.00    -0.350 OA
BRANCH  25  26
ATOM     26  C   UNL     1      25.660  22.890   6.160  1.00  0.00     0.169 C 
BRANCH  26  27
ATOM     27  C   UNL     1      24.364  22.255   5.783  1.00  0.00     0.119 C 
BRANCH  27  28
ATOM     28  N   UNL     1      23.566  23.217   5.004  1.00  0.00    -0.092 NA
ATOM     29  N   UNL     1      22.418  23.415   5.443  1.00  0.00     0.001 N 
ATOM     30  N   UNL     1      21.562  24.091   6.039  1.00  0.00    -0.003 NA
ENDBRANCH  27  28
ENDBRANCH  26  27
ENDBRANCH  25  26
ENDBRANCH  19  25
BRANCH  20  31
ATOM     31  O   UNL     1      26.024  24.512  10.454  1.00  0.00    -0.387 OA
ATOM     32  H   UNL     1      25.776  24.329  11.395  1.00  0.00     0.211 HD
ENDBRANCH  20  31
BRANCH  21  33
ATOM     33  O   UNL     1      27.720  24.631   8.169  1.00  0.00    -0.385 OA
ATOM     34  H   UNL     1      28.526  24.321   7.686  1.00  0.00     0.211 HD
ENDBRANCH  21  33
ENDBRANCH  15  16
ENDBRANCH  10  15
BRANCH  12  35
ATOM     35  O   UNL     1      26.089  22.122  13.814  1.00  0.00    -0.385 OA
ATOM     36  H   UNL     1      26.697  21.528  13.331  1.00  0.00     0.211 HD
ENDBRANCH  12  35
BRANCH  13  37
ATOM     37  O   UNL     1      22.662  21.944  14.260  1.00  0.00    -0.387 OA
ATOM     38  H   UNL     1      21.995  21.307  13.852  1.00  0.00     0.211 HD
ENDBRANCH  13  37
BRANCH  14  39
ATOM     39  O   UNL     1      22.967  19.348  14.811  1.00  0.00    -0.387 OA
ATOM     40  H   UNL     1      23.220  19.360  15.767  1.00  0.00     0.211 HD
ENDBRANCH  14  39
ENDBRANCH   8   9
ENDBRANCH   7   8
ENDBRANCH   1   7
BRANCH   1  41
ATOM     41  C   UNL     1      19.117  19.664  11.897  1.00  0.00     0.364 C 
ATOM     42  O   UNL     1      18.556  18.584  12.161  1.00  0.00    -0.246 OA
BRANCH  41  43
ATOM     43  O   UNL     1      18.382  20.813  12.132  1.00  0.00    -0.477 OA
ATOM     44  H   UNL     1      17.629  20.860  12.841  1.00  0.00     0.296 HD
ENDBRANCH  41  43
ENDBRANCH   1  41
BRANCH   3  45
ATOM     45  O   UNL     1      20.377  17.815   8.208  1.00  0.00    -0.391 OA
ATOM     46  H   UNL     1      20.521  16.954   8.685  1.00  0.00     0.211 HD
ENDBRANCH   3  45
BRANCH   5  47
ATOM     47  C   UNL     1      20.534  22.531   9.114  1.00  0.00     0.176 C 
BRANCH  47  48
ATOM     48  O   UNL     1      19.692  23.101   8.158  1.00  0.00    -0.388 OA
ATOM     49  H   UNL     1      20.196  23.631   7.486  1.00  0.00     0.211 HD
ENDBRANCH  47  48
BRANCH  47  50
ATOM     50  C   UNL     1      20.915  23.537  10.129  1.00  0.00     0.165 C 
BRANCH  50  51
ATOM     51  O   UNL     1      19.926  24.591   9.904  1.00  0.00    -0.388 OA
ATOM     52  H   UNL     1      20.251  25.160   9.169  1.00  0.00     0.211 HD
ENDBRANCH  50  51
BRANCH  50  53
ATOM     53  C   UNL     1      22.201  24.283   9.820  1.00  0.00     0.154 C 
BRANCH  53  54
ATOM     54  N   UNL     1      22.916  24.707  10.980  1.00  0.00    -0.319 N 
ATOM     55  C   UNL     1      23.003  26.082  11.319  1.00  0.00     0.407 C 
ATOM     56  H   UNL     1      23.410  24.016  11.613  1.00  0.00     0.167 HD
ATOM     57  O   UNL     1      22.418  26.894  10.526  1.00  0.00    -0.225 OA
BRANCH  55  58
ATOM     58  O   UNL     1      23.648  26.608  12.406  1.00  0.00    -0.443 OA
BRANCH  58  59
ATOM     59  C   UNL     1      24.308  25.736  13.304  1.00  0.00     0.294 C 
BRANCH  59  60
ATOM     60  C   UNL     1      23.536  25.476  14.521  1.00  0.00     0.120 A 
ATOM     61  C   UNL     1      24.029  24.913  15.673  1.00  0.00     0.138 A 
ATOM     62  N   UNL     1      22.239  25.718  14.767  1.00  0.00    -0.132 NA
ATOM     63  N   UNL     1      23.039  24.825  16.582  1.00  0.00    -0.250 N 
ATOM     64  N   UNL     1      21.962  25.318  16.015  1.00  0.00    -0.067 NA
BRANCH  63  65
ATOM     65  C   UNL     1      23.171  24.279  17.940  1.00  0.00     0.174 C 
BRANCH  65  66
ATOM     66  C   UNL     1      23.333  25.433  18.898  1.00  0.00     0.179 C 
BRANCH  66  67
ATOM     67  O   UNL     1      22.217  26.271  18.738  1.00  0.00    -0.394 OA
ATOM     68  H   UNL     1      21.466  25.836  18.299  1.00  0.00     0.210 HD
ENDBRANCH  66  67
ENDBRANCH  65  66
ENDBRANCH  63  65
ENDBRANCH  59  60
ENDBRANCH  58  59
ENDBRANCH  55  58
ENDBRANCH  53  54
ENDBRANCH  50  53
ENDBRANCH  47  50
ENDBRANCH   5  47
BRANCH   4  69
ATOM     69  N   UNL     1      20.217  20.327   7.236  1.00  0.00    -0.348 N 
ATOM     70  C   UNL     1      21.085  20.055   6.153  1.00  0.00     0.217 C 
ATOM     71  H   UNL     1      19.268  20.693   6.965  1.00  0.00     0.163 HD
ATOM     72  C   UNL     1      20.637  20.317   4.770  1.00  0.00     0.114 C 
ATOM     73  O   UNL     1      22.222  19.599   6.347  1.00  0.00    -0.275 OA
ENDBRANCH   4  69
TORSDOF 32
