REMARK VINA RESULT:    -5.524     12.974     18.275
REMARK INTER + INTRA:         -21.899
REMARK INTER:                 -16.229
REMARK INTRA:                  -5.670
REMARK UNBOUND:                -7.010
REMARK SMILES CC(=O)N[C@@H]1[C@@H](O)C[C@](OC[C@H]2O[C@@H](O[C@H]3[C@H](O)[C@@H](O)[C@H](OCCN=[N+]=[N-])O[C@@H]3CO)[C@H](O)[C@@H](O)[C@H]2O)(C(=O)O)O[C@H]1C(O)[C@H](O)CNC(=O)OCc1cn([C@@H](CC(=O)O)C(=O)O)nn1
REMARK SMILES IDX 43 1 42 2 9 3 8 4 41 5 6 6 5 7 10 8 11 9 12 10 14 11 13 12
REMARK SMILES IDX 32 13 34 14 36 15 15 16 16 17 29 18 28 19 21 20 17 21 19 22
REMARK SMILES IDX 30 23 31 24 22 26 23 27 24 28 25 29 26 30 27 31 18 32 20 34
REMARK SMILES IDX 33 36 35 38 37 40 38 42 39 43 40 44 7 46 4 48 2 49 1 51 3 52
REMARK SMILES IDX 44 53 45 55 46 56 47 58 48 59 49 60 50 62 51 63 52 64 53 65
REMARK SMILES IDX 54 66 65 67 55 68 64 69 56 70 57 71 58 72 59 73 60 74 61 76
REMARK SMILES IDX 62 77 63 78
REMARK H PARENT 31 25 18 33 20 35 33 37 35 39 37 41 40 45 7 47 4 50 44 54
REMARK H PARENT 46 57 48 61 60 75 63 79
REMARK Flexibility Score: inf
ROOT
ATOM      1  C   UNL     1       2.632  20.254  31.519  1.00  0.00     0.176 C 
ENDROOT
BRANCH   1   2
ATOM      2  C   UNL     1       2.162  21.569  32.117  1.00  0.00     0.178 C 
ATOM      3  C   UNL     1       3.005  23.634  32.860  1.00  0.00     0.272 C 
ATOM      4  C   UNL     1       1.611  23.566  33.499  1.00  0.00     0.113 C 
ATOM      5  O   UNL     1       3.259  22.332  32.373  1.00  0.00    -0.332 OA
ATOM      6  C   UNL     1       1.616  22.301  34.345  1.00  0.00     0.145 C 
ATOM      7  C   UNL     1       1.318  21.194  33.321  1.00  0.00     0.142 C 
BRANCH   3   8
ATOM      8  O   UNL     1       3.872  24.008  33.683  1.00  0.00    -0.338 OA
BRANCH   8   9
ATOM      9  C   UNL     1       4.725  24.380  34.509  1.00  0.00     0.199 C 
BRANCH   9  10
ATOM     10  C   UNL     1       4.714  25.851  34.928  1.00  0.00     0.179 C 
ATOM     11  C   UNL     1       6.703  26.066  36.065  1.00  0.00     0.282 C 
ATOM     12  O   UNL     1       5.340  26.133  36.094  1.00  0.00    -0.341 OA
ATOM     13  C   UNL     1       7.301  26.921  35.016  1.00  0.00     0.202 C 
ATOM     14  C   UNL     1       6.150  27.769  34.451  1.00  0.00     0.179 C 
ATOM     15  C   UNL     1       5.199  26.765  33.828  1.00  0.00     0.177 C 
BRANCH  11  16
ATOM     16  O   UNL     1       7.252  24.803  36.223  1.00  0.00    -0.341 OA
BRANCH  16  17
ATOM     17  C   UNL     1       8.587  24.735  35.895  1.00  0.00     0.184 C 
ATOM     18  C   UNL     1       8.940  23.448  35.241  1.00  0.00     0.178 C 
ATOM     19  O   UNL     1      10.277  23.419  34.865  1.00  0.00    -0.341 OA
ATOM     20  C   UNL     1      11.136  24.040  35.778  1.00  0.00     0.281 C 
ATOM     21  C   UNL     1       9.349  24.863  37.212  1.00  0.00     0.180 C 
ATOM     22  C   UNL     1      10.543  23.964  37.181  1.00  0.00     0.202 C 
BRANCH  18  23
ATOM     23  C   UNL     1       8.146  23.364  33.938  1.00  0.00     0.191 C 
BRANCH  23  24
ATOM     24  O   UNL     1       8.021  22.006  33.577  1.00  0.00    -0.394 OA
ATOM     25  H   UNL     1       7.291  21.656  34.170  1.00  0.00     0.210 HD
ENDBRANCH  23  24
ENDBRANCH  18  23
BRANCH  20  26
ATOM     26  O   UNL     1      11.213  25.377  35.431  1.00  0.00    -0.350 OA
BRANCH  26  27
ATOM     27  C   UNL     1      12.442  25.854  35.095  1.00  0.00     0.169 C 
BRANCH  27  28
ATOM     28  C   UNL     1      12.528  27.331  35.335  1.00  0.00     0.119 C 
BRANCH  28  29
ATOM     29  N   UNL     1      11.228  27.920  35.009  1.00  0.00    -0.092 NA
ATOM     30  N   UNL     1      11.063  28.352  33.851  1.00  0.00     0.001 N 
ATOM     31  N   UNL     1      10.739  29.187  32.985  1.00  0.00    -0.003 NA
ENDBRANCH  28  29
ENDBRANCH  27  28
ENDBRANCH  26  27
ENDBRANCH  20  26
BRANCH  21  32
ATOM     32  O   UNL     1       9.756  26.179  37.393  1.00  0.00    -0.387 OA
ATOM     33  H   UNL     1      10.750  26.249  37.305  1.00  0.00     0.211 HD
ENDBRANCH  21  32
BRANCH  22  34
ATOM     34  O   UNL     1      10.266  22.640  37.527  1.00  0.00    -0.385 OA
ATOM     35  H   UNL     1       9.956  22.215  36.666  1.00  0.00     0.211 HD
ENDBRANCH  22  34
ENDBRANCH  16  17
ENDBRANCH  11  16
BRANCH  13  36
ATOM     36  O   UNL     1       8.234  27.840  35.502  1.00  0.00    -0.385 OA
ATOM     37  H   UNL     1       7.828  28.278  36.305  1.00  0.00     0.211 HD
ENDBRANCH  13  36
BRANCH  14  38
ATOM     38  O   UNL     1       6.574  28.707  33.542  1.00  0.00    -0.387 OA
ATOM     39  H   UNL     1       5.931  28.816  32.786  1.00  0.00     0.211 HD
ENDBRANCH  14  38
BRANCH  15  40
ATOM     40  O   UNL     1       5.851  26.082  32.825  1.00  0.00    -0.387 OA
ATOM     41  H   UNL     1       5.310  25.912  32.035  1.00  0.00     0.211 HD
ENDBRANCH  15  40
ENDBRANCH   9  10
ENDBRANCH   8   9
ENDBRANCH   3   8
BRANCH   3  42
ATOM     42  C   UNL     1       2.799  24.533  31.645  1.00  0.00     0.364 C 
ATOM     43  O   UNL     1       3.773  25.079  31.108  1.00  0.00    -0.246 OA
BRANCH  42  44
ATOM     44  O   UNL     1       1.537  24.753  31.125  1.00  0.00    -0.477 OA
ATOM     45  H   UNL     1       0.836  25.331  31.608  1.00  0.00     0.296 HD
ENDBRANCH  42  44
ENDBRANCH   3  42
BRANCH   6  46
ATOM     46  O   UNL     1       2.934  22.007  34.758  1.00  0.00    -0.391 OA
ATOM     47  H   UNL     1       3.538  21.859  34.011  1.00  0.00     0.211 HD
ENDBRANCH   6  46
BRANCH   7  48
ATOM     48  N   UNL     1      -0.103  21.256  33.069  1.00  0.00    -0.348 N 
ATOM     49  C   UNL     1      -0.859  20.053  32.926  1.00  0.00     0.217 C 
ATOM     50  H   UNL     1      -0.625  22.157  32.981  1.00  0.00     0.163 HD
ATOM     51  C   UNL     1      -2.332  20.186  32.662  1.00  0.00     0.114 C 
ATOM     52  O   UNL     1      -0.325  18.916  33.014  1.00  0.00    -0.275 OA
ENDBRANCH   7  48
ENDBRANCH   1   2
BRANCH   1  53
ATOM     53  O   UNL     1       3.409  19.531  32.416  1.00  0.00    -0.388 OA
ATOM     54  H   UNL     1       4.236  19.170  31.986  1.00  0.00     0.211 HD
ENDBRANCH   1  53
BRANCH   1  55
ATOM     55  C   UNL     1       3.299  20.347  30.199  1.00  0.00     0.165 C 
BRANCH  55  56
ATOM     56  O   UNL     1       4.666  20.516  30.218  1.00  0.00    -0.388 OA
ATOM     57  H   UNL     1       5.123  20.083  30.986  1.00  0.00     0.211 HD
ENDBRANCH  55  56
BRANCH  55  58
ATOM     58  C   UNL     1       2.579  21.279  29.286  1.00  0.00     0.154 C 
BRANCH  58  59
ATOM     59  N   UNL     1       3.144  22.584  29.137  1.00  0.00    -0.319 N 
ATOM     60  C   UNL     1       2.745  23.396  28.048  1.00  0.00     0.407 C 
ATOM     61  H   UNL     1       3.834  22.951  29.807  1.00  0.00     0.167 HD
ATOM     62  O   UNL     1       1.872  22.925  27.239  1.00  0.00    -0.225 OA
BRANCH  60  63
ATOM     63  O   UNL     1       3.216  24.666  27.763  1.00  0.00    -0.443 OA
BRANCH  63  64
ATOM     64  C   UNL     1       3.328  25.089  26.395  1.00  0.00     0.294 C 
BRANCH  64  65
ATOM     65  C   UNL     1       4.550  25.915  26.254  1.00  0.00     0.120 A 
ATOM     66  C   UNL     1       5.471  25.969  25.231  1.00  0.00     0.139 A 
ATOM     67  N   UNL     1       5.017  26.810  27.187  1.00  0.00    -0.132 NA
ATOM     68  N   UNL     1       6.444  26.868  25.561  1.00  0.00    -0.237 N 
ATOM     69  N   UNL     1       6.121  27.335  26.731  1.00  0.00    -0.066 NA
BRANCH  68  70
ATOM     70  C   UNL     1       7.601  27.208  24.765  1.00  0.00     0.229 C 
BRANCH  70  71
ATOM     71  C   UNL     1       7.657  28.720  24.635  1.00  0.00     0.161 C 
BRANCH  71  72
ATOM     72  C   UNL     1       6.638  29.222  23.694  1.00  0.00     0.306 C 
ATOM     73  O   UNL     1       6.099  30.346  23.858  1.00  0.00    -0.252 OA
BRANCH  72  74
ATOM     74  O   UNL     1       6.253  28.462  22.612  1.00  0.00    -0.481 OA
ATOM     75  H   UNL     1       6.062  28.936  21.721  1.00  0.00     0.296 HD
ENDBRANCH  72  74
ENDBRANCH  71  72
ENDBRANCH  70  71
BRANCH  70  76
ATOM     76  C   UNL     1       8.814  26.728  25.451  1.00  0.00     0.329 C 
ATOM     77  O   UNL     1       9.929  27.174  25.094  1.00  0.00    -0.250 OA
BRANCH  76  78
ATOM     78  O   UNL     1       8.784  25.799  26.482  1.00  0.00    -0.480 OA
ATOM     79  H   UNL     1       8.016  25.134  26.508  1.00  0.00     0.296 HD
ENDBRANCH  76  78
ENDBRANCH  70  76
ENDBRANCH  68  70
ENDBRANCH  64  65
ENDBRANCH  63  64
ENDBRANCH  60  63
ENDBRANCH  58  59
ENDBRANCH  55  58
ENDBRANCH   1  55
TORSDOF 35
