REMARK VINA RESULT:    -6.017      3.082     10.086
REMARK INTER + INTRA:         -23.679
REMARK INTER:                 -18.145
REMARK INTRA:                  -5.534
REMARK UNBOUND:                -6.934
REMARK SMILES CCOCCc1c(-c2ccccc2)nc(N)nc1-n1cc(COC(=O)NC[C@@H](O)C(O)[C@@H]2O[C@@](OC[C@H]3O[C@@H](O[C@H]4[C@H](O)[C@@H](O)[C@H](OCCN=[N+]=[N-])O[C@@H]4CO)[C@H](O)[C@@H](O)[C@H]3O)(C(=O)O)C[C@H](O)[C@H]2NC(C)=O)nn1
REMARK SMILES IDX 30 1 32 2 34 3 66 4 33 5 67 6 69 7 35 8 36 9 37 10 39 11
REMARK SMILES IDX 38 12 57 13 59 14 61 15 40 16 41 17 54 18 53 19 46 20 42 21
REMARK SMILES IDX 44 22 55 23 56 24 47 26 48 27 49 28 50 29 51 30 52 31 43 32
REMARK SMILES IDX 45 34 58 36 60 38 62 40 63 42 64 43 65 44 68 46 70 48 71 49
REMARK SMILES IDX 72 51 73 52 31 53 28 55 29 56 27 58 26 59 24 60 25 62 23 63
REMARK SMILES IDX 22 64 21 65 20 66 74 67 19 68 75 69 18 70 17 71 6 72 15 73
REMARK SMILES IDX 7 74 14 75 5 76 4 77 3 78 2 79 1 80 16 81 8 84 9 85 13 86
REMARK SMILES IDX 10 87 12 88 11 89
REMARK H PARENT 56 25 43 33 45 35 58 37 60 39 62 41 65 45 68 47 70 50 31 54
REMARK H PARENT 29 57 26 61 16 82 16 83
REMARK Flexibility Score: inf
ROOT
ATOM      1  C   UNL     1       4.240  21.278  32.134  1.00  0.00     0.176 C 
ENDROOT
BRANCH   1   2
ATOM      2  C   UNL     1       3.340  22.455  32.365  1.00  0.00     0.178 C 
ATOM      3  C   UNL     1       3.575  24.784  32.347  1.00  0.00     0.272 C 
ATOM      4  C   UNL     1       2.078  24.704  32.653  1.00  0.00     0.113 C 
ATOM      5  O   UNL     1       4.101  23.599  31.978  1.00  0.00    -0.332 OA
ATOM      6  C   UNL     1       1.765  23.710  33.729  1.00  0.00     0.145 C 
ATOM      7  C   UNL     1       2.900  22.702  33.767  1.00  0.00     0.142 C 
BRANCH   3   8
ATOM      8  O   UNL     1       4.176  25.380  33.434  1.00  0.00    -0.338 OA
BRANCH   8   9
ATOM      9  C   UNL     1       5.545  25.396  33.430  1.00  0.00     0.199 C 
BRANCH   9  10
ATOM     10  C   UNL     1       6.117  26.298  34.513  1.00  0.00     0.179 C 
ATOM     11  C   UNL     1       8.268  26.675  35.335  1.00  0.00     0.282 C 
ATOM     12  O   UNL     1       7.325  25.791  34.894  1.00  0.00    -0.341 OA
ATOM     13  C   UNL     1       8.498  27.666  34.187  1.00  0.00     0.202 C 
ATOM     14  C   UNL     1       7.249  28.546  34.202  1.00  0.00     0.179 C 
ATOM     15  C   UNL     1       5.996  27.746  34.259  1.00  0.00     0.177 C 
BRANCH  11  16
ATOM     16  O   UNL     1       9.416  26.007  35.690  1.00  0.00    -0.341 OA
BRANCH  16  17
ATOM     17  C   UNL     1       9.153  24.781  36.281  1.00  0.00     0.184 C 
ATOM     18  C   UNL     1       9.055  24.902  37.764  1.00  0.00     0.178 C 
ATOM     19  O   UNL     1      10.052  24.334  38.493  1.00  0.00    -0.341 OA
ATOM     20  C   UNL     1      10.496  23.096  38.149  1.00  0.00     0.281 C 
ATOM     21  C   UNL     1      10.115  23.729  35.820  1.00  0.00     0.180 C 
ATOM     22  C   UNL     1      10.114  22.585  36.800  1.00  0.00     0.202 C 
BRANCH  18  23
ATOM     23  C   UNL     1       7.667  24.512  38.273  1.00  0.00     0.191 C 
BRANCH  23  24
ATOM     24  O   UNL     1       6.873  24.025  37.250  1.00  0.00    -0.394 OA
ATOM     25  H   UNL     1       7.032  23.048  37.193  1.00  0.00     0.210 HD
ENDBRANCH  23  24
ENDBRANCH  18  23
BRANCH  20  26
ATOM     26  O   UNL     1      10.050  22.202  39.117  1.00  0.00    -0.350 OA
BRANCH  26  27
ATOM     27  C   UNL     1      10.358  22.563  40.405  1.00  0.00     0.169 C 
BRANCH  27  28
ATOM     28  C   UNL     1       9.639  21.758  41.461  1.00  0.00     0.119 C 
BRANCH  28  29
ATOM     29  N   UNL     1      10.079  20.367  41.372  1.00  0.00    -0.092 NA
ATOM     30  N   UNL     1      11.075  19.964  41.986  1.00  0.00     0.001 N 
ATOM     31  N   UNL     1      12.148  19.748  42.547  1.00  0.00    -0.003 NA
ENDBRANCH  28  29
ENDBRANCH  27  28
ENDBRANCH  26  27
ENDBRANCH  20  26
BRANCH  21  32
ATOM     32  O   UNL     1       9.785  23.219  34.561  1.00  0.00    -0.387 OA
ATOM     33  H   UNL     1      10.190  23.757  33.829  1.00  0.00     0.211 HD
ENDBRANCH  21  32
BRANCH  22  34
ATOM     34  O   UNL     1      11.080  21.672  36.383  1.00  0.00    -0.385 OA
ATOM     35  H   UNL     1      11.619  21.323  37.137  1.00  0.00     0.211 HD
ENDBRANCH  22  34
ENDBRANCH  16  17
ENDBRANCH  11  16
BRANCH  13  36
ATOM     36  O   UNL     1       9.618  28.440  34.369  1.00  0.00    -0.385 OA
ATOM     37  H   UNL     1       9.851  28.532  35.333  1.00  0.00     0.211 HD
ENDBRANCH  13  36
BRANCH  14  38
ATOM     38  O   UNL     1       7.271  29.534  33.245  1.00  0.00    -0.387 OA
ATOM     39  H   UNL     1       7.184  29.157  32.317  1.00  0.00     0.211 HD
ENDBRANCH  14  38
BRANCH  15  40
ATOM     40  O   UNL     1       5.317  27.937  33.036  1.00  0.00    -0.387 OA
ATOM     41  H   UNL     1       4.651  27.212  32.919  1.00  0.00     0.211 HD
ENDBRANCH  15  40
ENDBRANCH   9  10
ENDBRANCH   8   9
ENDBRANCH   3   8
BRANCH   3  42
ATOM     42  C   UNL     1       3.637  25.719  31.179  1.00  0.00     0.364 C 
ATOM     43  O   UNL     1       3.064  26.850  31.368  1.00  0.00    -0.246 OA
BRANCH  42  44
ATOM     44  O   UNL     1       4.238  25.458  29.982  1.00  0.00    -0.477 OA
ATOM     45  H   UNL     1       4.557  24.514  29.778  1.00  0.00     0.296 HD
ENDBRANCH  42  44
ENDBRANCH   3  42
BRANCH   6  46
ATOM     46  O   UNL     1       1.669  24.426  34.933  1.00  0.00    -0.391 OA
ATOM     47  H   UNL     1       1.353  25.339  34.789  1.00  0.00     0.211 HD
ENDBRANCH   6  46
BRANCH   7  48
ATOM     48  N   UNL     1       2.559  21.556  34.552  1.00  0.00    -0.348 N 
ATOM     49  C   UNL     1       2.870  21.421  35.930  1.00  0.00     0.217 C 
ATOM     50  H   UNL     1       2.038  20.793  34.068  1.00  0.00     0.163 HD
ATOM     51  C   UNL     1       2.468  20.193  36.643  1.00  0.00     0.114 C 
ATOM     52  O   UNL     1       3.476  22.337  36.526  1.00  0.00    -0.275 OA
ENDBRANCH   7  48
ENDBRANCH   1   2
BRANCH   1  53
ATOM     53  O   UNL     1       5.545  21.841  31.923  1.00  0.00    -0.388 OA
ATOM     54  H   UNL     1       5.942  21.920  32.816  1.00  0.00     0.211 HD
ENDBRANCH   1  53
BRANCH   1  55
ATOM     55  C   UNL     1       3.972  20.392  30.986  1.00  0.00     0.165 C 
BRANCH  55  56
ATOM     56  O   UNL     1       5.133  20.489  30.165  1.00  0.00    -0.388 OA
ATOM     57  H   UNL     1       5.706  19.721  30.359  1.00  0.00     0.211 HD
ENDBRANCH  55  56
BRANCH  55  58
ATOM     58  C   UNL     1       2.791  20.672  30.155  1.00  0.00     0.154 C 
BRANCH  58  59
ATOM     59  N   UNL     1       3.002  21.485  29.020  1.00  0.00    -0.319 N 
ATOM     60  C   UNL     1       2.013  21.928  28.123  1.00  0.00     0.407 C 
ATOM     61  H   UNL     1       3.997  21.836  28.757  1.00  0.00     0.167 HD
ATOM     62  O   UNL     1       0.806  21.627  28.252  1.00  0.00    -0.225 OA
BRANCH  60  63
ATOM     63  O   UNL     1       2.310  22.741  27.023  1.00  0.00    -0.443 OA
BRANCH  63  64
ATOM     64  C   UNL     1       1.515  23.854  26.677  1.00  0.00     0.294 C 
BRANCH  64  65
ATOM     65  C   UNL     1       2.301  24.885  25.958  1.00  0.00     0.121 A 
ATOM     66  C   UNL     1       3.550  25.347  26.280  1.00  0.00     0.146 A 
ATOM     67  N   UNL     1       1.936  25.589  24.863  1.00  0.00    -0.131 NA
ATOM     68  N   UNL     1       3.923  26.328  25.374  1.00  0.00    -0.202 N 
ATOM     69  N   UNL     1       2.916  26.420  24.559  1.00  0.00    -0.060 NA
BRANCH  68  70
ATOM     70  C   UNL     1       5.169  26.959  25.529  1.00  0.00     0.164 A 
ATOM     71  N   UNL     1       6.292  26.203  25.459  1.00  0.00    -0.193 NA
ATOM     72  C   UNL     1       5.343  28.344  25.675  1.00  0.00     0.026 A 
ATOM     73  C   UNL     1       7.526  26.706  25.518  1.00  0.00     0.222 A 
ATOM     74  C   UNL     1       6.593  28.880  25.733  1.00  0.00     0.081 A 
ATOM     75  N   UNL     1       7.668  28.026  25.652  1.00  0.00    -0.213 NA
BRANCH  72  76
ATOM     76  C   UNL     1       4.114  29.122  25.873  1.00  0.00     0.070 C 
BRANCH  76  77
ATOM     77  C   UNL     1       3.555  29.734  24.607  1.00  0.00     0.165 C 
BRANCH  77  78
ATOM     78  O   UNL     1       3.963  30.995  24.296  1.00  0.00    -0.381 OA
BRANCH  78  79
ATOM     79  C   UNL     1       4.335  31.253  23.010  1.00  0.00     0.156 C 
ATOM     80  C   UNL     1       3.533  32.426  22.422  1.00  0.00     0.035 C 
ENDBRANCH  78  79
ENDBRANCH  77  78
ENDBRANCH  76  77
ENDBRANCH  72  76
BRANCH  73  81
ATOM     81  N   UNL     1       8.681  25.864  25.442  1.00  0.00    -0.368 N 
ATOM     82  H   UNL     1       9.537  26.099  25.984  1.00  0.00     0.159 HD
ATOM     83  H   UNL     1       8.714  25.009  24.862  1.00  0.00     0.159 HD
ENDBRANCH  73  81
BRANCH  74  84
ATOM     84  C   UNL     1       6.857  30.297  25.857  1.00  0.00     0.001 A 
ATOM     85  C   UNL     1       7.501  30.936  24.799  1.00  0.00     0.010 A 
ATOM     86  C   UNL     1       6.473  31.032  26.964  1.00  0.00     0.010 A 
ATOM     87  C   UNL     1       7.764  32.299  24.832  1.00  0.00     0.001 A 
ATOM     88  C   UNL     1       6.744  32.379  26.976  1.00  0.00     0.001 A 
ATOM     89  C   UNL     1       7.376  33.017  25.939  1.00  0.00     0.000 A 
ENDBRANCH  74  84
ENDBRANCH  68  70
ENDBRANCH  64  65
ENDBRANCH  63  64
ENDBRANCH  60  63
ENDBRANCH  58  59
ENDBRANCH  55  58
ENDBRANCH   1  55
TORSDOF 36
