REMARK VINA RESULT:    -6.726      9.544     15.939
REMARK INTER + INTRA:         -21.771
REMARK INTER:                 -17.267
REMARK INTRA:                  -4.504
REMARK UNBOUND:                -4.822
REMARK SMILES CC(=O)N[C@@H]1[C@@H](O)C[C@](OC[C@H]2O[C@@H](O[C@H]3[C@H](O)[C@@H](O)[C@H](OCCN=[N+]=[N-])O[C@@H]3CO)[C@H](O)[C@@H](O)[C@H]2O)(C(=O)O)O[C@H]1C(O)[C@H](O)CNC(=O)OCc1cn(Cc2ccccc2Br)nn1
REMARK SMILES IDX 9 1 8 2 6 3 5 4 42 5 41 6 10 7 11 8 12 9 14 10 13 11 32 12
REMARK SMILES IDX 34 13 36 14 15 15 16 16 29 17 28 18 21 19 17 20 19 21 30 22
REMARK SMILES IDX 31 23 22 25 23 26 24 27 25 28 26 29 27 30 18 31 20 33 33 35
REMARK SMILES IDX 35 37 37 39 38 41 39 42 40 43 7 45 43 47 44 48 45 50 46 51
REMARK SMILES IDX 47 53 48 54 49 55 50 57 51 58 52 59 53 60 54 61 65 62 55 63
REMARK SMILES IDX 64 64 56 65 57 66 58 67 62 68 59 69 61 70 63 71 60 72 4 73
REMARK SMILES IDX 2 74 1 76 3 77
REMARK H PARENT 31 24 18 32 20 34 33 36 35 38 37 40 40 44 7 46 44 49 46 52
REMARK H PARENT 48 56 4 75
REMARK Flexibility Score: inf
ROOT
ATOM      1  C   UNL     1      18.230  28.797  19.715  1.00  0.00     0.272 C 
ATOM      2  C   UNL     1      18.418  30.245  19.936  1.00  0.00     0.113 C 
ATOM      3  C   UNL     1      17.201  31.018  19.574  1.00  0.00     0.145 C 
ATOM      4  C   UNL     1      16.031  30.500  20.362  1.00  0.00     0.142 C 
ATOM      5  C   UNL     1      16.062  29.041  20.609  1.00  0.00     0.178 C 
ATOM      6  O   UNL     1      17.257  28.433  20.761  1.00  0.00    -0.332 OA
ENDROOT
BRANCH   1   7
ATOM      7  O   UNL     1      19.292  28.017  19.990  1.00  0.00    -0.338 OA
BRANCH   7   8
ATOM      8  C   UNL     1      20.220  28.136  20.884  1.00  0.00     0.199 C 
BRANCH   8   9
ATOM      9  C   UNL     1      21.305  27.227  21.258  1.00  0.00     0.179 C 
ATOM     10  C   UNL     1      22.175  25.613  22.636  1.00  0.00     0.282 C 
ATOM     11  O   UNL     1      20.984  26.149  22.089  1.00  0.00    -0.341 OA
ATOM     12  C   UNL     1      22.799  24.783  21.549  1.00  0.00     0.202 C 
ATOM     13  C   UNL     1      22.908  25.543  20.273  1.00  0.00     0.179 C 
ATOM     14  C   UNL     1      22.391  26.955  20.283  1.00  0.00     0.177 C 
BRANCH  10  15
ATOM     15  O   UNL     1      21.809  24.889  23.730  1.00  0.00    -0.341 OA
BRANCH  15  16
ATOM     16  C   UNL     1      21.917  25.474  24.955  1.00  0.00     0.184 C 
ATOM     17  C   UNL     1      22.397  26.883  24.974  1.00  0.00     0.178 C 
ATOM     18  O   UNL     1      23.421  26.984  25.913  1.00  0.00    -0.341 OA
ATOM     19  C   UNL     1      24.480  26.181  25.416  1.00  0.00     0.281 C 
ATOM     20  C   UNL     1      22.698  24.633  25.953  1.00  0.00     0.180 C 
ATOM     21  C   UNL     1      24.189  24.732  25.699  1.00  0.00     0.202 C 
BRANCH  17  22
ATOM     22  C   UNL     1      21.310  27.859  25.420  1.00  0.00     0.191 C 
BRANCH  22  23
ATOM     23  O   UNL     1      20.086  27.525  24.841  1.00  0.00    -0.394 OA
ATOM     24  H   UNL     1      19.319  27.830  25.378  1.00  0.00     0.210 HD
ENDBRANCH  22  23
ENDBRANCH  17  22
BRANCH  19  25
ATOM     25  O   UNL     1      25.632  26.646  26.044  1.00  0.00    -0.350 OA
BRANCH  25  26
ATOM     26  C   UNL     1      25.692  26.242  27.378  1.00  0.00     0.169 C 
BRANCH  26  27
ATOM     27  C   UNL     1      26.486  27.287  28.142  1.00  0.00     0.119 C 
BRANCH  27  28
ATOM     28  N   UNL     1      27.787  26.737  28.430  1.00  0.00    -0.092 NA
ATOM     29  N   UNL     1      27.933  25.788  29.207  1.00  0.00     0.001 N 
ATOM     30  N   UNL     1      27.991  25.165  30.287  1.00  0.00    -0.003 NA
ENDBRANCH  27  28
ENDBRANCH  26  27
ENDBRANCH  25  26
ENDBRANCH  19  25
BRANCH  20  31
ATOM     31  O   UNL     1      22.494  25.092  27.256  1.00  0.00    -0.387 OA
ATOM     32  H   UNL     1      22.129  24.320  27.771  1.00  0.00     0.211 HD
ENDBRANCH  20  31
BRANCH  21  33
ATOM     33  O   UNL     1      24.632  23.868  24.732  1.00  0.00    -0.385 OA
ATOM     34  H   UNL     1      24.996  23.056  25.156  1.00  0.00     0.211 HD
ENDBRANCH  21  33
ENDBRANCH  15  16
ENDBRANCH  10  15
BRANCH  12  35
ATOM     35  O   UNL     1      24.105  24.396  21.890  1.00  0.00    -0.385 OA
ATOM     36  H   UNL     1      24.362  23.687  21.258  1.00  0.00     0.211 HD
ENDBRANCH  12  35
BRANCH  13  37
ATOM     37  O   UNL     1      22.230  24.842  19.266  1.00  0.00    -0.387 OA
ATOM     38  H   UNL     1      21.992  23.934  19.542  1.00  0.00     0.211 HD
ENDBRANCH  13  37
BRANCH  14  39
ATOM     39  O   UNL     1      22.038  27.258  18.976  1.00  0.00    -0.387 OA
ATOM     40  H   UNL     1      21.729  28.161  18.814  1.00  0.00     0.211 HD
ENDBRANCH  14  39
ENDBRANCH   8   9
ENDBRANCH   7   8
ENDBRANCH   1   7
BRANCH   1  41
ATOM     41  C   UNL     1      17.486  28.373  18.511  1.00  0.00     0.364 C 
ATOM     42  O   UNL     1      17.496  28.937  17.393  1.00  0.00    -0.246 OA
BRANCH  41  43
ATOM     43  O   UNL     1      16.682  27.248  18.591  1.00  0.00    -0.477 OA
ATOM     44  H   UNL     1      17.043  26.349  18.912  1.00  0.00     0.296 HD
ENDBRANCH  41  43
ENDBRANCH   1  41
BRANCH   3  45
ATOM     45  O   UNL     1      17.466  32.358  20.008  1.00  0.00    -0.391 OA
ATOM     46  H   UNL     1      18.051  32.357  20.791  1.00  0.00     0.211 HD
ENDBRANCH   3  45
BRANCH   5  47
ATOM     47  C   UNL     1      15.249  28.722  21.867  1.00  0.00     0.176 C 
BRANCH  47  48
ATOM     48  O   UNL     1      13.908  28.809  21.524  1.00  0.00    -0.388 OA
ATOM     49  H   UNL     1      13.492  29.651  21.777  1.00  0.00     0.211 HD
ENDBRANCH  47  48
BRANCH  47  50
ATOM     50  C   UNL     1      15.535  29.655  22.991  1.00  0.00     0.165 C 
BRANCH  50  51
ATOM     51  O   UNL     1      16.783  29.396  23.585  1.00  0.00    -0.388 OA
ATOM     52  H   UNL     1      16.822  28.458  23.903  1.00  0.00     0.211 HD
ENDBRANCH  50  51
BRANCH  50  53
ATOM     53  C   UNL     1      14.521  29.486  24.092  1.00  0.00     0.154 C 
BRANCH  53  54
ATOM     54  N   UNL     1      13.470  30.431  23.959  1.00  0.00    -0.319 N 
ATOM     55  C   UNL     1      12.974  31.223  25.016  1.00  0.00     0.407 C 
ATOM     56  H   UNL     1      13.032  30.545  22.997  1.00  0.00     0.167 HD
ATOM     57  O   UNL     1      13.449  31.139  26.176  1.00  0.00    -0.225 OA
BRANCH  55  58
ATOM     58  O   UNL     1      11.931  32.136  24.816  1.00  0.00    -0.443 OA
BRANCH  58  59
ATOM     59  C   UNL     1      11.236  32.210  23.600  1.00  0.00     0.294 C 
BRANCH  59  60
ATOM     60  C   UNL     1       9.865  31.654  23.647  1.00  0.00     0.120 A 
ATOM     61  C   UNL     1       8.769  32.220  22.975  1.00  0.00     0.138 A 
ATOM     62  N   UNL     1       9.382  30.582  24.281  1.00  0.00    -0.132 NA
ATOM     63  N   UNL     1       7.700  31.475  23.232  1.00  0.00    -0.248 N 
ATOM     64  N   UNL     1       8.094  30.479  24.032  1.00  0.00    -0.067 NA
BRANCH  63  65
ATOM     65  C   UNL     1       6.325  31.634  22.759  1.00  0.00     0.182 C 
BRANCH  65  66
ATOM     66  C   UNL     1       6.081  31.019  21.438  1.00  0.00    -0.012 A 
ATOM     67  C   UNL     1       5.744  29.655  21.418  1.00  0.00     0.007 A 
ATOM     68  C   UNL     1       6.187  31.682  20.245  1.00  0.00     0.023 A 
ATOM     69  C   UNL     1       5.539  29.042  20.220  1.00  0.00     0.000 A 
ATOM     70  C   UNL     1       5.977  31.043  19.033  1.00  0.00     0.016 A 
ATOM     71  Br  UNL     1       6.579  33.540  20.205  1.00  0.00    -0.050 Br
ATOM     72  C   UNL     1       5.650  29.713  19.032  1.00  0.00     0.001 A 
ENDBRANCH  65  66
ENDBRANCH  63  65
ENDBRANCH  59  60
ENDBRANCH  58  59
ENDBRANCH  55  58
ENDBRANCH  53  54
ENDBRANCH  50  53
ENDBRANCH  47  50
ENDBRANCH   5  47
BRANCH   4  73
ATOM     73  N   UNL     1      14.814  30.868  19.687  1.00  0.00    -0.348 N 
ATOM     74  C   UNL     1      13.810  31.697  20.274  1.00  0.00     0.217 C 
ATOM     75  H   UNL     1      14.598  30.541  18.722  1.00  0.00     0.163 HD
ATOM     76  C   UNL     1      12.567  32.039  19.514  1.00  0.00     0.114 C 
ATOM     77  O   UNL     1      14.000  32.122  21.421  1.00  0.00    -0.275 OA
ENDBRANCH   4  73
TORSDOF 31
