REMARK VINA RESULT:    -5.574      8.312     11.195
REMARK INTER + INTRA:         -21.974
REMARK INTER:                 -15.782
REMARK INTRA:                  -6.192
REMARK UNBOUND:                -7.602
REMARK SMILES CC(=O)N[C@@H]1[C@@H](O)C[C@](OC[C@H]2O[C@@H](O[C@H]3[C@H](O)[C@@H](O)[C@H](OCCN=[N+]=[N-])O[C@@H]3CO)[C@H](O)[C@@H](O)[C@H]2O)(C(=O)O)O[C@H]1C(O)[C@H](O)CNC(=O)OCc1cn(CC(=O)Nc2ncccn2)nn1
REMARK SMILES IDX 9 1 8 2 6 3 5 4 42 5 41 6 10 7 11 8 12 9 14 10 13 11 32 12
REMARK SMILES IDX 34 13 36 14 15 15 16 16 29 17 28 18 21 19 17 20 19 21 30 22
REMARK SMILES IDX 31 23 22 25 23 26 24 27 25 28 26 29 27 30 18 31 20 33 33 35
REMARK SMILES IDX 35 37 37 39 38 41 39 42 40 43 7 45 43 47 44 48 45 50 46 51
REMARK SMILES IDX 47 53 48 54 49 55 50 57 51 58 52 59 53 60 54 61 67 62 55 63
REMARK SMILES IDX 66 64 56 65 57 66 58 67 59 68 60 70 61 71 65 72 62 73 64 74
REMARK SMILES IDX 63 75 4 76 2 77 1 79 3 80
REMARK H PARENT 31 24 18 32 20 34 33 36 35 38 37 40 40 44 7 46 44 49 46 52
REMARK H PARENT 48 56 59 69 4 78
REMARK Flexibility Score: inf
ROOT
ATOM      1  C   UNL     1      28.768  19.666  16.982  1.00  0.00     0.272 C 
ATOM      2  C   UNL     1      28.702  18.621  18.084  1.00  0.00     0.113 C 
ATOM      3  C   UNL     1      29.267  19.146  19.341  1.00  0.00     0.145 C 
ATOM      4  C   UNL     1      28.828  20.550  19.725  1.00  0.00     0.142 C 
ATOM      5  C   UNL     1      28.462  21.384  18.581  1.00  0.00     0.178 C 
ATOM      6  O   UNL     1      27.884  20.660  17.548  1.00  0.00    -0.332 OA
ENDROOT
BRANCH   1   7
ATOM      7  O   UNL     1      28.150  19.196  15.906  1.00  0.00    -0.338 OA
BRANCH   7   8
ATOM      8  C   UNL     1      28.415  18.679  14.775  1.00  0.00     0.199 C 
BRANCH   8   9
ATOM      9  C   UNL     1      28.190  19.253  13.416  1.00  0.00     0.179 C 
ATOM     10  C   UNL     1      26.488  20.366  12.267  1.00  0.00     0.282 C 
ATOM     11  O   UNL     1      26.799  19.701  13.412  1.00  0.00    -0.341 OA
ATOM     12  C   UNL     1      27.034  21.829  12.352  1.00  0.00     0.202 C 
ATOM     13  C   UNL     1      28.077  21.718  13.445  1.00  0.00     0.179 C 
ATOM     14  C   UNL     1      28.926  20.489  13.050  1.00  0.00     0.177 C 
BRANCH  10  15
ATOM     15  O   UNL     1      25.096  20.461  12.144  1.00  0.00    -0.341 OA
BRANCH  15  16
ATOM     16  C   UNL     1      24.424  19.515  12.908  1.00  0.00     0.184 C 
ATOM     17  C   UNL     1      23.900  18.435  11.952  1.00  0.00     0.178 C 
ATOM     18  O   UNL     1      22.545  18.213  12.142  1.00  0.00    -0.341 OA
ATOM     19  C   UNL     1      21.797  19.360  11.839  1.00  0.00     0.281 C 
ATOM     20  C   UNL     1      23.331  20.155  13.678  1.00  0.00     0.180 C 
ATOM     21  C   UNL     1      22.022  20.325  12.968  1.00  0.00     0.202 C 
BRANCH  17  22
ATOM     22  C   UNL     1      24.608  17.120  12.230  1.00  0.00     0.191 C 
BRANCH  22  23
ATOM     23  O   UNL     1      25.168  17.116  13.509  1.00  0.00    -0.394 OA
ATOM     24  H   UNL     1      25.844  17.838  13.624  1.00  0.00     0.210 HD
ENDBRANCH  22  23
ENDBRANCH  17  22
BRANCH  19  25
ATOM     25  O   UNL     1      20.477  18.950  11.799  1.00  0.00    -0.350 OA
BRANCH  25  26
ATOM     26  C   UNL     1      19.802  19.354  10.667  1.00  0.00     0.169 C 
BRANCH  26  27
ATOM     27  C   UNL     1      19.122  18.229   9.917  1.00  0.00     0.119 C 
BRANCH  27  28
ATOM     28  N   UNL     1      20.086  17.304   9.343  1.00  0.00    -0.092 NA
ATOM     29  N   UNL     1      21.066  17.698   8.703  1.00  0.00     0.001 N 
ATOM     30  N   UNL     1      21.890  18.264   7.992  1.00  0.00    -0.003 NA
ENDBRANCH  27  28
ENDBRANCH  26  27
ENDBRANCH  25  26
ENDBRANCH  19  25
BRANCH  20  31
ATOM     31  O   UNL     1      23.042  19.351  14.816  1.00  0.00    -0.387 OA
ATOM     32  H   UNL     1      22.096  19.033  14.762  1.00  0.00     0.211 HD
ENDBRANCH  20  31
BRANCH  21  33
ATOM     33  O   UNL     1      21.940  21.629  12.490  1.00  0.00    -0.385 OA
ATOM     34  H   UNL     1      22.285  22.254  13.170  1.00  0.00     0.211 HD
ENDBRANCH  21  33
ENDBRANCH  15  16
ENDBRANCH  10  15
BRANCH  12  35
ATOM     35  O   UNL     1      27.744  22.086  11.173  1.00  0.00    -0.385 OA
ATOM     36  H   UNL     1      27.178  22.706  10.639  1.00  0.00     0.211 HD
ENDBRANCH  12  35
BRANCH  13  37
ATOM     37  O   UNL     1      27.550  21.622  14.705  1.00  0.00    -0.387 OA
ATOM     38  H   UNL     1      27.904  22.279  15.336  1.00  0.00     0.211 HD
ENDBRANCH  13  37
BRANCH  14  39
ATOM     39  O   UNL     1      30.187  20.696  13.483  1.00  0.00    -0.387 OA
ATOM     40  H   UNL     1      30.862  20.262  12.905  1.00  0.00     0.211 HD
ENDBRANCH  14  39
ENDBRANCH   8   9
ENDBRANCH   7   8
ENDBRANCH   1   7
BRANCH   1  41
ATOM     41  C   UNL     1      30.061  20.277  16.762  1.00  0.00     0.364 C 
ATOM     42  O   UNL     1      31.128  19.630  17.041  1.00  0.00    -0.246 OA
BRANCH  41  43
ATOM     43  O   UNL     1      30.274  21.543  16.269  1.00  0.00    -0.477 OA
ATOM     44  H   UNL     1      30.387  22.367  16.809  1.00  0.00     0.296 HD
ENDBRANCH  41  43
ENDBRANCH   1  41
BRANCH   3  45
ATOM     45  O   UNL     1      28.894  18.242  20.367  1.00  0.00    -0.391 OA
ATOM     46  H   UNL     1      29.621  17.556  20.471  1.00  0.00     0.211 HD
ENDBRANCH   3  45
BRANCH   5  47
ATOM     47  C   UNL     1      27.413  22.484  18.887  1.00  0.00     0.176 C 
BRANCH  47  48
ATOM     48  O   UNL     1      27.592  23.152  20.037  1.00  0.00    -0.388 OA
ATOM     49  H   UNL     1      28.254  23.899  20.003  1.00  0.00     0.211 HD
ENDBRANCH  47  48
BRANCH  47  50
ATOM     50  C   UNL     1      26.811  23.128  17.736  1.00  0.00     0.165 C 
BRANCH  50  51
ATOM     51  O   UNL     1      27.991  23.501  16.893  1.00  0.00    -0.388 OA
ATOM     52  H   UNL     1      28.388  22.680  16.562  1.00  0.00     0.211 HD
ENDBRANCH  50  51
BRANCH  50  53
ATOM     53  C   UNL     1      25.946  24.290  17.743  1.00  0.00     0.154 C 
BRANCH  53  54
ATOM     54  N   UNL     1      24.907  24.593  18.613  1.00  0.00    -0.319 N 
ATOM     55  C   UNL     1      24.829  25.073  19.936  1.00  0.00     0.407 C 
ATOM     56  H   UNL     1      23.899  24.414  18.163  1.00  0.00     0.167 HD
ATOM     57  O   UNL     1      25.857  25.315  20.596  1.00  0.00    -0.225 OA
BRANCH  55  58
ATOM     58  O   UNL     1      23.621  25.299  20.546  1.00  0.00    -0.443 OA
BRANCH  58  59
ATOM     59  C   UNL     1      23.211  26.339  21.313  1.00  0.00     0.294 C 
BRANCH  59  60
ATOM     60  C   UNL     1      21.918  26.930  20.901  1.00  0.00     0.120 A 
ATOM     61  C   UNL     1      21.619  27.486  19.649  1.00  0.00     0.138 A 
ATOM     62  N   UNL     1      20.778  27.133  21.618  1.00  0.00    -0.132 NA
ATOM     63  N   UNL     1      20.378  27.984  19.645  1.00  0.00    -0.243 N 
ATOM     64  N   UNL     1      19.903  27.750  20.856  1.00  0.00    -0.067 NA
BRANCH  63  65
ATOM     65  C   UNL     1      19.650  28.647  18.581  1.00  0.00     0.246 C 
BRANCH  65  66
ATOM     66  C   UNL     1      18.174  28.515  18.888  1.00  0.00     0.248 C 
ATOM     67  O   UNL     1      17.457  27.649  18.329  1.00  0.00    -0.272 OA
ATOM     68  N   UNL     1      17.566  29.381  19.830  1.00  0.00    -0.293 N 
ATOM     69  H   UNL     1      18.213  30.086  20.266  1.00  0.00     0.173 HD
BRANCH  68  70
ATOM     70  C   UNL     1      16.212  29.368  20.225  1.00  0.00     0.229 A 
ATOM     71  N   UNL     1      15.736  28.705  21.293  1.00  0.00    -0.221 NA
ATOM     72  N   UNL     1      15.329  30.060  19.477  1.00  0.00    -0.221 NA
ATOM     73  C   UNL     1      14.414  28.708  21.636  1.00  0.00     0.117 A 
ATOM     74  C   UNL     1      14.028  30.100  19.766  1.00  0.00     0.117 A 
ATOM     75  C   UNL     1      13.537  29.425  20.851  1.00  0.00     0.040 A 
ENDBRANCH  68  70
ENDBRANCH  65  66
ENDBRANCH  63  65
ENDBRANCH  59  60
ENDBRANCH  58  59
ENDBRANCH  55  58
ENDBRANCH  53  54
ENDBRANCH  50  53
ENDBRANCH  47  50
ENDBRANCH   5  47
BRANCH   4  76
ATOM     76  N   UNL     1      29.836  21.045  20.613  1.00  0.00    -0.348 N 
ATOM     77  C   UNL     1      29.668  20.987  22.048  1.00  0.00     0.217 C 
ATOM     78  H   UNL     1      30.736  21.468  20.261  1.00  0.00     0.163 HD
ATOM     79  C   UNL     1      30.751  21.510  22.907  1.00  0.00     0.114 C 
ATOM     80  O   UNL     1      28.626  20.506  22.537  1.00  0.00    -0.275 OA
ENDBRANCH   4  76
TORSDOF 32
