REMARK VINA RESULT:    -6.341      5.969     11.711
REMARK INTER + INTRA:         -22.250
REMARK INTER:                 -14.055
REMARK INTRA:                  -8.195
REMARK UNBOUND:                -6.272
REMARK SMILES CC(=O)N[C@@H]1[C@@H](O)C[C@](OC[C@H]2O[C@@H](O[C@H]3[C@H](O)[C@@H](O)[C@H](OCCN=[N+]=[N-])O[C@@H]3CO)[C@H](O)[C@@H](O)[C@H]2O)(C(=O)O)O[C@H]1C(O)[C@H](O)CNC(=O)OCc1cn(Cc2cccc(Br)c2)nn1
REMARK SMILES IDX 9 1 8 2 6 3 5 4 42 5 41 6 10 7 11 8 12 9 14 10 13 11 32 12
REMARK SMILES IDX 34 13 36 14 15 15 16 16 29 17 28 18 21 19 17 20 19 21 30 22
REMARK SMILES IDX 31 23 22 25 23 26 24 27 25 28 26 29 27 30 18 31 20 33 33 35
REMARK SMILES IDX 35 37 37 39 38 41 39 42 40 43 7 45 43 47 44 48 45 50 46 51
REMARK SMILES IDX 47 53 48 54 49 55 50 57 51 58 52 59 53 60 54 61 65 62 55 63
REMARK SMILES IDX 64 64 56 65 57 66 58 67 63 68 59 69 61 70 60 71 62 72 4 73
REMARK SMILES IDX 2 74 1 76 3 77
REMARK H PARENT 31 24 18 32 20 34 33 36 35 38 37 40 40 44 7 46 44 49 46 52
REMARK H PARENT 48 56 4 75
REMARK Flexibility Score: inf
ROOT
ATOM      1  C   UNL     1      22.732  25.664  23.631  1.00  0.00     0.272 C 
ATOM      2  C   UNL     1      22.978  24.266  23.206  1.00  0.00     0.113 C 
ATOM      3  C   UNL     1      24.154  24.076  22.304  1.00  0.00     0.145 C 
ATOM      4  C   UNL     1      24.395  25.257  21.391  1.00  0.00     0.142 C 
ATOM      5  C   UNL     1      23.966  26.547  21.933  1.00  0.00     0.178 C 
ATOM      6  O   UNL     1      23.661  26.595  23.257  1.00  0.00    -0.332 OA
ENDROOT
BRANCH   1   7
ATOM      7  O   UNL     1      22.580  25.692  25.053  1.00  0.00    -0.338 OA
BRANCH   7   8
ATOM      8  C   UNL     1      23.187  24.636  25.667  1.00  0.00     0.199 C 
BRANCH   8   9
ATOM      9  C   UNL     1      23.987  25.112  26.898  1.00  0.00     0.179 C 
ATOM     10  C   UNL     1      24.432  27.153  27.957  1.00  0.00     0.282 C 
ATOM     11  O   UNL     1      24.090  26.459  26.773  1.00  0.00    -0.341 OA
ATOM     12  C   UNL     1      24.923  26.248  29.016  1.00  0.00     0.202 C 
ATOM     13  C   UNL     1      23.960  25.117  29.328  1.00  0.00     0.179 C 
ATOM     14  C   UNL     1      23.134  24.775  28.101  1.00  0.00     0.177 C 
BRANCH  10  15
ATOM     15  O   UNL     1      23.320  27.912  28.229  1.00  0.00    -0.341 OA
BRANCH  15  16
ATOM     16  C   UNL     1      22.934  28.804  27.294  1.00  0.00     0.184 C 
ATOM     17  C   UNL     1      23.071  30.197  27.852  1.00  0.00     0.178 C 
ATOM     18  O   UNL     1      22.840  31.113  26.829  1.00  0.00    -0.341 OA
ATOM     19  C   UNL     1      21.530  31.085  26.347  1.00  0.00     0.281 C 
ATOM     20  C   UNL     1      21.462  28.702  26.909  1.00  0.00     0.180 C 
ATOM     21  C   UNL     1      21.298  29.712  25.764  1.00  0.00     0.202 C 
BRANCH  17  22
ATOM     22  C   UNL     1      24.466  30.399  28.341  1.00  0.00     0.191 C 
BRANCH  22  23
ATOM     23  O   UNL     1      25.377  30.272  27.308  1.00  0.00    -0.394 OA
ATOM     24  H   UNL     1      25.732  29.346  27.331  1.00  0.00     0.210 HD
ENDBRANCH  22  23
ENDBRANCH  17  22
BRANCH  19  25
ATOM     25  O   UNL     1      21.444  32.094  25.411  1.00  0.00    -0.350 OA
BRANCH  25  26
ATOM     26  C   UNL     1      22.170  31.899  24.269  1.00  0.00     0.169 C 
BRANCH  26  27
ATOM     27  C   UNL     1      23.259  32.921  24.038  1.00  0.00     0.119 C 
BRANCH  27  28
ATOM     28  N   UNL     1      24.367  32.230  23.415  1.00  0.00    -0.092 NA
ATOM     29  N   UNL     1      24.981  31.308  23.931  1.00  0.00     0.001 N 
ATOM     30  N   UNL     1      25.442  30.305  24.472  1.00  0.00    -0.003 NA
ENDBRANCH  27  28
ENDBRANCH  26  27
ENDBRANCH  25  26
ENDBRANCH  19  25
BRANCH  20  31
ATOM     31  O   UNL     1      21.095  27.476  26.432  1.00  0.00    -0.387 OA
ATOM     32  H   UNL     1      21.369  26.710  26.984  1.00  0.00     0.211 HD
ENDBRANCH  20  31
BRANCH  21  33
ATOM     33  O   UNL     1      20.047  29.523  25.238  1.00  0.00    -0.385 OA
ATOM     34  H   UNL     1      19.315  29.652  25.923  1.00  0.00     0.211 HD
ENDBRANCH  21  33
ENDBRANCH  15  16
ENDBRANCH  10  15
BRANCH  12  35
ATOM     35  O   UNL     1      26.133  25.671  28.549  1.00  0.00    -0.385 OA
ATOM     36  H   UNL     1      26.653  26.360  28.061  1.00  0.00     0.211 HD
ENDBRANCH  12  35
BRANCH  13  37
ATOM     37  O   UNL     1      23.177  25.378  30.449  1.00  0.00    -0.387 OA
ATOM     38  H   UNL     1      23.044  24.510  30.952  1.00  0.00     0.211 HD
ENDBRANCH  13  37
BRANCH  14  39
ATOM     39  O   UNL     1      21.956  25.480  28.010  1.00  0.00    -0.387 OA
ATOM     40  H   UNL     1      21.867  26.116  28.784  1.00  0.00     0.211 HD
ENDBRANCH  14  39
ENDBRANCH   8   9
ENDBRANCH   7   8
ENDBRANCH   1   7
BRANCH   1  41
ATOM     41  C   UNL     1      21.393  26.096  23.130  1.00  0.00     0.364 C 
ATOM     42  O   UNL     1      20.910  27.213  23.534  1.00  0.00    -0.246 OA
BRANCH  41  43
ATOM     43  O   UNL     1      20.599  25.402  22.260  1.00  0.00    -0.477 OA
ATOM     44  H   UNL     1      20.756  24.389  22.174  1.00  0.00     0.296 HD
ENDBRANCH  41  43
ENDBRANCH   1  41
BRANCH   3  45
ATOM     45  O   UNL     1      25.286  23.694  23.009  1.00  0.00    -0.391 OA
ATOM     46  H   UNL     1      25.111  23.043  23.723  1.00  0.00     0.211 HD
ENDBRANCH   3  45
BRANCH   5  47
ATOM     47  C   UNL     1      24.947  27.684  21.602  1.00  0.00     0.176 C 
BRANCH  47  48
ATOM     48  O   UNL     1      25.823  27.133  20.583  1.00  0.00    -0.388 OA
ATOM     49  H   UNL     1      26.743  27.379  20.855  1.00  0.00     0.211 HD
ENDBRANCH  47  48
BRANCH  47  50
ATOM     50  C   UNL     1      24.329  28.896  21.007  1.00  0.00     0.165 C 
BRANCH  50  51
ATOM     51  O   UNL     1      23.493  29.426  22.060  1.00  0.00    -0.388 OA
ATOM     52  H   UNL     1      23.200  30.344  21.772  1.00  0.00     0.211 HD
ENDBRANCH  50  51
BRANCH  50  53
ATOM     53  C   UNL     1      23.379  28.711  19.872  1.00  0.00     0.154 C 
BRANCH  53  54
ATOM     54  N   UNL     1      21.983  28.898  20.236  1.00  0.00    -0.319 N 
ATOM     55  C   UNL     1      21.078  27.821  20.068  1.00  0.00     0.407 C 
ATOM     56  H   UNL     1      21.633  29.795  20.616  1.00  0.00     0.167 HD
ATOM     57  O   UNL     1      21.484  26.719  19.603  1.00  0.00    -0.225 OA
BRANCH  55  58
ATOM     58  O   UNL     1      19.732  27.947  20.409  1.00  0.00    -0.443 OA
BRANCH  58  59
ATOM     59  C   UNL     1      19.206  29.266  20.612  1.00  0.00     0.294 C 
BRANCH  59  60
ATOM     60  C   UNL     1      17.864  29.331  19.988  1.00  0.00     0.120 A 
ATOM     61  C   UNL     1      16.693  28.759  20.419  1.00  0.00     0.138 A 
ATOM     62  N   UNL     1      17.585  29.992  18.857  1.00  0.00    -0.132 NA
ATOM     63  N   UNL     1      15.738  29.094  19.530  1.00  0.00    -0.248 N 
ATOM     64  N   UNL     1      16.303  29.840  18.592  1.00  0.00    -0.067 NA
BRANCH  63  65
ATOM     65  C   UNL     1      14.338  28.689  19.612  1.00  0.00     0.181 C 
BRANCH  65  66
ATOM     66  C   UNL     1      13.587  29.538  20.572  1.00  0.00    -0.025 A 
ATOM     67  C   UNL     1      13.251  29.058  21.821  1.00  0.00     0.006 A 
ATOM     68  C   UNL     1      13.188  30.819  20.278  1.00  0.00     0.021 A 
ATOM     69  C   UNL     1      12.554  29.793  22.754  1.00  0.00     0.002 A 
ATOM     70  C   UNL     1      12.490  31.582  21.187  1.00  0.00     0.018 A 
ATOM     71  C   UNL     1      12.161  31.099  22.427  1.00  0.00     0.016 A 
ATOM     72  Br  UNL     1      11.934  33.368  20.782  1.00  0.00    -0.051 Br
ENDBRANCH  65  66
ENDBRANCH  63  65
ENDBRANCH  59  60
ENDBRANCH  58  59
ENDBRANCH  55  58
ENDBRANCH  53  54
ENDBRANCH  50  53
ENDBRANCH  47  50
ENDBRANCH   5  47
BRANCH   4  73
ATOM     73  N   UNL     1      23.739  25.001  20.083  1.00  0.00    -0.348 N 
ATOM     74  C   UNL     1      24.510  24.637  18.952  1.00  0.00     0.217 C 
ATOM     75  H   UNL     1      22.697  25.084  19.974  1.00  0.00     0.163 HD
ATOM     76  C   UNL     1      23.868  24.373  17.616  1.00  0.00     0.114 C 
ATOM     77  O   UNL     1      25.759  24.536  19.080  1.00  0.00    -0.275 OA
ENDBRANCH   4  73
TORSDOF 31
