REMARK VINA RESULT:    -5.146      0.000      0.000
REMARK INTER + INTRA:         -22.505
REMARK INTER:                 -14.009
REMARK INTRA:                  -8.495
REMARK UNBOUND:                -8.334
REMARK SMILES CC[N+](C)(CC)CCCn1cc(COC(=O)NC[C@@H](O)C(O)[C@@H]2O[C@@](OC[C@H]3O[C@@H](O[C@H]4[C@H](O)[C@@H](O)[C@H](OCCN=[N+]=[N-])O[C@@H]4CO)[C@H](O)[C@@H](O)[C@H]3O)(C(=O)O)C[C@H](O)[C@H]2NC(C)=O)nn1
REMARK SMILES IDX 21 1 23 2 25 3 57 4 24 5 58 6 60 7 26 8 27 9 28 10 30 11
REMARK SMILES IDX 29 12 48 13 50 14 52 15 31 16 32 17 45 18 44 19 37 20 33 21
REMARK SMILES IDX 35 22 46 23 47 24 38 26 39 27 40 28 41 29 42 30 43 31 34 32
REMARK SMILES IDX 36 34 49 36 51 38 53 40 54 42 55 43 56 44 59 46 61 48 62 49
REMARK SMILES IDX 63 51 64 52 22 53 19 55 20 56 18 58 17 59 15 60 16 62 14 63
REMARK SMILES IDX 13 64 12 65 11 66 65 67 10 68 66 69 9 70 8 71 7 72 3 73 4 74
REMARK SMILES IDX 2 75 1 76 5 77 6 78
REMARK H PARENT 47 25 34 33 36 35 49 37 51 39 53 41 56 45 59 47 61 50 22 54
REMARK H PARENT 20 57 17 61
REMARK Flexibility Score: inf
ROOT
ATOM      1  C   UNL     1      17.518  31.216  18.645  1.00  0.00     0.176 C 
ENDROOT
BRANCH   1   2
ATOM      2  C   UNL     1      16.350  30.678  19.466  1.00  0.00     0.178 C 
ATOM      3  C   UNL     1      15.779  30.254  21.715  1.00  0.00     0.272 C 
ATOM      4  C   UNL     1      14.979  29.139  21.130  1.00  0.00     0.113 C 
ATOM      5  O   UNL     1      16.796  30.536  20.761  1.00  0.00    -0.332 OA
ATOM      6  C   UNL     1      15.709  28.418  20.027  1.00  0.00     0.145 C 
ATOM      7  C   UNL     1      15.881  29.392  18.865  1.00  0.00     0.142 C 
BRANCH   3   8
ATOM      8  O   UNL     1      16.500  29.902  22.837  1.00  0.00    -0.338 OA
BRANCH   8   9
ATOM      9  C   UNL     1      17.839  30.010  22.847  1.00  0.00     0.199 C 
BRANCH   9  10
ATOM     10  C   UNL     1      18.339  30.617  24.184  1.00  0.00     0.179 C 
ATOM     11  C   UNL     1      20.613  29.989  24.182  1.00  0.00     0.282 C 
ATOM     12  O   UNL     1      19.342  29.924  24.740  1.00  0.00    -0.341 OA
ATOM     13  C   UNL     1      20.929  31.292  23.552  1.00  0.00     0.202 C 
ATOM     14  C   UNL     1      20.119  32.331  24.358  1.00  0.00     0.179 C 
ATOM     15  C   UNL     1      18.685  32.087  23.944  1.00  0.00     0.177 C 
BRANCH  11  16
ATOM     16  O   UNL     1      20.864  28.849  23.406  1.00  0.00    -0.341 OA
BRANCH  16  17
ATOM     17  C   UNL     1      21.842  28.057  23.932  1.00  0.00     0.184 C 
ATOM     18  C   UNL     1      23.049  27.758  23.155  1.00  0.00     0.178 C 
ATOM     19  O   UNL     1      24.002  27.190  23.981  1.00  0.00    -0.341 OA
ATOM     20  C   UNL     1      23.623  26.621  25.142  1.00  0.00     0.281 C 
ATOM     21  C   UNL     1      21.261  26.681  24.332  1.00  0.00     0.180 C 
ATOM     22  C   UNL     1      22.270  25.956  25.183  1.00  0.00     0.202 C 
BRANCH  18  23
ATOM     23  C   UNL     1      23.701  28.928  22.444  1.00  0.00     0.191 C 
BRANCH  23  24
ATOM     24  O   UNL     1      22.916  29.467  21.434  1.00  0.00    -0.394 OA
ATOM     25  H   UNL     1      22.870  28.762  20.710  1.00  0.00     0.210 HD
ENDBRANCH  23  24
ENDBRANCH  18  23
BRANCH  20  26
ATOM     26  O   UNL     1      23.825  27.475  26.211  1.00  0.00    -0.350 OA
BRANCH  26  27
ATOM     27  C   UNL     1      23.187  27.152  27.363  1.00  0.00     0.169 C 
BRANCH  27  28
ATOM     28  C   UNL     1      24.040  27.318  28.604  1.00  0.00     0.119 C 
BRANCH  28  29
ATOM     29  N   UNL     1      24.677  26.052  28.924  1.00  0.00    -0.092 NA
ATOM     30  N   UNL     1      25.897  25.911  28.980  1.00  0.00     0.001 N 
ATOM     31  N   UNL     1      27.116  25.754  29.065  1.00  0.00    -0.003 NA
ENDBRANCH  28  29
ENDBRANCH  27  28
ENDBRANCH  26  27
ENDBRANCH  20  26
BRANCH  21  32
ATOM     32  O   UNL     1      20.048  26.923  24.932  1.00  0.00    -0.387 OA
ATOM     33  H   UNL     1      19.976  26.655  25.862  1.00  0.00     0.211 HD
ENDBRANCH  21  32
BRANCH  22  34
ATOM     34  O   UNL     1      22.308  24.626  24.795  1.00  0.00    -0.385 OA
ATOM     35  H   UNL     1      21.954  23.998  25.478  1.00  0.00     0.211 HD
ENDBRANCH  22  34
ENDBRANCH  16  17
ENDBRANCH  11  16
BRANCH  13  36
ATOM     36  O   UNL     1      22.274  31.674  23.688  1.00  0.00    -0.385 OA
ATOM     37  H   UNL     1      22.371  32.068  24.581  1.00  0.00     0.211 HD
ENDBRANCH  13  36
BRANCH  14  38
ATOM     38  O   UNL     1      20.521  33.616  23.993  1.00  0.00    -0.387 OA
ATOM     39  H   UNL     1      20.416  34.181  24.786  1.00  0.00     0.211 HD
ENDBRANCH  14  38
BRANCH  15  40
ATOM     40  O   UNL     1      18.644  32.291  22.566  1.00  0.00    -0.387 OA
ATOM     41  H   UNL     1      18.872  33.185  22.270  1.00  0.00     0.211 HD
ENDBRANCH  15  40
ENDBRANCH   9  10
ENDBRANCH   8   9
ENDBRANCH   3   8
BRANCH   3  42
ATOM     42  C   UNL     1      15.016  31.485  21.983  1.00  0.00     0.364 C 
ATOM     43  O   UNL     1      13.767  31.516  21.918  1.00  0.00    -0.246 OA
BRANCH  42  44
ATOM     44  O   UNL     1      15.656  32.655  22.315  1.00  0.00    -0.477 OA
ATOM     45  H   UNL     1      15.361  33.570  21.978  1.00  0.00     0.296 HD
ENDBRANCH  42  44
ENDBRANCH   3  42
BRANCH   6  46
ATOM     46  O   UNL     1      16.940  27.937  20.406  1.00  0.00    -0.391 OA
ATOM     47  H   UNL     1      17.511  28.653  20.822  1.00  0.00     0.211 HD
ENDBRANCH   6  46
BRANCH   7  48
ATOM     48  N   UNL     1      14.518  29.587  18.341  1.00  0.00    -0.348 N 
ATOM     49  C   UNL     1      14.286  29.877  16.968  1.00  0.00     0.217 C 
ATOM     50  H   UNL     1      13.665  29.530  18.934  1.00  0.00     0.163 HD
ATOM     51  C   UNL     1      12.931  30.077  16.396  1.00  0.00     0.114 C 
ATOM     52  O   UNL     1      15.269  29.964  16.211  1.00  0.00    -0.275 OA
ENDBRANCH   7  48
ENDBRANCH   1   2
BRANCH   1  53
ATOM     53  O   UNL     1      17.889  30.214  17.684  1.00  0.00    -0.388 OA
ATOM     54  H   UNL     1      18.478  30.669  17.026  1.00  0.00     0.211 HD
ENDBRANCH   1  53
BRANCH   1  55
ATOM     55  C   UNL     1      18.721  31.436  19.503  1.00  0.00     0.165 C 
BRANCH  55  56
ATOM     56  O   UNL     1      18.862  32.886  19.495  1.00  0.00    -0.388 OA
ATOM     57  H   UNL     1      19.443  33.113  18.705  1.00  0.00     0.211 HD
ENDBRANCH  55  56
BRANCH  55  58
ATOM     58  C   UNL     1      20.012  30.866  19.046  1.00  0.00     0.154 C 
BRANCH  58  59
ATOM     59  N   UNL     1      20.586  29.736  19.623  1.00  0.00    -0.319 N 
ATOM     60  C   UNL     1      20.207  28.381  19.471  1.00  0.00     0.407 C 
ATOM     61  H   UNL     1      21.448  29.899  20.289  1.00  0.00     0.167 HD
ATOM     62  O   UNL     1      19.261  28.005  18.763  1.00  0.00    -0.225 OA
BRANCH  60  63
ATOM     63  O   UNL     1      20.920  27.370  20.162  1.00  0.00    -0.443 OA
BRANCH  63  64
ATOM     64  C   UNL     1      22.093  26.847  19.510  1.00  0.00     0.294 C 
BRANCH  64  65
ATOM     65  C   UNL     1      22.500  25.709  20.416  1.00  0.00     0.120 A 
ATOM     66  C   UNL     1      23.780  25.275  20.669  1.00  0.00     0.138 A 
ATOM     67  N   UNL     1      21.722  24.937  21.182  1.00  0.00    -0.132 NA
ATOM     68  N   UNL     1      23.729  24.255  21.585  1.00  0.00    -0.252 N 
ATOM     69  N   UNL     1      22.451  24.081  21.868  1.00  0.00    -0.067 NA
BRANCH  68  70
ATOM     70  C   UNL     1      24.875  23.562  22.146  1.00  0.00     0.152 C 
BRANCH  70  71
ATOM     71  C   UNL     1      26.056  23.617  21.276  1.00  0.00     0.085 C 
BRANCH  71  72
ATOM     72  C   UNL     1      27.282  22.882  21.628  1.00  0.00     0.265 C 
BRANCH  72  73
ATOM     73  N   UNL     1      28.242  22.611  20.611  1.00  0.00    -0.326 N 
ATOM     74  C   UNL     1      29.358  23.510  20.725  1.00  0.00     0.334 C 
BRANCH  73  75
ATOM     75  C   UNL     1      27.735  22.584  19.268  1.00  0.00     0.260 C 
ATOM     76  C   UNL     1      27.944  21.254  18.583  1.00  0.00     0.071 C 
ENDBRANCH  73  75
BRANCH  73  77
ATOM     77  C   UNL     1      28.787  21.278  20.915  1.00  0.00     0.260 C 
ATOM     78  C   UNL     1      28.469  20.791  22.284  1.00  0.00     0.071 C 
ENDBRANCH  73  77
ENDBRANCH  72  73
ENDBRANCH  71  72
ENDBRANCH  70  71
ENDBRANCH  68  70
ENDBRANCH  64  65
ENDBRANCH  63  64
ENDBRANCH  60  63
ENDBRANCH  58  59
ENDBRANCH  55  58
ENDBRANCH   1  55
TORSDOF 35
