REMARK VINA RESULT:    -7.585      1.826      6.094
REMARK INTER + INTRA:         -24.264
REMARK INTER:                 -17.247
REMARK INTRA:                  -7.018
REMARK UNBOUND:                -5.593
REMARK SMILES CC(=O)N[C@@H]1[C@@H](O)C[C@](OC[C@H]2O[C@@H](O[C@H]3[C@H](O)[C@@H](O)[C@H](OCCN=[N+]=[N-])O[C@@H]3CO)[C@H](O)[C@@H](O)[C@H]2O)(C(=O)O)O[C@H]1C(O)[C@H](O)CNC(=O)OCc1cn(C2c3ccccc3-c3ccccc32)nn1
REMARK SMILES IDX 9 1 8 2 6 3 5 4 42 5 41 6 10 7 11 8 12 9 14 10 13 11 32 12
REMARK SMILES IDX 34 13 36 14 15 15 16 16 29 17 28 18 21 19 17 20 19 21 30 22
REMARK SMILES IDX 31 23 22 25 23 26 24 27 25 28 26 29 27 30 18 31 20 33 33 35
REMARK SMILES IDX 35 37 37 39 38 41 39 42 40 43 7 45 43 47 44 48 45 50 46 51
REMARK SMILES IDX 47 53 48 54 49 55 50 57 51 58 52 59 53 60 54 61 70 62 55 63
REMARK SMILES IDX 69 64 56 65 57 66 68 67 58 68 62 69 63 70 67 71 59 72 61 73
REMARK SMILES IDX 64 74 66 75 60 76 65 77 4 78 2 79 1 81 3 82
REMARK H PARENT 31 24 18 32 20 34 33 36 35 38 37 40 40 44 7 46 44 49 46 52
REMARK H PARENT 48 56 4 80
REMARK Flexibility Score: inf
ROOT
ATOM      1  C   UNL     1      21.955  30.331  25.991  1.00  0.00     0.272 C 
ATOM      2  C   UNL     1      20.988  31.403  26.291  1.00  0.00     0.113 C 
ATOM      3  C   UNL     1      19.694  31.233  25.589  1.00  0.00     0.145 C 
ATOM      4  C   UNL     1      19.767  30.349  24.375  1.00  0.00     0.142 C 
ATOM      5  C   UNL     1      21.137  30.433  23.798  1.00  0.00     0.178 C 
ATOM      6  O   UNL     1      22.178  30.135  24.619  1.00  0.00    -0.332 OA
ENDROOT
BRANCH   1   7
ATOM      7  O   UNL     1      21.622  29.123  26.545  1.00  0.00    -0.338 OA
BRANCH   7   8
ATOM      8  C   UNL     1      22.353  28.037  26.149  1.00  0.00     0.199 C 
BRANCH   8   9
ATOM      9  C   UNL     1      21.611  26.763  26.484  1.00  0.00     0.179 C 
ATOM     10  C   UNL     1      22.936  25.453  25.060  1.00  0.00     0.282 C 
ATOM     11  O   UNL     1      21.697  25.920  25.399  1.00  0.00    -0.341 OA
ATOM     12  C   UNL     1      23.686  24.995  26.251  1.00  0.00     0.202 C 
ATOM     13  C   UNL     1      22.620  24.691  27.321  1.00  0.00     0.179 C 
ATOM     14  C   UNL     1      22.130  26.098  27.729  1.00  0.00     0.177 C 
BRANCH  10  15
ATOM     15  O   UNL     1      23.575  26.283  24.179  1.00  0.00    -0.341 OA
BRANCH  15  16
ATOM     16  C   UNL     1      23.809  25.791  22.923  1.00  0.00     0.184 C 
ATOM     17  C   UNL     1      22.842  24.720  22.582  1.00  0.00     0.178 C 
ATOM     18  O   UNL     1      23.410  23.663  21.878  1.00  0.00    -0.341 OA
ATOM     19  C   UNL     1      24.416  24.031  21.045  1.00  0.00     0.281 C 
ATOM     20  C   UNL     1      25.250  25.288  22.970  1.00  0.00     0.180 C 
ATOM     21  C   UNL     1      25.636  24.353  21.901  1.00  0.00     0.202 C 
BRANCH  17  22
ATOM     22  C   UNL     1      21.690  25.239  21.748  1.00  0.00     0.191 C 
BRANCH  22  23
ATOM     23  O   UNL     1      20.514  25.327  22.532  1.00  0.00    -0.394 OA
ATOM     24  H   UNL     1      20.754  25.621  23.461  1.00  0.00     0.210 HD
ENDBRANCH  22  23
ENDBRANCH  17  22
BRANCH  19  25
ATOM     25  O   UNL     1      24.191  25.137  20.248  1.00  0.00    -0.350 OA
BRANCH  25  26
ATOM     26  C   UNL     1      24.351  24.913  18.910  1.00  0.00     0.169 C 
BRANCH  26  27
ATOM     27  C   UNL     1      23.219  24.252  18.201  1.00  0.00     0.119 C 
BRANCH  27  28
ATOM     28  N   UNL     1      23.150  24.588  16.794  1.00  0.00    -0.092 NA
ATOM     29  N   UNL     1      23.574  23.735  16.004  1.00  0.00     0.001 N 
ATOM     30  N   UNL     1      24.072  22.980  15.161  1.00  0.00    -0.003 NA
ENDBRANCH  27  28
ENDBRANCH  26  27
ENDBRANCH  25  26
ENDBRANCH  19  25
BRANCH  20  31
ATOM     31  O   UNL     1      26.126  26.405  22.911  1.00  0.00    -0.387 OA
ATOM     32  H   UNL     1      26.022  26.875  22.046  1.00  0.00     0.211 HD
ENDBRANCH  20  31
BRANCH  21  33
ATOM     33  O   UNL     1      26.074  23.139  22.447  1.00  0.00    -0.385 OA
ATOM     34  H   UNL     1      25.766  22.354  21.926  1.00  0.00     0.211 HD
ENDBRANCH  21  33
ENDBRANCH  15  16
ENDBRANCH  10  15
BRANCH  12  35
ATOM     35  O   UNL     1      24.355  23.788  26.060  1.00  0.00    -0.385 OA
ATOM     36  H   UNL     1      25.052  23.704  26.752  1.00  0.00     0.211 HD
ENDBRANCH  12  35
BRANCH  13  37
ATOM     37  O   UNL     1      23.174  24.120  28.442  1.00  0.00    -0.387 OA
ATOM     38  H   UNL     1      22.504  24.138  29.168  1.00  0.00     0.211 HD
ENDBRANCH  13  37
BRANCH  14  39
ATOM     39  O   UNL     1      23.256  26.768  28.170  1.00  0.00    -0.387 OA
ATOM     40  H   UNL     1      23.796  27.143  27.432  1.00  0.00     0.211 HD
ENDBRANCH  14  39
ENDBRANCH   8   9
ENDBRANCH   7   8
ENDBRANCH   1   7
BRANCH   1  41
ATOM     41  C   UNL     1      23.348  30.734  26.474  1.00  0.00     0.364 C 
ATOM     42  O   UNL     1      24.211  30.950  25.618  1.00  0.00    -0.246 OA
BRANCH  41  43
ATOM     43  O   UNL     1      23.639  30.856  27.811  1.00  0.00    -0.477 OA
ATOM     44  H   UNL     1      22.905  31.040  28.505  1.00  0.00     0.296 HD
ENDBRANCH  41  43
ENDBRANCH   1  41
BRANCH   3  45
ATOM     45  O   UNL     1      18.639  30.805  26.396  1.00  0.00    -0.391 OA
ATOM     46  H   UNL     1      18.608  31.246  27.257  1.00  0.00     0.211 HD
ENDBRANCH   3  45
BRANCH   5  47
ATOM     47  C   UNL     1      21.206  29.521  22.575  1.00  0.00     0.176 C 
BRANCH  47  48
ATOM     48  O   UNL     1      20.499  28.373  22.821  1.00  0.00    -0.388 OA
ATOM     49  H   UNL     1      20.416  27.809  21.994  1.00  0.00     0.211 HD
ENDBRANCH  47  48
BRANCH  47  50
ATOM     50  C   UNL     1      22.648  29.245  22.276  1.00  0.00     0.165 C 
BRANCH  50  51
ATOM     51  O   UNL     1      23.343  30.461  22.147  1.00  0.00    -0.388 OA
ATOM     52  H   UNL     1      22.769  31.217  22.403  1.00  0.00     0.211 HD
ENDBRANCH  50  51
BRANCH  50  53
ATOM     53  C   UNL     1      22.697  28.611  20.881  1.00  0.00     0.154 C 
BRANCH  53  54
ATOM     54  N   UNL     1      21.455  28.886  20.227  1.00  0.00    -0.319 N 
ATOM     55  C   UNL     1      21.033  28.114  19.125  1.00  0.00     0.407 C 
ATOM     56  H   UNL     1      20.849  29.669  20.571  1.00  0.00     0.167 HD
ATOM     57  O   UNL     1      21.738  27.172  18.679  1.00  0.00    -0.225 OA
BRANCH  55  58
ATOM     58  O   UNL     1      19.833  28.349  18.485  1.00  0.00    -0.443 OA
BRANCH  58  59
ATOM     59  C   UNL     1      19.026  29.487  18.749  1.00  0.00     0.294 C 
BRANCH  59  60
ATOM     60  C   UNL     1      17.721  28.997  19.258  1.00  0.00     0.120 A 
ATOM     61  C   UNL     1      16.452  29.482  18.971  1.00  0.00     0.139 A 
ATOM     62  N   UNL     1      17.526  27.973  20.102  1.00  0.00    -0.132 NA
ATOM     63  N   UNL     1      15.542  28.751  19.636  1.00  0.00    -0.240 N 
ATOM     64  N   UNL     1      16.227  27.843  20.313  1.00  0.00    -0.066 NA
BRANCH  63  65
ATOM     65  C   UNL     1      14.089  28.926  19.613  1.00  0.00     0.170 C 
ATOM     66  C   UNL     1      13.771  29.975  18.640  1.00  0.00    -0.011 A 
ATOM     67  C   UNL     1      13.615  29.474  20.896  1.00  0.00    -0.011 A 
ATOM     68  C   UNL     1      13.965  30.058  17.266  1.00  0.00     0.007 A 
ATOM     69  C   UNL     1      13.174  31.044  19.252  1.00  0.00    -0.012 A 
ATOM     70  C   UNL     1      13.080  30.720  20.674  1.00  0.00    -0.012 A 
ATOM     71  C   UNL     1      13.618  28.978  22.186  1.00  0.00     0.007 A 
ATOM     72  C   UNL     1      13.569  31.174  16.564  1.00  0.00     0.000 A 
ATOM     73  C   UNL     1      12.776  32.168  18.543  1.00  0.00     0.009 A 
ATOM     74  C   UNL     1      12.556  31.464  21.707  1.00  0.00     0.009 A 
ATOM     75  C   UNL     1      13.099  29.705  23.233  1.00  0.00     0.000 A 
ATOM     76  C   UNL     1      12.965  32.258  17.184  1.00  0.00     0.001 A 
ATOM     77  C   UNL     1      12.566  30.953  22.992  1.00  0.00     0.001 A 
ENDBRANCH  63  65
ENDBRANCH  59  60
ENDBRANCH  58  59
ENDBRANCH  55  58
ENDBRANCH  53  54
ENDBRANCH  50  53
ENDBRANCH  47  50
ENDBRANCH   5  47
BRANCH   4  78
ATOM     78  N   UNL     1      18.865  30.951  23.374  1.00  0.00    -0.348 N 
ATOM     79  C   UNL     1      17.545  30.470  23.176  1.00  0.00     0.217 C 
ATOM     80  H   UNL     1      19.227  31.737  22.817  1.00  0.00     0.163 HD
ATOM     81  C   UNL     1      16.642  31.091  22.157  1.00  0.00     0.114 C 
ATOM     82  O   UNL     1      17.155  29.503  23.887  1.00  0.00    -0.275 OA
ENDBRANCH   4  78
TORSDOF 30
