REMARK VINA RESULT:    -5.553      3.969      7.566
REMARK INTER + INTRA:         -23.647
REMARK INTER:                 -14.329
REMARK INTRA:                  -9.318
REMARK UNBOUND:                -8.356
REMARK SMILES CC(=O)N[C@@H]1[C@@H](O)C[C@](OC[C@H]2O[C@@H](O[C@H]3[C@H](O)[C@@H](O)[C@H](OCCN=[N+]=[N-])O[C@@H]3CO)[C@H](O)[C@@H](O)[C@H]2O)(C(=O)O)O[C@H]1C(O)[C@H](O)CNC(=O)OCc1cn([C@@H](CCC(=O)O)C(=O)O)nn1
REMARK SMILES IDX 43 1 42 2 9 3 8 4 41 5 6 6 5 7 10 8 11 9 12 10 14 11 13 12
REMARK SMILES IDX 32 13 34 14 36 15 15 16 16 17 29 18 28 19 21 20 17 21 19 22
REMARK SMILES IDX 30 23 31 24 22 26 23 27 24 28 25 29 26 30 27 31 18 32 20 34
REMARK SMILES IDX 33 36 35 38 37 40 38 42 39 43 40 44 7 46 4 48 2 49 1 51 3 52
REMARK SMILES IDX 44 53 45 55 46 56 47 58 48 59 49 60 50 62 51 63 52 64 53 65
REMARK SMILES IDX 54 66 66 67 55 68 65 69 56 70 57 71 58 72 59 73 60 74 61 75
REMARK SMILES IDX 62 77 63 78 64 79
REMARK H PARENT 31 25 18 33 20 35 33 37 35 39 37 41 40 45 7 47 4 50 44 54
REMARK H PARENT 46 57 48 61 61 76 64 80
REMARK Flexibility Score: inf
ROOT
ATOM      1  C   UNL     1      23.242  30.995  21.353  1.00  0.00     0.176 C 
ENDROOT
BRANCH   1   2
ATOM      2  C   UNL     1      23.028  29.627  20.703  1.00  0.00     0.178 C 
ATOM      3  C   UNL     1      21.459  28.752  19.182  1.00  0.00     0.272 C 
ATOM      4  C   UNL     1      20.966  27.706  20.099  1.00  0.00     0.113 C 
ATOM      5  O   UNL     1      21.828  29.825  20.019  1.00  0.00    -0.332 OA
ATOM      6  C   UNL     1      21.423  27.926  21.516  1.00  0.00     0.145 C 
ATOM      7  C   UNL     1      22.764  28.540  21.705  1.00  0.00     0.142 C 
BRANCH   3   8
ATOM      8  O   UNL     1      20.452  29.237  18.371  1.00  0.00    -0.338 OA
BRANCH   8   9
ATOM      9  C   UNL     1      19.207  29.414  18.727  1.00  0.00     0.199 C 
BRANCH   9  10
ATOM     10  C   UNL     1      18.200  28.304  18.848  1.00  0.00     0.179 C 
ATOM     11  C   UNL     1      16.018  28.259  19.672  1.00  0.00     0.282 C 
ATOM     12  O   UNL     1      17.352  28.471  19.904  1.00  0.00    -0.341 OA
ATOM     13  C   UNL     1      15.561  29.217  18.593  1.00  0.00     0.202 C 
ATOM     14  C   UNL     1      16.263  28.873  17.319  1.00  0.00     0.179 C 
ATOM     15  C   UNL     1      17.497  28.067  17.516  1.00  0.00     0.177 C 
BRANCH  11  16
ATOM     16  O   UNL     1      15.314  28.545  20.844  1.00  0.00    -0.341 OA
BRANCH  16  17
ATOM     17  C   UNL     1      15.579  29.771  21.400  1.00  0.00     0.184 C 
ATOM     18  C   UNL     1      16.211  29.636  22.783  1.00  0.00     0.178 C 
ATOM     19  O   UNL     1      15.378  30.237  23.724  1.00  0.00    -0.341 OA
ATOM     20  C   UNL     1      14.191  29.468  23.875  1.00  0.00     0.281 C 
ATOM     21  C   UNL     1      14.251  30.477  21.587  1.00  0.00     0.180 C 
ATOM     22  C   UNL     1      13.440  29.628  22.589  1.00  0.00     0.202 C 
BRANCH  18  23
ATOM     23  C   UNL     1      17.533  30.383  22.807  1.00  0.00     0.191 C 
BRANCH  23  24
ATOM     24  O   UNL     1      18.349  29.961  23.840  1.00  0.00    -0.394 OA
ATOM     25  H   UNL     1      17.891  30.008  24.719  1.00  0.00     0.210 HD
ENDBRANCH  23  24
ENDBRANCH  18  23
BRANCH  20  26
ATOM     26  O   UNL     1      13.564  29.918  25.001  1.00  0.00    -0.350 OA
BRANCH  26  27
ATOM     27  C   UNL     1      13.956  31.150  25.447  1.00  0.00     0.169 C 
BRANCH  27  28
ATOM     28  C   UNL     1      14.345  31.185  26.911  1.00  0.00     0.119 C 
BRANCH  28  29
ATOM     29  N   UNL     1      15.756  30.925  27.110  1.00  0.00    -0.092 NA
ATOM     30  N   UNL     1      16.650  31.474  26.474  1.00  0.00     0.001 N 
ATOM     31  N   UNL     1      17.456  32.196  25.928  1.00  0.00    -0.003 NA
ENDBRANCH  28  29
ENDBRANCH  27  28
ENDBRANCH  26  27
ENDBRANCH  20  26
BRANCH  21  32
ATOM     32  O   UNL     1      14.395  31.777  22.056  1.00  0.00    -0.387 OA
ATOM     33  H   UNL     1      13.520  32.177  22.357  1.00  0.00     0.211 HD
ENDBRANCH  21  32
BRANCH  22  34
ATOM     34  O   UNL     1      13.391  28.349  21.982  1.00  0.00    -0.385 OA
ATOM     35  H   UNL     1      12.448  28.046  22.009  1.00  0.00     0.211 HD
ENDBRANCH  22  34
ENDBRANCH  16  17
ENDBRANCH  11  16
BRANCH  13  36
ATOM     36  O   UNL     1      14.176  29.145  18.428  1.00  0.00    -0.385 OA
ATOM     37  H   UNL     1      13.803  28.943  19.344  1.00  0.00     0.211 HD
ENDBRANCH  13  36
BRANCH  14  38
ATOM     38  O   UNL     1      16.538  30.003  16.544  1.00  0.00    -0.387 OA
ATOM     39  H   UNL     1      16.766  30.766  17.153  1.00  0.00     0.211 HD
ENDBRANCH  14  38
BRANCH  15  40
ATOM     40  O   UNL     1      18.376  28.419  16.489  1.00  0.00    -0.387 OA
ATOM     41  H   UNL     1      19.176  27.848  16.499  1.00  0.00     0.211 HD
ENDBRANCH  15  40
ENDBRANCH   9  10
ENDBRANCH   8   9
ENDBRANCH   3   8
BRANCH   3  42
ATOM     42  C   UNL     1      22.594  28.441  18.322  1.00  0.00     0.364 C 
ATOM     43  O   UNL     1      23.072  27.249  18.367  1.00  0.00    -0.246 OA
BRANCH  42  44
ATOM     44  O   UNL     1      23.259  29.268  17.438  1.00  0.00    -0.477 OA
ATOM     45  H   UNL     1      23.962  28.933  16.822  1.00  0.00     0.296 HD
ENDBRANCH  42  44
ENDBRANCH   3  42
BRANCH   6  46
ATOM     46  O   UNL     1      20.495  28.831  22.103  1.00  0.00    -0.391 OA
ATOM     47  H   UNL     1      19.568  28.489  22.021  1.00  0.00     0.211 HD
ENDBRANCH   6  46
BRANCH   7  48
ATOM     48  N   UNL     1      23.710  27.485  21.808  1.00  0.00    -0.348 N 
ATOM     49  C   UNL     1      24.734  27.427  22.785  1.00  0.00     0.217 C 
ATOM     50  H   UNL     1      23.683  26.669  21.166  1.00  0.00     0.163 HD
ATOM     51  C   UNL     1      25.707  26.278  22.833  1.00  0.00     0.114 C 
ATOM     52  O   UNL     1      24.851  28.320  23.620  1.00  0.00    -0.275 OA
ENDBRANCH   7  48
ENDBRANCH   1   2
BRANCH   1  53
ATOM     53  O   UNL     1      23.705  30.819  22.651  1.00  0.00    -0.388 OA
ATOM     54  H   UNL     1      23.768  29.848  22.860  1.00  0.00     0.211 HD
ENDBRANCH   1  53
BRANCH   1  55
ATOM     55  C   UNL     1      22.130  31.934  21.308  1.00  0.00     0.165 C 
BRANCH  55  56
ATOM     56  O   UNL     1      22.437  32.941  20.345  1.00  0.00    -0.388 OA
ATOM     57  H   UNL     1      22.058  32.652  19.482  1.00  0.00     0.211 HD
ENDBRANCH  55  56
BRANCH  55  58
ATOM     58  C   UNL     1      21.789  32.691  22.557  1.00  0.00     0.154 C 
BRANCH  58  59
ATOM     59  N   UNL     1      21.000  31.926  23.493  1.00  0.00    -0.319 N 
ATOM     60  C   UNL     1      21.407  31.651  24.832  1.00  0.00     0.407 C 
ATOM     61  H   UNL     1      20.093  31.539  23.187  1.00  0.00     0.167 HD
ATOM     62  O   UNL     1      22.482  32.068  25.262  1.00  0.00    -0.225 OA
BRANCH  60  63
ATOM     63  O   UNL     1      20.567  30.908  25.623  1.00  0.00    -0.443 OA
BRANCH  63  64
ATOM     64  C   UNL     1      21.004  29.908  26.497  1.00  0.00     0.294 C 
BRANCH  64  65
ATOM     65  C   UNL     1      21.068  28.611  25.779  1.00  0.00     0.120 A 
ATOM     66  C   UNL     1      22.101  27.700  25.714  1.00  0.00     0.139 A 
ATOM     67  N   UNL     1      20.077  28.088  25.008  1.00  0.00    -0.132 NA
ATOM     68  N   UNL     1      21.720  26.659  24.917  1.00  0.00    -0.238 N 
ATOM     69  N   UNL     1      20.481  26.938  24.509  1.00  0.00    -0.066 NA
BRANCH  68  70
ATOM     70  C   UNL     1      22.484  25.506  24.612  1.00  0.00     0.219 C 
BRANCH  70  71
ATOM     71  C   UNL     1      22.788  24.525  25.683  1.00  0.00     0.051 C 
BRANCH  71  72
ATOM     72  C   UNL     1      24.180  24.310  26.111  1.00  0.00     0.125 C 
BRANCH  72  73
ATOM     73  C   UNL     1      24.881  25.353  26.830  1.00  0.00     0.303 C 
ATOM     74  O   UNL     1      25.441  26.368  26.380  1.00  0.00    -0.252 OA
BRANCH  73  75
ATOM     75  O   UNL     1      24.973  25.257  28.255  1.00  0.00    -0.481 OA
ATOM     76  H   UNL     1      24.150  25.434  28.809  1.00  0.00     0.296 HD
ENDBRANCH  73  75
ENDBRANCH  72  73
ENDBRANCH  71  72
ENDBRANCH  70  71
BRANCH  70  77
ATOM     77  C   UNL     1      21.815  24.777  23.489  1.00  0.00     0.328 C 
ATOM     78  O   UNL     1      22.410  24.598  22.409  1.00  0.00    -0.250 OA
BRANCH  77  79
ATOM     79  O   UNL     1      20.529  24.282  23.603  1.00  0.00    -0.480 OA
ATOM     80  H   UNL     1      19.772  24.607  22.999  1.00  0.00     0.296 HD
ENDBRANCH  77  79
ENDBRANCH  70  77
ENDBRANCH  68  70
ENDBRANCH  64  65
ENDBRANCH  63  64
ENDBRANCH  60  63
ENDBRANCH  58  59
ENDBRANCH  55  58
ENDBRANCH   1  55
TORSDOF 36
