REMARK VINA RESULT:    -5.379      1.880      3.248
REMARK INTER + INTRA:         -21.317
REMARK INTER:                 -17.256
REMARK INTRA:                  -4.061
REMARK UNBOUND:                -7.606
REMARK SMILES CC(=O)N[C@@H]1[C@@H](O)C[C@](OC[C@H]2O[C@@H](O[C@H]3[C@H](O)[C@@H](O)[C@H](OCCN=[N+]=[N-])O[C@@H]3CO)[C@H](O)[C@@H](O)[C@H]2O)(C(=O)O)O[C@H]1C(O)[C@H](O)CNC(=O)OCc1cn(-c2ccc(CO)cn2)nn1
REMARK SMILES IDX 9 1 8 2 6 3 5 4 42 5 41 6 10 7 11 8 12 9 14 10 13 11 32 12
REMARK SMILES IDX 34 13 36 14 15 15 16 16 29 17 28 18 21 19 17 20 19 21 30 22
REMARK SMILES IDX 31 23 22 25 23 26 24 27 25 28 26 29 27 30 18 31 20 33 33 35
REMARK SMILES IDX 35 37 37 39 38 41 39 42 40 43 7 45 43 47 44 48 45 50 46 51
REMARK SMILES IDX 47 53 48 54 49 55 50 57 51 58 52 59 53 60 54 61 65 62 55 63
REMARK SMILES IDX 64 64 56 65 57 66 63 67 58 68 62 69 59 70 60 71 61 72 4 74
REMARK SMILES IDX 2 75 1 77 3 78
REMARK H PARENT 31 24 18 32 20 34 33 36 35 38 37 40 40 44 7 46 44 49 46 52
REMARK H PARENT 48 56 61 73 4 76
REMARK Flexibility Score: inf
ROOT
ATOM      1  C   UNL     1      26.508  24.119  18.630  1.00  0.00     0.272 C 
ATOM      2  C   UNL     1      26.646  23.628  20.023  1.00  0.00     0.113 C 
ATOM      3  C   UNL     1      25.751  24.360  20.983  1.00  0.00     0.145 C 
ATOM      4  C   UNL     1      24.344  24.439  20.423  1.00  0.00     0.142 C 
ATOM      5  C   UNL     1      24.363  24.951  19.042  1.00  0.00     0.178 C 
ATOM      6  O   UNL     1      25.210  24.289  18.221  1.00  0.00    -0.332 OA
ENDROOT
BRANCH   1   7
ATOM      7  O   UNL     1      27.127  23.315  17.689  1.00  0.00    -0.338 OA
BRANCH   7   8
ATOM      8  C   UNL     1      27.059  23.825  16.408  1.00  0.00     0.199 C 
BRANCH   8   9
ATOM      9  C   UNL     1      26.731  22.725  15.444  1.00  0.00     0.179 C 
ATOM     10  C   UNL     1      25.078  21.938  14.118  1.00  0.00     0.282 C 
ATOM     11  O   UNL     1      25.753  23.122  14.512  1.00  0.00    -0.341 OA
ATOM     12  C   UNL     1      26.053  20.912  13.709  1.00  0.00     0.202 C 
ATOM     13  C   UNL     1      27.476  21.399  13.491  1.00  0.00     0.179 C 
ATOM     14  C   UNL     1      27.918  22.288  14.650  1.00  0.00     0.177 C 
BRANCH  10  15
ATOM     15  O   UNL     1      24.113  22.256  13.157  1.00  0.00    -0.341 OA
BRANCH  15  16
ATOM     16  C   UNL     1      22.991  21.461  13.246  1.00  0.00     0.184 C 
ATOM     17  C   UNL     1      22.998  20.229  12.396  1.00  0.00     0.178 C 
ATOM     18  O   UNL     1      22.073  20.264  11.356  1.00  0.00    -0.341 OA
ATOM     19  C   UNL     1      22.229  21.343  10.524  1.00  0.00     0.281 C 
ATOM     20  C   UNL     1      21.816  22.330  12.760  1.00  0.00     0.180 C 
ATOM     21  C   UNL     1      22.176  22.664  11.305  1.00  0.00     0.202 C 
BRANCH  17  22
ATOM     22  C   UNL     1      22.535  19.066  13.293  1.00  0.00     0.191 C 
BRANCH  22  23
ATOM     23  O   UNL     1      23.055  19.232  14.586  1.00  0.00    -0.394 OA
ATOM     24  H   UNL     1      24.002  19.565  14.543  1.00  0.00     0.210 HD
ENDBRANCH  22  23
ENDBRANCH  17  22
BRANCH  19  25
ATOM     25  O   UNL     1      21.194  21.332   9.593  1.00  0.00    -0.350 OA
BRANCH  25  26
ATOM     26  C   UNL     1      21.149  20.185   8.842  1.00  0.00     0.169 C 
BRANCH  26  27
ATOM     27  C   UNL     1      19.707  19.693   8.820  1.00  0.00     0.119 C 
BRANCH  27  28
ATOM     28  N   UNL     1      19.527  18.614   9.780  1.00  0.00    -0.092 NA
ATOM     29  N   UNL     1      19.051  18.768  10.892  1.00  0.00     0.001 N 
ATOM     30  N   UNL     1      18.253  18.751  11.830  1.00  0.00    -0.003 NA
ENDBRANCH  27  28
ENDBRANCH  26  27
ENDBRANCH  25  26
ENDBRANCH  19  25
BRANCH  20  31
ATOM     31  O   UNL     1      20.604  21.708  12.887  1.00  0.00    -0.387 OA
ATOM     32  H   UNL     1      20.175  21.994  13.707  1.00  0.00     0.211 HD
ENDBRANCH  20  31
BRANCH  21  33
ATOM     33  O   UNL     1      23.442  23.243  11.345  1.00  0.00    -0.385 OA
ATOM     34  H   UNL     1      24.033  22.629  11.848  1.00  0.00     0.211 HD
ENDBRANCH  21  33
ENDBRANCH  15  16
ENDBRANCH  10  15
BRANCH  12  35
ATOM     35  O   UNL     1      26.093  19.898  14.696  1.00  0.00    -0.385 OA
ATOM     36  H   UNL     1      26.534  20.218  15.525  1.00  0.00     0.211 HD
ENDBRANCH  12  35
BRANCH  13  37
ATOM     37  O   UNL     1      27.638  22.004  12.257  1.00  0.00    -0.387 OA
ATOM     38  H   UNL     1      28.249  22.756  12.258  1.00  0.00     0.211 HD
ENDBRANCH  13  37
BRANCH  14  39
ATOM     39  O   UNL     1      28.601  23.358  14.112  1.00  0.00    -0.387 OA
ATOM     40  H   UNL     1      27.987  24.106  13.983  1.00  0.00     0.211 HD
ENDBRANCH  14  39
ENDBRANCH   8   9
ENDBRANCH   7   8
ENDBRANCH   1   7
BRANCH   1  41
ATOM     41  C   UNL     1      27.150  25.480  18.459  1.00  0.00     0.364 C 
ATOM     42  O   UNL     1      28.235  25.797  19.002  1.00  0.00    -0.246 OA
BRANCH  41  43
ATOM     43  O   UNL     1      26.543  26.444  17.679  1.00  0.00    -0.477 OA
ATOM     44  H   UNL     1      26.713  27.439  17.876  1.00  0.00     0.296 HD
ENDBRANCH  41  43
ENDBRANCH   1  41
BRANCH   3  45
ATOM     45  O   UNL     1      25.661  23.552  22.133  1.00  0.00    -0.391 OA
ATOM     46  H   UNL     1      26.522  23.384  22.557  1.00  0.00     0.211 HD
ENDBRANCH   3  45
BRANCH   5  47
ATOM     47  C   UNL     1      22.986  25.051  18.412  1.00  0.00     0.176 C 
BRANCH  47  48
ATOM     48  O   UNL     1      22.330  23.826  18.525  1.00  0.00    -0.388 OA
ATOM     49  H   UNL     1      21.587  23.769  17.881  1.00  0.00     0.211 HD
ENDBRANCH  47  48
BRANCH  47  50
ATOM     50  C   UNL     1      22.962  25.464  16.990  1.00  0.00     0.165 C 
BRANCH  50  51
ATOM     51  O   UNL     1      23.715  24.621  16.161  1.00  0.00    -0.388 OA
ATOM     52  H   UNL     1      24.244  23.969  16.646  1.00  0.00     0.211 HD
ENDBRANCH  50  51
BRANCH  50  53
ATOM     53  C   UNL     1      23.275  26.906  16.713  1.00  0.00     0.154 C 
BRANCH  53  54
ATOM     54  N   UNL     1      22.257  27.768  17.252  1.00  0.00    -0.319 N 
ATOM     55  C   UNL     1      21.204  28.226  16.426  1.00  0.00     0.407 C 
ATOM     56  H   UNL     1      22.299  28.064  18.282  1.00  0.00     0.167 HD
ATOM     57  O   UNL     1      21.101  27.913  15.219  1.00  0.00    -0.225 OA
BRANCH  55  58
ATOM     58  O   UNL     1      20.205  29.066  16.930  1.00  0.00    -0.443 OA
BRANCH  58  59
ATOM     59  C   UNL     1      19.961  29.089  18.307  1.00  0.00     0.294 C 
BRANCH  59  60
ATOM     60  C   UNL     1      18.622  28.695  18.726  1.00  0.00     0.121 A 
ATOM     61  C   UNL     1      17.873  29.254  19.731  1.00  0.00     0.146 A 
ATOM     62  N   UNL     1      17.870  27.708  18.210  1.00  0.00    -0.131 NA
ATOM     63  N   UNL     1      16.696  28.599  19.802  1.00  0.00    -0.202 N 
ATOM     64  N   UNL     1      16.735  27.671  18.864  1.00  0.00    -0.061 NA
BRANCH  63  65
ATOM     65  C   UNL     1      15.661  28.893  20.727  1.00  0.00     0.155 A 
ATOM     66  C   UNL     1      14.325  28.929  20.343  1.00  0.00     0.049 A 
ATOM     67  N   UNL     1      15.936  29.158  22.015  1.00  0.00    -0.237 NA
ATOM     68  C   UNL     1      13.327  29.227  21.260  1.00  0.00     0.011 A 
ATOM     69  C   UNL     1      14.978  29.451  22.927  1.00  0.00     0.119 A 
ATOM     70  C   UNL     1      13.639  29.494  22.575  1.00  0.00    -0.004 A 
BRANCH  70  71
ATOM     71  C   UNL     1      12.564  29.815  23.552  1.00  0.00     0.193 C 
BRANCH  71  72
ATOM     72  O   UNL     1      12.701  29.050  24.710  1.00  0.00    -0.392 OA
ATOM     73  H   UNL     1      12.097  28.279  24.723  1.00  0.00     0.211 HD
ENDBRANCH  71  72
ENDBRANCH  70  71
ENDBRANCH  63  65
ENDBRANCH  59  60
ENDBRANCH  58  59
ENDBRANCH  55  58
ENDBRANCH  53  54
ENDBRANCH  50  53
ENDBRANCH  47  50
ENDBRANCH   5  47
BRANCH   4  74
ATOM     74  N   UNL     1      23.517  25.258  21.311  1.00  0.00    -0.348 N 
ATOM     75  C   UNL     1      22.277  24.836  21.783  1.00  0.00     0.217 C 
ATOM     76  H   UNL     1      23.888  26.186  21.597  1.00  0.00     0.163 HD
ATOM     77  C   UNL     1      21.524  25.785  22.687  1.00  0.00     0.114 C 
ATOM     78  O   UNL     1      21.762  23.743  21.508  1.00  0.00    -0.275 OA
ENDBRANCH   4  74
TORSDOF 32
