REMARK VINA RESULT:    -6.474      5.606     12.954
REMARK INTER + INTRA:         -22.027
REMARK INTER:                 -16.883
REMARK INTRA:                  -5.144
REMARK UNBOUND:                -5.144
REMARK SMILES CC(=O)N[C@@H]1[C@@H](O)C[C@](OC[C@H]2O[C@@H](O[C@H]3[C@H](O)[C@@H](O)[C@H](OCCN=[N+]=[N-])O[C@@H]3CO)[C@H](O)[C@@H](O)[C@H]2O)(C(=O)O)O[C@H]1C(O)[C@H](O)CNC(=O)OCc1cn(-c2cccc(C=CC(=O)O)c2)nn1
REMARK SMILES IDX 43 1 42 2 9 3 8 4 41 5 6 6 5 7 10 8 11 9 12 10 14 11 13 12
REMARK SMILES IDX 32 13 34 14 36 15 15 16 16 17 29 18 28 19 21 20 17 21 19 22
REMARK SMILES IDX 30 23 31 24 22 26 23 27 24 28 25 29 26 30 27 31 18 32 20 34
REMARK SMILES IDX 33 36 35 38 37 40 38 42 39 43 40 44 7 46 4 48 2 49 1 51 3 52
REMARK SMILES IDX 44 53 45 55 46 56 47 58 48 59 49 60 50 62 51 63 52 64 53 65
REMARK SMILES IDX 54 66 68 67 55 68 67 69 56 70 66 71 57 72 60 73 58 74 59 75
REMARK SMILES IDX 61 76 62 77 63 78 64 79 65 80
REMARK H PARENT 31 25 18 33 20 35 33 37 35 39 37 41 40 45 7 47 4 50 44 54
REMARK H PARENT 46 57 48 61 65 81
REMARK Flexibility Score: inf
ROOT
ATOM      1  C   UNL     1      16.624  28.153  19.063  1.00  0.00     0.176 C 
ENDROOT
BRANCH   1   2
ATOM      2  C   UNL     1      17.959  28.846  19.248  1.00  0.00     0.178 C 
ATOM      3  C   UNL     1      20.219  28.441  18.710  1.00  0.00     0.272 C 
ATOM      4  C   UNL     1      20.233  29.834  19.505  1.00  0.00     0.113 C 
ATOM      5  O   UNL     1      18.914  27.998  18.759  1.00  0.00    -0.332 OA
ATOM      6  C   UNL     1      19.669  29.522  20.846  1.00  0.00     0.145 C 
ATOM      7  C   UNL     1      18.214  29.123  20.703  1.00  0.00     0.142 C 
BRANCH   3   8
ATOM      8  O   UNL     1      20.984  27.665  19.486  1.00  0.00    -0.338 OA
BRANCH   8   9
ATOM      9  C   UNL     1      21.936  26.840  19.087  1.00  0.00     0.199 C 
BRANCH   9  10
ATOM     10  C   UNL     1      23.144  26.616  19.972  1.00  0.00     0.179 C 
ATOM     11  C   UNL     1      23.427  27.126  22.264  1.00  0.00     0.282 C 
ATOM     12  O   UNL     1      23.094  27.505  20.979  1.00  0.00    -0.341 OA
ATOM     13  C   UNL     1      24.464  26.074  22.227  1.00  0.00     0.202 C 
ATOM     14  C   UNL     1      24.119  24.855  21.428  1.00  0.00     0.179 C 
ATOM     15  C   UNL     1      22.989  25.193  20.491  1.00  0.00     0.177 C 
BRANCH  11  16
ATOM     16  O   UNL     1      22.241  26.844  22.905  1.00  0.00    -0.341 OA
BRANCH  16  17
ATOM     17  C   UNL     1      22.178  27.166  24.217  1.00  0.00     0.184 C 
ATOM     18  C   UNL     1      21.525  26.083  25.018  1.00  0.00     0.178 C 
ATOM     19  O   UNL     1      21.868  26.365  26.362  1.00  0.00    -0.341 OA
ATOM     20  C   UNL     1      21.146  27.476  26.806  1.00  0.00     0.281 C 
ATOM     21  C   UNL     1      21.329  28.414  24.479  1.00  0.00     0.180 C 
ATOM     22  C   UNL     1      21.365  28.692  25.966  1.00  0.00     0.202 C 
BRANCH  18  23
ATOM     23  C   UNL     1      21.956  24.700  24.684  1.00  0.00     0.191 C 
BRANCH  23  24
ATOM     24  O   UNL     1      21.159  24.209  23.652  1.00  0.00    -0.394 OA
ATOM     25  H   UNL     1      20.283  23.876  24.021  1.00  0.00     0.210 HD
ENDBRANCH  23  24
ENDBRANCH  18  23
BRANCH  20  26
ATOM     26  O   UNL     1      21.561  27.748  28.106  1.00  0.00    -0.350 OA
BRANCH  26  27
ATOM     27  C   UNL     1      22.723  27.056  28.438  1.00  0.00     0.169 C 
BRANCH  27  28
ATOM     28  C   UNL     1      22.432  26.212  29.658  1.00  0.00     0.119 C 
BRANCH  28  29
ATOM     29  N   UNL     1      23.411  25.157  29.756  1.00  0.00    -0.092 NA
ATOM     30  N   UNL     1      24.473  25.338  30.379  1.00  0.00     0.001 N 
ATOM     31  N   UNL     1      25.657  25.612  30.625  1.00  0.00    -0.003 NA
ENDBRANCH  28  29
ENDBRANCH  27  28
ENDBRANCH  26  27
ENDBRANCH  20  26
BRANCH  21  32
ATOM     32  O   UNL     1      21.837  29.541  23.845  1.00  0.00    -0.387 OA
ATOM     33  H   UNL     1      22.686  29.248  23.427  1.00  0.00     0.211 HD
ENDBRANCH  21  32
BRANCH  22  34
ATOM     34  O   UNL     1      20.283  29.567  26.219  1.00  0.00    -0.385 OA
ATOM     35  H   UNL     1      19.568  29.473  25.552  1.00  0.00     0.211 HD
ENDBRANCH  22  34
ENDBRANCH  16  17
ENDBRANCH  11  16
BRANCH  13  36
ATOM     36  O   UNL     1      25.654  26.615  21.657  1.00  0.00    -0.385 OA
ATOM     37  H   UNL     1      25.485  26.836  20.698  1.00  0.00     0.211 HD
ENDBRANCH  13  36
BRANCH  14  38
ATOM     38  O   UNL     1      23.825  23.733  22.207  1.00  0.00    -0.387 OA
ATOM     39  H   UNL     1      22.851  23.634  22.359  1.00  0.00     0.211 HD
ENDBRANCH  14  38
BRANCH  15  40
ATOM     40  O   UNL     1      21.788  25.039  21.154  1.00  0.00    -0.387 OA
ATOM     41  H   UNL     1      21.443  24.094  21.099  1.00  0.00     0.211 HD
ENDBRANCH  15  40
ENDBRANCH   9  10
ENDBRANCH   8   9
ENDBRANCH   3   8
BRANCH   3  42
ATOM     42  C   UNL     1      20.608  28.780  17.351  1.00  0.00     0.364 C 
ATOM     43  O   UNL     1      21.373  29.679  16.959  1.00  0.00    -0.246 OA
BRANCH  42  44
ATOM     44  O   UNL     1      20.059  27.997  16.307  1.00  0.00    -0.477 OA
ATOM     45  H   UNL     1      19.105  28.231  15.992  1.00  0.00     0.296 HD
ENDBRANCH  42  44
ENDBRANCH   3  42
BRANCH   6  46
ATOM     46  O   UNL     1      20.401  28.384  21.324  1.00  0.00    -0.391 OA
ATOM     47  H   UNL     1      20.936  28.649  22.122  1.00  0.00     0.211 HD
ENDBRANCH   6  46
BRANCH   7  48
ATOM     48  N   UNL     1      17.282  29.976  21.348  1.00  0.00    -0.348 N 
ATOM     49  C   UNL     1      17.041  30.124  22.717  1.00  0.00     0.217 C 
ATOM     50  H   UNL     1      16.640  30.585  20.720  1.00  0.00     0.163 HD
ATOM     51  C   UNL     1      15.969  31.096  23.172  1.00  0.00     0.114 C 
ATOM     52  O   UNL     1      17.660  29.500  23.620  1.00  0.00    -0.275 OA
ENDBRANCH   7  48
ENDBRANCH   1   2
BRANCH   1  53
ATOM     53  O   UNL     1      16.209  27.624  20.272  1.00  0.00    -0.388 OA
ATOM     54  H   UNL     1      15.746  26.769  20.212  1.00  0.00     0.211 HD
ENDBRANCH   1  53
BRANCH   1  55
ATOM     55  C   UNL     1      15.531  29.131  18.631  1.00  0.00     0.165 C 
BRANCH  55  56
ATOM     56  O   UNL     1      14.264  28.698  18.904  1.00  0.00    -0.388 OA
ATOM     57  H   UNL     1      13.696  28.556  18.112  1.00  0.00     0.211 HD
ENDBRANCH  55  56
BRANCH  55  58
ATOM     58  C   UNL     1      15.692  29.522  17.196  1.00  0.00     0.154 C 
BRANCH  58  59
ATOM     59  N   UNL     1      14.459  29.505  16.495  1.00  0.00    -0.319 N 
ATOM     60  C   UNL     1      14.349  29.083  15.151  1.00  0.00     0.407 C 
ATOM     61  H   UNL     1      13.566  29.815  16.964  1.00  0.00     0.167 HD
ATOM     62  O   UNL     1      15.362  28.698  14.505  1.00  0.00    -0.225 OA
BRANCH  60  63
ATOM     63  O   UNL     1      13.134  29.064  14.470  1.00  0.00    -0.443 OA
BRANCH  63  64
ATOM     64  C   UNL     1      13.195  28.811  13.062  1.00  0.00     0.294 C 
BRANCH  64  65
ATOM     65  C   UNL     1      11.819  28.533  12.612  1.00  0.00     0.121 A 
ATOM     66  C   UNL     1      11.416  27.870  11.456  1.00  0.00     0.144 A 
ATOM     67  N   UNL     1      10.691  28.870  13.258  1.00  0.00    -0.131 NA
ATOM     68  N   UNL     1      10.064  27.830  11.450  1.00  0.00    -0.220 N 
ATOM     69  N   UNL     1       9.659  28.441  12.545  1.00  0.00    -0.062 NA
BRANCH  68  70
ATOM     70  C   UNL     1       9.300  27.218  10.424  1.00  0.00     0.067 A 
ATOM     71  C   UNL     1       7.915  27.122  10.556  1.00  0.00     0.036 A 
ATOM     72  C   UNL     1       9.885  26.721   9.308  1.00  0.00     0.028 A 
ATOM     73  C   UNL     1       7.139  26.545   9.599  1.00  0.00    -0.023 A 
ATOM     74  C   UNL     1       9.132  26.122   8.301  1.00  0.00     0.003 A 
ATOM     75  C   UNL     1       7.769  26.049   8.474  1.00  0.00     0.008 A 
BRANCH  73  76
ATOM     76  C   UNL     1       5.703  26.440   9.736  1.00  0.00     0.015 C 
ATOM     77  C   UNL     1       5.048  25.412   9.257  1.00  0.00     0.094 C 
BRANCH  77  78
ATOM     78  C   UNL     1       3.594  25.348   9.418  1.00  0.00     0.328 C 
ATOM     79  O   UNL     1       3.017  25.967  10.319  1.00  0.00    -0.247 OA
BRANCH  78  80
ATOM     80  O   UNL     1       2.825  24.578   8.549  1.00  0.00    -0.478 OA
ATOM     81  H   UNL     1       3.305  23.839   8.030  1.00  0.00     0.297 HD
ENDBRANCH  78  80
ENDBRANCH  77  78
ENDBRANCH  73  76
ENDBRANCH  68  70
ENDBRANCH  64  65
ENDBRANCH  63  64
ENDBRANCH  60  63
ENDBRANCH  58  59
ENDBRANCH  55  58
ENDBRANCH   1  55
TORSDOF 33
