REMARK VINA RESULT:    -6.880      8.161     13.565
REMARK INTER + INTRA:         -22.159
REMARK INTER:                 -15.875
REMARK INTRA:                  -6.284
REMARK UNBOUND:                -4.822
REMARK SMILES CC(=O)N[C@@H]1[C@@H](O)C[C@](OC[C@H]2O[C@@H](O[C@H]3[C@H](O)[C@@H](O)[C@H](OCCN=[N+]=[N-])O[C@@H]3CO)[C@H](O)[C@@H](O)[C@H]2O)(C(=O)O)O[C@H]1C(O)[C@H](O)CNC(=O)OCc1cn(Cc2ccccc2Br)nn1
REMARK SMILES IDX 9 1 8 2 6 3 5 4 42 5 41 6 10 7 11 8 12 9 14 10 13 11 32 12
REMARK SMILES IDX 34 13 36 14 15 15 16 16 29 17 28 18 21 19 17 20 19 21 30 22
REMARK SMILES IDX 31 23 22 25 23 26 24 27 25 28 26 29 27 30 18 31 20 33 33 35
REMARK SMILES IDX 35 37 37 39 38 41 39 42 40 43 7 45 43 47 44 48 45 50 46 51
REMARK SMILES IDX 47 53 48 54 49 55 50 57 51 58 52 59 53 60 54 61 65 62 55 63
REMARK SMILES IDX 64 64 56 65 57 66 58 67 62 68 59 69 61 70 63 71 60 72 4 73
REMARK SMILES IDX 2 74 1 76 3 77
REMARK H PARENT 31 24 18 32 20 34 33 36 35 38 37 40 40 44 7 46 44 49 46 52
REMARK H PARENT 48 56 4 75
REMARK Flexibility Score: inf
ROOT
ATOM      1  C   UNL     1      14.850  30.042  22.145  1.00  0.00     0.272 C 
ATOM      2  C   UNL     1      14.461  31.457  21.974  1.00  0.00     0.113 C 
ATOM      3  C   UNL     1      15.066  32.323  23.021  1.00  0.00     0.145 C 
ATOM      4  C   UNL     1      16.561  32.167  22.992  1.00  0.00     0.142 C 
ATOM      5  C   UNL     1      17.024  30.803  22.654  1.00  0.00     0.178 C 
ATOM      6  O   UNL     1      16.284  30.057  21.805  1.00  0.00    -0.332 OA
ENDROOT
BRANCH   1   7
ATOM      7  O   UNL     1      14.326  29.178  21.257  1.00  0.00    -0.338 OA
BRANCH   7   8
ATOM      8  C   UNL     1      14.250  29.232  19.967  1.00  0.00     0.199 C 
BRANCH   8   9
ATOM      9  C   UNL     1      15.265  28.989  18.941  1.00  0.00     0.179 C 
ATOM     10  C   UNL     1      16.459  29.678  17.107  1.00  0.00     0.282 C 
ATOM     11  O   UNL     1      15.796  30.104  18.283  1.00  0.00    -0.341 OA
ATOM     12  C   UNL     1      17.784  29.122  17.551  1.00  0.00     0.202 C 
ATOM     13  C   UNL     1      17.621  28.129  18.649  1.00  0.00     0.179 C 
ATOM     14  C   UNL     1      16.217  27.863  19.115  1.00  0.00     0.177 C 
BRANCH  10  15
ATOM     15  O   UNL     1      16.570  30.773  16.305  1.00  0.00    -0.341 OA
BRANCH  15  16
ATOM     16  C   UNL     1      16.042  30.710  15.051  1.00  0.00     0.184 C 
ATOM     17  C   UNL     1      15.695  29.353  14.548  1.00  0.00     0.178 C 
ATOM     18  O   UNL     1      16.239  29.206  13.275  1.00  0.00    -0.341 OA
ATOM     19  C   UNL     1      17.646  29.246  13.449  1.00  0.00     0.281 C 
ATOM     20  C   UNL     1      16.863  31.466  14.018  1.00  0.00     0.180 C 
ATOM     21  C   UNL     1      18.091  30.674  13.614  1.00  0.00     0.202 C 
BRANCH  17  22
ATOM     22  C   UNL     1      14.188  29.160  14.395  1.00  0.00     0.191 C 
BRANCH  22  23
ATOM     23  O   UNL     1      13.898  27.848  14.019  1.00  0.00    -0.394 OA
ATOM     24  H   UNL     1      13.174  27.453  14.556  1.00  0.00     0.210 HD
ENDBRANCH  22  23
ENDBRANCH  17  22
BRANCH  19  25
ATOM     25  O   UNL     1      18.183  28.627  12.324  1.00  0.00    -0.350 OA
BRANCH  25  26
ATOM     26  C   UNL     1      18.193  29.480  11.220  1.00  0.00     0.169 C 
BRANCH  26  27
ATOM     27  C   UNL     1      18.230  28.617   9.970  1.00  0.00     0.119 C 
BRANCH  27  28
ATOM     28  N   UNL     1      19.370  27.740  10.068  1.00  0.00    -0.092 NA
ATOM     29  N   UNL     1      20.419  27.968   9.458  1.00  0.00     0.001 N 
ATOM     30  N   UNL     1      21.213  28.061   8.500  1.00  0.00    -0.003 NA
ENDBRANCH  27  28
ENDBRANCH  26  27
ENDBRANCH  25  26
ENDBRANCH  19  25
BRANCH  20  31
ATOM     31  O   UNL     1      16.127  31.665  12.848  1.00  0.00    -0.387 OA
ATOM     32  H   UNL     1      16.747  32.098  12.198  1.00  0.00     0.211 HD
ENDBRANCH  20  31
BRANCH  21  33
ATOM     33  O   UNL     1      19.148  30.840  14.471  1.00  0.00    -0.385 OA
ATOM     34  H   UNL     1      19.408  31.791  14.495  1.00  0.00     0.211 HD
ENDBRANCH  21  33
ENDBRANCH  15  16
ENDBRANCH  10  15
BRANCH  12  35
ATOM     35  O   UNL     1      18.431  28.449  16.502  1.00  0.00    -0.385 OA
ATOM     36  H   UNL     1      17.884  27.656  16.298  1.00  0.00     0.211 HD
ENDBRANCH  12  35
BRANCH  13  37
ATOM     37  O   UNL     1      18.372  28.548  19.756  1.00  0.00    -0.387 OA
ATOM     38  H   UNL     1      18.533  29.513  19.752  1.00  0.00     0.211 HD
ENDBRANCH  13  37
BRANCH  14  39
ATOM     39  O   UNL     1      16.310  27.427  20.429  1.00  0.00    -0.387 OA
ATOM     40  H   UNL     1      15.474  27.255  20.884  1.00  0.00     0.211 HD
ENDBRANCH  14  39
ENDBRANCH   8   9
ENDBRANCH   7   8
ENDBRANCH   1   7
BRANCH   1  41
ATOM     41  C   UNL     1      14.916  29.505  23.520  1.00  0.00     0.364 C 
ATOM     42  O   UNL     1      15.945  29.118  24.119  1.00  0.00    -0.246 OA
BRANCH  41  43
ATOM     43  O   UNL     1      13.741  29.398  24.246  1.00  0.00    -0.477 OA
ATOM     44  H   UNL     1      13.658  29.765  25.194  1.00  0.00     0.296 HD
ENDBRANCH  41  43
ENDBRANCH   1  41
BRANCH   3  45
ATOM     45  O   UNL     1      14.756  33.664  22.623  1.00  0.00    -0.391 OA
ATOM     46  H   UNL     1      15.098  34.304  23.278  1.00  0.00     0.211 HD
ENDBRANCH   3  45
BRANCH   5  47
ATOM     47  C   UNL     1      18.431  30.878  22.052  1.00  0.00     0.176 C 
BRANCH  47  48
ATOM     48  O   UNL     1      19.304  31.186  23.085  1.00  0.00    -0.388 OA
ATOM     49  H   UNL     1      18.982  30.917  23.963  1.00  0.00     0.211 HD
ENDBRANCH  47  48
BRANCH  47  50
ATOM     50  C   UNL     1      18.545  31.905  20.982  1.00  0.00     0.165 C 
BRANCH  50  51
ATOM     51  O   UNL     1      17.676  31.646  19.908  1.00  0.00    -0.388 OA
ATOM     52  H   UNL     1      17.732  30.692  19.645  1.00  0.00     0.211 HD
ENDBRANCH  50  51
BRANCH  50  53
ATOM     53  C   UNL     1      19.931  31.902  20.390  1.00  0.00     0.154 C 
BRANCH  53  54
ATOM     54  N   UNL     1      20.289  30.600  19.950  1.00  0.00    -0.319 N 
ATOM     55  C   UNL     1      20.830  30.311  18.681  1.00  0.00     0.407 C 
ATOM     56  H   UNL     1      20.135  29.795  20.627  1.00  0.00     0.167 HD
ATOM     57  O   UNL     1      21.038  31.217  17.835  1.00  0.00    -0.225 OA
BRANCH  55  58
ATOM     58  O   UNL     1      21.160  29.001  18.309  1.00  0.00    -0.443 OA
BRANCH  58  59
ATOM     59  C   UNL     1      22.188  28.290  18.943  1.00  0.00     0.294 C 
BRANCH  59  60
ATOM     60  C   UNL     1      21.730  27.396  20.030  1.00  0.00     0.120 A 
ATOM     61  C   UNL     1      22.302  26.144  20.306  1.00  0.00     0.138 A 
ATOM     62  N   UNL     1      20.752  27.549  20.928  1.00  0.00    -0.132 NA
ATOM     63  N   UNL     1      21.654  25.613  21.337  1.00  0.00    -0.248 N 
ATOM     64  N   UNL     1      20.710  26.486  21.703  1.00  0.00    -0.067 NA
BRANCH  63  65
ATOM     65  C   UNL     1      21.876  24.334  22.012  1.00  0.00     0.182 C 
BRANCH  65  66
ATOM     66  C   UNL     1      22.527  24.469  23.332  1.00  0.00    -0.012 A 
ATOM     67  C   UNL     1      21.688  24.655  24.444  1.00  0.00     0.007 A 
ATOM     68  C   UNL     1      23.880  24.452  23.532  1.00  0.00     0.023 A 
ATOM     69  C   UNL     1      22.247  24.812  25.674  1.00  0.00     0.000 A 
ATOM     70  C   UNL     1      24.435  24.616  24.792  1.00  0.00     0.016 A 
ATOM     71  Br  UNL     1      25.067  24.145  22.081  1.00  0.00    -0.050 Br
ATOM     72  C   UNL     1      23.603  24.796  25.865  1.00  0.00     0.001 A 
ENDBRANCH  65  66
ENDBRANCH  63  65
ENDBRANCH  59  60
ENDBRANCH  58  59
ENDBRANCH  55  58
ENDBRANCH  53  54
ENDBRANCH  50  53
ENDBRANCH  47  50
ENDBRANCH   5  47
BRANCH   4  73
ATOM     73  N   UNL     1      17.099  32.577  24.263  1.00  0.00    -0.348 N 
ATOM     74  C   UNL     1      17.602  33.889  24.516  1.00  0.00     0.217 C 
ATOM     75  H   UNL     1      17.151  31.927  25.075  1.00  0.00     0.163 HD
ATOM     76  C   UNL     1      18.149  34.246  25.863  1.00  0.00     0.114 C 
ATOM     77  O   UNL     1      17.572  34.715  23.594  1.00  0.00    -0.275 OA
ENDBRANCH   4  73
TORSDOF 31
