REMARK VINA RESULT:    -5.466      2.648      7.133
REMARK INTER + INTRA:         -23.977
REMARK INTER:                 -14.450
REMARK INTRA:                  -9.527
REMARK UNBOUND:                -7.166
REMARK SMILES CC(=O)N[C@@H]1[C@@H](O)C[C@](OC[C@H]2O[C@@H](O[C@H]3[C@H](O)[C@@H](O)[C@H](OCCN=[N+]=[N-])O[C@@H]3CO)[C@H](O)[C@@H](O)[C@H]2O)(C(=O)O)O[C@H]1C(O)[C@H](O)CNC(=O)OCc1cn(CCCCCCCCCCC(=O)O)nn1
REMARK SMILES IDX 51 1 49 2 48 3 50 5 47 6 45 7 43 8 42 9 9 10 8 11 41 12 6 13
REMARK SMILES IDX 5 14 10 15 11 16 12 17 14 18 13 19 32 20 34 21 36 22 15 23
REMARK SMILES IDX 16 24 29 25 28 26 21 27 17 28 19 29 30 30 31 31 22 33 23 34
REMARK SMILES IDX 24 35 25 36 26 37 27 38 18 39 20 41 33 43 35 45 37 47 38 49
REMARK SMILES IDX 39 50 40 51 7 53 4 55 2 56 1 58 3 59 44 60 46 62 52 64 53 65
REMARK SMILES IDX 54 66 70 67 55 68 69 69 56 70 57 71 58 72 59 73 60 74 61 75
REMARK SMILES IDX 62 76 63 77 64 78 65 79 66 80 67 81 68 82
REMARK H PARENT 48 4 31 32 18 40 20 42 33 44 35 46 37 48 40 52 7 54 4 57 44 61
REMARK H PARENT 46 63 68 83
REMARK Flexibility Score: inf
ROOT
ATOM      1  O   UNL     1      20.441  27.992  18.057  1.00  0.00    -0.443 OA
ENDROOT
BRANCH   1   2
ATOM      2  C   UNL     1      19.221  28.704  18.055  1.00  0.00     0.407 C 
ATOM      3  N   UNL     1      17.981  28.019  18.086  1.00  0.00    -0.319 N 
ATOM      4  H   UNL     1      17.991  26.965  18.103  1.00  0.00     0.167 HD
ATOM      5  O   UNL     1      19.204  29.955  18.028  1.00  0.00    -0.225 OA
BRANCH   3   6
ATOM      6  C   UNL     1      16.721  28.699  18.095  1.00  0.00     0.154 C 
BRANCH   6   7
ATOM      7  C   UNL     1      16.009  28.688  19.443  1.00  0.00     0.165 C 
BRANCH   7   8
ATOM      8  C   UNL     1      16.237  30.033  20.039  1.00  0.00     0.176 C 
BRANCH   8   9
ATOM      9  C   UNL     1      15.092  30.609  20.840  1.00  0.00     0.178 C 
ATOM     10  C   UNL     1      14.507  31.025  23.051  1.00  0.00     0.272 C 
ATOM     11  C   UNL     1      13.091  30.671  22.650  1.00  0.00     0.113 C 
ATOM     12  O   UNL     1      15.357  30.394  22.163  1.00  0.00    -0.332 OA
ATOM     13  C   UNL     1      13.009  29.635  21.576  1.00  0.00     0.145 C 
ATOM     14  C   UNL     1      13.754  30.141  20.359  1.00  0.00     0.142 C 
BRANCH  10  15
ATOM     15  O   UNL     1      14.771  30.601  24.364  1.00  0.00    -0.338 OA
BRANCH  15  16
ATOM     16  C   UNL     1      14.193  31.310  25.362  1.00  0.00     0.199 C 
BRANCH  16  17
ATOM     17  C   UNL     1      14.945  30.931  26.655  1.00  0.00     0.179 C 
ATOM     18  C   UNL     1      17.064  31.983  26.589  1.00  0.00     0.282 C 
ATOM     19  O   UNL     1      16.275  30.885  26.506  1.00  0.00    -0.341 OA
ATOM     20  C   UNL     1      16.404  33.160  27.200  1.00  0.00     0.202 C 
ATOM     21  C   UNL     1      15.505  32.688  28.335  1.00  0.00     0.179 C 
ATOM     22  C   UNL     1      14.430  31.758  27.812  1.00  0.00     0.177 C 
BRANCH  18  23
ATOM     23  O   UNL     1      17.561  32.221  25.282  1.00  0.00    -0.341 OA
BRANCH  23  24
ATOM     24  C   UNL     1      18.765  31.539  25.168  1.00  0.00     0.184 C 
ATOM     25  C   UNL     1      19.952  32.391  24.858  1.00  0.00     0.178 C 
ATOM     26  O   UNL     1      21.046  31.620  24.596  1.00  0.00    -0.341 OA
ATOM     27  C   UNL     1      21.027  30.291  24.805  1.00  0.00     0.281 C 
ATOM     28  C   UNL     1      18.669  30.511  24.029  1.00  0.00     0.180 C 
ATOM     29  C   UNL     1      19.836  29.569  24.220  1.00  0.00     0.202 C 
BRANCH  25  30
ATOM     30  C   UNL     1      20.281  33.395  25.947  1.00  0.00     0.191 C 
BRANCH  30  31
ATOM     31  O   UNL     1      19.470  34.500  25.945  1.00  0.00    -0.394 OA
ATOM     32  H   UNL     1      20.038  35.307  26.047  1.00  0.00     0.210 HD
ENDBRANCH  30  31
ENDBRANCH  25  30
BRANCH  27  33
ATOM     33  O   UNL     1      21.070  30.018  26.165  1.00  0.00    -0.350 OA
BRANCH  33  34
ATOM     34  C   UNL     1      21.045  28.649  26.429  1.00  0.00     0.169 C 
BRANCH  34  35
ATOM     35  C   UNL     1      21.411  28.340  27.853  1.00  0.00     0.119 C 
BRANCH  35  36
ATOM     36  N   UNL     1      22.393  29.327  28.307  1.00  0.00    -0.092 NA
ATOM     37  N   UNL     1      23.350  28.985  29.036  1.00  0.00     0.001 N 
ATOM     38  N   UNL     1      24.172  28.377  29.755  1.00  0.00    -0.003 NA
ENDBRANCH  35  36
ENDBRANCH  34  35
ENDBRANCH  33  34
ENDBRANCH  27  33
BRANCH  28  39
ATOM     39  O   UNL     1      17.487  29.802  24.053  1.00  0.00    -0.387 OA
ATOM     40  H   UNL     1      16.987  29.834  23.200  1.00  0.00     0.211 HD
ENDBRANCH  28  39
BRANCH  29  41
ATOM     41  O   UNL     1      20.204  29.103  22.962  1.00  0.00    -0.385 OA
ATOM     42  H   UNL     1      19.778  28.199  22.842  1.00  0.00     0.211 HD
ENDBRANCH  29  41
ENDBRANCH  23  24
ENDBRANCH  18  23
BRANCH  20  43
ATOM     43  O   UNL     1      17.315  34.036  27.806  1.00  0.00    -0.385 OA
ATOM     44  H   UNL     1      16.984  34.958  27.591  1.00  0.00     0.211 HD
ENDBRANCH  20  43
BRANCH  21  45
ATOM     45  O   UNL     1      14.911  33.773  28.976  1.00  0.00    -0.387 OA
ATOM     46  H   UNL     1      15.639  34.419  29.163  1.00  0.00     0.211 HD
ENDBRANCH  21  45
BRANCH  22  47
ATOM     47  O   UNL     1      13.365  32.528  27.413  1.00  0.00    -0.387 OA
ATOM     48  H   UNL     1      12.543  31.976  27.459  1.00  0.00     0.211 HD
ENDBRANCH  22  47
ENDBRANCH  16  17
ENDBRANCH  15  16
ENDBRANCH  10  15
BRANCH  10  49
ATOM     49  C   UNL     1      14.729  32.473  23.073  1.00  0.00     0.364 C 
ATOM     50  O   UNL     1      13.807  33.299  22.976  1.00  0.00    -0.246 OA
BRANCH  49  51
ATOM     51  O   UNL     1      16.009  32.986  23.207  1.00  0.00    -0.477 OA
ATOM     52  H   UNL     1      16.576  32.829  24.044  1.00  0.00     0.296 HD
ENDBRANCH  49  51
ENDBRANCH  10  49
BRANCH  13  53
ATOM     53  O   UNL     1      13.393  28.363  21.942  1.00  0.00    -0.391 OA
ATOM     54  H   UNL     1      12.904  28.008  22.738  1.00  0.00     0.211 HD
ENDBRANCH  13  53
BRANCH  14  55
ATOM     55  N   UNL     1      12.944  31.141  19.747  1.00  0.00    -0.348 N 
ATOM     56  C   UNL     1      13.029  31.518  18.377  1.00  0.00     0.217 C 
ATOM     57  H   UNL     1      12.225  31.659  20.308  1.00  0.00     0.163 HD
ATOM     58  C   UNL     1      12.155  32.564  17.816  1.00  0.00     0.114 C 
ATOM     59  O   UNL     1      13.868  30.933  17.667  1.00  0.00    -0.275 OA
ENDBRANCH  14  55
ENDBRANCH   8   9
BRANCH   8  60
ATOM     60  O   UNL     1      16.734  30.870  19.077  1.00  0.00    -0.388 OA
ATOM     61  H   UNL     1      17.598  31.266  19.273  1.00  0.00     0.211 HD
ENDBRANCH   8  60
ENDBRANCH   7   8
BRANCH   7  62
ATOM     62  O   UNL     1      16.540  27.631  20.172  1.00  0.00    -0.388 OA
ATOM     63  H   UNL     1      16.245  27.642  21.115  1.00  0.00     0.211 HD
ENDBRANCH   7  62
ENDBRANCH   6   7
ENDBRANCH   3   6
ENDBRANCH   1   2
BRANCH   1  64
ATOM     64  C   UNL     1      21.550  28.631  18.705  1.00  0.00     0.294 C 
BRANCH  64  65
ATOM     65  C   UNL     1      21.868  27.832  19.908  1.00  0.00     0.120 A 
ATOM     66  C   UNL     1      21.925  26.450  19.949  1.00  0.00     0.138 A 
ATOM     67  N   UNL     1      22.160  28.271  21.139  1.00  0.00    -0.132 NA
ATOM     68  N   UNL     1      22.252  26.122  21.213  1.00  0.00    -0.252 N 
ATOM     69  N   UNL     1      22.390  27.257  21.925  1.00  0.00    -0.067 NA
BRANCH  68  70
ATOM     70  C   UNL     1      22.442  24.824  21.782  1.00  0.00     0.146 C 
BRANCH  70  71
ATOM     71  C   UNL     1      23.740  24.601  22.476  1.00  0.00     0.024 C 
BRANCH  71  72
ATOM     72  C   UNL     1      23.695  24.557  23.962  1.00  0.00     0.002 C 
BRANCH  72  73
ATOM     73  C   UNL     1      22.336  24.586  24.571  1.00  0.00     0.000 C 
BRANCH  73  74
ATOM     74  C   UNL     1      22.276  25.017  25.996  1.00  0.00     0.000 C 
BRANCH  74  75
ATOM     75  C   UNL     1      23.503  24.554  26.731  1.00  0.00     0.000 C 
BRANCH  75  76
ATOM     76  C   UNL     1      24.233  25.676  27.437  1.00  0.00     0.000 C 
BRANCH  76  77
ATOM     77  C   UNL     1      25.518  26.056  26.777  1.00  0.00     0.001 C 
BRANCH  77  78
ATOM     78  C   UNL     1      25.637  27.507  26.424  1.00  0.00     0.012 C 
BRANCH  78  79
ATOM     79  C   UNL     1      24.424  27.897  25.596  1.00  0.00     0.122 C 
BRANCH  79  80
ATOM     80  C   UNL     1      24.853  28.154  24.211  1.00  0.00     0.303 C 
ATOM     81  O   UNL     1      25.813  27.530  23.715  1.00  0.00    -0.252 OA
BRANCH  80  82
ATOM     82  O   UNL     1      24.210  29.094  23.418  1.00  0.00    -0.481 OA
ATOM     83  H   UNL     1      23.256  29.365  23.574  1.00  0.00     0.296 HD
ENDBRANCH  80  82
ENDBRANCH  79  80
ENDBRANCH  78  79
ENDBRANCH  77  78
ENDBRANCH  76  77
ENDBRANCH  75  76
ENDBRANCH  74  75
ENDBRANCH  73  74
ENDBRANCH  72  73
ENDBRANCH  71  72
ENDBRANCH  70  71
ENDBRANCH  68  70
ENDBRANCH  64  65
ENDBRANCH   1  64
TORSDOF 41
