REMARK VINA RESULT:    -5.909     23.120     25.938
REMARK INTER + INTRA:         -20.510
REMARK INTER:                 -14.777
REMARK INTRA:                  -5.733
REMARK UNBOUND:                -5.964
REMARK SMILES CC(=O)N[C@@H]1[C@@H](O)C[C@](OC[C@H]2O[C@@H](O[C@H]3[C@H](O)[C@@H](O)[C@H](OCCN=[N+]=[N-])O[C@@H]3CO)[C@H](O)[C@@H](O)[C@H]2O)(C(=O)O)O[C@H]1C(O)[C@H](O)CNC(=O)OCc1cn(C2CCN(C)CC2)nn1
REMARK SMILES IDX 9 1 8 2 6 3 5 4 42 5 41 6 10 7 11 8 12 9 14 10 13 11 32 12
REMARK SMILES IDX 34 13 36 14 15 15 16 16 29 17 28 18 21 19 17 20 19 21 30 22
REMARK SMILES IDX 31 23 22 25 23 26 24 27 25 28 26 29 27 30 18 31 20 33 33 35
REMARK SMILES IDX 35 37 37 39 38 41 39 42 40 43 7 45 43 47 44 48 45 50 46 51
REMARK SMILES IDX 47 53 48 54 49 55 50 57 51 58 52 59 53 60 54 61 64 62 55 63
REMARK SMILES IDX 63 64 56 65 57 66 62 67 58 68 61 69 59 70 60 71 4 72 2 73
REMARK SMILES IDX 1 75 3 76
REMARK H PARENT 31 24 18 32 20 34 33 36 35 38 37 40 40 44 7 46 44 49 46 52
REMARK H PARENT 48 56 4 74
REMARK Flexibility Score: inf
ROOT
ATOM      1  C   UNL     1       2.199  21.731  31.396  1.00  0.00     0.272 C 
ATOM      2  C   UNL     1       2.294  21.305  32.850  1.00  0.00     0.113 C 
ATOM      3  C   UNL     1       3.605  21.479  33.497  1.00  0.00     0.145 C 
ATOM      4  C   UNL     1       4.341  22.744  33.113  1.00  0.00     0.142 C 
ATOM      5  C   UNL     1       3.892  23.320  31.825  1.00  0.00     0.178 C 
ATOM      6  O   UNL     1       2.672  23.083  31.360  1.00  0.00    -0.332 OA
ENDROOT
BRANCH   1   7
ATOM      7  O   UNL     1       0.902  21.873  31.082  1.00  0.00    -0.338 OA
BRANCH   7   8
ATOM      8  C   UNL     1       0.141  21.337  30.189  1.00  0.00     0.199 C 
BRANCH   8   9
ATOM      9  C   UNL     1      -0.418  22.068  29.007  1.00  0.00     0.179 C 
ATOM     10  C   UNL     1       1.401  23.102  27.855  1.00  0.00     0.282 C 
ATOM     11  O   UNL     1       0.410  23.132  28.778  1.00  0.00    -0.341 OA
ATOM     12  C   UNL     1       1.561  21.817  27.167  1.00  0.00     0.202 C 
ATOM     13  C   UNL     1       0.167  21.458  26.625  1.00  0.00     0.179 C 
ATOM     14  C   UNL     1      -0.679  21.202  27.820  1.00  0.00     0.177 C 
BRANCH  10  15
ATOM     15  O   UNL     1       2.501  23.631  28.518  1.00  0.00    -0.341 OA
BRANCH  15  16
ATOM     16  C   UNL     1       3.066  24.726  28.008  1.00  0.00     0.184 C 
ATOM     17  C   UNL     1       2.078  25.830  27.852  1.00  0.00     0.178 C 
ATOM     18  O   UNL     1       2.775  27.037  27.729  1.00  0.00    -0.341 OA
ATOM     19  C   UNL     1       3.463  27.060  26.538  1.00  0.00     0.281 C 
ATOM     20  C   UNL     1       3.630  24.535  26.590  1.00  0.00     0.180 C 
ATOM     21  C   UNL     1       4.327  25.856  26.279  1.00  0.00     0.202 C 
BRANCH  17  22
ATOM     22  C   UNL     1       1.016  25.887  28.895  1.00  0.00     0.191 C 
BRANCH  22  23
ATOM     23  O   UNL     1       1.597  25.676  30.138  1.00  0.00    -0.394 OA
ATOM     24  H   UNL     1       1.755  26.525  30.624  1.00  0.00     0.210 HD
ENDBRANCH  22  23
ENDBRANCH  17  22
BRANCH  19  25
ATOM     25  O   UNL     1       4.339  28.153  26.609  1.00  0.00    -0.350 OA
BRANCH  25  26
ATOM     26  C   UNL     1       4.192  29.056  25.588  1.00  0.00     0.169 C 
BRANCH  26  27
ATOM     27  C   UNL     1       5.429  29.204  24.725  1.00  0.00     0.119 C 
BRANCH  27  28
ATOM     28  N   UNL     1       6.572  28.557  25.339  1.00  0.00    -0.092 NA
ATOM     29  N   UNL     1       7.332  27.852  24.677  1.00  0.00     0.001 N 
ATOM     30  N   UNL     1       7.865  26.812  24.285  1.00  0.00    -0.003 NA
ENDBRANCH  27  28
ENDBRANCH  26  27
ENDBRANCH  25  26
ENDBRANCH  19  25
BRANCH  20  31
ATOM     31  O   UNL     1       4.586  23.559  26.517  1.00  0.00    -0.387 OA
ATOM     32  H   UNL     1       4.155  22.702  26.308  1.00  0.00     0.211 HD
ENDBRANCH  20  31
BRANCH  21  33
ATOM     33  O   UNL     1       4.755  25.846  24.975  1.00  0.00    -0.385 OA
ATOM     34  H   UNL     1       4.861  24.952  24.614  1.00  0.00     0.211 HD
ENDBRANCH  21  33
ENDBRANCH  15  16
ENDBRANCH  10  15
BRANCH  12  35
ATOM     35  O   UNL     1       2.347  21.857  26.017  1.00  0.00    -0.385 OA
ATOM     36  H   UNL     1       1.793  22.091  25.231  1.00  0.00     0.211 HD
ENDBRANCH  12  35
BRANCH  13  37
ATOM     37  O   UNL     1       0.196  20.399  25.753  1.00  0.00    -0.387 OA
ATOM     38  H   UNL     1       0.664  20.696  24.932  1.00  0.00     0.211 HD
ENDBRANCH  13  37
BRANCH  14  39
ATOM     39  O   UNL     1      -0.524  19.869  28.192  1.00  0.00    -0.387 OA
ATOM     40  H   UNL     1       0.410  19.561  28.149  1.00  0.00     0.211 HD
ENDBRANCH  14  39
ENDBRANCH   8   9
ENDBRANCH   7   8
ENDBRANCH   1   7
BRANCH   1  41
ATOM     41  C   UNL     1       3.097  20.908  30.600  1.00  0.00     0.364 C 
ATOM     42  O   UNL     1       3.129  19.641  30.876  1.00  0.00    -0.246 OA
BRANCH  41  43
ATOM     43  O   UNL     1       3.948  21.240  29.580  1.00  0.00    -0.477 OA
ATOM     44  H   UNL     1       4.955  21.361  29.687  1.00  0.00     0.296 HD
ENDBRANCH  41  43
ENDBRANCH   1  41
BRANCH   3  45
ATOM     45  O   UNL     1       3.419  21.479  34.912  1.00  0.00    -0.391 OA
ATOM     46  H   UNL     1       2.477  21.623  35.142  1.00  0.00     0.211 HD
ENDBRANCH   3  45
BRANCH   5  47
ATOM     47  C   UNL     1       4.089  24.861  31.815  1.00  0.00     0.176 C 
BRANCH  47  48
ATOM     48  O   UNL     1       5.429  25.145  31.586  1.00  0.00    -0.388 OA
ATOM     49  H   UNL     1       5.565  25.861  30.932  1.00  0.00     0.211 HD
ENDBRANCH  47  48
BRANCH  47  50
ATOM     50  C   UNL     1       3.609  25.453  33.059  1.00  0.00     0.165 C 
BRANCH  50  51
ATOM     51  O   UNL     1       2.162  25.437  32.976  1.00  0.00    -0.388 OA
ATOM     52  H   UNL     1       1.884  24.670  32.420  1.00  0.00     0.211 HD
ENDBRANCH  50  51
BRANCH  50  53
ATOM     53  C   UNL     1       4.001  26.812  33.451  1.00  0.00     0.154 C 
BRANCH  53  54
ATOM     54  N   UNL     1       5.229  27.116  34.055  1.00  0.00    -0.319 N 
ATOM     55  C   UNL     1       6.360  27.716  33.449  1.00  0.00     0.407 C 
ATOM     56  H   UNL     1       5.338  26.867  35.097  1.00  0.00     0.167 HD
ATOM     57  O   UNL     1       6.343  28.083  32.258  1.00  0.00    -0.225 OA
BRANCH  55  58
ATOM     58  O   UNL     1       7.525  27.893  34.230  1.00  0.00    -0.443 OA
BRANCH  58  59
ATOM     59  C   UNL     1       8.780  27.759  33.614  1.00  0.00     0.294 C 
BRANCH  59  60
ATOM     60  C   UNL     1       9.543  26.701  34.319  1.00  0.00     0.120 A 
ATOM     61  C   UNL     1       9.324  26.270  35.639  1.00  0.00     0.138 A 
ATOM     62  N   UNL     1      10.560  25.935  33.899  1.00  0.00    -0.132 NA
ATOM     63  N   UNL     1      10.192  25.291  35.947  1.00  0.00    -0.249 N 
ATOM     64  N   UNL     1      10.925  25.110  34.880  1.00  0.00    -0.067 NA
BRANCH  63  65
ATOM     65  C   UNL     1      10.284  24.591  37.206  1.00  0.00     0.111 C 
ATOM     66  C   UNL     1       9.103  24.997  38.041  1.00  0.00     0.043 C 
ATOM     67  C   UNL     1      10.277  23.097  37.029  1.00  0.00     0.043 C 
ATOM     68  C   UNL     1       8.077  23.888  38.026  1.00  0.00     0.086 C 
ATOM     69  C   UNL     1       9.902  22.354  38.283  1.00  0.00     0.086 C 
ATOM     70  N   UNL     1       8.618  22.774  38.805  1.00  0.00    -0.306 NA
ATOM     71  C   UNL     1       8.789  23.237  40.171  1.00  0.00     0.105 C 
ENDBRANCH  63  65
ENDBRANCH  59  60
ENDBRANCH  58  59
ENDBRANCH  55  58
ENDBRANCH  53  54
ENDBRANCH  50  53
ENDBRANCH  47  50
ENDBRANCH   5  47
BRANCH   4  72
ATOM     72  N   UNL     1       5.778  22.552  33.136  1.00  0.00    -0.348 N 
ATOM     73  C   UNL     1       6.558  23.288  34.057  1.00  0.00     0.217 C 
ATOM     74  H   UNL     1       6.264  21.883  32.491  1.00  0.00     0.163 HD
ATOM     75  C   UNL     1       8.047  23.130  34.120  1.00  0.00     0.114 C 
ATOM     76  O   UNL     1       5.996  24.105  34.854  1.00  0.00    -0.275 OA
ENDBRANCH   4  72
TORSDOF 30
