REMARK VINA RESULT:    -6.776      2.592      6.508
REMARK INTER + INTRA:         -23.306
REMARK INTER:                 -16.726
REMARK INTRA:                  -6.580
REMARK UNBOUND:                -6.033
REMARK SMILES CC(=O)N[C@@H]1[C@@H](O)C[C@](OC[C@H]2O[C@@H](O[C@H]3[C@H](O)[C@@H](O)[C@H](OCCN=[N+]=[N-])O[C@@H]3CO)[C@H](O)[C@@H](O)[C@H]2O)(C(=O)O)O[C@H]1C(O)[C@H](O)CNC(=O)OCc1cn(-c2cccc(S(N)(=O)=O)c2)nn1
REMARK SMILES IDX 9 1 8 2 6 3 5 4 42 5 41 6 10 7 11 8 12 9 14 10 13 11 32 12
REMARK SMILES IDX 34 13 36 14 15 15 16 16 29 17 28 18 21 19 17 20 19 21 30 22
REMARK SMILES IDX 31 23 22 25 23 26 24 27 25 28 26 29 27 30 18 31 20 33 33 35
REMARK SMILES IDX 35 37 37 39 38 41 39 42 40 43 7 45 43 47 44 48 45 50 46 51
REMARK SMILES IDX 47 53 48 54 49 55 50 57 51 58 52 59 53 60 54 61 67 62 55 63
REMARK SMILES IDX 66 64 56 65 65 66 57 67 60 68 58 69 59 70 61 71 63 72 64 73
REMARK SMILES IDX 62 74 4 77 2 78 1 80 3 81
REMARK H PARENT 31 24 18 32 20 34 33 36 35 38 37 40 40 44 7 46 44 49 46 52
REMARK H PARENT 48 56 62 75 62 76 4 79
REMARK Flexibility Score: inf
ROOT
ATOM      1  C   UNL     1       1.073  22.209  27.012  1.00  0.00     0.272 C 
ATOM      2  C   UNL     1       2.612  22.274  27.054  1.00  0.00     0.113 C 
ATOM      3  C   UNL     1       3.033  23.569  26.453  1.00  0.00     0.145 C 
ATOM      4  C   UNL     1       2.444  24.717  27.193  1.00  0.00     0.142 C 
ATOM      5  C   UNL     1       1.101  24.423  27.760  1.00  0.00     0.178 C 
ATOM      6  O   UNL     1       0.583  23.190  27.765  1.00  0.00    -0.332 OA
ENDROOT
BRANCH   1   7
ATOM      7  O   UNL     1       0.800  20.932  27.572  1.00  0.00    -0.338 OA
BRANCH   7   8
ATOM      8  C   UNL     1       0.052  21.099  28.696  1.00  0.00     0.199 C 
BRANCH   8   9
ATOM      9  C   UNL     1       0.749  20.612  29.947  1.00  0.00     0.179 C 
ATOM     10  C   UNL     1       2.320  21.260  31.402  1.00  0.00     0.282 C 
ATOM     11  O   UNL     1       1.114  21.669  30.778  1.00  0.00    -0.341 OA
ATOM     12  C   UNL     1       2.224  19.880  31.941  1.00  0.00     0.202 C 
ATOM     13  C   UNL     1       0.830  19.308  31.989  1.00  0.00     0.179 C 
ATOM     14  C   UNL     1       0.011  19.612  30.748  1.00  0.00     0.177 C 
BRANCH  10  15
ATOM     15  O   UNL     1       2.791  22.223  32.258  1.00  0.00    -0.341 OA
BRANCH  15  16
ATOM     16  C   UNL     1       3.673  21.780  33.215  1.00  0.00     0.184 C 
ATOM     17  C   UNL     1       3.535  22.637  34.450  1.00  0.00     0.178 C 
ATOM     18  O   UNL     1       4.792  22.945  34.986  1.00  0.00    -0.341 OA
ATOM     19  C   UNL     1       5.382  23.880  34.170  1.00  0.00     0.281 C 
ATOM     20  C   UNL     1       5.059  21.898  32.622  1.00  0.00     0.180 C 
ATOM     21  C   UNL     1       5.694  23.231  32.860  1.00  0.00     0.202 C 
BRANCH  17  22
ATOM     22  C   UNL     1       2.744  21.998  35.546  1.00  0.00     0.191 C 
BRANCH  22  23
ATOM     23  O   UNL     1       3.119  20.651  35.726  1.00  0.00    -0.394 OA
ATOM     24  H   UNL     1       4.052  20.580  36.039  1.00  0.00     0.210 HD
ENDBRANCH  22  23
ENDBRANCH  17  22
BRANCH  19  25
ATOM     25  O   UNL     1       6.564  24.391  34.707  1.00  0.00    -0.350 OA
BRANCH  25  26
ATOM     26  C   UNL     1       7.690  23.669  34.418  1.00  0.00     0.169 C 
BRANCH  26  27
ATOM     27  C   UNL     1       8.930  24.110  35.166  1.00  0.00     0.119 C 
BRANCH  27  28
ATOM     28  N   UNL     1      10.066  24.245  34.275  1.00  0.00    -0.092 NA
ATOM     29  N   UNL     1      10.461  25.334  33.869  1.00  0.00     0.001 N 
ATOM     30  N   UNL     1      10.926  26.359  33.401  1.00  0.00    -0.003 NA
ENDBRANCH  27  28
ENDBRANCH  26  27
ENDBRANCH  25  26
ENDBRANCH  19  25
BRANCH  20  31
ATOM     31  O   UNL     1       5.882  20.925  33.219  1.00  0.00    -0.387 OA
ATOM     32  H   UNL     1       6.839  21.071  33.018  1.00  0.00     0.211 HD
ENDBRANCH  20  31
BRANCH  21  33
ATOM     33  O   UNL     1       5.318  24.136  31.840  1.00  0.00    -0.385 OA
ATOM     34  H   UNL     1       4.943  23.599  31.103  1.00  0.00     0.211 HD
ENDBRANCH  21  33
ENDBRANCH  15  16
ENDBRANCH  10  15
BRANCH  12  35
ATOM     35  O   UNL     1       3.111  18.973  31.312  1.00  0.00    -0.385 OA
ATOM     36  H   UNL     1       3.689  18.647  32.073  1.00  0.00     0.211 HD
ENDBRANCH  12  35
BRANCH  13  37
ATOM     37  O   UNL     1       0.182  19.619  33.169  1.00  0.00    -0.387 OA
ATOM     38  H   UNL     1       0.875  20.050  33.764  1.00  0.00     0.211 HD
ENDBRANCH  13  37
BRANCH  14  39
ATOM     39  O   UNL     1      -1.193  20.178  31.183  1.00  0.00    -0.387 OA
ATOM     40  H   UNL     1      -1.801  19.502  31.574  1.00  0.00     0.211 HD
ENDBRANCH  14  39
ENDBRANCH   8   9
ENDBRANCH   7   8
ENDBRANCH   1   7
BRANCH   1  41
ATOM     41  C   UNL     1       0.713  22.204  25.572  1.00  0.00     0.364 C 
ATOM     42  O   UNL     1       1.154  21.242  24.844  1.00  0.00    -0.246 OA
BRANCH  41  43
ATOM     43  O   UNL     1      -0.051  23.124  24.916  1.00  0.00    -0.477 OA
ATOM     44  H   UNL     1       0.336  23.981  24.502  1.00  0.00     0.296 HD
ENDBRANCH  41  43
ENDBRANCH   1  41
BRANCH   3  45
ATOM     45  O   UNL     1       4.454  23.586  26.540  1.00  0.00    -0.391 OA
ATOM     46  H   UNL     1       4.633  23.464  27.525  1.00  0.00     0.211 HD
ENDBRANCH   3  45
BRANCH   5  47
ATOM     47  C   UNL     1       1.070  25.004  29.194  1.00  0.00     0.176 C 
BRANCH  47  48
ATOM     48  O   UNL     1       0.378  26.200  29.168  1.00  0.00    -0.388 OA
ATOM     49  H   UNL     1       0.884  26.978  28.878  1.00  0.00     0.211 HD
ENDBRANCH  47  48
BRANCH  47  50
ATOM     50  C   UNL     1       2.433  25.048  29.767  1.00  0.00     0.165 C 
BRANCH  50  51
ATOM     51  O   UNL     1       2.884  23.746  29.972  1.00  0.00    -0.388 OA
ATOM     52  H   UNL     1       3.460  23.548  29.179  1.00  0.00     0.211 HD
ENDBRANCH  50  51
BRANCH  50  53
ATOM     53  C   UNL     1       2.479  25.759  31.109  1.00  0.00     0.154 C 
BRANCH  53  54
ATOM     54  N   UNL     1       3.094  27.050  30.910  1.00  0.00    -0.319 N 
ATOM     55  C   UNL     1       4.070  27.526  31.864  1.00  0.00     0.407 C 
ATOM     56  H   UNL     1       2.859  27.668  30.100  1.00  0.00     0.167 HD
ATOM     57  O   UNL     1       4.391  26.834  32.864  1.00  0.00    -0.225 OA
BRANCH  55  58
ATOM     58  O   UNL     1       4.620  28.765  31.610  1.00  0.00    -0.443 OA
BRANCH  58  59
ATOM     59  C   UNL     1       3.837  29.830  31.159  1.00  0.00     0.294 C 
BRANCH  59  60
ATOM     60  C   UNL     1       4.127  30.171  29.759  1.00  0.00     0.121 A 
ATOM     61  C   UNL     1       5.165  29.593  29.013  1.00  0.00     0.144 A 
ATOM     62  N   UNL     1       3.521  31.032  28.951  1.00  0.00    -0.131 NA
ATOM     63  N   UNL     1       5.127  30.136  27.802  1.00  0.00    -0.220 N 
ATOM     64  N   UNL     1       4.142  30.988  27.786  1.00  0.00    -0.062 NA
BRANCH  63  65
ATOM     65  C   UNL     1       6.032  29.789  26.744  1.00  0.00     0.068 A 
ATOM     66  C   UNL     1       6.307  28.439  26.510  1.00  0.00     0.050 A 
ATOM     67  C   UNL     1       6.615  30.751  25.976  1.00  0.00     0.028 A 
ATOM     68  C   UNL     1       7.164  28.055  25.509  1.00  0.00     0.084 A 
ATOM     69  C   UNL     1       7.465  30.383  24.983  1.00  0.00     0.004 A 
ATOM     70  C   UNL     1       7.755  29.040  24.730  1.00  0.00     0.022 A 
BRANCH  68  71
ATOM     71  S   UNL     1       7.551  26.394  25.162  1.00  0.00     0.238 S 
ATOM     72  O   UNL     1       8.108  26.311  23.768  1.00  0.00    -0.207 OA
ATOM     73  O   UNL     1       6.324  25.545  25.240  1.00  0.00    -0.207 OA
BRANCH  71  74
ATOM     74  N   UNL     1       8.738  25.849  26.311  1.00  0.00    -0.225 NA
ATOM     75  H   UNL     1       9.067  24.902  26.020  1.00  0.00     0.137 HD
ATOM     76  H   UNL     1       8.380  25.895  27.288  1.00  0.00     0.137 HD
ENDBRANCH  71  74
ENDBRANCH  68  71
ENDBRANCH  63  65
ENDBRANCH  59  60
ENDBRANCH  58  59
ENDBRANCH  55  58
ENDBRANCH  53  54
ENDBRANCH  50  53
ENDBRANCH  47  50
ENDBRANCH   5  47
BRANCH   4  77
ATOM     77  N   UNL     1       2.312  25.823  26.230  1.00  0.00    -0.348 N 
ATOM     78  C   UNL     1       2.602  27.172  26.565  1.00  0.00     0.217 C 
ATOM     79  H   UNL     1       1.992  25.615  25.262  1.00  0.00     0.163 HD
ATOM     80  C   UNL     1       2.452  28.244  25.549  1.00  0.00     0.114 C 
ATOM     81  O   UNL     1       2.988  27.421  27.745  1.00  0.00    -0.275 OA
ENDBRANCH   4  77
TORSDOF 32
