REMARK VINA RESULT:    -7.761      7.539     13.363
REMARK INTER + INTRA:         -18.749
REMARK INTER:                 -13.683
REMARK INTRA:                  -5.066
REMARK UNBOUND:                 3.076
REMARK SMILES CC(=O)N[C@@H]1[C@@H](O)C[C@](OC[C@H]2O[C@@H](O[C@H]3[C@H](O)[C@@H](O)[C@H](OCCN=[N+]=[N-])O[C@@H]3CO)[C@H](O)[C@@H](O)[C@H]2O)(C(=O)O)O[C@H]1C(O)[C@H](O)CNC(=O)OCc1cn(C2CC(O)C=C[C@@H](O)C2)nn1
REMARK SMILES IDX 43 1 42 2 9 3 8 4 41 5 6 6 5 7 10 8 11 9 12 10 14 11 13 12
REMARK SMILES IDX 32 13 34 14 36 15 15 16 16 17 29 18 28 19 21 20 17 21 19 22
REMARK SMILES IDX 30 23 31 24 22 26 23 27 24 28 25 29 26 30 27 31 18 32 20 34
REMARK SMILES IDX 33 36 35 38 37 40 38 42 39 43 40 44 7 46 4 48 2 49 1 51 3 52
REMARK SMILES IDX 44 53 45 55 46 56 47 58 48 59 49 60 50 62 51 63 52 64 53 65
REMARK SMILES IDX 54 66 66 67 55 68 65 69 56 70 57 71 58 72 59 74 64 76 62 77
REMARK SMILES IDX 61 78 60 79 63 81
REMARK H PARENT 31 25 18 33 20 35 33 37 35 39 37 41 40 45 7 47 4 50 44 54
REMARK H PARENT 46 57 48 61 59 75 63 82
REMARK Flexibility Score: 90.00
ROOT
ATOM      1  C   UNL     1      22.558  26.646  19.935  1.00  0.00     0.176 C 
ENDROOT
BRANCH   1   2
ATOM      2  C   UNL     1      23.776  26.640  20.842  1.00  0.00     0.178 C 
ATOM      3  C   UNL     1      24.549  25.343  22.646  1.00  0.00     0.272 C 
ATOM      4  C   UNL     1      25.495  26.408  23.062  1.00  0.00     0.113 C 
ATOM      5  O   UNL     1      23.524  25.649  21.833  1.00  0.00    -0.332 OA
ATOM      6  C   UNL     1      25.510  27.609  22.188  1.00  0.00     0.145 C 
ATOM      7  C   UNL     1      24.089  27.861  21.593  1.00  0.00     0.142 C 
BRANCH   3   8
ATOM      8  O   UNL     1      24.109  24.676  23.808  1.00  0.00    -0.338 OA
BRANCH   8   9
ATOM      9  C   UNL     1      22.799  24.292  23.789  1.00  0.00     0.199 C 
BRANCH   9  10
ATOM     10  C   UNL     1      22.031  24.911  24.958  1.00  0.00     0.179 C 
ATOM     11  C   UNL     1      22.450  26.750  26.290  1.00  0.00     0.282 C 
ATOM     12  O   UNL     1      22.926  25.552  25.754  1.00  0.00    -0.341 OA
ATOM     13  C   UNL     1      22.268  27.657  25.088  1.00  0.00     0.202 C 
ATOM     14  C   UNL     1      21.037  27.154  24.368  1.00  0.00     0.179 C 
ATOM     15  C   UNL     1      20.838  25.678  24.503  1.00  0.00     0.177 C 
BRANCH  11  16
ATOM     16  O   UNL     1      23.356  27.220  27.211  1.00  0.00    -0.341 OA
BRANCH  16  17
ATOM     17  C   UNL     1      22.736  27.346  28.457  1.00  0.00     0.184 C 
ATOM     18  C   UNL     1      23.528  28.277  29.340  1.00  0.00     0.178 C 
ATOM     19  O   UNL     1      24.674  27.735  29.864  1.00  0.00    -0.341 OA
ATOM     20  C   UNL     1      24.829  26.375  29.608  1.00  0.00     0.281 C 
ATOM     21  C   UNL     1      22.469  26.018  29.111  1.00  0.00     0.180 C 
ATOM     22  C   UNL     1      23.578  25.622  30.047  1.00  0.00     0.202 C 
BRANCH  18  23
ATOM     23  C   UNL     1      22.655  28.829  30.460  1.00  0.00     0.191 C 
BRANCH  23  24
ATOM     24  O   UNL     1      21.371  29.107  30.032  1.00  0.00    -0.394 OA
ATOM     25  H   UNL     1      21.110  30.030  30.177  1.00  0.00     0.210 HD
ENDBRANCH  23  24
ENDBRANCH  18  23
BRANCH  20  26
ATOM     26  O   UNL     1      25.925  25.964  30.360  1.00  0.00    -0.350 OA
BRANCH  26  27
ATOM     27  C   UNL     1      27.042  25.931  29.533  1.00  0.00     0.169 C 
BRANCH  27  28
ATOM     28  C   UNL     1      27.365  27.310  28.984  1.00  0.00     0.119 C 
BRANCH  28  29
ATOM     29  N   UNL     1      27.719  27.236  27.582  1.00  0.00    -0.092 NA
ATOM     30  N   UNL     1      27.030  27.855  26.755  1.00  0.00     0.001 N 
ATOM     31  N   UNL     1      26.207  28.429  26.028  1.00  0.00    -0.003 NA
ENDBRANCH  28  29
ENDBRANCH  27  28
ENDBRANCH  26  27
ENDBRANCH  20  26
BRANCH  21  32
ATOM     32  O   UNL     1      21.258  26.055  29.802  1.00  0.00    -0.387 OA
ATOM     33  H   UNL     1      20.486  26.139  29.192  1.00  0.00     0.211 HD
ENDBRANCH  21  32
BRANCH  22  34
ATOM     34  O   UNL     1      23.817  24.254  29.990  1.00  0.00    -0.385 OA
ATOM     35  H   UNL     1      23.000  23.765  29.708  1.00  0.00     0.211 HD
ENDBRANCH  22  34
ENDBRANCH  16  17
ENDBRANCH  11  16
BRANCH  13  36
ATOM     36  O   UNL     1      22.132  28.984  25.395  1.00  0.00    -0.385 OA
ATOM     37  H   UNL     1      22.418  29.236  26.287  1.00  0.00     0.211 HD
ENDBRANCH  13  36
BRANCH  14  38
ATOM     38  O   UNL     1      21.153  27.566  23.041  1.00  0.00    -0.387 OA
ATOM     39  H   UNL     1      20.305  27.403  22.542  1.00  0.00     0.211 HD
ENDBRANCH  14  38
BRANCH  15  40
ATOM     40  O   UNL     1      20.444  25.131  23.266  1.00  0.00    -0.387 OA
ATOM     41  H   UNL     1      20.261  25.797  22.588  1.00  0.00     0.211 HD
ENDBRANCH  15  40
ENDBRANCH   9  10
ENDBRANCH   8   9
ENDBRANCH   3   8
BRANCH   3  42
ATOM     42  C   UNL     1      25.383  24.318  21.908  1.00  0.00     0.364 C 
ATOM     43  O   UNL     1      25.067  23.885  20.768  1.00  0.00    -0.246 OA
BRANCH  42  44
ATOM     44  O   UNL     1      26.531  23.858  22.532  1.00  0.00    -0.477 OA
ATOM     45  H   UNL     1      26.536  23.631  23.526  1.00  0.00     0.296 HD
ENDBRANCH  42  44
ENDBRANCH   3  42
BRANCH   6  46
ATOM     46  O   UNL     1      25.944  28.725  22.858  1.00  0.00    -0.391 OA
ATOM     47  H   UNL     1      25.954  29.500  22.256  1.00  0.00     0.211 HD
ENDBRANCH   6  46
BRANCH   7  48
ATOM     48  N   UNL     1      24.076  29.132  20.979  1.00  0.00    -0.348 N 
ATOM     49  C   UNL     1      23.444  30.228  21.620  1.00  0.00     0.217 C 
ATOM     50  H   UNL     1      24.550  29.296  20.072  1.00  0.00     0.163 HD
ATOM     51  C   UNL     1      23.418  31.575  20.992  1.00  0.00     0.114 C 
ATOM     52  O   UNL     1      22.896  30.062  22.735  1.00  0.00    -0.275 OA
ENDBRANCH   7  48
ENDBRANCH   1   2
BRANCH   1  53
ATOM     53  O   UNL     1      21.571  26.023  20.819  1.00  0.00    -0.388 OA
ATOM     54  H   UNL     1      21.792  25.041  20.863  1.00  0.00     0.211 HD
ENDBRANCH   1  53
BRANCH   1  55
ATOM     55  C   UNL     1      22.619  25.646  18.815  1.00  0.00     0.165 C 
BRANCH  55  56
ATOM     56  O   UNL     1      22.521  24.352  19.266  1.00  0.00    -0.388 OA
ATOM     57  H   UNL     1      22.772  24.235  20.209  1.00  0.00     0.211 HD
ENDBRANCH  55  56
BRANCH  55  58
ATOM     58  C   UNL     1      23.947  25.747  18.073  1.00  0.00     0.154 C 
BRANCH  58  59
ATOM     59  N   UNL     1      24.172  24.697  17.132  1.00  0.00    -0.319 N 
ATOM     60  C   UNL     1      24.708  24.922  15.834  1.00  0.00     0.407 C 
ATOM     61  H   UNL     1      23.933  23.694  17.395  1.00  0.00     0.167 HD
ATOM     62  O   UNL     1      24.984  26.119  15.531  1.00  0.00    -0.225 OA
BRANCH  60  63
ATOM     63  O   UNL     1      24.905  23.870  14.969  1.00  0.00    -0.443 OA
BRANCH  63  64
ATOM     64  C   UNL     1      24.993  22.535  15.459  1.00  0.00     0.294 C 
BRANCH  64  65
ATOM     65  C   UNL     1      24.338  21.647  14.474  1.00  0.00     0.120 A 
ATOM     66  C   UNL     1      23.464  21.983  13.473  1.00  0.00     0.138 A 
ATOM     67  N   UNL     1      24.495  20.313  14.405  1.00  0.00    -0.132 NA
ATOM     68  N   UNL     1      23.118  20.840  12.831  1.00  0.00    -0.249 N 
ATOM     69  N   UNL     1      23.758  19.850  13.418  1.00  0.00    -0.067 NA
BRANCH  68  70
ATOM     70  C   UNL     1      22.197  20.720  11.692  1.00  0.00     0.115 C 
BRANCH  70  71
ATOM     71  C   UNL     1      22.865  19.927  10.620  1.00  0.00     0.063 C 
BRANCH  71  72
ATOM     72  C   UNL     1      22.260  20.312   9.267  1.00  0.00     0.139 CG0
ATOM     73  G   UNL     1      20.937  19.681   9.135  1.00  0.00     0.000 G0
BRANCH  72  74
ATOM     74  O   UNL     1      23.114  19.921   8.237  1.00  0.00    -0.389 OA
ATOM     75  H   UNL     1      22.739  19.089   7.829  1.00  0.00     0.211 HD
ENDBRANCH  72  74
ENDBRANCH  71  72
ENDBRANCH  70  71
BRANCH  70  76
ATOM     76  C   UNL     1      20.943  20.054  12.165  1.00  0.00     0.063 C 
BRANCH  76  77
ATOM     77  C   UNL     1      19.824  20.503  11.218  1.00  0.00     0.139 C 
BRANCH  77  78
ATOM     78  C   UNL     1      19.904  19.729   9.950  1.00  0.00     0.002 C 
ATOM     79  C   UNL     1      20.947  19.670   9.135  1.00  0.00     0.002 CG0
ATOM     80  G   UNL     1      22.263  20.320   9.242  1.00  0.00     0.000 G0
ENDBRANCH  77  78
BRANCH  77  81
ATOM     81  O   UNL     1      18.576  20.385  11.808  1.00  0.00    -0.389 OA
ATOM     82  H   UNL     1      18.067  19.696  11.295  1.00  0.00     0.211 HD
ENDBRANCH  77  81
ENDBRANCH  76  77
ENDBRANCH  70  76
ENDBRANCH  68  70
ENDBRANCH  64  65
ENDBRANCH  63  64
ENDBRANCH  60  63
ENDBRANCH  58  59
ENDBRANCH  55  58
ENDBRANCH   1  55
TORSDOF 32
