REMARK VINA RESULT:    -7.092     13.331     19.816
REMARK INTER + INTRA:         -26.488
REMARK INTER:                 -19.085
REMARK INTRA:                  -7.402
REMARK UNBOUND:                -7.995
REMARK SMILES CC(=O)N[C@@H]1[C@@H](O)C[C@](OC[C@H]2O[C@@H](O[C@H]3[C@H](O)[C@@H](O)[C@H](OCCN=[N+]=[N-])O[C@@H]3CO)[C@H](O)[C@@H](O)[C@H]2O)(C(=O)O)O[C@H]1C(O)[C@H](O)CNC(=O)OCc1cn(-c2ccc(-c3c4ccc(=O)cc-4oc4cc(O)ccc34)c(C(=O)[O-])c2)nn1
REMARK SMILES IDX 9 1 8 2 6 3 5 4 42 5 41 6 10 7 11 8 12 9 14 10 13 11 32 12
REMARK SMILES IDX 34 13 36 14 15 15 16 16 29 17 28 18 21 19 17 20 19 21 30 22
REMARK SMILES IDX 31 23 22 25 23 26 24 27 25 28 26 29 27 30 18 31 20 33 33 35
REMARK SMILES IDX 35 37 37 39 38 41 39 42 40 43 7 45 43 47 44 48 45 50 46 51
REMARK SMILES IDX 47 53 48 54 49 55 50 57 51 58 52 59 53 60 54 61 82 62 55 63
REMARK SMILES IDX 81 64 56 65 80 66 57 67 76 68 58 69 59 70 77 71 78 72 79 73
REMARK SMILES IDX 60 74 75 75 61 76 74 77 69 78 67 79 62 80 73 81 70 82 68 83
REMARK SMILES IDX 66 84 63 85 71 86 64 87 65 88 72 89 4 91 2 92 1 94 3 95
REMARK H PARENT 31 24 18 32 20 34 33 36 35 38 37 40 40 44 7 46 44 49 46 52
REMARK H PARENT 48 56 72 90 4 93
REMARK Flexibility Score: inf
ROOT
ATOM      1  C   UNL     1       5.116  26.693  34.886  1.00  0.00     0.272 C 
ATOM      2  C   UNL     1       4.815  25.619  35.901  1.00  0.00     0.113 C 
ATOM      3  C   UNL     1       5.204  24.242  35.443  1.00  0.00     0.145 C 
ATOM      4  C   UNL     1       5.417  24.293  33.951  1.00  0.00     0.142 C 
ATOM      5  C   UNL     1       4.278  25.096  33.380  1.00  0.00     0.178 C 
ATOM      6  O   UNL     1       4.469  26.428  33.654  1.00  0.00    -0.332 OA
ENDROOT
BRANCH   1   7
ATOM      7  O   UNL     1       6.440  26.947  34.656  1.00  0.00    -0.338 OA
BRANCH   7   8
ATOM      8  C   UNL     1       7.183  27.135  35.767  1.00  0.00     0.199 C 
BRANCH   8   9
ATOM      9  C   UNL     1       8.573  27.696  35.434  1.00  0.00     0.179 C 
ATOM     10  C   UNL     1      10.818  27.293  35.770  1.00  0.00     0.282 C 
ATOM     11  O   UNL     1       9.538  27.223  36.244  1.00  0.00    -0.341 OA
ATOM     12  C   UNL     1      11.082  28.388  34.811  1.00  0.00     0.202 C 
ATOM     13  C   UNL     1      10.078  28.438  33.683  1.00  0.00     0.179 C 
ATOM     14  C   UNL     1       8.896  27.533  33.995  1.00  0.00     0.177 C 
BRANCH  10  15
ATOM     15  O   UNL     1      11.169  26.005  35.366  1.00  0.00    -0.341 OA
BRANCH  15  16
ATOM     16  C   UNL     1      10.998  25.064  36.328  1.00  0.00     0.184 C 
ATOM     17  C   UNL     1      12.293  24.501  36.826  1.00  0.00     0.178 C 
ATOM     18  O   UNL     1      12.106  23.885  38.071  1.00  0.00    -0.341 OA
ATOM     19  C   UNL     1      10.943  23.123  38.087  1.00  0.00     0.281 C 
ATOM     20  C   UNL     1      10.212  23.836  35.832  1.00  0.00     0.180 C 
ATOM     21  C   UNL     1      10.540  22.663  36.732  1.00  0.00     0.202 C 
BRANCH  17  22
ATOM     22  C   UNL     1      13.309  25.590  36.987  1.00  0.00     0.191 C 
BRANCH  22  23
ATOM     23  O   UNL     1      14.057  25.684  35.811  1.00  0.00    -0.394 OA
ATOM     24  H   UNL     1      14.617  24.878  35.765  1.00  0.00     0.210 HD
ENDBRANCH  22  23
ENDBRANCH  17  22
BRANCH  19  25
ATOM     25  O   UNL     1       9.920  23.784  38.733  1.00  0.00    -0.350 OA
BRANCH  25  26
ATOM     26  C   UNL     1       9.085  22.956  39.474  1.00  0.00     0.169 C 
BRANCH  26  27
ATOM     27  C   UNL     1       7.683  23.517  39.323  1.00  0.00     0.119 C 
BRANCH  27  28
ATOM     28  N   UNL     1       7.676  24.757  38.594  1.00  0.00    -0.092 NA
ATOM     29  N   UNL     1       6.989  25.694  39.022  1.00  0.00     0.001 N 
ATOM     30  N   UNL     1       6.596  26.801  39.391  1.00  0.00    -0.003 NA
ENDBRANCH  27  28
ENDBRANCH  26  27
ENDBRANCH  25  26
ENDBRANCH  19  25
BRANCH  20  31
ATOM     31  O   UNL     1       8.865  24.137  36.010  1.00  0.00    -0.387 OA
ATOM     32  H   UNL     1       8.262  23.616  35.437  1.00  0.00     0.211 HD
ENDBRANCH  20  31
BRANCH  21  33
ATOM     33  O   UNL     1      11.463  21.783  36.164  1.00  0.00    -0.385 OA
ATOM     34  H   UNL     1      11.836  22.272  35.367  1.00  0.00     0.211 HD
ENDBRANCH  21  33
ENDBRANCH  15  16
ENDBRANCH  10  15
BRANCH  12  35
ATOM     35  O   UNL     1      11.098  29.639  35.479  1.00  0.00    -0.385 OA
ATOM     36  H   UNL     1      11.289  30.353  34.801  1.00  0.00     0.211 HD
ENDBRANCH  12  35
BRANCH  13  37
ATOM     37  O   UNL     1      10.651  28.169  32.452  1.00  0.00    -0.387 OA
ATOM     38  H   UNL     1      11.367  27.506  32.589  1.00  0.00     0.211 HD
ENDBRANCH  13  37
BRANCH  14  39
ATOM     39  O   UNL     1       9.242  26.242  33.618  1.00  0.00    -0.387 OA
ATOM     40  H   UNL     1       8.657  25.638  34.163  1.00  0.00     0.211 HD
ENDBRANCH  14  39
ENDBRANCH   8   9
ENDBRANCH   7   8
ENDBRANCH   1   7
BRANCH   1  41
ATOM     41  C   UNL     1       4.371  27.914  35.390  1.00  0.00     0.364 C 
ATOM     42  O   UNL     1       4.234  28.959  34.728  1.00  0.00    -0.246 OA
BRANCH  41  43
ATOM     43  O   UNL     1       3.796  27.900  36.657  1.00  0.00    -0.477 OA
ATOM     44  H   UNL     1       4.369  27.926  37.489  1.00  0.00     0.296 HD
ENDBRANCH  41  43
ENDBRANCH   1  41
BRANCH   3  45
ATOM     45  O   UNL     1       6.304  23.812  36.160  1.00  0.00    -0.391 OA
ATOM     46  H   UNL     1       7.020  23.601  35.510  1.00  0.00     0.211 HD
ENDBRANCH   3  45
BRANCH   5  47
ATOM     47  C   UNL     1       4.248  24.977  31.853  1.00  0.00     0.176 C 
BRANCH  47  48
ATOM     48  O   UNL     1       5.482  25.470  31.363  1.00  0.00    -0.388 OA
ATOM     49  H   UNL     1       6.169  25.508  32.047  1.00  0.00     0.211 HD
ENDBRANCH  47  48
BRANCH  47  50
ATOM     50  C   UNL     1       3.195  25.859  31.268  1.00  0.00     0.165 C 
BRANCH  50  51
ATOM     51  O   UNL     1       2.004  25.716  31.982  1.00  0.00    -0.388 OA
ATOM     52  H   UNL     1       2.177  25.143  32.772  1.00  0.00     0.211 HD
ENDBRANCH  50  51
BRANCH  50  53
ATOM     53  C   UNL     1       2.966  25.709  29.806  1.00  0.00     0.154 C 
BRANCH  53  54
ATOM     54  N   UNL     1       3.805  26.593  29.028  1.00  0.00    -0.319 N 
ATOM     55  C   UNL     1       4.254  26.318  27.715  1.00  0.00     0.407 C 
ATOM     56  H   UNL     1       4.135  27.527  29.420  1.00  0.00     0.167 HD
ATOM     57  O   UNL     1       3.927  25.255  27.154  1.00  0.00    -0.225 OA
BRANCH  55  58
ATOM     58  O   UNL     1       5.062  27.192  26.998  1.00  0.00    -0.443 OA
BRANCH  58  59
ATOM     59  C   UNL     1       4.538  28.348  26.336  1.00  0.00     0.294 C 
BRANCH  59  60
ATOM     60  C   UNL     1       5.599  28.798  25.400  1.00  0.00     0.121 A 
ATOM     61  C   UNL     1       6.942  28.861  25.644  1.00  0.00     0.144 A 
ATOM     62  N   UNL     1       5.434  29.231  24.117  1.00  0.00    -0.131 NA
ATOM     63  N   UNL     1       7.571  29.321  24.542  1.00  0.00    -0.220 N 
ATOM     64  N   UNL     1       6.624  29.535  23.632  1.00  0.00    -0.062 NA
BRANCH  63  65
ATOM     65  C   UNL     1       8.970  29.521  24.408  1.00  0.00     0.067 A 
ATOM     66  C   UNL     1       9.496  30.687  23.904  1.00  0.00     0.039 A 
ATOM     67  C   UNL     1       9.821  28.518  24.800  1.00  0.00     0.029 A 
ATOM     68  C   UNL     1      10.860  30.833  23.799  1.00  0.00     0.007 A 
ATOM     69  C   UNL     1      11.188  28.669  24.694  1.00  0.00     0.012 A 
ATOM     70  C   UNL     1      11.737  29.826  24.192  1.00  0.00    -0.008 A 
BRANCH  68  71
ATOM     71  C   UNL     1      11.454  32.062  23.267  1.00  0.00     0.072 C 
ATOM     72  O   UNL     1      11.765  33.025  24.008  1.00  0.00    -0.545 OA
ATOM     73  O   UNL     1      11.680  32.168  21.916  1.00  0.00    -0.545 OA
ENDBRANCH  68  71
BRANCH  70  74
ATOM     74  C   UNL     1      13.174  29.994  24.079  1.00  0.00     0.004 A 
ATOM     75  C   UNL     1      13.864  30.539  25.134  1.00  0.00     0.026 A 
ATOM     76  C   UNL     1      13.866  29.630  22.953  1.00  0.00     0.026 A 
ATOM     77  C   UNL     1      13.253  30.934  26.301  1.00  0.00     0.016 A 
ATOM     78  C   UNL     1      15.239  30.697  25.008  1.00  0.00     0.139 A 
ATOM     79  C   UNL     1      15.331  29.818  22.867  1.00  0.00     0.139 A 
ATOM     80  C   UNL     1      13.246  29.079  21.860  1.00  0.00     0.016 A 
ATOM     81  C   UNL     1      13.958  31.482  27.357  1.00  0.00     0.047 A 
ATOM     82  C   UNL     1      15.932  31.242  26.061  1.00  0.00     0.093 A 
ATOM     83  O   UNL     1      15.897  30.345  23.921  1.00  0.00    -0.456 OA
ATOM     84  C   UNL     1      16.019  29.452  21.738  1.00  0.00     0.099 A 
ATOM     85  C   UNL     1      13.953  28.715  20.728  1.00  0.00     0.053 A 
ATOM     86  C   UNL     1      15.321  31.642  27.242  1.00  0.00     0.119 A 
ATOM     87  C   UNL     1      15.322  28.907  20.686  1.00  0.00     0.182 A 
ATOM     88  O   UNL     1      15.909  28.554  19.627  1.00  0.00    -0.290 OA
BRANCH  86  89
ATOM     89  O   UNL     1      16.020  32.192  28.306  1.00  0.00    -0.508 OA
ATOM     90  H   UNL     1      16.146  33.201  28.294  1.00  0.00     0.293 HD
ENDBRANCH  86  89
ENDBRANCH  70  74
ENDBRANCH  63  65
ENDBRANCH  59  60
ENDBRANCH  58  59
ENDBRANCH  55  58
ENDBRANCH  53  54
ENDBRANCH  50  53
ENDBRANCH  47  50
ENDBRANCH   5  47
BRANCH   4  91
ATOM     91  N   UNL     1       5.508  22.977  33.357  1.00  0.00    -0.348 N 
ATOM     92  C   UNL     1       6.784  22.420  33.141  1.00  0.00     0.217 C 
ATOM     93  H   UNL     1       4.673  22.416  33.079  1.00  0.00     0.163 HD
ATOM     94  C   UNL     1       6.995  21.080  32.538  1.00  0.00     0.114 C 
ATOM     95  O   UNL     1       7.847  23.057  33.459  1.00  0.00    -0.275 OA
ENDBRANCH   4  91
TORSDOF 33
