REMARK VINA RESULT:    -6.012      1.991      2.782
REMARK INTER + INTRA:         -21.698
REMARK INTER:                 -15.282
REMARK INTRA:                  -6.416
REMARK UNBOUND:                -6.197
REMARK SMILES CC(=O)N[C@@H]1[C@@H](O)C[C@](OC[C@H]2O[C@@H](O[C@H]3[C@H](O)[C@@H](O)[C@H](OCCN=[N+]=[N-])O[C@@H]3CO)[C@H](O)[C@@H](O)[C@H]2O)(C(=O)O)O[C@H]1C(O)[C@H](O)CNC(=O)OCc1cn(Cc2cccc(C#N)c2)nn1
REMARK SMILES IDX 9 1 8 2 6 3 5 4 42 5 41 6 10 7 11 8 12 9 14 10 13 11 32 12
REMARK SMILES IDX 34 13 36 14 15 15 16 16 29 17 28 18 21 19 17 20 19 21 30 22
REMARK SMILES IDX 31 23 22 25 23 26 24 27 25 28 26 29 27 30 18 31 20 33 33 35
REMARK SMILES IDX 35 37 37 39 38 41 39 42 40 43 7 45 43 47 44 48 45 50 46 51
REMARK SMILES IDX 47 53 48 54 49 55 50 57 51 58 52 59 53 60 54 61 66 62 55 63
REMARK SMILES IDX 65 64 56 65 57 66 58 67 64 68 59 69 61 70 60 71 62 72 63 73
REMARK SMILES IDX 4 74 2 75 1 77 3 78
REMARK H PARENT 31 24 18 32 20 34 33 36 35 38 37 40 40 44 7 46 44 49 46 52
REMARK H PARENT 48 56 4 76
REMARK Flexibility Score: inf
ROOT
ATOM      1  C   UNL     1      14.459  32.328  16.681  1.00  0.00     0.272 C 
ATOM      2  C   UNL     1      13.228  31.629  17.206  1.00  0.00     0.113 C 
ATOM      3  C   UNL     1      12.983  30.254  16.749  1.00  0.00     0.145 C 
ATOM      4  C   UNL     1      13.502  30.020  15.326  1.00  0.00     0.142 C 
ATOM      5  C   UNL     1      14.851  30.545  15.113  1.00  0.00     0.178 C 
ATOM      6  O   UNL     1      15.250  31.624  15.833  1.00  0.00    -0.332 OA
ENDROOT
BRANCH   1   7
ATOM      7  O   UNL     1      15.192  32.721  17.707  1.00  0.00    -0.338 OA
BRANCH   7   8
ATOM      8  C   UNL     1      16.187  32.560  18.439  1.00  0.00     0.199 C 
BRANCH   8   9
ATOM      9  C   UNL     1      16.340  31.626  19.606  1.00  0.00     0.179 C 
ATOM     10  C   UNL     1      15.142  30.546  21.180  1.00  0.00     0.282 C 
ATOM     11  O   UNL     1      15.040  31.051  19.877  1.00  0.00    -0.341 OA
ATOM     12  C   UNL     1      16.032  29.352  21.242  1.00  0.00     0.202 C 
ATOM     13  C   UNL     1      17.289  29.521  20.409  1.00  0.00     0.179 C 
ATOM     14  C   UNL     1      17.098  30.352  19.186  1.00  0.00     0.177 C 
BRANCH  10  15
ATOM     15  O   UNL     1      13.869  30.212  21.636  1.00  0.00    -0.341 OA
BRANCH  15  16
ATOM     16  C   UNL     1      13.387  31.099  22.563  1.00  0.00     0.184 C 
ATOM     17  C   UNL     1      12.820  30.433  23.763  1.00  0.00     0.178 C 
ATOM     18  O   UNL     1      12.256  31.301  24.669  1.00  0.00    -0.341 OA
ATOM     19  C   UNL     1      11.347  32.200  24.157  1.00  0.00     0.281 C 
ATOM     20  C   UNL     1      12.151  31.766  21.876  1.00  0.00     0.180 C 
ATOM     21  C   UNL     1      11.731  32.838  22.860  1.00  0.00     0.202 C 
BRANCH  17  22
ATOM     22  C   UNL     1      13.893  29.667  24.503  1.00  0.00     0.191 C 
BRANCH  22  23
ATOM     23  O   UNL     1      15.027  30.471  24.656  1.00  0.00    -0.394 OA
ATOM     24  H   UNL     1      15.693  30.330  23.963  1.00  0.00     0.210 HD
ENDBRANCH  22  23
ENDBRANCH  17  22
BRANCH  19  25
ATOM     25  O   UNL     1      11.252  33.250  25.095  1.00  0.00    -0.350 OA
BRANCH  25  26
ATOM     26  C   UNL     1      12.503  33.725  25.391  1.00  0.00     0.169 C 
BRANCH  26  27
ATOM     27  C   UNL     1      12.505  35.192  25.717  1.00  0.00     0.119 C 
BRANCH  27  28
ATOM     28  N   UNL     1      13.255  35.509  26.909  1.00  0.00    -0.092 NA
ATOM     29  N   UNL     1      13.285  34.680  27.829  1.00  0.00     0.001 N 
ATOM     30  N   UNL     1      13.319  33.970  28.860  1.00  0.00    -0.003 NA
ENDBRANCH  27  28
ENDBRANCH  26  27
ENDBRANCH  25  26
ENDBRANCH  19  25
BRANCH  20  31
ATOM     31  O   UNL     1      12.564  32.251  20.664  1.00  0.00    -0.387 OA
ATOM     32  H   UNL     1      13.418  31.827  20.361  1.00  0.00     0.211 HD
ENDBRANCH  20  31
BRANCH  21  33
ATOM     33  O   UNL     1      10.615  33.478  22.328  1.00  0.00    -0.385 OA
ATOM     34  H   UNL     1      10.926  34.373  22.004  1.00  0.00     0.211 HD
ENDBRANCH  21  33
ENDBRANCH  15  16
ENDBRANCH  10  15
BRANCH  12  35
ATOM     35  O   UNL     1      16.497  29.228  22.571  1.00  0.00    -0.385 OA
ATOM     36  H   UNL     1      17.434  29.545  22.559  1.00  0.00     0.211 HD
ENDBRANCH  12  35
BRANCH  13  37
ATOM     37  O   UNL     1      17.643  28.231  19.985  1.00  0.00    -0.387 OA
ATOM     38  H   UNL     1      18.413  28.219  19.385  1.00  0.00     0.211 HD
ENDBRANCH  13  37
BRANCH  14  39
ATOM     39  O   UNL     1      16.255  29.630  18.327  1.00  0.00    -0.387 OA
ATOM     40  H   UNL     1      15.848  30.197  17.644  1.00  0.00     0.211 HD
ENDBRANCH  14  39
ENDBRANCH   8   9
ENDBRANCH   7   8
ENDBRANCH   1   7
BRANCH   1  41
ATOM     41  C   UNL     1      13.952  33.490  15.867  1.00  0.00     0.364 C 
ATOM     42  O   UNL     1      14.658  34.546  15.728  1.00  0.00    -0.246 OA
BRANCH  41  43
ATOM     43  O   UNL     1      12.731  33.462  15.251  1.00  0.00    -0.477 OA
ATOM     44  H   UNL     1      12.171  32.600  15.357  1.00  0.00     0.296 HD
ENDBRANCH  41  43
ENDBRANCH   1  41
BRANCH   3  45
ATOM     45  O   UNL     1      13.595  29.348  17.602  1.00  0.00    -0.391 OA
ATOM     46  H   UNL     1      14.569  29.481  17.682  1.00  0.00     0.211 HD
ENDBRANCH   3  45
BRANCH   5  47
ATOM     47  C   UNL     1      15.973  29.553  15.340  1.00  0.00     0.176 C 
BRANCH  47  48
ATOM     48  O   UNL     1      15.343  28.276  15.159  1.00  0.00    -0.388 OA
ATOM     49  H   UNL     1      15.644  27.934  14.286  1.00  0.00     0.211 HD
ENDBRANCH  47  48
BRANCH  47  50
ATOM     50  C   UNL     1      17.117  29.549  14.415  1.00  0.00     0.165 C 
BRANCH  50  51
ATOM     51  O   UNL     1      16.758  28.479  13.485  1.00  0.00    -0.388 OA
ATOM     52  H   UNL     1      16.093  28.868  12.842  1.00  0.00     0.211 HD
ENDBRANCH  50  51
BRANCH  50  53
ATOM     53  C   UNL     1      18.444  29.119  14.924  1.00  0.00     0.154 C 
BRANCH  53  54
ATOM     54  N   UNL     1      18.500  28.626  16.262  1.00  0.00    -0.319 N 
ATOM     55  C   UNL     1      19.745  28.644  16.976  1.00  0.00     0.407 C 
ATOM     56  H   UNL     1      17.685  28.254  16.765  1.00  0.00     0.167 HD
ATOM     57  O   UNL     1      20.741  29.104  16.373  1.00  0.00    -0.225 OA
BRANCH  55  58
ATOM     58  O   UNL     1      19.881  28.193  18.257  1.00  0.00    -0.443 OA
BRANCH  58  59
ATOM     59  C   UNL     1      21.092  28.403  19.011  1.00  0.00     0.294 C 
BRANCH  59  60
ATOM     60  C   UNL     1      21.132  27.431  20.141  1.00  0.00     0.120 A 
ATOM     61  C   UNL     1      21.922  26.309  20.241  1.00  0.00     0.138 A 
ATOM     62  N   UNL     1      20.405  27.467  21.263  1.00  0.00    -0.132 NA
ATOM     63  N   UNL     1      21.663  25.681  21.423  1.00  0.00    -0.248 N 
ATOM     64  N   UNL     1      20.734  26.411  22.021  1.00  0.00    -0.067 NA
BRANCH  63  65
ATOM     65  C   UNL     1      22.274  24.471  21.892  1.00  0.00     0.181 C 
BRANCH  65  66
ATOM     66  C   UNL     1      23.141  24.778  23.053  1.00  0.00    -0.025 A 
ATOM     67  C   UNL     1      24.399  25.307  22.932  1.00  0.00     0.006 A 
ATOM     68  C   UNL     1      22.672  24.519  24.336  1.00  0.00     0.025 A 
ATOM     69  C   UNL     1      25.196  25.583  24.012  1.00  0.00     0.002 A 
ATOM     70  C   UNL     1      23.471  24.796  25.418  1.00  0.00     0.052 A 
ATOM     71  C   UNL     1      24.753  25.334  25.303  1.00  0.00     0.019 A 
BRANCH  70  72
ATOM     72  C   UNL     1      22.975  24.530  26.743  1.00  0.00     0.099 C 
ATOM     73  N   UNL     1      22.559  24.307  27.813  1.00  0.00    -0.192 NA
ENDBRANCH  70  72
ENDBRANCH  65  66
ENDBRANCH  63  65
ENDBRANCH  59  60
ENDBRANCH  58  59
ENDBRANCH  55  58
ENDBRANCH  53  54
ENDBRANCH  50  53
ENDBRANCH  47  50
ENDBRANCH   5  47
BRANCH   4  74
ATOM     74  N   UNL     1      12.479  30.466  14.382  1.00  0.00    -0.348 N 
ATOM     75  C   UNL     1      11.651  29.509  13.758  1.00  0.00     0.217 C 
ATOM     76  H   UNL     1      12.306  31.458  14.128  1.00  0.00     0.163 HD
ATOM     77  C   UNL     1      10.584  29.872  12.784  1.00  0.00     0.114 C 
ATOM     78  O   UNL     1      11.817  28.309  14.032  1.00  0.00    -0.275 OA
ENDBRANCH   4  74
TORSDOF 32
