REMARK VINA RESULT:    -6.908      6.838     11.503
REMARK INTER + INTRA:         -22.228
REMARK INTER:                 -17.781
REMARK INTRA:                  -4.448
REMARK UNBOUND:                -4.822
REMARK SMILES CC(=O)N[C@@H]1[C@@H](O)C[C@](OC[C@H]2O[C@@H](O[C@H]3[C@H](O)[C@@H](O)[C@H](OCCN=[N+]=[N-])O[C@@H]3CO)[C@H](O)[C@@H](O)[C@H]2O)(C(=O)O)O[C@H]1C(O)[C@H](O)CNC(=O)OCc1cn(Cc2ccccc2Br)nn1
REMARK SMILES IDX 9 1 8 2 6 3 5 4 42 5 41 6 10 7 11 8 12 9 14 10 13 11 32 12
REMARK SMILES IDX 34 13 36 14 15 15 16 16 29 17 28 18 21 19 17 20 19 21 30 22
REMARK SMILES IDX 31 23 22 25 23 26 24 27 25 28 26 29 27 30 18 31 20 33 33 35
REMARK SMILES IDX 35 37 37 39 38 41 39 42 40 43 7 45 43 47 44 48 45 50 46 51
REMARK SMILES IDX 47 53 48 54 49 55 50 57 51 58 52 59 53 60 54 61 65 62 55 63
REMARK SMILES IDX 64 64 56 65 57 66 58 67 62 68 59 69 61 70 63 71 60 72 4 73
REMARK SMILES IDX 2 74 1 76 3 77
REMARK H PARENT 31 24 18 32 20 34 33 36 35 38 37 40 40 44 7 46 44 49 46 52
REMARK H PARENT 48 56 4 75
REMARK Flexibility Score: inf
ROOT
ATOM      1  C   UNL     1      23.086  24.927  24.843  1.00  0.00     0.272 C 
ATOM      2  C   UNL     1      21.790  24.637  24.196  1.00  0.00     0.113 C 
ATOM      3  C   UNL     1      21.647  25.363  22.906  1.00  0.00     0.145 C 
ATOM      4  C   UNL     1      22.794  25.002  22.004  1.00  0.00     0.142 C 
ATOM      5  C   UNL     1      24.075  24.778  22.708  1.00  0.00     0.178 C 
ATOM      6  O   UNL     1      24.050  24.255  23.953  1.00  0.00    -0.332 OA
ENDROOT
BRANCH   1   7
ATOM      7  O   UNL     1      23.293  24.334  26.034  1.00  0.00    -0.338 OA
BRANCH   7   8
ATOM      8  C   UNL     1      22.663  24.450  27.158  1.00  0.00     0.199 C 
BRANCH   8   9
ATOM      9  C   UNL     1      22.944  25.288  28.326  1.00  0.00     0.179 C 
ATOM     10  C   UNL     1      24.351  25.975  30.002  1.00  0.00     0.282 C 
ATOM     11  O   UNL     1      24.284  25.469  28.681  1.00  0.00    -0.341 OA
ATOM     12  C   UNL     1      24.023  27.439  29.908  1.00  0.00     0.202 C 
ATOM     13  C   UNL     1      22.765  27.670  29.144  1.00  0.00     0.179 C 
ATOM     14  C   UNL     1      22.065  26.451  28.611  1.00  0.00     0.177 C 
BRANCH  10  15
ATOM     15  O   UNL     1      25.614  25.728  30.449  1.00  0.00    -0.341 OA
BRANCH  15  16
ATOM     16  C   UNL     1      26.607  26.583  30.076  1.00  0.00     0.184 C 
ATOM     17  C   UNL     1      27.424  26.174  28.901  1.00  0.00     0.178 C 
ATOM     18  O   UNL     1      28.769  26.301  29.238  1.00  0.00    -0.341 OA
ATOM     19  C   UNL     1      29.000  25.352  30.266  1.00  0.00     0.281 C 
ATOM     20  C   UNL     1      27.506  26.994  31.232  1.00  0.00     0.180 C 
ATOM     21  C   UNL     1      28.490  25.892  31.574  1.00  0.00     0.202 C 
BRANCH  17  22
ATOM     22  C   UNL     1      27.197  27.083  27.694  1.00  0.00     0.191 C 
BRANCH  22  23
ATOM     23  O   UNL     1      26.068  26.677  26.982  1.00  0.00    -0.394 OA
ATOM     24  H   UNL     1      25.286  27.249  27.158  1.00  0.00     0.210 HD
ENDBRANCH  22  23
ENDBRANCH  17  22
BRANCH  19  25
ATOM     25  O   UNL     1      30.373  25.120  30.263  1.00  0.00    -0.350 OA
BRANCH  25  26
ATOM     26  C   UNL     1      31.065  26.100  30.974  1.00  0.00     0.169 C 
BRANCH  26  27
ATOM     27  C   UNL     1      32.419  25.526  31.355  1.00  0.00     0.119 C 
BRANCH  27  28
ATOM     28  N   UNL     1      32.934  24.807  30.218  1.00  0.00    -0.092 NA
ATOM     29  N   UNL     1      33.543  23.740  30.345  1.00  0.00     0.001 N 
ATOM     30  N   UNL     1      34.474  22.956  30.621  1.00  0.00    -0.003 NA
ENDBRANCH  27  28
ENDBRANCH  26  27
ENDBRANCH  25  26
ENDBRANCH  19  25
BRANCH  20  31
ATOM     31  O   UNL     1      28.275  28.108  30.890  1.00  0.00    -0.387 OA
ATOM     32  H   UNL     1      27.710  28.662  30.283  1.00  0.00     0.211 HD
ENDBRANCH  20  31
BRANCH  21  33
ATOM     33  O   UNL     1      27.968  24.941  32.412  1.00  0.00    -0.385 OA
ATOM     34  H   UNL     1      27.141  24.573  32.020  1.00  0.00     0.211 HD
ENDBRANCH  21  33
ENDBRANCH  15  16
ENDBRANCH  10  15
BRANCH  12  35
ATOM     35  O   UNL     1      23.820  27.998  31.180  1.00  0.00    -0.385 OA
ATOM     36  H   UNL     1      23.749  28.971  31.051  1.00  0.00     0.211 HD
ENDBRANCH  12  35
BRANCH  13  37
ATOM     37  O   UNL     1      23.040  28.519  28.062  1.00  0.00    -0.387 OA
ATOM     38  H   UNL     1      23.473  29.350  28.342  1.00  0.00     0.211 HD
ENDBRANCH  13  37
BRANCH  14  39
ATOM     39  O   UNL     1      21.332  26.864  27.509  1.00  0.00    -0.387 OA
ATOM     40  H   UNL     1      21.754  27.519  26.934  1.00  0.00     0.211 HD
ENDBRANCH  14  39
ENDBRANCH   8   9
ENDBRANCH   7   8
ENDBRANCH   1   7
BRANCH   1  41
ATOM     41  C   UNL     1      23.596  26.312  24.781  1.00  0.00     0.364 C 
ATOM     42  O   UNL     1      24.744  26.666  24.430  1.00  0.00    -0.246 OA
BRANCH  41  43
ATOM     43  O   UNL     1      22.750  27.346  25.146  1.00  0.00    -0.477 OA
ATOM     44  H   UNL     1      22.857  27.842  26.032  1.00  0.00     0.296 HD
ENDBRANCH  41  43
ENDBRANCH   1  41
BRANCH   3  45
ATOM     45  O   UNL     1      20.446  24.850  22.318  1.00  0.00    -0.391 OA
ATOM     46  H   UNL     1      20.189  25.382  21.540  1.00  0.00     0.211 HD
ENDBRANCH   3  45
BRANCH   5  47
ATOM     47  C   UNL     1      24.962  23.854  21.868  1.00  0.00     0.176 C 
BRANCH  47  48
ATOM     48  O   UNL     1      25.299  22.770  22.665  1.00  0.00    -0.388 OA
ATOM     49  H   UNL     1      25.573  23.016  23.565  1.00  0.00     0.211 HD
ENDBRANCH  47  48
BRANCH  47  50
ATOM     50  C   UNL     1      26.202  24.523  21.390  1.00  0.00     0.165 C 
BRANCH  50  51
ATOM     51  O   UNL     1      25.942  25.800  20.863  1.00  0.00    -0.388 OA
ATOM     52  H   UNL     1      26.021  25.785  19.875  1.00  0.00     0.211 HD
ENDBRANCH  50  51
BRANCH  50  53
ATOM     53  C   UNL     1      26.827  23.742  20.263  1.00  0.00     0.154 C 
BRANCH  53  54
ATOM     54  N   UNL     1      27.766  22.801  20.762  1.00  0.00    -0.319 N 
ATOM     55  C   UNL     1      28.184  21.649  20.064  1.00  0.00     0.407 C 
ATOM     56  H   UNL     1      28.178  22.983  21.724  1.00  0.00     0.167 HD
ATOM     57  O   UNL     1      27.737  21.377  18.921  1.00  0.00    -0.225 OA
BRANCH  55  58
ATOM     58  O   UNL     1      29.114  20.759  20.615  1.00  0.00    -0.443 OA
BRANCH  58  59
ATOM     59  C   UNL     1      28.828  20.008  21.765  1.00  0.00     0.294 C 
BRANCH  59  60
ATOM     60  C   UNL     1      29.748  20.254  22.898  1.00  0.00     0.120 A 
ATOM     61  C   UNL     1      30.826  19.416  23.225  1.00  0.00     0.138 A 
ATOM     62  N   UNL     1      29.774  21.239  23.800  1.00  0.00    -0.132 NA
ATOM     63  N   UNL     1      31.437  19.927  24.288  1.00  0.00    -0.248 N 
ATOM     64  N   UNL     1      30.779  21.041  24.625  1.00  0.00    -0.067 NA
BRANCH  63  65
ATOM     65  C   UNL     1      32.615  19.438  25.003  1.00  0.00     0.182 C 
BRANCH  65  66
ATOM     66  C   UNL     1      32.291  18.733  26.261  1.00  0.00    -0.012 A 
ATOM     67  C   UNL     1      31.960  17.371  26.165  1.00  0.00     0.007 A 
ATOM     68  C   UNL     1      32.269  19.323  27.495  1.00  0.00     0.023 A 
ATOM     69  C   UNL     1      31.626  16.690  27.295  1.00  0.00     0.000 A 
ATOM     70  C   UNL     1      31.926  18.617  28.637  1.00  0.00     0.016 A 
ATOM     71  Br  UNL     1      32.765  21.145  27.703  1.00  0.00    -0.050 Br
ATOM     72  C   UNL     1      31.604  17.290  28.525  1.00  0.00     0.001 A 
ENDBRANCH  65  66
ENDBRANCH  63  65
ENDBRANCH  59  60
ENDBRANCH  58  59
ENDBRANCH  55  58
ENDBRANCH  53  54
ENDBRANCH  50  53
ENDBRANCH  47  50
ENDBRANCH   5  47
BRANCH   4  73
ATOM     73  N   UNL     1      22.944  26.029  21.006  1.00  0.00    -0.348 N 
ATOM     74  C   UNL     1      22.690  25.819  19.617  1.00  0.00     0.217 C 
ATOM     75  H   UNL     1      23.254  26.994  21.250  1.00  0.00     0.163 HD
ATOM     76  C   UNL     1      22.869  26.933  18.634  1.00  0.00     0.114 C 
ATOM     77  O   UNL     1      22.319  24.695  19.255  1.00  0.00    -0.275 OA
ENDBRANCH   4  73
TORSDOF 31
