REMARK VINA RESULT:    -5.589      3.630      6.993
REMARK INTER + INTRA:         -20.868
REMARK INTER:                 -12.695
REMARK INTRA:                  -8.173
REMARK UNBOUND:                -6.131
REMARK SMILES COCC(C(N)=O)n1cc(COC(=O)NC[C@@H](O)C(O)[C@@H]2O[C@@](OC[C@H]3O[C@@H](O[C@H]4[C@H](O)[C@@H](O)[C@H](OCCN=[N+]=[N-])O[C@@H]4CO)[C@H](O)[C@@H](O)[C@H]3O)(C(=O)O)C[C@H](O)[C@H]2NC(C)=O)nn1
REMARK SMILES IDX 23 1 55 2 56 3 58 4 21 5 22 6 24 7 25 8 26 9 28 10 27 11
REMARK SMILES IDX 46 12 48 13 50 14 29 15 30 16 43 17 42 18 35 19 31 20 33 21
REMARK SMILES IDX 44 22 45 23 36 25 37 26 38 27 39 28 40 29 41 30 32 31 34 33
REMARK SMILES IDX 47 35 49 37 51 39 52 41 53 42 54 43 57 45 19 47 20 48 17 50
REMARK SMILES IDX 18 51 16 53 15 54 13 55 14 57 12 58 11 59 10 60 9 61 63 62
REMARK SMILES IDX 8 63 64 64 4 65 3 66 2 67 1 68 5 69 7 70 6 71 59 74 60 75
REMARK SMILES IDX 61 77 62 78
REMARK H PARENT 45 24 32 32 34 34 47 36 49 38 51 40 54 44 57 46 20 49 18 52
REMARK H PARENT 15 56 6 72 6 73 59 76
REMARK Flexibility Score: inf
ROOT
ATOM      1  C   UNL     1      16.768  29.307  18.869  1.00  0.00     0.272 C 
ATOM      2  C   UNL     1      17.938  28.600  18.303  1.00  0.00     0.113 C 
ATOM      3  C   UNL     1      18.534  29.157  17.063  1.00  0.00     0.145 C 
ATOM      4  C   UNL     1      17.450  29.669  16.152  1.00  0.00     0.142 C 
ATOM      5  C   UNL     1      16.141  29.062  16.632  1.00  0.00     0.178 C 
ATOM      6  O   UNL     1      15.832  29.567  17.868  1.00  0.00    -0.332 OA
ENDROOT
BRANCH   1   7
ATOM      7  O   UNL     1      16.999  30.485  19.524  1.00  0.00    -0.338 OA
BRANCH   7   8
ATOM      8  C   UNL     1      18.041  30.542  20.390  1.00  0.00     0.199 C 
BRANCH   8   9
ATOM      9  C   UNL     1      17.583  30.607  21.854  1.00  0.00     0.179 C 
ATOM     10  C   UNL     1      19.391  29.993  23.177  1.00  0.00     0.282 C 
ATOM     11  O   UNL     1      18.173  29.638  22.614  1.00  0.00    -0.341 OA
ATOM     12  C   UNL     1      19.332  31.264  23.952  1.00  0.00     0.202 C 
ATOM     13  C   UNL     1      18.821  32.404  23.134  1.00  0.00     0.179 C 
ATOM     14  C   UNL     1      17.593  31.987  22.407  1.00  0.00     0.177 C 
BRANCH  10  15
ATOM     15  O   UNL     1      20.420  30.005  22.254  1.00  0.00    -0.341 OA
BRANCH  15  16
ATOM     16  C   UNL     1      21.136  28.810  22.292  1.00  0.00     0.184 C 
ATOM     17  C   UNL     1      22.598  28.950  22.488  1.00  0.00     0.178 C 
ATOM     18  O   UNL     1      23.206  27.737  22.695  1.00  0.00    -0.341 OA
ATOM     19  C   UNL     1      22.602  26.664  22.036  1.00  0.00     0.281 C 
ATOM     20  C   UNL     1      20.933  28.165  20.910  1.00  0.00     0.180 C 
ATOM     21  C   UNL     1      21.976  27.116  20.726  1.00  0.00     0.202 C 
BRANCH  17  22
ATOM     22  C   UNL     1      23.000  29.843  23.646  1.00  0.00     0.191 C 
BRANCH  22  23
ATOM     23  O   UNL     1      22.334  29.445  24.804  1.00  0.00    -0.394 OA
ATOM     24  H   UNL     1      22.821  29.705  25.621  1.00  0.00     0.210 HD
ENDBRANCH  22  23
ENDBRANCH  17  22
BRANCH  19  25
ATOM     25  O   UNL     1      21.732  26.051  22.866  1.00  0.00    -0.350 OA
BRANCH  25  26
ATOM     26  C   UNL     1      22.041  24.868  23.443  1.00  0.00     0.169 C 
BRANCH  26  27
ATOM     27  C   UNL     1      23.051  24.862  24.537  1.00  0.00     0.119 C 
BRANCH  27  28
ATOM     28  N   UNL     1      22.542  25.348  25.780  1.00  0.00    -0.092 NA
ATOM     29  N   UNL     1      22.458  24.597  26.749  1.00  0.00     0.001 N 
ATOM     30  N   UNL     1      22.780  24.084  27.833  1.00  0.00    -0.003 NA
ENDBRANCH  27  28
ENDBRANCH  26  27
ENDBRANCH  25  26
ENDBRANCH  19  25
BRANCH  20  31
ATOM     31  O   UNL     1      19.648  27.632  20.829  1.00  0.00    -0.387 OA
ATOM     32  H   UNL     1      19.478  27.466  19.872  1.00  0.00     0.211 HD
ENDBRANCH  20  31
BRANCH  21  33
ATOM     33  O   UNL     1      23.036  27.596  19.928  1.00  0.00    -0.385 OA
ATOM     34  H   UNL     1      23.771  26.916  19.923  1.00  0.00     0.211 HD
ENDBRANCH  21  33
ENDBRANCH  15  16
ENDBRANCH  10  15
BRANCH  12  35
ATOM     35  O   UNL     1      18.404  31.065  24.992  1.00  0.00    -0.385 OA
ATOM     36  H   UNL     1      17.658  30.505  24.691  1.00  0.00     0.211 HD
ENDBRANCH  12  35
BRANCH  13  37
ATOM     37  O   UNL     1      19.804  32.970  22.323  1.00  0.00    -0.387 OA
ATOM     38  H   UNL     1      20.264  33.657  22.877  1.00  0.00     0.211 HD
ENDBRANCH  13  37
BRANCH  14  39
ATOM     39  O   UNL     1      17.294  32.882  21.379  1.00  0.00    -0.387 OA
ATOM     40  H   UNL     1      16.616  33.545  21.677  1.00  0.00     0.211 HD
ENDBRANCH  14  39
ENDBRANCH   8   9
ENDBRANCH   7   8
ENDBRANCH   1   7
BRANCH   1  41
ATOM     41  C   UNL     1      16.068  28.336  19.784  1.00  0.00     0.364 C 
ATOM     42  O   UNL     1      16.681  27.401  20.334  1.00  0.00    -0.246 OA
BRANCH  41  43
ATOM     43  O   UNL     1      14.725  28.499  20.005  1.00  0.00    -0.477 OA
ATOM     44  H   UNL     1      14.101  28.901  19.324  1.00  0.00     0.296 HD
ENDBRANCH  41  43
ENDBRANCH   1  41
BRANCH   3  45
ATOM     45  O   UNL     1      19.528  30.104  17.284  1.00  0.00    -0.391 OA
ATOM     46  H   UNL     1      20.305  29.681  17.729  1.00  0.00     0.211 HD
ENDBRANCH   3  45
BRANCH   5  47
ATOM     47  C   UNL     1      15.033  29.404  15.655  1.00  0.00     0.176 C 
BRANCH  47  48
ATOM     48  O   UNL     1      14.762  28.402  14.773  1.00  0.00    -0.388 OA
ATOM     49  H   UNL     1      15.483  27.818  14.502  1.00  0.00     0.211 HD
ENDBRANCH  47  48
BRANCH  47  50
ATOM     50  C   UNL     1      13.788  29.801  16.400  1.00  0.00     0.165 C 
BRANCH  50  51
ATOM     51  O   UNL     1      12.726  29.068  15.814  1.00  0.00    -0.388 OA
ATOM     52  H   UNL     1      11.983  28.991  16.473  1.00  0.00     0.211 HD
ENDBRANCH  50  51
BRANCH  50  53
ATOM     53  C   UNL     1      13.418  31.240  16.274  1.00  0.00     0.154 C 
BRANCH  53  54
ATOM     54  N   UNL     1      13.593  32.036  17.443  1.00  0.00    -0.319 N 
ATOM     55  C   UNL     1      14.743  32.840  17.668  1.00  0.00     0.407 C 
ATOM     56  H   UNL     1      12.856  32.053  18.200  1.00  0.00     0.167 HD
ATOM     57  O   UNL     1      15.645  32.857  16.817  1.00  0.00    -0.225 OA
BRANCH  55  58
ATOM     58  O   UNL     1      14.889  33.614  18.824  1.00  0.00    -0.443 OA
BRANCH  58  59
ATOM     59  C   UNL     1      13.891  33.715  19.794  1.00  0.00     0.294 C 
BRANCH  59  60
ATOM     60  C   UNL     1      13.933  32.684  20.838  1.00  0.00     0.120 A 
ATOM     61  C   UNL     1      13.913  32.946  22.186  1.00  0.00     0.139 A 
ATOM     62  N   UNL     1      13.994  31.361  20.645  1.00  0.00    -0.132 NA
ATOM     63  N   UNL     1      13.964  31.757  22.790  1.00  0.00    -0.237 N 
ATOM     64  N   UNL     1      14.012  30.812  21.849  1.00  0.00    -0.066 NA
BRANCH  63  65
ATOM     65  C   UNL     1      13.965  31.546  24.226  1.00  0.00     0.223 C 
BRANCH  65  66
ATOM     66  C   UNL     1      12.552  31.569  24.711  1.00  0.00     0.197 C 
BRANCH  66  67
ATOM     67  O   UNL     1      11.715  30.855  23.891  1.00  0.00    -0.382 OA
ATOM     68  C   UNL     1      10.490  31.456  23.772  1.00  0.00     0.195 C 
ENDBRANCH  66  67
ENDBRANCH  65  66
BRANCH  65  69
ATOM     69  C   UNL     1      14.583  30.197  24.456  1.00  0.00     0.244 C 
ATOM     70  O   UNL     1      15.742  30.140  24.912  1.00  0.00    -0.273 OA
ATOM     71  N   UNL     1      13.831  29.036  24.149  1.00  0.00    -0.368 N 
ATOM     72  H   UNL     1      14.009  28.426  23.334  1.00  0.00     0.159 HD
ATOM     73  H   UNL     1      13.047  28.787  24.790  1.00  0.00     0.159 HD
ENDBRANCH  65  69
ENDBRANCH  63  65
ENDBRANCH  59  60
ENDBRANCH  58  59
ENDBRANCH  55  58
ENDBRANCH  53  54
ENDBRANCH  50  53
ENDBRANCH  47  50
ENDBRANCH   5  47
BRANCH   4  74
ATOM     74  N   UNL     1      17.726  29.328  14.759  1.00  0.00    -0.348 N 
ATOM     75  C   UNL     1      18.499  30.146  13.891  1.00  0.00     0.217 C 
ATOM     76  H   UNL     1      17.351  28.438  14.345  1.00  0.00     0.163 HD
ATOM     77  C   UNL     1      18.791  29.823  12.485  1.00  0.00     0.114 C 
ATOM     78  O   UNL     1      18.966  31.231  14.380  1.00  0.00    -0.275 OA
ENDBRANCH   4  74
TORSDOF 33
