REMARK VINA RESULT:    -6.283     13.935     19.797
REMARK INTER + INTRA:         -22.049
REMARK INTER:                 -14.059
REMARK INTRA:                  -7.989
REMARK UNBOUND:                -6.033
REMARK SMILES CC(=O)N[C@@H]1[C@@H](O)C[C@](OC[C@H]2O[C@@H](O[C@H]3[C@H](O)[C@@H](O)[C@H](OCCN=[N+]=[N-])O[C@@H]3CO)[C@H](O)[C@@H](O)[C@H]2O)(C(=O)O)O[C@H]1C(O)[C@H](O)CNC(=O)OCc1cn(-c2cccc(S(N)(=O)=O)c2)nn1
REMARK SMILES IDX 9 1 8 2 6 3 5 4 42 5 41 6 10 7 11 8 12 9 14 10 13 11 32 12
REMARK SMILES IDX 34 13 36 14 15 15 16 16 29 17 28 18 21 19 17 20 19 21 30 22
REMARK SMILES IDX 31 23 22 25 23 26 24 27 25 28 26 29 27 30 18 31 20 33 33 35
REMARK SMILES IDX 35 37 37 39 38 41 39 42 40 43 7 45 43 47 44 48 45 50 46 51
REMARK SMILES IDX 47 53 48 54 49 55 50 57 51 58 52 59 53 60 54 61 67 62 55 63
REMARK SMILES IDX 66 64 56 65 65 66 57 67 60 68 58 69 59 70 61 71 63 72 64 73
REMARK SMILES IDX 62 74 4 77 2 78 1 80 3 81
REMARK H PARENT 31 24 18 32 20 34 33 36 35 38 37 40 40 44 7 46 44 49 46 52
REMARK H PARENT 48 56 62 75 62 76 4 79
REMARK Flexibility Score: inf
ROOT
ATOM      1  C   UNL     1      14.399  32.065  15.173  1.00  0.00     0.272 C 
ATOM      2  C   UNL     1      13.869  30.895  16.025  1.00  0.00     0.113 C 
ATOM      3  C   UNL     1      13.038  30.027  15.147  1.00  0.00     0.145 C 
ATOM      4  C   UNL     1      13.832  29.515  13.997  1.00  0.00     0.142 C 
ATOM      5  C   UNL     1      14.876  30.468  13.535  1.00  0.00     0.178 C 
ATOM      6  O   UNL     1      15.184  31.576  14.218  1.00  0.00    -0.332 OA
ENDROOT
BRANCH   1   7
ATOM      7  O   UNL     1      15.136  32.829  16.118  1.00  0.00    -0.338 OA
BRANCH   7   8
ATOM      8  C   UNL     1      15.877  31.981  16.882  1.00  0.00     0.199 C 
BRANCH   8   9
ATOM      9  C   UNL     1      16.303  32.592  18.199  1.00  0.00     0.179 C 
ATOM     10  C   UNL     1      17.451  32.068  20.045  1.00  0.00     0.282 C 
ATOM     11  O   UNL     1      17.528  32.087  18.629  1.00  0.00    -0.341 OA
ATOM     12  C   UNL     1      16.935  33.350  20.589  1.00  0.00     0.202 C 
ATOM     13  C   UNL     1      16.874  34.486  19.599  1.00  0.00     0.179 C 
ATOM     14  C   UNL     1      16.359  34.070  18.234  1.00  0.00     0.177 C 
BRANCH  10  15
ATOM     15  O   UNL     1      18.609  31.587  20.601  1.00  0.00    -0.341 OA
BRANCH  15  16
ATOM     16  C   UNL     1      18.496  30.378  21.246  1.00  0.00     0.184 C 
ATOM     17  C   UNL     1      18.536  30.606  22.737  1.00  0.00     0.178 C 
ATOM     18  O   UNL     1      19.329  29.640  23.369  1.00  0.00    -0.341 OA
ATOM     19  C   UNL     1      20.645  29.930  23.096  1.00  0.00     0.281 C 
ATOM     20  C   UNL     1      19.663  29.529  20.792  1.00  0.00     0.180 C 
ATOM     21  C   UNL     1      20.884  29.702  21.638  1.00  0.00     0.202 C 
BRANCH  17  22
ATOM     22  C   UNL     1      17.193  30.556  23.394  1.00  0.00     0.191 C 
BRANCH  22  23
ATOM     23  O   UNL     1      16.734  29.229  23.513  1.00  0.00    -0.394 OA
ATOM     24  H   UNL     1      17.196  28.757  24.245  1.00  0.00     0.210 HD
ENDBRANCH  22  23
ENDBRANCH  17  22
BRANCH  19  25
ATOM     25  O   UNL     1      21.530  29.134  23.823  1.00  0.00    -0.350 OA
BRANCH  25  26
ATOM     26  C   UNL     1      22.520  28.545  23.083  1.00  0.00     0.169 C 
BRANCH  26  27
ATOM     27  C   UNL     1      23.229  27.401  23.777  1.00  0.00     0.119 C 
BRANCH  27  28
ATOM     28  N   UNL     1      22.793  26.118  23.263  1.00  0.00    -0.092 NA
ATOM     29  N   UNL     1      21.757  25.982  22.619  1.00  0.00     0.001 N 
ATOM     30  N   UNL     1      20.747  25.736  21.983  1.00  0.00    -0.003 NA
ENDBRANCH  27  28
ENDBRANCH  26  27
ENDBRANCH  25  26
ENDBRANCH  19  25
BRANCH  20  31
ATOM     31  O   UNL     1      19.284  28.177  20.869  1.00  0.00    -0.387 OA
ATOM     32  H   UNL     1      19.704  27.713  21.635  1.00  0.00     0.211 HD
ENDBRANCH  20  31
BRANCH  21  33
ATOM     33  O   UNL     1      21.654  30.789  21.161  1.00  0.00    -0.385 OA
ATOM     34  H   UNL     1      22.139  30.471  20.365  1.00  0.00     0.211 HD
ENDBRANCH  21  33
ENDBRANCH  15  16
ENDBRANCH  10  15
BRANCH  12  35
ATOM     35  O   UNL     1      15.696  33.211  21.261  1.00  0.00    -0.385 OA
ATOM     36  H   UNL     1      15.276  32.411  20.810  1.00  0.00     0.211 HD
ENDBRANCH  12  35
BRANCH  13  37
ATOM     37  O   UNL     1      18.060  35.195  19.551  1.00  0.00    -0.387 OA
ATOM     38  H   UNL     1      18.796  34.506  19.488  1.00  0.00     0.211 HD
ENDBRANCH  13  37
BRANCH  14  39
ATOM     39  O   UNL     1      17.296  34.510  17.293  1.00  0.00    -0.387 OA
ATOM     40  H   UNL     1      17.580  33.783  16.684  1.00  0.00     0.211 HD
ENDBRANCH  14  39
ENDBRANCH   8   9
ENDBRANCH   7   8
ENDBRANCH   1   7
BRANCH   1  41
ATOM     41  C   UNL     1      13.197  32.827  14.751  1.00  0.00     0.364 C 
ATOM     42  O   UNL     1      12.477  33.372  15.665  1.00  0.00    -0.246 OA
BRANCH  41  43
ATOM     43  O   UNL     1      12.759  33.023  13.475  1.00  0.00    -0.477 OA
ATOM     44  H   UNL     1      12.220  33.850  13.188  1.00  0.00     0.296 HD
ENDBRANCH  41  43
ENDBRANCH   1  41
BRANCH   3  45
ATOM     45  O   UNL     1      12.598  28.956  15.975  1.00  0.00    -0.391 OA
ATOM     46  H   UNL     1      12.525  29.377  16.888  1.00  0.00     0.211 HD
ENDBRANCH   3  45
BRANCH   5  47
ATOM     47  C   UNL     1      16.161  29.649  13.267  1.00  0.00     0.176 C 
BRANCH  47  48
ATOM     48  O   UNL     1      15.962  28.360  13.725  1.00  0.00    -0.388 OA
ATOM     49  H   UNL     1      16.763  27.819  13.832  1.00  0.00     0.211 HD
ENDBRANCH  47  48
BRANCH  47  50
ATOM     50  C   UNL     1      17.348  30.356  13.796  1.00  0.00     0.165 C 
BRANCH  50  51
ATOM     51  O   UNL     1      17.981  31.028  12.753  1.00  0.00    -0.388 OA
ATOM     52  H   UNL     1      17.765  31.993  12.903  1.00  0.00     0.211 HD
ENDBRANCH  50  51
BRANCH  50  53
ATOM     53  C   UNL     1      18.367  29.409  14.408  1.00  0.00     0.154 C 
BRANCH  53  54
ATOM     54  N   UNL     1      17.871  28.992  15.698  1.00  0.00    -0.319 N 
ATOM     55  C   UNL     1      18.807  28.579  16.719  1.00  0.00     0.407 C 
ATOM     56  H   UNL     1      16.852  28.968  15.929  1.00  0.00     0.167 HD
ATOM     57  O   UNL     1      20.046  28.577  16.501  1.00  0.00    -0.225 OA
BRANCH  55  58
ATOM     58  O   UNL     1      18.264  28.197  17.928  1.00  0.00    -0.443 OA
BRANCH  58  59
ATOM     59  C   UNL     1      16.994  27.622  18.006  1.00  0.00     0.294 C 
BRANCH  59  60
ATOM     60  C   UNL     1      16.257  28.075  19.194  1.00  0.00     0.121 A 
ATOM     61  C   UNL     1      15.277  29.078  19.169  1.00  0.00     0.144 A 
ATOM     62  N   UNL     1      16.343  27.668  20.455  1.00  0.00    -0.131 NA
ATOM     63  N   UNL     1      14.830  29.220  20.412  1.00  0.00    -0.220 N 
ATOM     64  N   UNL     1      15.477  28.372  21.159  1.00  0.00    -0.062 NA
BRANCH  63  65
ATOM     65  C   UNL     1      13.807  30.152  20.789  1.00  0.00     0.068 A 
ATOM     66  C   UNL     1      13.295  30.101  22.088  1.00  0.00     0.050 A 
ATOM     67  C   UNL     1      13.337  31.076  19.904  1.00  0.00     0.028 A 
ATOM     68  C   UNL     1      12.317  30.971  22.499  1.00  0.00     0.084 A 
ATOM     69  C   UNL     1      12.370  31.942  20.298  1.00  0.00     0.004 A 
ATOM     70  C   UNL     1      11.843  31.909  21.592  1.00  0.00     0.022 A 
BRANCH  68  71
ATOM     71  S   UNL     1      11.636  30.964  24.100  1.00  0.00     0.238 S 
ATOM     72  O   UNL     1      12.020  32.242  24.792  1.00  0.00    -0.207 OA
ATOM     73  O   UNL     1      12.169  29.812  24.889  1.00  0.00    -0.207 OA
BRANCH  71  74
ATOM     74  N   UNL     1       9.905  30.855  23.966  1.00  0.00    -0.225 NA
ATOM     75  H   UNL     1       9.505  30.771  24.928  1.00  0.00     0.137 HD
ATOM     76  H   UNL     1       9.614  30.097  23.315  1.00  0.00     0.137 HD
ENDBRANCH  71  74
ENDBRANCH  68  71
ENDBRANCH  63  65
ENDBRANCH  59  60
ENDBRANCH  58  59
ENDBRANCH  55  58
ENDBRANCH  53  54
ENDBRANCH  50  53
ENDBRANCH  47  50
ENDBRANCH   5  47
BRANCH   4  77
ATOM     77  N   UNL     1      12.886  29.286  12.893  1.00  0.00    -0.348 N 
ATOM     78  C   UNL     1      12.086  28.116  12.797  1.00  0.00     0.217 C 
ATOM     79  H   UNL     1      12.794  30.008  12.149  1.00  0.00     0.163 HD
ATOM     80  C   UNL     1      11.148  27.944  11.659  1.00  0.00     0.114 C 
ATOM     81  O   UNL     1      12.204  27.241  13.703  1.00  0.00    -0.275 OA
ENDBRANCH   4  77
TORSDOF 32
