REMARK VINA RESULT:    -6.275     16.719     21.100
REMARK INTER + INTRA:         -21.009
REMARK INTER:                 -14.703
REMARK INTRA:                  -6.306
REMARK UNBOUND:                -4.828
REMARK SMILES CC(=O)N[C@@H]1[C@@H](O)C[C@](OC[C@H]2O[C@@H](O[C@H]3[C@H](O)[C@@H](O)[C@H](OCCN=[N+]=[N-])O[C@@H]3CO)[C@H](O)[C@@H](O)[C@H]2O)(C(=O)O)O[C@H]1C(O)[C@H](O)CNC(=O)OCc1cn(CCN2CCCC2)nn1
REMARK SMILES IDX 9 1 8 2 6 3 5 4 42 5 41 6 10 7 11 8 12 9 14 10 13 11 32 12
REMARK SMILES IDX 34 13 36 14 15 15 16 16 29 17 28 18 21 19 17 20 19 21 30 22
REMARK SMILES IDX 31 23 22 25 23 26 24 27 25 28 26 29 27 30 18 31 20 33 33 35
REMARK SMILES IDX 35 37 37 39 38 41 39 42 40 43 7 45 43 47 44 48 45 50 46 51
REMARK SMILES IDX 47 53 48 54 49 55 50 57 51 58 52 59 53 60 54 61 64 62 55 63
REMARK SMILES IDX 63 64 56 65 57 66 58 67 59 68 62 69 60 70 61 71 4 72 2 73
REMARK SMILES IDX 1 75 3 76
REMARK H PARENT 31 24 18 32 20 34 33 36 35 38 37 40 40 44 7 46 44 49 46 52
REMARK H PARENT 48 56 4 74
REMARK Flexibility Score: inf
ROOT
ATOM      1  C   UNL     1       7.089  23.960  35.166  1.00  0.00     0.272 C 
ATOM      2  C   UNL     1       6.865  25.440  35.195  1.00  0.00     0.113 C 
ATOM      3  C   UNL     1       5.366  25.761  35.263  1.00  0.00     0.145 C 
ATOM      4  C   UNL     1       4.776  25.243  33.921  1.00  0.00     0.142 C 
ATOM      5  C   UNL     1       5.156  23.812  33.813  1.00  0.00     0.178 C 
ATOM      6  O   UNL     1       5.835  23.374  34.954  1.00  0.00    -0.332 OA
ENDROOT
BRANCH   1   7
ATOM      7  O   UNL     1       7.455  23.464  36.420  1.00  0.00    -0.338 OA
BRANCH   7   8
ATOM      8  C   UNL     1       8.656  23.821  36.914  1.00  0.00     0.199 C 
BRANCH   8   9
ATOM      9  C   UNL     1       8.765  23.620  38.424  1.00  0.00     0.179 C 
ATOM     10  C   UNL     1       7.535  23.423  40.349  1.00  0.00     0.282 C 
ATOM     11  O   UNL     1       7.590  23.174  39.004  1.00  0.00    -0.341 OA
ATOM     12  C   UNL     1       8.866  23.198  40.981  1.00  0.00     0.202 C 
ATOM     13  C   UNL     1       9.643  22.188  40.154  1.00  0.00     0.179 C 
ATOM     14  C   UNL     1       9.935  22.719  38.765  1.00  0.00     0.177 C 
BRANCH  10  15
ATOM     15  O   UNL     1       6.480  22.865  41.008  1.00  0.00    -0.341 OA
BRANCH  15  16
ATOM     16  C   UNL     1       5.975  21.679  40.684  1.00  0.00     0.184 C 
ATOM     17  C   UNL     1       4.598  21.649  40.055  1.00  0.00     0.178 C 
ATOM     18  O   UNL     1       4.511  20.458  39.327  1.00  0.00    -0.341 OA
ATOM     19  C   UNL     1       4.306  19.435  40.298  1.00  0.00     0.281 C 
ATOM     20  C   UNL     1       5.923  20.645  41.795  1.00  0.00     0.180 C 
ATOM     21  C   UNL     1       5.594  19.343  41.091  1.00  0.00     0.202 C 
BRANCH  17  22
ATOM     22  C   UNL     1       4.279  22.830  39.203  1.00  0.00     0.191 C 
BRANCH  22  23
ATOM     23  O   UNL     1       5.047  22.746  38.045  1.00  0.00    -0.394 OA
ATOM     24  H   UNL     1       5.879  22.229  38.225  1.00  0.00     0.210 HD
ENDBRANCH  22  23
ENDBRANCH  17  22
BRANCH  19  25
ATOM     25  O   UNL     1       4.169  18.284  39.590  1.00  0.00    -0.350 OA
BRANCH  25  26
ATOM     26  C   UNL     1       4.691  18.184  38.347  1.00  0.00     0.169 C 
BRANCH  26  27
ATOM     27  C   UNL     1       3.769  17.868  37.223  1.00  0.00     0.119 C 
BRANCH  27  28
ATOM     28  N   UNL     1       3.881  18.751  36.087  1.00  0.00    -0.092 NA
ATOM     29  N   UNL     1       2.866  19.163  35.543  1.00  0.00     0.001 N 
ATOM     30  N   UNL     1       1.772  19.573  35.142  1.00  0.00    -0.003 NA
ENDBRANCH  27  28
ENDBRANCH  26  27
ENDBRANCH  25  26
ENDBRANCH  19  25
BRANCH  20  31
ATOM     31  O   UNL     1       7.168  20.470  42.382  1.00  0.00    -0.387 OA
ATOM     32  H   UNL     1       7.915  20.817  41.858  1.00  0.00     0.211 HD
ENDBRANCH  20  31
BRANCH  21  33
ATOM     33  O   UNL     1       5.633  18.250  41.924  1.00  0.00    -0.385 OA
ATOM     34  H   UNL     1       5.648  17.376  41.498  1.00  0.00     0.211 HD
ENDBRANCH  21  33
ENDBRANCH  15  16
ENDBRANCH  10  15
BRANCH  12  35
ATOM     35  O   UNL     1       9.652  24.355  41.047  1.00  0.00    -0.385 OA
ATOM     36  H   UNL     1       9.091  25.141  41.310  1.00  0.00     0.211 HD
ENDBRANCH  12  35
BRANCH  13  37
ATOM     37  O   UNL     1       8.885  21.025  39.993  1.00  0.00    -0.387 OA
ATOM     38  H   UNL     1       8.107  21.032  40.637  1.00  0.00     0.211 HD
ENDBRANCH  13  37
BRANCH  14  39
ATOM     39  O   UNL     1       9.998  21.611  37.922  1.00  0.00    -0.387 OA
ATOM     40  H   UNL     1      10.909  21.651  37.507  1.00  0.00     0.211 HD
ENDBRANCH  14  39
ENDBRANCH   8   9
ENDBRANCH   7   8
ENDBRANCH   1   7
BRANCH   1  41
ATOM     41  C   UNL     1       8.041  23.510  34.118  1.00  0.00     0.364 C 
ATOM     42  O   UNL     1       7.912  22.329  33.673  1.00  0.00    -0.246 OA
BRANCH  41  43
ATOM     43  O   UNL     1       9.057  24.254  33.579  1.00  0.00    -0.477 OA
ATOM     44  H   UNL     1       9.087  25.236  33.427  1.00  0.00     0.296 HD
ENDBRANCH  41  43
ENDBRANCH   1  41
BRANCH   3  45
ATOM     45  O   UNL     1       4.744  25.052  36.259  1.00  0.00    -0.391 OA
ATOM     46  H   UNL     1       4.513  24.122  35.991  1.00  0.00     0.211 HD
ENDBRANCH   3  45
BRANCH   5  47
ATOM     47  C   UNL     1       3.928  22.933  33.772  1.00  0.00     0.176 C 
BRANCH  47  48
ATOM     48  O   UNL     1       2.771  23.579  33.377  1.00  0.00    -0.388 OA
ATOM     49  H   UNL     1       2.198  23.079  32.755  1.00  0.00     0.211 HD
ENDBRANCH  47  48
BRANCH  47  50
ATOM     50  C   UNL     1       4.033  21.589  33.165  1.00  0.00     0.165 C 
BRANCH  50  51
ATOM     51  O   UNL     1       5.278  21.005  33.164  1.00  0.00    -0.388 OA
ATOM     52  H   UNL     1       5.402  20.255  33.787  1.00  0.00     0.211 HD
ENDBRANCH  50  51
BRANCH  50  53
ATOM     53  C   UNL     1       3.133  21.295  32.010  1.00  0.00     0.154 C 
BRANCH  53  54
ATOM     54  N   UNL     1       3.419  22.053  30.850  1.00  0.00    -0.319 N 
ATOM     55  C   UNL     1       2.453  22.921  30.232  1.00  0.00     0.407 C 
ATOM     56  H   UNL     1       4.367  22.003  30.403  1.00  0.00     0.167 HD
ATOM     57  O   UNL     1       1.297  23.071  30.668  1.00  0.00    -0.225 OA
BRANCH  55  58
ATOM     58  O   UNL     1       2.792  23.648  29.090  1.00  0.00    -0.443 OA
BRANCH  58  59
ATOM     59  C   UNL     1       2.434  23.155  27.795  1.00  0.00     0.294 C 
BRANCH  59  60
ATOM     60  C   UNL     1       2.481  24.237  26.791  1.00  0.00     0.120 A 
ATOM     61  C   UNL     1       3.486  25.052  26.354  1.00  0.00     0.138 A 
ATOM     62  N   UNL     1       1.390  24.623  26.067  1.00  0.00    -0.132 NA
ATOM     63  N   UNL     1       3.016  25.877  25.418  1.00  0.00    -0.251 N 
ATOM     64  N   UNL     1       1.708  25.589  25.260  1.00  0.00    -0.067 NA
BRANCH  63  65
ATOM     65  C   UNL     1       3.678  26.900  24.671  1.00  0.00     0.161 C 
BRANCH  65  66
ATOM     66  C   UNL     1       4.159  28.045  25.482  1.00  0.00     0.108 C 
BRANCH  66  67
ATOM     67  N   UNL     1       5.537  28.276  25.610  1.00  0.00    -0.301 NA
ATOM     68  C   UNL     1       6.323  27.493  26.477  1.00  0.00     0.084 C 
ATOM     69  C   UNL     1       6.243  28.565  24.398  1.00  0.00     0.084 C 
ATOM     70  C   UNL     1       7.564  27.056  25.713  1.00  0.00     0.017 C 
ATOM     71  C   UNL     1       7.602  27.948  24.507  1.00  0.00     0.017 C 
ENDBRANCH  66  67
ENDBRANCH  65  66
ENDBRANCH  63  65
ENDBRANCH  59  60
ENDBRANCH  58  59
ENDBRANCH  55  58
ENDBRANCH  53  54
ENDBRANCH  50  53
ENDBRANCH  47  50
ENDBRANCH   5  47
BRANCH   4  72
ATOM     72  N   UNL     1       5.327  26.101  32.888  1.00  0.00    -0.348 N 
ATOM     73  C   UNL     1       4.627  26.462  31.702  1.00  0.00     0.217 C 
ATOM     74  H   UNL     1       6.281  26.493  32.984  1.00  0.00     0.163 HD
ATOM     75  C   UNL     1       5.300  27.352  30.693  1.00  0.00     0.114 C 
ATOM     76  O   UNL     1       3.483  26.041  31.521  1.00  0.00    -0.275 OA
ENDBRANCH   4  72
TORSDOF 32
