REMARK VINA RESULT:    -5.407      6.777      9.677
REMARK INTER + INTRA:         -23.818
REMARK INTER:                 -16.178
REMARK INTRA:                  -7.639
REMARK UNBOUND:                -9.245
REMARK SMILES CC(=O)N[C@@H]1[C@@H](O)C[C@](OC[C@H]2O[C@@H](O[C@H]3[C@H](O)[C@@H](O)[C@H](OCCN=[N+]=[N-])O[C@@H]3CO)[C@H](O)[C@@H](O)[C@H]2O)(C(=O)O)O[C@H]1C(O)[C@H](O)CNC(=O)OCc1cn([C@@H](C)C(=O)OCc2ccccc2)nn1
REMARK SMILES IDX 43 1 42 2 9 3 8 4 41 5 6 6 5 7 10 8 11 9 12 10 14 11 13 12
REMARK SMILES IDX 32 13 34 14 36 15 15 16 16 17 29 18 28 19 21 20 17 21 19 22
REMARK SMILES IDX 30 23 31 24 22 26 23 27 24 28 25 29 26 30 27 31 18 32 20 34
REMARK SMILES IDX 33 36 35 38 37 40 38 42 39 43 40 44 7 46 4 48 2 49 1 51 3 52
REMARK SMILES IDX 44 53 45 55 46 56 47 58 48 59 49 60 50 62 51 63 52 64 53 65
REMARK SMILES IDX 54 66 69 67 55 68 68 69 56 70 57 71 58 72 59 73 60 74 61 75
REMARK SMILES IDX 62 76 63 77 67 78 64 79 66 80 65 81
REMARK H PARENT 31 25 18 33 20 35 33 37 35 39 37 41 40 45 7 47 4 50 44 54
REMARK H PARENT 46 57 48 61
REMARK Flexibility Score: inf
ROOT
ATOM      1  C   UNL     1      31.602  19.462  26.945  1.00  0.00     0.176 C 
ENDROOT
BRANCH   1   2
ATOM      2  C   UNL     1      32.997  19.010  26.761  1.00  0.00     0.178 C 
ATOM      3  C   UNL     1      32.890  17.802  24.767  1.00  0.00     0.272 C 
ATOM      4  C   UNL     1      33.192  16.569  25.528  1.00  0.00     0.113 C 
ATOM      5  O   UNL     1      33.444  18.931  25.469  1.00  0.00    -0.332 OA
ATOM      6  C   UNL     1      32.704  16.598  26.957  1.00  0.00     0.145 C 
ATOM      7  C   UNL     1      33.290  17.807  27.621  1.00  0.00     0.142 C 
BRANCH   3   8
ATOM      8  O   UNL     1      31.661  18.147  24.480  1.00  0.00    -0.338 OA
BRANCH   8   9
ATOM      9  C   UNL     1      30.891  17.938  23.452  1.00  0.00     0.199 C 
BRANCH   9  10
ATOM     10  C   UNL     1      30.046  19.008  22.820  1.00  0.00     0.179 C 
ATOM     11  C   UNL     1      30.333  21.039  21.718  1.00  0.00     0.282 C 
ATOM     12  O   UNL     1      30.787  20.146  22.686  1.00  0.00    -0.341 OA
ATOM     13  C   UNL     1      28.893  20.858  21.400  1.00  0.00     0.202 C 
ATOM     14  C   UNL     1      28.634  19.497  20.815  1.00  0.00     0.179 C 
ATOM     15  C   UNL     1      29.543  18.506  21.449  1.00  0.00     0.177 C 
BRANCH  11  16
ATOM     16  O   UNL     1      31.215  20.980  20.674  1.00  0.00    -0.341 OA
BRANCH  16  17
ATOM     17  C   UNL     1      32.175  21.947  20.655  1.00  0.00     0.184 C 
ATOM     18  C   UNL     1      33.527  21.304  20.472  1.00  0.00     0.178 C 
ATOM     19  O   UNL     1      34.534  22.266  20.604  1.00  0.00    -0.341 OA
ATOM     20  C   UNL     1      34.745  22.374  22.002  1.00  0.00     0.281 C 
ATOM     21  C   UNL     1      32.237  22.745  21.947  1.00  0.00     0.180 C 
ATOM     22  C   UNL     1      33.463  22.535  22.756  1.00  0.00     0.202 C 
BRANCH  18  23
ATOM     23  C   UNL     1      33.671  20.515  19.205  1.00  0.00     0.191 C 
BRANCH  23  24
ATOM     24  O   UNL     1      33.108  19.259  19.449  1.00  0.00    -0.394 OA
ATOM     25  H   UNL     1      33.660  18.697  20.042  1.00  0.00     0.210 HD
ENDBRANCH  23  24
ENDBRANCH  18  23
BRANCH  20  26
ATOM     26  O   UNL     1      35.653  23.363  22.208  1.00  0.00    -0.350 OA
BRANCH  26  27
ATOM     27  C   UNL     1      35.890  24.259  21.219  1.00  0.00     0.169 C 
BRANCH  27  28
ATOM     28  C   UNL     1      35.197  25.572  21.285  1.00  0.00     0.119 C 
BRANCH  28  29
ATOM     29  N   UNL     1      35.085  26.190  22.556  1.00  0.00    -0.092 NA
ATOM     30  N   UNL     1      34.044  26.181  23.203  1.00  0.00     0.001 N 
ATOM     31  N   UNL     1      33.078  26.061  23.978  1.00  0.00    -0.003 NA
ENDBRANCH  28  29
ENDBRANCH  27  28
ENDBRANCH  26  27
ENDBRANCH  20  26
BRANCH  21  32
ATOM     32  O   UNL     1      32.084  24.113  21.708  1.00  0.00    -0.387 OA
ATOM     33  H   UNL     1      32.699  24.456  21.021  1.00  0.00     0.211 HD
ENDBRANCH  21  32
BRANCH  22  34
ATOM     34  O   UNL     1      33.239  21.507  23.678  1.00  0.00    -0.385 OA
ATOM     35  H   UNL     1      32.533  20.925  23.288  1.00  0.00     0.211 HD
ENDBRANCH  22  34
ENDBRANCH  16  17
ENDBRANCH  11  16
BRANCH  13  36
ATOM     36  O   UNL     1      28.150  21.045  22.591  1.00  0.00    -0.385 OA
ATOM     37  H   UNL     1      27.196  21.106  22.281  1.00  0.00     0.211 HD
ENDBRANCH  13  36
BRANCH  14  38
ATOM     38  O   UNL     1      28.762  19.571  19.443  1.00  0.00    -0.387 OA
ATOM     39  H   UNL     1      28.580  18.700  18.997  1.00  0.00     0.211 HD
ENDBRANCH  14  38
BRANCH  15  40
ATOM     40  O   UNL     1      30.598  18.140  20.625  1.00  0.00    -0.387 OA
ATOM     41  H   UNL     1      31.173  18.947  20.450  1.00  0.00     0.211 HD
ENDBRANCH  15  40
ENDBRANCH   9  10
ENDBRANCH   8   9
ENDBRANCH   3   8
BRANCH   3  42
ATOM     42  C   UNL     1      33.801  17.819  23.555  1.00  0.00     0.364 C 
ATOM     43  O   UNL     1      34.185  16.772  23.017  1.00  0.00    -0.246 OA
BRANCH  42  44
ATOM     44  O   UNL     1      34.235  19.026  23.009  1.00  0.00    -0.477 OA
ATOM     45  H   UNL     1      34.189  19.915  23.497  1.00  0.00     0.296 HD
ENDBRANCH  42  44
ENDBRANCH   3  42
BRANCH   6  46
ATOM     46  O   UNL     1      31.317  16.548  27.057  1.00  0.00    -0.391 OA
ATOM     47  H   UNL     1      31.071  15.595  27.111  1.00  0.00     0.211 HD
ENDBRANCH   6  46
BRANCH   7  48
ATOM     48  N   UNL     1      34.723  17.602  27.781  1.00  0.00    -0.348 N 
ATOM     49  C   UNL     1      35.207  17.136  29.044  1.00  0.00     0.217 C 
ATOM     50  H   UNL     1      35.420  17.777  27.030  1.00  0.00     0.163 HD
ATOM     51  C   UNL     1      36.677  16.927  29.208  1.00  0.00     0.114 C 
ATOM     52  O   UNL     1      34.403  16.910  29.989  1.00  0.00    -0.275 OA
ENDBRANCH   7  48
ENDBRANCH   1   2
BRANCH   1  53
ATOM     53  O   UNL     1      31.278  19.376  28.321  1.00  0.00    -0.388 OA
ATOM     54  H   UNL     1      31.076  18.433  28.569  1.00  0.00     0.211 HD
ENDBRANCH   1  53
BRANCH   1  55
ATOM     55  C   UNL     1      31.388  20.948  26.618  1.00  0.00     0.165 C 
BRANCH  55  56
ATOM     56  O   UNL     1      31.093  21.156  25.307  1.00  0.00    -0.388 OA
ATOM     57  H   UNL     1      30.120  21.237  25.167  1.00  0.00     0.211 HD
ENDBRANCH  55  56
BRANCH  55  58
ATOM     58  C   UNL     1      32.492  21.783  27.180  1.00  0.00     0.154 C 
BRANCH  58  59
ATOM     59  N   UNL     1      32.026  22.565  28.292  1.00  0.00    -0.319 N 
ATOM     60  C   UNL     1      31.815  23.964  28.295  1.00  0.00     0.407 C 
ATOM     61  H   UNL     1      31.803  22.092  29.225  1.00  0.00     0.167 HD
ATOM     62  O   UNL     1      32.045  24.647  27.295  1.00  0.00    -0.225 OA
BRANCH  60  63
ATOM     63  O   UNL     1      31.335  24.621  29.439  1.00  0.00    -0.443 OA
BRANCH  63  64
ATOM     64  C   UNL     1      30.840  25.936  29.392  1.00  0.00     0.294 C 
BRANCH  64  65
ATOM     65  C   UNL     1      29.361  25.859  29.396  1.00  0.00     0.120 A 
ATOM     66  C   UNL     1      28.470  26.584  28.637  1.00  0.00     0.139 A 
ATOM     67  N   UNL     1      28.631  25.049  30.170  1.00  0.00    -0.132 NA
ATOM     68  N   UNL     1      27.208  26.196  28.969  1.00  0.00    -0.238 N 
ATOM     69  N   UNL     1      27.336  25.267  29.897  1.00  0.00    -0.066 NA
BRANCH  68  70
ATOM     70  C   UNL     1      26.039  26.777  28.356  1.00  0.00     0.215 C 
ATOM     71  C   UNL     1      26.279  27.076  26.888  1.00  0.00     0.046 C 
BRANCH  70  72
ATOM     72  C   UNL     1      24.858  25.852  28.493  1.00  0.00     0.331 C 
ATOM     73  O   UNL     1      24.167  25.905  29.524  1.00  0.00    -0.250 OA
BRANCH  72  74
ATOM     74  O   UNL     1      24.532  24.955  27.502  1.00  0.00    -0.459 OA
BRANCH  74  75
ATOM     75  C   UNL     1      23.230  24.711  27.029  1.00  0.00     0.268 C 
BRANCH  75  76
ATOM     76  C   UNL     1      23.135  24.654  25.555  1.00  0.00    -0.011 A 
ATOM     77  C   UNL     1      21.935  24.677  24.894  1.00  0.00     0.007 A 
ATOM     78  C   UNL     1      24.277  24.572  24.797  1.00  0.00     0.007 A 
ATOM     79  C   UNL     1      21.842  24.622  23.522  1.00  0.00     0.000 A 
ATOM     80  C   UNL     1      24.234  24.514  23.423  1.00  0.00     0.000 A 
ATOM     81  C   UNL     1      22.998  24.540  22.788  1.00  0.00     0.000 A 
ENDBRANCH  75  76
ENDBRANCH  74  75
ENDBRANCH  72  74
ENDBRANCH  70  72
ENDBRANCH  68  70
ENDBRANCH  64  65
ENDBRANCH  63  64
ENDBRANCH  60  63
ENDBRANCH  58  59
ENDBRANCH  55  58
ENDBRANCH   1  55
TORSDOF 34
