REMARK VINA RESULT:    -5.322     12.653     18.371
REMARK INTER + INTRA:         -21.036
REMARK INTER:                 -14.395
REMARK INTRA:                  -6.641
REMARK UNBOUND:                -7.468
REMARK SMILES CC(=O)N[C@@H]1[C@@H](O)C[C@](OC[C@H]2O[C@@H](O[C@H]3[C@H](O)[C@@H](O)[C@H](OCCN=[N+]=[N-])O[C@@H]3CO)[C@H](O)[C@@H](O)[C@H]2O)(C(=O)O)O[C@H]1C(O)[C@H](O)CNC(=O)OCc1cn(CC(=O)O)nn1
REMARK SMILES IDX 9 1 8 2 6 3 5 4 42 5 41 6 10 7 11 8 12 9 14 10 13 11 32 12
REMARK SMILES IDX 34 13 36 14 15 15 16 16 29 17 28 18 21 19 17 20 19 21 30 22
REMARK SMILES IDX 31 23 22 25 23 26 24 27 25 28 26 29 27 30 18 31 20 33 33 35
REMARK SMILES IDX 35 37 37 39 38 41 39 42 40 43 7 45 43 47 44 48 45 50 46 51
REMARK SMILES IDX 47 53 48 54 49 55 50 57 51 58 52 59 53 60 54 61 61 62 55 63
REMARK SMILES IDX 60 64 56 65 57 66 58 67 59 68 4 70 2 71 1 73 3 74
REMARK H PARENT 31 24 18 32 20 34 33 36 35 38 37 40 40 44 7 46 44 49 46 52
REMARK H PARENT 48 56 59 69 4 72
REMARK Flexibility Score: inf
ROOT
ATOM      1  C   UNL     1      17.439  29.123  19.749  1.00  0.00     0.272 C 
ATOM      2  C   UNL     1      17.452  30.392  18.945  1.00  0.00     0.113 C 
ATOM      3  C   UNL     1      17.269  31.648  19.688  1.00  0.00     0.145 C 
ATOM      4  C   UNL     1      16.695  31.520  21.094  1.00  0.00     0.142 C 
ATOM      5  C   UNL     1      15.955  30.219  21.128  1.00  0.00     0.178 C 
ATOM      6  O   UNL     1      17.002  29.263  21.029  1.00  0.00    -0.332 OA
ENDROOT
BRANCH   1   7
ATOM      7  O   UNL     1      18.711  28.511  19.776  1.00  0.00    -0.338 OA
BRANCH   7   8
ATOM      8  C   UNL     1      19.752  29.365  19.975  1.00  0.00     0.199 C 
BRANCH   8   9
ATOM      9  C   UNL     1      20.661  28.812  21.085  1.00  0.00     0.179 C 
ATOM     10  C   UNL     1      21.472  26.687  21.471  1.00  0.00     0.282 C 
ATOM     11  O   UNL     1      20.321  27.538  21.460  1.00  0.00    -0.341 OA
ATOM     12  C   UNL     1      21.884  26.599  20.047  1.00  0.00     0.202 C 
ATOM     13  C   UNL     1      22.595  27.926  19.732  1.00  0.00     0.179 C 
ATOM     14  C   UNL     1      22.115  28.981  20.692  1.00  0.00     0.177 C 
BRANCH  10  15
ATOM     15  O   UNL     1      21.122  25.529  22.101  1.00  0.00    -0.341 OA
BRANCH  15  16
ATOM     16  C   UNL     1      21.951  25.195  23.172  1.00  0.00     0.184 C 
ATOM     17  C   UNL     1      22.131  26.414  24.027  1.00  0.00     0.178 C 
ATOM     18  O   UNL     1      23.345  26.404  24.658  1.00  0.00    -0.341 OA
ATOM     19  C   UNL     1      23.815  25.189  25.088  1.00  0.00     0.281 C 
ATOM     20  C   UNL     1      23.314  24.744  22.692  1.00  0.00     0.180 C 
ATOM     21  C   UNL     1      24.067  24.242  23.927  1.00  0.00     0.202 C 
BRANCH  17  22
ATOM     22  C   UNL     1      21.021  26.468  25.061  1.00  0.00     0.191 C 
BRANCH  22  23
ATOM     23  O   UNL     1      20.164  27.493  24.654  1.00  0.00    -0.394 OA
ATOM     24  H   UNL     1      20.670  28.240  24.265  1.00  0.00     0.210 HD
ENDBRANCH  22  23
ENDBRANCH  17  22
BRANCH  19  25
ATOM     25  O   UNL     1      22.991  24.650  26.038  1.00  0.00    -0.350 OA
BRANCH  25  26
ATOM     26  C   UNL     1      23.579  24.464  27.264  1.00  0.00     0.169 C 
BRANCH  26  27
ATOM     27  C   UNL     1      23.665  25.703  28.115  1.00  0.00     0.119 C 
BRANCH  27  28
ATOM     28  N   UNL     1      22.909  25.542  29.359  1.00  0.00    -0.092 NA
ATOM     29  N   UNL     1      21.766  26.041  29.361  1.00  0.00     0.001 N 
ATOM     30  N   UNL     1      20.808  26.690  29.824  1.00  0.00    -0.003 NA
ENDBRANCH  27  28
ENDBRANCH  26  27
ENDBRANCH  25  26
ENDBRANCH  19  25
BRANCH  20  31
ATOM     31  O   UNL     1      23.266  23.704  21.797  1.00  0.00    -0.387 OA
ATOM     32  H   UNL     1      23.738  22.899  22.061  1.00  0.00     0.211 HD
ENDBRANCH  20  31
BRANCH  21  33
ATOM     33  O   UNL     1      25.425  24.157  23.685  1.00  0.00    -0.385 OA
ATOM     34  H   UNL     1      25.648  23.382  23.108  1.00  0.00     0.211 HD
ENDBRANCH  21  33
ENDBRANCH  15  16
ENDBRANCH  10  15
BRANCH  12  35
ATOM     35  O   UNL     1      22.616  25.510  19.672  1.00  0.00    -0.385 OA
ATOM     36  H   UNL     1      22.124  24.971  19.032  1.00  0.00     0.211 HD
ENDBRANCH  12  35
BRANCH  13  37
ATOM     37  O   UNL     1      22.268  28.257  18.426  1.00  0.00    -0.387 OA
ATOM     38  H   UNL     1      23.019  28.102  17.788  1.00  0.00     0.211 HD
ENDBRANCH  13  37
BRANCH  14  39
ATOM     39  O   UNL     1      22.240  30.201  20.028  1.00  0.00    -0.387 OA
ATOM     40  H   UNL     1      23.130  30.607  20.148  1.00  0.00     0.211 HD
ENDBRANCH  14  39
ENDBRANCH   8   9
ENDBRANCH   7   8
ENDBRANCH   1   7
BRANCH   1  41
ATOM     41  C   UNL     1      16.564  28.150  19.056  1.00  0.00     0.364 C 
ATOM     42  O   UNL     1      16.302  27.038  19.550  1.00  0.00    -0.246 OA
BRANCH  41  43
ATOM     43  O   UNL     1      15.994  28.431  17.825  1.00  0.00    -0.477 OA
ATOM     44  H   UNL     1      15.518  29.319  17.621  1.00  0.00     0.296 HD
ENDBRANCH  41  43
ENDBRANCH   1  41
BRANCH   3  45
ATOM     45  O   UNL     1      18.377  32.502  19.659  1.00  0.00    -0.391 OA
ATOM     46  H   UNL     1      18.153  33.443  19.761  1.00  0.00     0.211 HD
ENDBRANCH   3  45
BRANCH   5  47
ATOM     47  C   UNL     1      15.148  29.919  22.344  1.00  0.00     0.176 C 
BRANCH  47  48
ATOM     48  O   UNL     1      16.010  29.103  23.150  1.00  0.00    -0.388 OA
ATOM     49  H   UNL     1      15.602  28.992  24.056  1.00  0.00     0.211 HD
ENDBRANCH  47  48
BRANCH  47  50
ATOM     50  C   UNL     1      13.886  29.129  22.076  1.00  0.00     0.165 C 
BRANCH  50  51
ATOM     51  O   UNL     1      13.991  28.524  20.796  1.00  0.00    -0.388 OA
ATOM     52  H   UNL     1      14.228  29.234  20.162  1.00  0.00     0.211 HD
ENDBRANCH  50  51
BRANCH  50  53
ATOM     53  C   UNL     1      12.654  29.945  22.130  1.00  0.00     0.154 C 
BRANCH  53  54
ATOM     54  N   UNL     1      12.715  30.975  23.126  1.00  0.00    -0.319 N 
ATOM     55  C   UNL     1      12.400  30.858  24.498  1.00  0.00     0.407 C 
ATOM     56  H   UNL     1      13.033  31.975  22.856  1.00  0.00     0.167 HD
ATOM     57  O   UNL     1      12.010  29.794  24.985  1.00  0.00    -0.225 OA
BRANCH  55  58
ATOM     58  O   UNL     1      12.508  31.940  25.380  1.00  0.00    -0.443 OA
BRANCH  58  59
ATOM     59  C   UNL     1      13.504  31.961  26.389  1.00  0.00     0.294 C 
BRANCH  59  60
ATOM     60  C   UNL     1      14.867  32.053  25.780  1.00  0.00     0.120 A 
ATOM     61  C   UNL     1      16.026  31.453  26.251  1.00  0.00     0.139 A 
ATOM     62  N   UNL     1      15.232  32.722  24.676  1.00  0.00    -0.132 NA
ATOM     63  N   UNL     1      17.034  31.781  25.422  1.00  0.00    -0.241 N 
ATOM     64  N   UNL     1      16.527  32.553  24.474  1.00  0.00    -0.066 NA
BRANCH  63  65
ATOM     65  C   UNL     1      18.440  31.378  25.517  1.00  0.00     0.268 C 
BRANCH  65  66
ATOM     66  C   UNL     1      18.854  30.855  24.203  1.00  0.00     0.325 C 
ATOM     67  O   UNL     1      18.720  29.652  23.936  1.00  0.00    -0.250 OA
BRANCH  66  68
ATOM     68  O   UNL     1      19.395  31.712  23.266  1.00  0.00    -0.480 OA
ATOM     69  H   UNL     1      19.717  31.410  22.370  1.00  0.00     0.296 HD
ENDBRANCH  66  68
ENDBRANCH  65  66
ENDBRANCH  63  65
ENDBRANCH  59  60
ENDBRANCH  58  59
ENDBRANCH  55  58
ENDBRANCH  53  54
ENDBRANCH  50  53
ENDBRANCH  47  50
ENDBRANCH   5  47
BRANCH   4  70
ATOM     70  N   UNL     1      15.991  32.695  21.475  1.00  0.00    -0.348 N 
ATOM     71  C   UNL     1      14.756  33.088  20.854  1.00  0.00     0.217 C 
ATOM     72  H   UNL     1      16.342  33.308  22.237  1.00  0.00     0.163 HD
ATOM     73  C   UNL     1      14.089  34.328  21.316  1.00  0.00     0.114 C 
ATOM     74  O   UNL     1      14.246  32.401  19.938  1.00  0.00    -0.275 OA
ENDBRANCH   4  70
TORSDOF 32
