REMARK VINA RESULT:    -6.347      4.256     11.159
REMARK INTER + INTRA:         -24.545
REMARK INTER:                 -14.929
REMARK INTRA:                  -9.616
REMARK UNBOUND:                -7.995
REMARK SMILES CC(=O)N[C@@H]1[C@@H](O)C[C@](OC[C@H]2O[C@@H](O[C@H]3[C@H](O)[C@@H](O)[C@H](OCCN=[N+]=[N-])O[C@@H]3CO)[C@H](O)[C@@H](O)[C@H]2O)(C(=O)O)O[C@H]1C(O)[C@H](O)CNC(=O)OCc1cn(-c2ccc(-c3c4ccc(=O)cc-4oc4cc(O)ccc34)c(C(=O)[O-])c2)nn1
REMARK SMILES IDX 9 1 8 2 6 3 5 4 42 5 41 6 10 7 11 8 12 9 14 10 13 11 32 12
REMARK SMILES IDX 34 13 36 14 15 15 16 16 29 17 28 18 21 19 17 20 19 21 30 22
REMARK SMILES IDX 31 23 22 25 23 26 24 27 25 28 26 29 27 30 18 31 20 33 33 35
REMARK SMILES IDX 35 37 37 39 38 41 39 42 40 43 7 45 43 47 44 48 45 50 46 51
REMARK SMILES IDX 47 53 48 54 49 55 50 57 51 58 52 59 53 60 54 61 82 62 55 63
REMARK SMILES IDX 81 64 56 65 80 66 57 67 76 68 58 69 59 70 77 71 78 72 79 73
REMARK SMILES IDX 60 74 75 75 61 76 74 77 69 78 67 79 62 80 73 81 70 82 68 83
REMARK SMILES IDX 66 84 63 85 71 86 64 87 65 88 72 89 4 91 2 92 1 94 3 95
REMARK H PARENT 31 24 18 32 20 34 33 36 35 38 37 40 40 44 7 46 44 49 46 52
REMARK H PARENT 48 56 72 90 4 93
REMARK Flexibility Score: inf
ROOT
ATOM      1  C   UNL     1      19.720  30.590  20.359  1.00  0.00     0.272 C 
ATOM      2  C   UNL     1      18.919  31.812  19.982  1.00  0.00     0.113 C 
ATOM      3  C   UNL     1      19.449  33.080  20.590  1.00  0.00     0.145 C 
ATOM      4  C   UNL     1      20.386  32.701  21.709  1.00  0.00     0.142 C 
ATOM      5  C   UNL     1      19.712  31.598  22.481  1.00  0.00     0.178 C 
ATOM      6  O   UNL     1      19.774  30.428  21.765  1.00  0.00    -0.332 OA
ENDROOT
BRANCH   1   7
ATOM      7  O   UNL     1      20.985  30.521  19.846  1.00  0.00    -0.338 OA
BRANCH   7   8
ATOM      8  C   UNL     1      21.066  30.695  18.510  1.00  0.00     0.199 C 
BRANCH   8   9
ATOM      9  C   UNL     1      21.970  29.642  17.852  1.00  0.00     0.179 C 
ATOM     10  C   UNL     1      23.085  27.675  18.301  1.00  0.00     0.282 C 
ATOM     11  O   UNL     1      22.632  28.885  18.747  1.00  0.00    -0.341 OA
ATOM     12  C   UNL     1      23.383  27.601  16.855  1.00  0.00     0.202 C 
ATOM     13  C   UNL     1      22.252  28.112  15.993  1.00  0.00     0.179 C 
ATOM     14  C   UNL     1      21.228  28.837  16.851  1.00  0.00     0.177 C 
BRANCH  10  15
ATOM     15  O   UNL     1      22.221  26.708  18.816  1.00  0.00    -0.341 OA
BRANCH  15  16
ATOM     16  C   UNL     1      22.481  26.372  20.104  1.00  0.00     0.184 C 
ATOM     17  C   UNL     1      22.562  24.891  20.312  1.00  0.00     0.178 C 
ATOM     18  O   UNL     1      23.239  24.606  21.507  1.00  0.00    -0.341 OA
ATOM     19  C   UNL     1      22.828  25.450  22.532  1.00  0.00     0.281 C 
ATOM     20  C   UNL     1      21.382  26.835  21.078  1.00  0.00     0.180 C 
ATOM     21  C   UNL     1      21.454  25.979  22.325  1.00  0.00     0.202 C 
BRANCH  17  22
ATOM     22  C   UNL     1      23.304  24.244  19.183  1.00  0.00     0.191 C 
BRANCH  22  23
ATOM     23  O   UNL     1      22.386  23.861  18.203  1.00  0.00    -0.394 OA
ATOM     24  H   UNL     1      21.959  23.034  18.520  1.00  0.00     0.210 HD
ENDBRANCH  22  23
ENDBRANCH  17  22
BRANCH  19  25
ATOM     25  O   UNL     1      23.743  26.459  22.747  1.00  0.00    -0.350 OA
BRANCH  25  26
ATOM     26  C   UNL     1      23.767  26.939  24.051  1.00  0.00     0.169 C 
BRANCH  26  27
ATOM     27  C   UNL     1      23.338  25.785  24.939  1.00  0.00     0.119 C 
BRANCH  27  28
ATOM     28  N   UNL     1      22.327  26.182  25.883  1.00  0.00    -0.092 NA
ATOM     29  N   UNL     1      21.454  26.979  25.517  1.00  0.00     0.001 N 
ATOM     30  N   UNL     1      20.378  27.540  25.303  1.00  0.00    -0.003 NA
ENDBRANCH  27  28
ENDBRANCH  26  27
ENDBRANCH  25  26
ENDBRANCH  19  25
BRANCH  20  31
ATOM     31  O   UNL     1      21.710  28.138  21.444  1.00  0.00    -0.387 OA
ATOM     32  H   UNL     1      21.609  28.792  20.719  1.00  0.00     0.211 HD
ENDBRANCH  20  31
BRANCH  21  33
ATOM     33  O   UNL     1      20.481  24.980  22.356  1.00  0.00    -0.385 OA
ATOM     34  H   UNL     1      20.171  24.885  21.403  1.00  0.00     0.211 HD
ENDBRANCH  21  33
ENDBRANCH  15  16
ENDBRANCH  10  15
BRANCH  12  35
ATOM     35  O   UNL     1      24.565  28.325  16.555  1.00  0.00    -0.385 OA
ATOM     36  H   UNL     1      25.233  27.687  16.163  1.00  0.00     0.211 HD
ENDBRANCH  12  35
BRANCH  13  37
ATOM     37  O   UNL     1      21.691  27.116  15.211  1.00  0.00    -0.387 OA
ATOM     38  H   UNL     1      22.351  26.389  15.128  1.00  0.00     0.211 HD
ENDBRANCH  13  37
BRANCH  14  39
ATOM     39  O   UNL     1      20.375  27.882  17.388  1.00  0.00    -0.387 OA
ATOM     40  H   UNL     1      20.823  27.564  18.226  1.00  0.00     0.211 HD
ENDBRANCH  14  39
ENDBRANCH   8   9
ENDBRANCH   7   8
ENDBRANCH   1   7
BRANCH   1  41
ATOM     41  C   UNL     1      18.855  29.420  19.929  1.00  0.00     0.364 C 
ATOM     42  O   UNL     1      18.731  28.375  20.592  1.00  0.00    -0.246 OA
BRANCH  41  43
ATOM     43  O   UNL     1      18.147  29.486  18.732  1.00  0.00    -0.477 OA
ATOM     44  H   UNL     1      18.412  28.919  17.939  1.00  0.00     0.296 HD
ENDBRANCH  41  43
ENDBRANCH   1  41
BRANCH   3  45
ATOM     45  O   UNL     1      20.026  33.857  19.605  1.00  0.00    -0.391 OA
ATOM     46  H   UNL     1      21.005  33.717  19.648  1.00  0.00     0.211 HD
ENDBRANCH   3  45
BRANCH   5  47
ATOM     47  C   UNL     1      20.452  31.330  23.795  1.00  0.00     0.176 C 
BRANCH  47  48
ATOM     48  O   UNL     1      21.238  30.166  23.613  1.00  0.00    -0.388 OA
ATOM     49  H   UNL     1      20.887  29.582  22.923  1.00  0.00     0.211 HD
ENDBRANCH  47  48
BRANCH  47  50
ATOM     50  C   UNL     1      19.494  31.007  24.893  1.00  0.00     0.165 C 
BRANCH  50  51
ATOM     51  O   UNL     1      18.705  29.914  24.531  1.00  0.00    -0.388 OA
ATOM     52  H   UNL     1      18.562  29.940  23.550  1.00  0.00     0.211 HD
ENDBRANCH  50  51
BRANCH  50  53
ATOM     53  C   UNL     1      18.655  32.140  25.372  1.00  0.00     0.154 C 
BRANCH  53  54
ATOM     54  N   UNL     1      17.257  31.782  25.467  1.00  0.00    -0.319 N 
ATOM     55  C   UNL     1      16.186  32.657  25.169  1.00  0.00     0.407 C 
ATOM     56  H   UNL     1      16.957  30.808  25.776  1.00  0.00     0.167 HD
ATOM     57  O   UNL     1      16.420  33.822  24.794  1.00  0.00    -0.225 OA
BRANCH  55  58
ATOM     58  O   UNL     1      14.854  32.278  25.275  1.00  0.00    -0.443 OA
BRANCH  58  59
ATOM     59  C   UNL     1      14.444  30.907  25.230  1.00  0.00     0.294 C 
BRANCH  59  60
ATOM     60  C   UNL     1      14.981  30.363  23.957  1.00  0.00     0.121 A 
ATOM     61  C   UNL     1      14.525  30.619  22.694  1.00  0.00     0.144 A 
ATOM     62  N   UNL     1      16.030  29.505  23.807  1.00  0.00    -0.131 NA
ATOM     63  N   UNL     1      15.278  29.935  21.806  1.00  0.00    -0.220 N 
ATOM     64  N   UNL     1      16.183  29.269  22.517  1.00  0.00    -0.062 NA
BRANCH  63  65
ATOM     65  C   UNL     1      15.113  29.948  20.396  1.00  0.00     0.067 A 
ATOM     66  C   UNL     1      15.204  31.106  19.660  1.00  0.00     0.039 A 
ATOM     67  C   UNL     1      14.861  28.764  19.750  1.00  0.00     0.029 A 
ATOM     68  C   UNL     1      15.042  31.064  18.295  1.00  0.00     0.007 A 
ATOM     69  C   UNL     1      14.699  28.725  18.381  1.00  0.00     0.012 A 
ATOM     70  C   UNL     1      14.785  29.870  17.625  1.00  0.00    -0.008 A 
BRANCH  68  71
ATOM     71  C   UNL     1      15.133  32.278  17.480  1.00  0.00     0.072 C 
ATOM     72  O   UNL     1      16.218  32.668  16.988  1.00  0.00    -0.545 OA
ATOM     73  O   UNL     1      13.998  33.014  17.245  1.00  0.00    -0.545 OA
ENDBRANCH  68  71
BRANCH  70  74
ATOM     74  C   UNL     1      14.619  29.840  16.183  1.00  0.00     0.004 A 
ATOM     75  C   UNL     1      15.723  29.643  15.391  1.00  0.00     0.026 A 
ATOM     76  C   UNL     1      13.395  30.003  15.585  1.00  0.00     0.026 A 
ATOM     77  C   UNL     1      16.987  29.471  15.903  1.00  0.00     0.016 A 
ATOM     78  C   UNL     1      15.547  29.620  14.012  1.00  0.00     0.139 A 
ATOM     79  C   UNL     1      13.260  29.969  14.113  1.00  0.00     0.139 A 
ATOM     80  C   UNL     1      12.249  30.203  16.310  1.00  0.00     0.016 A 
ATOM     81  C   UNL     1      18.093  29.274  15.096  1.00  0.00     0.047 A 
ATOM     82  C   UNL     1      16.650  29.423  13.217  1.00  0.00     0.093 A 
ATOM     83  O   UNL     1      14.367  29.778  13.445  1.00  0.00    -0.456 OA
ATOM     84  C   UNL     1      12.034  30.133  13.519  1.00  0.00     0.099 A 
ATOM     85  C   UNL     1      11.019  30.367  15.697  1.00  0.00     0.053 A 
ATOM     86  C   UNL     1      17.928  29.249  13.729  1.00  0.00     0.119 A 
ATOM     87  C   UNL     1      10.932  30.329  14.317  1.00  0.00     0.182 A 
ATOM     88  O   UNL     1       9.784  30.485  13.819  1.00  0.00    -0.290 OA
BRANCH  86  89
ATOM     89  O   UNL     1      19.042  29.050  12.927  1.00  0.00    -0.508 OA
ATOM     90  H   UNL     1      19.658  28.283  13.186  1.00  0.00     0.293 HD
ENDBRANCH  86  89
ENDBRANCH  70  74
ENDBRANCH  63  65
ENDBRANCH  59  60
ENDBRANCH  58  59
ENDBRANCH  55  58
ENDBRANCH  53  54
ENDBRANCH  50  53
ENDBRANCH  47  50
ENDBRANCH   5  47
BRANCH   4  91
ATOM     91  N   UNL     1      20.728  33.826  22.553  1.00  0.00    -0.348 N 
ATOM     92  C   UNL     1      21.917  34.535  22.284  1.00  0.00     0.217 C 
ATOM     93  H   UNL     1      20.138  34.142  23.353  1.00  0.00     0.163 HD
ATOM     94  C   UNL     1      22.366  35.701  23.083  1.00  0.00     0.114 C 
ATOM     95  O   UNL     1      22.684  34.198  21.317  1.00  0.00    -0.275 OA
ENDBRANCH   4  91
TORSDOF 33
