REMARK VINA RESULT:    -5.840      3.148     12.101
REMARK INTER + INTRA:         -22.659
REMARK INTER:                 -14.521
REMARK INTRA:                  -8.138
REMARK UNBOUND:                -7.602
REMARK SMILES CC(=O)N[C@@H]1[C@@H](O)C[C@](OC[C@H]2O[C@@H](O[C@H]3[C@H](O)[C@@H](O)[C@H](OCCN=[N+]=[N-])O[C@@H]3CO)[C@H](O)[C@@H](O)[C@H]2O)(C(=O)O)O[C@H]1C(O)[C@H](O)CNC(=O)OCc1cn(CC(=O)Nc2ncccn2)nn1
REMARK SMILES IDX 9 1 8 2 6 3 5 4 42 5 41 6 10 7 11 8 12 9 14 10 13 11 32 12
REMARK SMILES IDX 34 13 36 14 15 15 16 16 29 17 28 18 21 19 17 20 19 21 30 22
REMARK SMILES IDX 31 23 22 25 23 26 24 27 25 28 26 29 27 30 18 31 20 33 33 35
REMARK SMILES IDX 35 37 37 39 38 41 39 42 40 43 7 45 43 47 44 48 45 50 46 51
REMARK SMILES IDX 47 53 48 54 49 55 50 57 51 58 52 59 53 60 54 61 67 62 55 63
REMARK SMILES IDX 66 64 56 65 57 66 58 67 59 68 60 70 61 71 65 72 62 73 64 74
REMARK SMILES IDX 63 75 4 76 2 77 1 79 3 80
REMARK H PARENT 31 24 18 32 20 34 33 36 35 38 37 40 40 44 7 46 44 49 46 52
REMARK H PARENT 48 56 59 69 4 78
REMARK Flexibility Score: inf
ROOT
ATOM      1  C   UNL     1      18.531  30.852  23.729  1.00  0.00     0.272 C 
ATOM      2  C   UNL     1      18.360  32.325  24.063  1.00  0.00     0.113 C 
ATOM      3  C   UNL     1      17.741  33.051  22.938  1.00  0.00     0.145 C 
ATOM      4  C   UNL     1      16.543  32.369  22.295  1.00  0.00     0.142 C 
ATOM      5  C   UNL     1      16.561  30.913  22.419  1.00  0.00     0.178 C 
ATOM      6  O   UNL     1      17.140  30.479  23.603  1.00  0.00    -0.332 OA
ENDROOT
BRANCH   1   7
ATOM      7  O   UNL     1      18.984  30.218  24.803  1.00  0.00    -0.338 OA
BRANCH   7   8
ATOM      8  C   UNL     1      19.740  30.415  25.807  1.00  0.00     0.199 C 
BRANCH   8   9
ATOM      9  C   UNL     1      21.055  29.783  26.118  1.00  0.00     0.179 C 
ATOM     10  C   UNL     1      21.861  27.684  26.749  1.00  0.00     0.282 C 
ATOM     11  O   UNL     1      20.738  28.424  26.552  1.00  0.00    -0.341 OA
ATOM     12  C   UNL     1      22.408  27.192  25.370  1.00  0.00     0.202 C 
ATOM     13  C   UNL     1      21.739  28.147  24.401  1.00  0.00     0.179 C 
ATOM     14  C   UNL     1      21.999  29.550  24.997  1.00  0.00     0.177 C 
BRANCH  10  15
ATOM     15  O   UNL     1      21.543  26.538  27.489  1.00  0.00    -0.341 OA
BRANCH  15  16
ATOM     16  C   UNL     1      22.108  26.544  28.758  1.00  0.00     0.184 C 
ATOM     17  C   UNL     1      22.808  27.896  28.947  1.00  0.00     0.178 C 
ATOM     18  O   UNL     1      24.120  27.725  29.361  1.00  0.00    -0.341 OA
ATOM     19  C   UNL     1      24.876  27.058  28.387  1.00  0.00     0.281 C 
ATOM     20  C   UNL     1      23.044  25.405  28.912  1.00  0.00     0.180 C 
ATOM     21  C   UNL     1      24.446  25.620  28.426  1.00  0.00     0.202 C 
BRANCH  17  22
ATOM     22  C   UNL     1      22.100  28.690  30.031  1.00  0.00     0.191 C 
BRANCH  22  23
ATOM     23  O   UNL     1      20.816  28.191  30.257  1.00  0.00    -0.394 OA
ATOM     24  H   UNL     1      20.175  28.471  29.548  1.00  0.00     0.210 HD
ENDBRANCH  22  23
ENDBRANCH  17  22
BRANCH  19  25
ATOM     25  O   UNL     1      26.195  27.187  28.779  1.00  0.00    -0.350 OA
BRANCH  25  26
ATOM     26  C   UNL     1      26.911  26.010  28.725  1.00  0.00     0.169 C 
BRANCH  26  27
ATOM     27  C   UNL     1      27.935  25.857  29.828  1.00  0.00     0.119 C 
BRANCH  27  28
ATOM     28  N   UNL     1      27.401  25.118  30.961  1.00  0.00    -0.092 NA
ATOM     29  N   UNL     1      26.381  25.482  31.555  1.00  0.00     0.001 N 
ATOM     30  N   UNL     1      25.448  26.067  32.095  1.00  0.00    -0.003 NA
ENDBRANCH  27  28
ENDBRANCH  26  27
ENDBRANCH  25  26
ENDBRANCH  19  25
BRANCH  20  31
ATOM     31  O   UNL     1      23.166  25.097  30.295  1.00  0.00    -0.387 OA
ATOM     32  H   UNL     1      22.505  24.384  30.532  1.00  0.00     0.211 HD
ENDBRANCH  20  31
BRANCH  21  33
ATOM     33  O   UNL     1      24.569  25.062  27.157  1.00  0.00    -0.385 OA
ATOM     34  H   UNL     1      25.423  24.574  27.091  1.00  0.00     0.211 HD
ENDBRANCH  21  33
ENDBRANCH  15  16
ENDBRANCH  10  15
BRANCH  12  35
ATOM     35  O   UNL     1      23.774  27.496  25.321  1.00  0.00    -0.385 OA
ATOM     36  H   UNL     1      24.104  27.437  26.258  1.00  0.00     0.211 HD
ENDBRANCH  12  35
BRANCH  13  37
ATOM     37  O   UNL     1      20.411  27.889  24.199  1.00  0.00    -0.387 OA
ATOM     38  H   UNL     1      20.207  26.947  24.043  1.00  0.00     0.211 HD
ENDBRANCH  13  37
BRANCH  14  39
ATOM     39  O   UNL     1      22.089  30.427  23.975  1.00  0.00    -0.387 OA
ATOM     40  H   UNL     1      21.547  30.156  23.194  1.00  0.00     0.211 HD
ENDBRANCH  14  39
ENDBRANCH   8   9
ENDBRANCH   7   8
ENDBRANCH   1   7
BRANCH   1  41
ATOM     41  C   UNL     1      19.199  30.556  22.480  1.00  0.00     0.364 C 
ATOM     42  O   UNL     1      19.987  31.416  21.959  1.00  0.00    -0.246 OA
BRANCH  41  43
ATOM     43  O   UNL     1      19.064  29.394  21.757  1.00  0.00    -0.477 OA
ATOM     44  H   UNL     1      18.393  29.226  21.046  1.00  0.00     0.296 HD
ENDBRANCH  41  43
ENDBRANCH   1  41
BRANCH   3  45
ATOM     45  O   UNL     1      17.346  34.318  23.435  1.00  0.00    -0.391 OA
ATOM     46  H   UNL     1      17.428  34.309  24.437  1.00  0.00     0.211 HD
ENDBRANCH   3  45
BRANCH   5  47
ATOM     47  C   UNL     1      15.161  30.244  22.431  1.00  0.00     0.176 C 
BRANCH  47  48
ATOM     48  O   UNL     1      14.123  31.076  22.605  1.00  0.00    -0.388 OA
ATOM     49  H   UNL     1      14.211  31.970  22.172  1.00  0.00     0.211 HD
ENDBRANCH  47  48
BRANCH  47  50
ATOM     50  C   UNL     1      15.026  29.036  21.641  1.00  0.00     0.165 C 
BRANCH  50  51
ATOM     51  O   UNL     1      16.429  28.754  21.198  1.00  0.00    -0.388 OA
ATOM     52  H   UNL     1      16.384  28.124  20.462  1.00  0.00     0.211 HD
ENDBRANCH  50  51
BRANCH  50  53
ATOM     53  C   UNL     1      14.197  28.853  20.467  1.00  0.00     0.154 C 
BRANCH  53  54
ATOM     54  N   UNL     1      14.562  28.920  19.129  1.00  0.00    -0.319 N 
ATOM     55  C   UNL     1      14.646  29.952  18.173  1.00  0.00     0.407 C 
ATOM     56  H   UNL     1      14.857  27.925  18.711  1.00  0.00     0.167 HD
ATOM     57  O   UNL     1      14.342  31.124  18.462  1.00  0.00    -0.225 OA
BRANCH  55  58
ATOM     58  O   UNL     1      15.070  29.710  16.891  1.00  0.00    -0.443 OA
BRANCH  58  59
ATOM     59  C   UNL     1      16.034  28.873  16.435  1.00  0.00     0.294 C 
BRANCH  59  60
ATOM     60  C   UNL     1      17.172  28.685  17.364  1.00  0.00     0.120 A 
ATOM     61  C   UNL     1      18.463  29.209  17.214  1.00  0.00     0.138 A 
ATOM     62  N   UNL     1      17.262  27.939  18.501  1.00  0.00    -0.132 NA
ATOM     63  N   UNL     1      19.254  28.788  18.207  1.00  0.00    -0.243 N 
ATOM     64  N   UNL     1      18.489  28.022  18.964  1.00  0.00    -0.067 NA
BRANCH  63  65
ATOM     65  C   UNL     1      20.654  29.072  18.459  1.00  0.00     0.246 C 
BRANCH  65  66
ATOM     66  C   UNL     1      21.251  27.854  19.132  1.00  0.00     0.248 C 
ATOM     67  O   UNL     1      21.832  26.955  18.477  1.00  0.00    -0.272 OA
ATOM     68  N   UNL     1      21.163  27.708  20.538  1.00  0.00    -0.293 N 
ATOM     69  H   UNL     1      20.667  28.490  21.035  1.00  0.00     0.173 HD
BRANCH  68  70
ATOM     70  C   UNL     1      21.682  26.641  21.301  1.00  0.00     0.229 A 
ATOM     71  N   UNL     1      22.992  26.405  21.491  1.00  0.00    -0.221 NA
ATOM     72  N   UNL     1      20.807  25.791  21.875  1.00  0.00    -0.221 NA
ATOM     73  C   UNL     1      23.453  25.353  22.229  1.00  0.00     0.117 A 
ATOM     74  C   UNL     1      21.201  24.748  22.607  1.00  0.00     0.117 A 
ATOM     75  C   UNL     1      22.533  24.502  22.802  1.00  0.00     0.040 A 
ENDBRANCH  68  70
ENDBRANCH  65  66
ENDBRANCH  63  65
ENDBRANCH  59  60
ENDBRANCH  58  59
ENDBRANCH  55  58
ENDBRANCH  53  54
ENDBRANCH  50  53
ENDBRANCH  47  50
ENDBRANCH   5  47
BRANCH   4  76
ATOM     76  N   UNL     1      16.440  32.923  20.978  1.00  0.00    -0.348 N 
ATOM     77  C   UNL     1      15.301  33.721  20.586  1.00  0.00     0.217 C 
ATOM     78  H   UNL     1      17.185  32.773  20.247  1.00  0.00     0.163 HD
ATOM     79  C   UNL     1      15.261  34.268  19.213  1.00  0.00     0.114 C 
ATOM     80  O   UNL     1      14.377  33.935  21.398  1.00  0.00    -0.275 OA
ENDBRANCH   4  76
TORSDOF 32
