REMARK VINA RESULT:    -5.224      5.399     10.735
REMARK INTER + INTRA:         -20.019
REMARK INTER:                 -12.183
REMARK INTRA:                  -7.836
REMARK UNBOUND:                -6.855
REMARK SMILES CC(=O)N[C@@H]1[C@@H](O)C[C@](OC[C@H]2O[C@@H](O[C@H]3[C@H](O)[C@@H](O)[C@H](OCCN=[N+]=[N-])O[C@@H]3CO)[C@H](O)[C@@H](O)[C@H]2O)(C(=O)O)O[C@H]1C(O)[C@H](O)CNC(=O)OCc1cn(Cc2ccsc2)nn1
REMARK SMILES IDX 9 1 8 2 6 3 5 4 42 5 41 6 10 7 11 8 12 9 14 10 13 11 32 12
REMARK SMILES IDX 34 13 36 14 15 15 16 16 29 17 28 18 21 19 17 20 19 21 30 22
REMARK SMILES IDX 31 23 22 25 23 26 24 27 25 28 26 29 27 30 18 31 20 33 33 35
REMARK SMILES IDX 35 37 37 39 38 41 39 42 40 43 7 45 43 47 44 48 45 50 46 51
REMARK SMILES IDX 47 53 48 54 49 55 50 57 51 58 52 59 53 60 54 61 63 62 55 63
REMARK SMILES IDX 62 64 56 65 57 66 58 67 61 68 59 69 60 70 4 71 2 72 1 74
REMARK SMILES IDX 3 75
REMARK H PARENT 31 24 18 32 20 34 33 36 35 38 37 40 40 44 7 46 44 49 46 52
REMARK H PARENT 48 56 4 73
REMARK Flexibility Score: inf
ROOT
ATOM      1  C   UNL     1      17.821  31.974  22.865  1.00  0.00     0.272 C 
ATOM      2  C   UNL     1      18.773  32.970  22.273  1.00  0.00     0.113 C 
ATOM      3  C   UNL     1      20.107  32.406  21.864  1.00  0.00     0.145 C 
ATOM      4  C   UNL     1      20.003  31.100  21.176  1.00  0.00     0.142 C 
ATOM      5  C   UNL     1      18.790  30.276  21.561  1.00  0.00     0.178 C 
ATOM      6  O   UNL     1      17.663  30.965  21.834  1.00  0.00    -0.332 OA
ENDROOT
BRANCH   1   7
ATOM      7  O   UNL     1      16.580  32.501  22.916  1.00  0.00    -0.338 OA
BRANCH   7   8
ATOM      8  C   UNL     1      15.631  32.161  23.769  1.00  0.00     0.199 C 
BRANCH   8   9
ATOM      9  C   UNL     1      14.369  31.494  23.411  1.00  0.00     0.179 C 
ATOM     10  C   UNL     1      12.802  31.666  21.771  1.00  0.00     0.282 C 
ATOM     11  O   UNL     1      14.197  31.723  21.994  1.00  0.00    -0.341 OA
ATOM     12  C   UNL     1      12.169  30.458  22.370  1.00  0.00     0.202 C 
ATOM     13  C   UNL     1      13.086  29.450  22.961  1.00  0.00     0.179 C 
ATOM     14  C   UNL     1      14.399  29.976  23.468  1.00  0.00     0.177 C 
BRANCH  10  15
ATOM     15  O   UNL     1      12.589  31.791  20.421  1.00  0.00    -0.341 OA
BRANCH  15  16
ATOM     16  C   UNL     1      13.759  31.685  19.650  1.00  0.00     0.184 C 
ATOM     17  C   UNL     1      13.908  32.820  18.702  1.00  0.00     0.178 C 
ATOM     18  O   UNL     1      13.474  32.635  17.425  1.00  0.00    -0.341 OA
ATOM     19  C   UNL     1      12.843  31.402  17.186  1.00  0.00     0.281 C 
ATOM     20  C   UNL     1      13.918  30.319  19.060  1.00  0.00     0.180 C 
ATOM     21  C   UNL     1      13.866  30.353  17.526  1.00  0.00     0.202 C 
BRANCH  17  22
ATOM     22  C   UNL     1      15.331  33.355  18.650  1.00  0.00     0.191 C 
BRANCH  22  23
ATOM     23  O   UNL     1      15.950  32.963  19.836  1.00  0.00    -0.394 OA
ATOM     24  H   UNL     1      15.754  33.603  20.583  1.00  0.00     0.210 HD
ENDBRANCH  22  23
ENDBRANCH  17  22
BRANCH  19  25
ATOM     25  O   UNL     1      12.415  31.409  15.886  1.00  0.00    -0.350 OA
BRANCH  25  26
ATOM     26  C   UNL     1      11.047  31.285  15.740  1.00  0.00     0.169 C 
BRANCH  26  27
ATOM     27  C   UNL     1      10.567  29.972  15.214  1.00  0.00     0.119 C 
BRANCH  27  28
ATOM     28  N   UNL     1      11.669  29.118  14.861  1.00  0.00    -0.092 NA
ATOM     29  N   UNL     1      11.760  28.737  13.683  1.00  0.00     0.001 N 
ATOM     30  N   UNL     1      12.153  28.299  12.602  1.00  0.00    -0.003 NA
ENDBRANCH  27  28
ENDBRANCH  26  27
ENDBRANCH  25  26
ENDBRANCH  19  25
BRANCH  20  31
ATOM     31  O   UNL     1      15.031  29.635  19.499  1.00  0.00    -0.387 OA
ATOM     32  H   UNL     1      15.288  28.928  18.871  1.00  0.00     0.211 HD
ENDBRANCH  20  31
BRANCH  21  33
ATOM     33  O   UNL     1      13.573  29.129  16.982  1.00  0.00    -0.385 OA
ATOM     34  H   UNL     1      14.062  28.384  17.428  1.00  0.00     0.211 HD
ENDBRANCH  21  33
ENDBRANCH  15  16
ENDBRANCH  10  15
BRANCH  12  35
ATOM     35  O   UNL     1      11.130  30.811  23.271  1.00  0.00    -0.385 OA
ATOM     36  H   UNL     1      11.188  30.244  24.085  1.00  0.00     0.211 HD
ENDBRANCH  12  35
BRANCH  13  37
ATOM     37  O   UNL     1      13.386  28.482  21.982  1.00  0.00    -0.387 OA
ATOM     38  H   UNL     1      12.580  28.340  21.434  1.00  0.00     0.211 HD
ENDBRANCH  13  37
BRANCH  14  39
ATOM     39  O   UNL     1      15.450  29.605  22.593  1.00  0.00    -0.387 OA
ATOM     40  H   UNL     1      15.441  30.315  21.880  1.00  0.00     0.211 HD
ENDBRANCH  14  39
ENDBRANCH   8   9
ENDBRANCH   7   8
ENDBRANCH   1   7
BRANCH   1  41
ATOM     41  C   UNL     1      18.337  31.227  24.012  1.00  0.00     0.364 C 
ATOM     42  O   UNL     1      19.085  31.729  24.873  1.00  0.00    -0.246 OA
BRANCH  41  43
ATOM     43  O   UNL     1      18.021  29.872  24.224  1.00  0.00    -0.477 OA
ATOM     44  H   UNL     1      18.150  29.188  23.492  1.00  0.00     0.296 HD
ENDBRANCH  41  43
ENDBRANCH   1  41
BRANCH   3  45
ATOM     45  O   UNL     1      20.616  33.352  20.933  1.00  0.00    -0.391 OA
ATOM     46  H   UNL     1      21.080  34.090  21.419  1.00  0.00     0.211 HD
ENDBRANCH   3  45
BRANCH   5  47
ATOM     47  C   UNL     1      18.429  29.378  20.352  1.00  0.00     0.176 C 
BRANCH  47  48
ATOM     48  O   UNL     1      19.261  28.261  20.357  1.00  0.00    -0.388 OA
ATOM     49  H   UNL     1      19.016  27.655  19.621  1.00  0.00     0.211 HD
ENDBRANCH  47  48
BRANCH  47  50
ATOM     50  C   UNL     1      18.696  30.154  19.112  1.00  0.00     0.165 C 
BRANCH  50  51
ATOM     51  O   UNL     1      17.523  30.797  18.717  1.00  0.00    -0.388 OA
ATOM     52  H   UNL     1      17.325  31.567  19.304  1.00  0.00     0.211 HD
ENDBRANCH  50  51
BRANCH  50  53
ATOM     53  C   UNL     1      19.183  29.332  17.948  1.00  0.00     0.154 C 
BRANCH  53  54
ATOM     54  N   UNL     1      20.580  29.022  18.018  1.00  0.00    -0.319 N 
ATOM     55  C   UNL     1      21.256  28.131  17.177  1.00  0.00     0.407 C 
ATOM     56  H   UNL     1      21.148  29.509  18.774  1.00  0.00     0.167 HD
ATOM     57  O   UNL     1      20.621  27.540  16.277  1.00  0.00    -0.225 OA
BRANCH  55  58
ATOM     58  O   UNL     1      22.607  27.922  17.355  1.00  0.00    -0.443 OA
BRANCH  58  59
ATOM     59  C   UNL     1      23.181  26.680  17.645  1.00  0.00     0.294 C 
BRANCH  59  60
ATOM     60  C   UNL     1      22.651  26.188  18.932  1.00  0.00     0.120 A 
ATOM     61  C   UNL     1      23.021  25.057  19.589  1.00  0.00     0.138 A 
ATOM     62  N   UNL     1      21.706  26.800  19.662  1.00  0.00    -0.132 NA
ATOM     63  N   UNL     1      22.289  25.000  20.715  1.00  0.00    -0.248 N 
ATOM     64  N   UNL     1      21.500  26.054  20.751  1.00  0.00    -0.067 NA
BRANCH  63  65
ATOM     65  C   UNL     1      22.370  23.955  21.705  1.00  0.00     0.182 C 
BRANCH  65  66
ATOM     66  C   UNL     1      22.693  24.595  23.061  1.00  0.00    -0.016 A 
ATOM     67  C   UNL     1      21.872  24.582  24.091  1.00  0.00     0.017 A 
ATOM     68  C   UNL     1      23.932  25.221  23.190  1.00  0.00     0.070 A 
ATOM     69  C   UNL     1      22.215  25.175  25.292  1.00  0.00     0.065 A 
ATOM     70  S   UNL     1      23.885  25.814  24.892  1.00  0.00    -0.152 S 
ENDBRANCH  65  66
ENDBRANCH  63  65
ENDBRANCH  59  60
ENDBRANCH  58  59
ENDBRANCH  55  58
ENDBRANCH  53  54
ENDBRANCH  50  53
ENDBRANCH  47  50
ENDBRANCH   5  47
BRANCH   4  71
ATOM     71  N   UNL     1      21.154  30.259  21.306  1.00  0.00    -0.348 N 
ATOM     72  C   UNL     1      22.267  30.338  20.429  1.00  0.00     0.217 C 
ATOM     73  H   UNL     1      21.200  29.550  22.071  1.00  0.00     0.163 HD
ATOM     74  C   UNL     1      23.474  29.465  20.555  1.00  0.00     0.114 C 
ATOM     75  O   UNL     1      22.178  31.207  19.513  1.00  0.00    -0.275 OA
ENDBRANCH   4  71
TORSDOF 31
