REMARK VINA RESULT:    -5.746      0.000      0.000
REMARK INTER + INTRA:         -21.678
REMARK INTER:                 -15.191
REMARK INTRA:                  -6.487
REMARK UNBOUND:                -6.864
REMARK SMILES CC(=O)N[C@@H]1[C@@H](O)C[C@](OC[C@H]2O[C@@H](O[C@H]3[C@H](O)[C@@H](O)[C@H](OCCN=[N+]=[N-])O[C@@H]3CO)[C@H](O)[C@@H](O)[C@H]2O)(C(=O)O)O[C@H]1C(O)[C@H](O)CNC(=O)OCc1cn(CCC2OCCO2)nn1
REMARK SMILES IDX 9 1 8 2 6 3 5 4 42 5 41 6 10 7 11 8 12 9 14 10 13 11 32 12
REMARK SMILES IDX 34 13 36 14 15 15 16 16 29 17 28 18 21 19 17 20 19 21 30 22
REMARK SMILES IDX 31 23 22 25 23 26 24 27 25 28 26 29 27 30 18 31 20 33 33 35
REMARK SMILES IDX 35 37 37 39 38 41 39 42 40 43 7 45 43 47 44 48 45 50 46 51
REMARK SMILES IDX 47 53 48 54 49 55 50 57 51 58 52 59 53 60 54 61 64 62 55 63
REMARK SMILES IDX 63 64 56 65 57 66 58 67 59 68 62 69 60 70 61 71 4 72 2 73
REMARK SMILES IDX 1 75 3 76
REMARK H PARENT 31 24 18 32 20 34 33 36 35 38 37 40 40 44 7 46 44 49 46 52
REMARK H PARENT 48 56 4 74
REMARK Flexibility Score: inf
ROOT
ATOM      1  C   UNL     1      12.783  30.303  15.741  1.00  0.00     0.272 C 
ATOM      2  C   UNL     1      12.422  28.892  15.147  1.00  0.00     0.113 C 
ATOM      3  C   UNL     1      12.341  28.936  13.681  1.00  0.00     0.145 C 
ATOM      4  C   UNL     1      13.666  29.402  13.110  1.00  0.00     0.142 C 
ATOM      5  C   UNL     1      14.466  30.181  14.098  1.00  0.00     0.178 C 
ATOM      6  O   UNL     1      13.794  30.894  15.026  1.00  0.00    -0.332 OA
ENDROOT
BRANCH   1   7
ATOM      7  O   UNL     1      13.191  30.000  16.973  1.00  0.00    -0.338 OA
BRANCH   7   8
ATOM      8  C   UNL     1      13.799  30.756  17.859  1.00  0.00     0.199 C 
BRANCH   8   9
ATOM      9  C   UNL     1      15.220  30.522  18.261  1.00  0.00     0.179 C 
ATOM     10  C   UNL     1      16.546  30.275  20.174  1.00  0.00     0.282 C 
ATOM     11  O   UNL     1      15.390  30.767  19.604  1.00  0.00    -0.341 OA
ATOM     12  C   UNL     1      17.590  29.812  19.227  1.00  0.00     0.202 C 
ATOM     13  C   UNL     1      17.065  28.938  18.120  1.00  0.00     0.179 C 
ATOM     14  C   UNL     1      15.576  29.024  18.086  1.00  0.00     0.177 C 
BRANCH  10  15
ATOM     15  O   UNL     1      16.190  29.367  21.172  1.00  0.00    -0.341 OA
BRANCH  15  16
ATOM     16  C   UNL     1      15.553  29.952  22.257  1.00  0.00     0.184 C 
ATOM     17  C   UNL     1      16.301  29.835  23.550  1.00  0.00     0.178 C 
ATOM     18  O   UNL     1      15.584  30.535  24.522  1.00  0.00    -0.341 OA
ATOM     19  C   UNL     1      14.365  29.951  24.835  1.00  0.00     0.281 C 
ATOM     20  C   UNL     1      14.208  29.211  22.508  1.00  0.00     0.180 C 
ATOM     21  C   UNL     1      13.509  30.045  23.575  1.00  0.00     0.202 C 
BRANCH  17  22
ATOM     22  C   UNL     1      17.632  30.555  23.429  1.00  0.00     0.191 C 
BRANCH  22  23
ATOM     23  O   UNL     1      18.530  29.589  22.908  1.00  0.00    -0.394 OA
ATOM     24  H   UNL     1      19.301  29.996  22.459  1.00  0.00     0.210 HD
ENDBRANCH  22  23
ENDBRANCH  17  22
BRANCH  19  25
ATOM     25  O   UNL     1      13.796  30.640  25.868  1.00  0.00    -0.350 OA
BRANCH  25  26
ATOM     26  C   UNL     1      14.322  31.872  26.134  1.00  0.00     0.169 C 
BRANCH  26  27
ATOM     27  C   UNL     1      13.659  32.614  27.274  1.00  0.00     0.119 C 
BRANCH  27  28
ATOM     28  N   UNL     1      12.922  33.757  26.766  1.00  0.00    -0.092 NA
ATOM     29  N   UNL     1      12.008  33.654  25.953  1.00  0.00     0.001 N 
ATOM     30  N   UNL     1      10.985  33.628  25.273  1.00  0.00    -0.003 NA
ENDBRANCH  27  28
ENDBRANCH  26  27
ENDBRANCH  25  26
ENDBRANCH  19  25
BRANCH  20  31
ATOM     31  O   UNL     1      13.481  29.222  21.343  1.00  0.00    -0.387 OA
ATOM     32  H   UNL     1      13.057  30.118  21.240  1.00  0.00     0.211 HD
ENDBRANCH  20  31
BRANCH  21  33
ATOM     33  O   UNL     1      12.252  29.509  23.758  1.00  0.00    -0.385 OA
ATOM     34  H   UNL     1      12.319  28.780  24.424  1.00  0.00     0.211 HD
ENDBRANCH  21  33
ENDBRANCH  15  16
ENDBRANCH  10  15
BRANCH  12  35
ATOM     35  O   UNL     1      18.272  30.937  18.699  1.00  0.00    -0.385 OA
ATOM     36  H   UNL     1      17.882  31.717  19.176  1.00  0.00     0.211 HD
ENDBRANCH  12  35
BRANCH  13  37
ATOM     37  O   UNL     1      17.531  27.628  18.224  1.00  0.00    -0.387 OA
ATOM     38  H   UNL     1      17.002  27.071  17.594  1.00  0.00     0.211 HD
ENDBRANCH  13  37
BRANCH  14  39
ATOM     39  O   UNL     1      14.943  28.301  19.075  1.00  0.00    -0.387 OA
ATOM     40  H   UNL     1      15.157  27.335  19.068  1.00  0.00     0.211 HD
ENDBRANCH  14  39
ENDBRANCH   8   9
ENDBRANCH   7   8
ENDBRANCH   1   7
BRANCH   1  41
ATOM     41  C   UNL     1      11.561  31.075  15.513  1.00  0.00     0.364 C 
ATOM     42  O   UNL     1      10.425  30.595  15.923  1.00  0.00    -0.246 OA
BRANCH  41  43
ATOM     43  O   UNL     1      11.423  32.301  14.904  1.00  0.00    -0.477 OA
ATOM     44  H   UNL     1      12.100  33.030  15.080  1.00  0.00     0.296 HD
ENDBRANCH  41  43
ENDBRANCH   1  41
BRANCH   3  45
ATOM     45  O   UNL     1      12.080  27.601  13.254  1.00  0.00    -0.391 OA
ATOM     46  H   UNL     1      11.245  27.651  12.696  1.00  0.00     0.211 HD
ENDBRANCH   3  45
BRANCH   5  47
ATOM     47  C   UNL     1      15.586  29.340  14.632  1.00  0.00     0.176 C 
BRANCH  47  48
ATOM     48  O   UNL     1      15.901  28.254  13.801  1.00  0.00    -0.388 OA
ATOM     49  H   UNL     1      15.074  27.750  13.547  1.00  0.00     0.211 HD
ENDBRANCH  47  48
BRANCH  47  50
ATOM     50  C   UNL     1      16.904  30.165  14.637  1.00  0.00     0.165 C 
BRANCH  50  51
ATOM     51  O   UNL     1      16.731  31.264  13.830  1.00  0.00    -0.388 OA
ATOM     52  H   UNL     1      15.829  31.361  13.474  1.00  0.00     0.211 HD
ENDBRANCH  50  51
BRANCH  50  53
ATOM     53  C   UNL     1      18.019  29.253  14.323  1.00  0.00     0.154 C 
BRANCH  53  54
ATOM     54  N   UNL     1      18.523  28.589  15.484  1.00  0.00    -0.319 N 
ATOM     55  C   UNL     1      19.850  28.630  15.907  1.00  0.00     0.407 C 
ATOM     56  H   UNL     1      17.830  28.038  16.049  1.00  0.00     0.167 HD
ATOM     57  O   UNL     1      20.713  29.257  15.272  1.00  0.00    -0.225 OA
BRANCH  55  58
ATOM     58  O   UNL     1      20.309  27.976  17.060  1.00  0.00    -0.443 OA
BRANCH  58  59
ATOM     59  C   UNL     1      20.954  28.692  18.098  1.00  0.00     0.294 C 
BRANCH  59  60
ATOM     60  C   UNL     1      20.912  27.982  19.397  1.00  0.00     0.120 A 
ATOM     61  C   UNL     1      21.839  27.020  19.813  1.00  0.00     0.138 A 
ATOM     62  N   UNL     1      20.040  28.078  20.412  1.00  0.00    -0.132 NA
ATOM     63  N   UNL     1      21.493  26.579  21.053  1.00  0.00    -0.252 N 
ATOM     64  N   UNL     1      20.405  27.234  21.386  1.00  0.00    -0.067 NA
BRANCH  63  65
ATOM     65  C   UNL     1      22.264  25.575  21.772  1.00  0.00     0.151 C 
BRANCH  65  66
ATOM     66  C   UNL     1      21.339  24.656  22.558  1.00  0.00     0.086 C 
BRANCH  66  67
ATOM     67  C   UNL     1      21.549  24.799  24.038  1.00  0.00     0.251 C 
ATOM     68  O   UNL     1      22.862  24.446  24.354  1.00  0.00    -0.350 OA
ATOM     69  O   UNL     1      21.393  26.093  24.495  1.00  0.00    -0.350 OA
ATOM     70  C   UNL     1      23.083  25.000  25.609  1.00  0.00     0.192 C 
ATOM     71  C   UNL     1      21.929  25.969  25.798  1.00  0.00     0.192 C 
ENDBRANCH  66  67
ENDBRANCH  65  66
ENDBRANCH  63  65
ENDBRANCH  59  60
ENDBRANCH  58  59
ENDBRANCH  55  58
ENDBRANCH  53  54
ENDBRANCH  50  53
ENDBRANCH  47  50
ENDBRANCH   5  47
BRANCH   4  72
ATOM     72  N   UNL     1      13.460  30.115  11.851  1.00  0.00    -0.348 N 
ATOM     73  C   UNL     1      14.474  30.333  10.913  1.00  0.00     0.217 C 
ATOM     74  H   UNL     1      12.477  30.473  11.669  1.00  0.00     0.163 HD
ATOM     75  C   UNL     1      14.184  31.075   9.643  1.00  0.00     0.114 C 
ATOM     76  O   UNL     1      15.624  29.887  11.179  1.00  0.00    -0.275 OA
ENDBRANCH   4  72
TORSDOF 32
