REMARK VINA RESULT:    -4.670     14.445     20.333
REMARK INTER + INTRA:         -23.980
REMARK INTER:                 -14.171
REMARK INTRA:                  -9.809
REMARK UNBOUND:               -10.710
REMARK SMILES CC(=O)N[C@@H]1[C@@H](O)C[C@](OC[C@H]2O[C@@H](O[C@H]3[C@H](O)[C@@H](O)[C@H](OCCN=[N+]=[N-])O[C@@H]3CO)[C@H](O)[C@@H](O)[C@H]2O)(C(=O)O)O[C@H]1C(O)[C@H](O)CNC(=O)OCc1cn(CC(=O)NCC(O)Cn2ccnc2[N+](=O)[O-])nn1
REMARK SMILES IDX 47 1 45 2 43 3 42 4 9 5 8 6 41 7 6 8 5 9 10 10 11 11 12 12
REMARK SMILES IDX 14 13 13 14 32 15 34 16 36 17 15 18 16 19 29 20 28 21 21 22
REMARK SMILES IDX 17 23 19 24 30 25 31 26 22 28 23 29 24 30 25 31 26 32 27 33
REMARK SMILES IDX 18 34 20 36 33 38 35 40 37 42 38 44 39 45 40 46 7 48 4 50
REMARK SMILES IDX 2 51 1 53 3 54 44 55 46 57 48 59 49 60 50 62 51 63 52 64
REMARK SMILES IDX 53 65 54 66 73 67 55 68 72 69 56 70 57 71 58 72 59 73 60 75
REMARK SMILES IDX 61 76 62 77 63 79 64 80 65 81 68 82 66 83 67 84 69 85 70 86
REMARK SMILES IDX 71 87
REMARK H PARENT 31 27 18 35 20 37 33 39 35 41 37 43 40 47 7 49 4 52 44 56
REMARK H PARENT 46 58 48 61 59 74 62 78
REMARK Flexibility Score: inf
ROOT
ATOM      1  C   UNL     1      21.981  29.714  17.559  1.00  0.00     0.154 C 
ENDROOT
BRANCH   1   2
ATOM      2  C   UNL     1      21.911  29.305  18.992  1.00  0.00     0.165 C 
BRANCH   2   3
ATOM      3  C   UNL     1      20.554  29.081  19.547  1.00  0.00     0.176 C 
BRANCH   3   4
ATOM      4  C   UNL     1      20.062  29.960  20.622  1.00  0.00     0.178 C 
ATOM      5  C   UNL     1      19.287  30.097  22.809  1.00  0.00     0.272 C 
ATOM      6  C   UNL     1      19.733  31.505  22.624  1.00  0.00     0.113 C 
ATOM      7  O   UNL     1      19.621  29.262  21.726  1.00  0.00    -0.332 OA
ATOM      8  C   UNL     1      19.313  32.133  21.337  1.00  0.00     0.145 C 
ATOM      9  C   UNL     1      19.092  31.024  20.270  1.00  0.00     0.142 C 
BRANCH   5  10
ATOM     10  O   UNL     1      17.967  29.898  23.089  1.00  0.00    -0.338 OA
BRANCH  10  11
ATOM     11  C   UNL     1      17.309  30.868  23.778  1.00  0.00     0.199 C 
BRANCH  11  12
ATOM     12  C   UNL     1      15.890  31.085  23.289  1.00  0.00     0.179 C 
ATOM     13  C   UNL     1      14.624  31.186  21.335  1.00  0.00     0.282 C 
ATOM     14  O   UNL     1      15.804  31.488  22.004  1.00  0.00    -0.341 OA
ATOM     15  C   UNL     1      13.425  31.266  22.248  1.00  0.00     0.202 C 
ATOM     16  C   UNL     1      13.574  30.350  23.440  1.00  0.00     0.179 C 
ATOM     17  C   UNL     1      15.015  29.894  23.571  1.00  0.00     0.177 C 
BRANCH  13  18
ATOM     18  O   UNL     1      14.632  29.995  20.702  1.00  0.00    -0.341 OA
BRANCH  18  19
ATOM     19  C   UNL     1      15.309  29.796  19.559  1.00  0.00     0.184 C 
ATOM     20  C   UNL     1      14.509  29.687  18.289  1.00  0.00     0.178 C 
ATOM     21  O   UNL     1      15.402  29.935  17.243  1.00  0.00    -0.341 OA
ATOM     22  C   UNL     1      16.309  28.891  17.099  1.00  0.00     0.281 C 
ATOM     23  C   UNL     1      16.143  28.505  19.584  1.00  0.00     0.180 C 
ATOM     24  C   UNL     1      17.040  28.572  18.368  1.00  0.00     0.202 C 
BRANCH  20  25
ATOM     25  C   UNL     1      13.468  30.766  18.245  1.00  0.00     0.191 C 
BRANCH  25  26
ATOM     26  O   UNL     1      14.029  32.018  17.957  1.00  0.00    -0.394 OA
ATOM     27  H   UNL     1      14.990  31.813  17.729  1.00  0.00     0.210 HD
ENDBRANCH  25  26
ENDBRANCH  20  25
BRANCH  22  28
ATOM     28  O   UNL     1      17.255  29.294  16.160  1.00  0.00    -0.350 OA
BRANCH  28  29
ATOM     29  C   UNL     1      16.708  29.344  14.876  1.00  0.00     0.169 C 
BRANCH  29  30
ATOM     30  C   UNL     1      17.780  29.974  13.984  1.00  0.00     0.119 C 
BRANCH  30  31
ATOM     31  N   UNL     1      19.004  29.194  14.039  1.00  0.00    -0.092 NA
ATOM     32  N   UNL     1      20.076  29.826  13.933  1.00  0.00     0.001 N 
ATOM     33  N   UNL     1      21.141  30.400  14.127  1.00  0.00    -0.003 NA
ENDBRANCH  30  31
ENDBRANCH  29  30
ENDBRANCH  28  29
ENDBRANCH  22  28
BRANCH  23  34
ATOM     34  O   UNL     1      16.974  28.465  20.698  1.00  0.00    -0.387 OA
ATOM     35  H   UNL     1      16.370  28.186  21.456  1.00  0.00     0.211 HD
ENDBRANCH  23  34
BRANCH  24  36
ATOM     36  O   UNL     1      17.761  27.396  18.165  1.00  0.00    -0.385 OA
ATOM     37  H   UNL     1      17.641  27.122  17.209  1.00  0.00     0.211 HD
ENDBRANCH  24  36
ENDBRANCH  18  19
ENDBRANCH  13  18
BRANCH  15  38
ATOM     38  O   UNL     1      13.165  32.585  22.644  1.00  0.00    -0.385 OA
ATOM     39  H   UNL     1      13.614  33.156  21.945  1.00  0.00     0.211 HD
ENDBRANCH  15  38
BRANCH  16  40
ATOM     40  O   UNL     1      12.792  29.207  23.296  1.00  0.00    -0.387 OA
ATOM     41  H   UNL     1      13.286  28.468  22.833  1.00  0.00     0.211 HD
ENDBRANCH  16  40
BRANCH  17  42
ATOM     42  O   UNL     1      15.321  28.776  22.831  1.00  0.00    -0.387 OA
ATOM     43  H   UNL     1      15.327  28.950  21.850  1.00  0.00     0.211 HD
ENDBRANCH  17  42
ENDBRANCH  11  12
ENDBRANCH  10  11
ENDBRANCH   5  10
BRANCH   5  44
ATOM     44  C   UNL     1      20.119  29.527  23.933  1.00  0.00     0.364 C 
ATOM     45  O   UNL     1      19.656  28.538  24.529  1.00  0.00    -0.246 OA
BRANCH  44  46
ATOM     46  O   UNL     1      21.334  30.047  24.311  1.00  0.00    -0.477 OA
ATOM     47  H   UNL     1      22.191  29.465  24.271  1.00  0.00     0.296 HD
ENDBRANCH  44  46
ENDBRANCH   5  44
BRANCH   8  48
ATOM     48  O   UNL     1      18.253  32.980  21.371  1.00  0.00    -0.391 OA
ATOM     49  H   UNL     1      17.396  32.619  21.099  1.00  0.00     0.211 HD
ENDBRANCH   8  48
BRANCH   9  50
ATOM     50  N   UNL     1      19.218  31.647  19.007  1.00  0.00    -0.348 N 
ATOM     51  C   UNL     1      18.081  32.244  18.354  1.00  0.00     0.217 C 
ATOM     52  H   UNL     1      20.120  31.706  18.518  1.00  0.00     0.163 HD
ATOM     53  C   UNL     1      18.190  32.897  17.022  1.00  0.00     0.114 C 
ATOM     54  O   UNL     1      16.979  32.198  18.940  1.00  0.00    -0.275 OA
ENDBRANCH   9  50
ENDBRANCH   3   4
BRANCH   3  55
ATOM     55  O   UNL     1      20.477  27.713  19.909  1.00  0.00    -0.388 OA
ATOM     56  H   UNL     1      20.720  27.191  19.127  1.00  0.00     0.211 HD
ENDBRANCH   3  55
ENDBRANCH   2   3
BRANCH   2  57
ATOM     57  O   UNL     1      22.810  29.969  19.792  1.00  0.00    -0.388 OA
ATOM     58  H   UNL     1      23.531  29.430  20.164  1.00  0.00     0.211 HD
ENDBRANCH   2  57
ENDBRANCH   1   2
BRANCH   1  59
ATOM     59  N   UNL     1      22.375  28.604  16.735  1.00  0.00    -0.319 N 
ATOM     60  C   UNL     1      21.484  27.582  16.321  1.00  0.00     0.407 C 
ATOM     61  H   UNL     1      23.380  28.513  16.401  1.00  0.00     0.167 HD
ATOM     62  O   UNL     1      20.288  27.638  16.672  1.00  0.00    -0.225 OA
BRANCH  60  63
ATOM     63  O   UNL     1      21.848  26.504  15.542  1.00  0.00    -0.443 OA
BRANCH  63  64
ATOM     64  C   UNL     1      22.580  25.425  16.061  1.00  0.00     0.294 C 
BRANCH  64  65
ATOM     65  C   UNL     1      23.487  25.720  17.169  1.00  0.00     0.120 A 
ATOM     66  C   UNL     1      23.247  25.623  18.516  1.00  0.00     0.138 A 
ATOM     67  N   UNL     1      24.749  26.168  17.072  1.00  0.00    -0.132 NA
ATOM     68  N   UNL     1      24.357  26.009  19.189  1.00  0.00    -0.243 N 
ATOM     69  N   UNL     1      25.249  26.333  18.307  1.00  0.00    -0.067 NA
BRANCH  68  70
ATOM     70  C   UNL     1      24.520  26.026  20.638  1.00  0.00     0.245 C 
BRANCH  70  71
ATOM     71  C   UNL     1      23.549  25.092  21.244  1.00  0.00     0.241 C 
ATOM     72  O   UNL     1      23.801  23.844  21.336  1.00  0.00    -0.273 OA
ATOM     73  N   UNL     1      22.289  25.515  21.762  1.00  0.00    -0.352 N 
ATOM     74  H   UNL     1      22.037  26.517  21.711  1.00  0.00     0.163 HD
BRANCH  73  75
ATOM     75  C   UNL     1      21.403  24.523  22.341  1.00  0.00     0.151 C 
BRANCH  75  76
ATOM     76  C   UNL     1      21.131  24.776  23.792  1.00  0.00     0.168 C 
BRANCH  76  77
ATOM     77  O   UNL     1      20.609  26.037  24.021  1.00  0.00    -0.388 OA
ATOM     78  H   UNL     1      21.197  26.689  23.572  1.00  0.00     0.211 HD
ENDBRANCH  76  77
BRANCH  76  79
ATOM     79  C   UNL     1      22.444  24.596  24.538  1.00  0.00     0.239 C 
BRANCH  79  80
ATOM     80  N   UNL     1      22.646  25.626  25.516  1.00  0.00    -0.227 N 
ATOM     81  C   UNL     1      22.285  25.534  26.823  1.00  0.00     0.204 A 
ATOM     82  C   UNL     1      23.191  26.860  25.381  1.00  0.00     0.434 A 
ATOM     83  C   UNL     1      22.609  26.703  27.466  1.00  0.00     0.245 A 
ATOM     84  N   UNL     1      23.164  27.505  26.564  1.00  0.00    -0.074 NA
BRANCH  82  85
ATOM     85  N   UNL     1      23.727  27.393  24.170  1.00  0.00    -0.047 N 
ATOM     86  O   UNL     1      23.049  27.926  23.293  1.00  0.00    -0.390 OA
ATOM     87  O   UNL     1      25.096  27.296  23.963  1.00  0.00    -0.390 OA
ENDBRANCH  82  85
ENDBRANCH  79  80
ENDBRANCH  76  79
ENDBRANCH  75  76
ENDBRANCH  73  75
ENDBRANCH  70  71
ENDBRANCH  68  70
ENDBRANCH  64  65
ENDBRANCH  63  64
ENDBRANCH  60  63
ENDBRANCH   1  59
TORSDOF 37
