REMARK VINA RESULT:    -5.341      2.784     10.596
REMARK INTER + INTRA:         -21.373
REMARK INTER:                 -14.359
REMARK INTRA:                  -7.014
REMARK UNBOUND:                -7.602
REMARK SMILES CC(=O)N[C@@H]1[C@@H](O)C[C@](OC[C@H]2O[C@@H](O[C@H]3[C@H](O)[C@@H](O)[C@H](OCCN=[N+]=[N-])O[C@@H]3CO)[C@H](O)[C@@H](O)[C@H]2O)(C(=O)O)O[C@H]1C(O)[C@H](O)CNC(=O)OCc1cn(CC(=O)Nc2ncccn2)nn1
REMARK SMILES IDX 9 1 8 2 6 3 5 4 42 5 41 6 10 7 11 8 12 9 14 10 13 11 32 12
REMARK SMILES IDX 34 13 36 14 15 15 16 16 29 17 28 18 21 19 17 20 19 21 30 22
REMARK SMILES IDX 31 23 22 25 23 26 24 27 25 28 26 29 27 30 18 31 20 33 33 35
REMARK SMILES IDX 35 37 37 39 38 41 39 42 40 43 7 45 43 47 44 48 45 50 46 51
REMARK SMILES IDX 47 53 48 54 49 55 50 57 51 58 52 59 53 60 54 61 67 62 55 63
REMARK SMILES IDX 66 64 56 65 57 66 58 67 59 68 60 70 61 71 65 72 62 73 64 74
REMARK SMILES IDX 63 75 4 76 2 77 1 79 3 80
REMARK H PARENT 31 24 18 32 20 34 33 36 35 38 37 40 40 44 7 46 44 49 46 52
REMARK H PARENT 48 56 59 69 4 78
REMARK Flexibility Score: inf
ROOT
ATOM      1  C   UNL     1      17.373  29.611  19.457  1.00  0.00     0.272 C 
ATOM      2  C   UNL     1      17.435  30.465  18.201  1.00  0.00     0.113 C 
ATOM      3  C   UNL     1      16.249  30.240  17.353  1.00  0.00     0.145 C 
ATOM      4  C   UNL     1      14.914  30.218  18.080  1.00  0.00     0.142 C 
ATOM      5  C   UNL     1      15.013  29.797  19.477  1.00  0.00     0.178 C 
ATOM      6  O   UNL     1      16.202  30.190  20.076  1.00  0.00    -0.332 OA
ENDROOT
BRANCH   1   7
ATOM      7  O   UNL     1      18.396  29.926  20.241  1.00  0.00    -0.338 OA
BRANCH   7   8
ATOM      8  C   UNL     1      19.282  29.367  20.962  1.00  0.00     0.199 C 
BRANCH   8   9
ATOM      9  C   UNL     1      20.746  29.240  20.702  1.00  0.00     0.179 C 
ATOM     10  C   UNL     1      22.674  28.686  21.898  1.00  0.00     0.282 C 
ATOM     11  O   UNL     1      21.345  28.954  22.004  1.00  0.00    -0.341 OA
ATOM     12  C   UNL     1      22.870  27.216  21.404  1.00  0.00     0.202 C 
ATOM     13  C   UNL     1      21.517  26.897  20.801  1.00  0.00     0.179 C 
ATOM     14  C   UNL     1      21.212  28.098  19.877  1.00  0.00     0.177 C 
BRANCH  10  15
ATOM     15  O   UNL     1      23.271  28.770  23.162  1.00  0.00    -0.341 OA
BRANCH  15  16
ATOM     16  C   UNL     1      23.126  27.604  23.903  1.00  0.00     0.184 C 
ATOM     17  C   UNL     1      22.393  27.968  25.201  1.00  0.00     0.178 C 
ATOM     18  O   UNL     1      23.080  27.501  26.311  1.00  0.00    -0.341 OA
ATOM     19  C   UNL     1      24.338  28.113  26.421  1.00  0.00     0.281 C 
ATOM     20  C   UNL     1      24.450  26.990  24.165  1.00  0.00     0.180 C 
ATOM     21  C   UNL     1      25.202  27.502  25.356  1.00  0.00     0.202 C 
BRANCH  17  22
ATOM     22  C   UNL     1      21.025  27.306  25.217  1.00  0.00     0.191 C 
BRANCH  22  23
ATOM     23  O   UNL     1      20.105  28.044  24.470  1.00  0.00    -0.394 OA
ATOM     24  H   UNL     1      19.861  28.900  24.917  1.00  0.00     0.210 HD
ENDBRANCH  22  23
ENDBRANCH  17  22
BRANCH  19  25
ATOM     25  O   UNL     1      24.806  27.787  27.680  1.00  0.00    -0.350 OA
BRANCH  25  26
ATOM     26  C   UNL     1      24.919  26.431  27.899  1.00  0.00     0.169 C 
BRANCH  26  27
ATOM     27  C   UNL     1      24.304  25.960  29.200  1.00  0.00     0.119 C 
BRANCH  27  28
ATOM     28  N   UNL     1      23.066  25.231  28.977  1.00  0.00    -0.092 NA
ATOM     29  N   UNL     1      22.821  24.673  27.903  1.00  0.00     0.001 N 
ATOM     30  N   UNL     1      22.698  24.306  26.739  1.00  0.00    -0.003 NA
ENDBRANCH  27  28
ENDBRANCH  26  27
ENDBRANCH  25  26
ENDBRANCH  19  25
BRANCH  20  31
ATOM     31  O   UNL     1      24.270  25.599  24.399  1.00  0.00    -0.387 OA
ATOM     32  H   UNL     1      25.019  25.263  24.971  1.00  0.00     0.211 HD
ENDBRANCH  20  31
BRANCH  21  33
ATOM     33  O   UNL     1      26.139  28.435  24.924  1.00  0.00    -0.385 OA
ATOM     34  H   UNL     1      26.990  27.979  24.719  1.00  0.00     0.211 HD
ENDBRANCH  21  33
ENDBRANCH  15  16
ENDBRANCH  10  15
BRANCH  12  35
ATOM     35  O   UNL     1      23.768  27.244  20.331  1.00  0.00    -0.385 OA
ATOM     36  H   UNL     1      23.281  27.668  19.574  1.00  0.00     0.211 HD
ENDBRANCH  12  35
BRANCH  13  37
ATOM     37  O   UNL     1      20.536  26.674  21.729  1.00  0.00    -0.387 OA
ATOM     38  H   UNL     1      19.639  26.596  21.350  1.00  0.00     0.211 HD
ENDBRANCH  13  37
BRANCH  14  39
ATOM     39  O   UNL     1      20.474  27.649  18.839  1.00  0.00    -0.387 OA
ATOM     40  H   UNL     1      19.581  28.072  18.798  1.00  0.00     0.211 HD
ENDBRANCH  14  39
ENDBRANCH   8   9
ENDBRANCH   7   8
ENDBRANCH   1   7
BRANCH   1  41
ATOM     41  C   UNL     1      17.131  28.198  19.254  1.00  0.00     0.364 C 
ATOM     42  O   UNL     1      17.591  27.616  18.214  1.00  0.00    -0.246 OA
BRANCH  41  43
ATOM     43  O   UNL     1      16.420  27.380  20.099  1.00  0.00    -0.477 OA
ATOM     44  H   UNL     1      16.429  27.417  21.090  1.00  0.00     0.296 HD
ENDBRANCH  41  43
ENDBRANCH   1  41
BRANCH   3  45
ATOM     45  O   UNL     1      16.236  31.274  16.383  1.00  0.00    -0.391 OA
ATOM     46  H   UNL     1      15.569  31.970  16.667  1.00  0.00     0.211 HD
ENDBRANCH   3  45
BRANCH   5  47
ATOM     47  C   UNL     1      13.923  30.382  20.412  1.00  0.00     0.176 C 
BRANCH  47  48
ATOM     48  O   UNL     1      12.877  30.955  19.797  1.00  0.00    -0.388 OA
ATOM     49  H   UNL     1      12.416  31.675  20.311  1.00  0.00     0.211 HD
ENDBRANCH  47  48
BRANCH  47  50
ATOM     50  C   UNL     1      13.766  29.726  21.695  1.00  0.00     0.165 C 
BRANCH  50  51
ATOM     51  O   UNL     1      13.788  28.270  21.343  1.00  0.00    -0.388 OA
ATOM     52  H   UNL     1      13.769  27.766  22.172  1.00  0.00     0.211 HD
ENDBRANCH  50  51
BRANCH  50  53
ATOM     53  C   UNL     1      12.669  29.890  22.628  1.00  0.00     0.154 C 
BRANCH  53  54
ATOM     54  N   UNL     1      12.668  30.531  23.860  1.00  0.00    -0.319 N 
ATOM     55  C   UNL     1      12.642  31.877  24.278  1.00  0.00     0.407 C 
ATOM     56  H   UNL     1      12.695  29.816  24.719  1.00  0.00     0.167 HD
ATOM     57  O   UNL     1      12.624  32.808  23.453  1.00  0.00    -0.225 OA
BRANCH  55  58
ATOM     58  O   UNL     1      12.630  32.213  25.608  1.00  0.00    -0.443 OA
BRANCH  58  59
ATOM     59  C   UNL     1      13.652  32.304  26.495  1.00  0.00     0.294 C 
BRANCH  59  60
ATOM     60  C   UNL     1      14.956  31.832  25.977  1.00  0.00     0.120 A 
ATOM     61  C   UNL     1      16.011  32.635  25.523  1.00  0.00     0.138 A 
ATOM     62  N   UNL     1      15.406  30.565  25.759  1.00  0.00    -0.132 NA
ATOM     63  N   UNL     1      17.012  31.875  25.067  1.00  0.00    -0.243 N 
ATOM     64  N   UNL     1      16.606  30.628  25.227  1.00  0.00    -0.067 NA
BRANCH  63  65
ATOM     65  C   UNL     1      18.290  32.267  24.507  1.00  0.00     0.246 C 
BRANCH  65  66
ATOM     66  C   UNL     1      19.365  31.493  25.240  1.00  0.00     0.248 C 
ATOM     67  O   UNL     1      20.271  30.876  24.628  1.00  0.00    -0.272 OA
ATOM     68  N   UNL     1      19.367  31.454  26.656  1.00  0.00    -0.293 N 
ATOM     69  H   UNL     1      18.587  31.987  27.116  1.00  0.00     0.173 HD
BRANCH  68  70
ATOM     70  C   UNL     1      20.307  30.789  27.472  1.00  0.00     0.229 A 
ATOM     71  N   UNL     1      20.159  29.537  27.941  1.00  0.00    -0.221 NA
ATOM     72  N   UNL     1      21.429  31.453  27.814  1.00  0.00    -0.221 NA
ATOM     73  C   UNL     1      21.089  28.933  28.738  1.00  0.00     0.117 A 
ATOM     74  C   UNL     1      22.370  30.911  28.587  1.00  0.00     0.117 A 
ATOM     75  C   UNL     1      22.225  29.639  29.069  1.00  0.00     0.040 A 
ENDBRANCH  68  70
ENDBRANCH  65  66
ENDBRANCH  63  65
ENDBRANCH  59  60
ENDBRANCH  58  59
ENDBRANCH  55  58
ENDBRANCH  53  54
ENDBRANCH  50  53
ENDBRANCH  47  50
ENDBRANCH   5  47
BRANCH   4  76
ATOM     76  N   UNL     1      14.018  29.495  17.230  1.00  0.00    -0.348 N 
ATOM     77  C   UNL     1      12.916  30.153  16.565  1.00  0.00     0.217 C 
ATOM     78  H   UNL     1      14.124  28.460  17.054  1.00  0.00     0.163 HD
ATOM     79  C   UNL     1      12.033  29.347  15.696  1.00  0.00     0.114 C 
ATOM     80  O   UNL     1      12.725  31.375  16.731  1.00  0.00    -0.275 OA
ENDBRANCH   4  76
TORSDOF 32
