REMARK VINA RESULT:    -6.024     14.387     20.444
REMARK INTER + INTRA:         -21.606
REMARK INTER:                 -14.257
REMARK INTRA:                  -7.349
REMARK UNBOUND:                -6.778
REMARK SMILES CC(=O)N[C@@H]1[C@@H](O)C[C@](OC[C@H]2O[C@@H](O[C@H]3[C@H](O)[C@@H](O)[C@H](OCCN=[N+]=[N-])O[C@@H]3CO)[C@H](O)[C@@H](O)[C@H]2O)(C(=O)O)O[C@H]1C(O)[C@H](O)CNC(=O)OCc1cn(-c2ccc3c(c2)OCO3)nn1
REMARK SMILES IDX 9 1 8 2 6 3 5 4 42 5 41 6 10 7 11 8 12 9 14 10 13 11 32 12
REMARK SMILES IDX 34 13 36 14 15 15 16 16 29 17 28 18 21 19 17 20 19 21 30 22
REMARK SMILES IDX 31 23 22 25 23 26 24 27 25 28 26 29 27 30 18 31 20 33 33 35
REMARK SMILES IDX 35 37 37 39 38 41 39 42 40 43 7 45 43 47 44 48 45 50 46 51
REMARK SMILES IDX 47 53 48 54 49 55 50 57 51 58 52 59 53 60 54 61 66 62 55 63
REMARK SMILES IDX 65 64 56 65 57 66 61 67 58 68 60 69 59 70 62 71 64 72 63 73
REMARK SMILES IDX 4 74 2 75 1 77 3 78
REMARK H PARENT 31 24 18 32 20 34 33 36 35 38 37 40 40 44 7 46 44 49 46 52
REMARK H PARENT 48 56 4 76
REMARK Flexibility Score: inf
ROOT
ATOM      1  C   UNL     1       2.620  21.582  35.152  1.00  0.00     0.272 C 
ATOM      2  C   UNL     1       2.230  20.130  35.154  1.00  0.00     0.113 C 
ATOM      3  C   UNL     1       2.994  19.327  34.084  1.00  0.00     0.145 C 
ATOM      4  C   UNL     1       2.477  19.845  32.758  1.00  0.00     0.142 C 
ATOM      5  C   UNL     1       2.663  21.347  32.806  1.00  0.00     0.178 C 
ATOM      6  O   UNL     1       3.280  21.822  33.913  1.00  0.00    -0.332 OA
ENDROOT
BRANCH   1   7
ATOM      7  O   UNL     1       3.500  21.916  36.082  1.00  0.00    -0.338 OA
BRANCH   7   8
ATOM      8  C   UNL     1       3.422  22.131  37.359  1.00  0.00     0.199 C 
BRANCH   8   9
ATOM      9  C   UNL     1       4.352  23.075  38.073  1.00  0.00     0.179 C 
ATOM     10  C   UNL     1       6.368  24.171  37.672  1.00  0.00     0.282 C 
ATOM     11  O   UNL     1       5.531  23.127  37.375  1.00  0.00    -0.341 OA
ATOM     12  C   UNL     1       5.982  24.935  38.895  1.00  0.00     0.202 C 
ATOM     13  C   UNL     1       4.552  25.439  38.817  1.00  0.00     0.179 C 
ATOM     14  C   UNL     1       3.689  24.477  38.067  1.00  0.00     0.177 C 
BRANCH  10  15
ATOM     15  O   UNL     1       6.294  25.074  36.593  1.00  0.00    -0.341 OA
BRANCH  15  16
ATOM     16  C   UNL     1       7.408  25.054  35.795  1.00  0.00     0.184 C 
ATOM     17  C   UNL     1       7.709  26.451  35.318  1.00  0.00     0.178 C 
ATOM     18  O   UNL     1       7.025  26.812  34.181  1.00  0.00    -0.341 OA
ATOM     19  C   UNL     1       5.797  26.160  34.055  1.00  0.00     0.281 C 
ATOM     20  C   UNL     1       7.124  24.109  34.651  1.00  0.00     0.180 C 
ATOM     21  C   UNL     1       5.970  24.675  33.855  1.00  0.00     0.202 C 
BRANCH  17  22
ATOM     22  C   UNL     1       9.193  26.635  35.031  1.00  0.00     0.191 C 
BRANCH  22  23
ATOM     23  O   UNL     1       9.457  26.560  33.669  1.00  0.00    -0.394 OA
ATOM     24  H   UNL     1       9.069  25.732  33.249  1.00  0.00     0.210 HD
ENDBRANCH  22  23
ENDBRANCH  17  22
BRANCH  19  25
ATOM     25  O   UNL     1       5.211  26.682  32.910  1.00  0.00    -0.350 OA
BRANCH  25  26
ATOM     26  C   UNL     1       3.912  27.077  33.212  1.00  0.00     0.169 C 
BRANCH  26  27
ATOM     27  C   UNL     1       2.938  26.642  32.122  1.00  0.00     0.119 C 
BRANCH  27  28
ATOM     28  N   UNL     1       2.517  25.274  32.461  1.00  0.00    -0.092 NA
ATOM     29  N   UNL     1       1.875  24.616  31.614  1.00  0.00     0.001 N 
ATOM     30  N   UNL     1       1.212  24.155  30.668  1.00  0.00    -0.003 NA
ENDBRANCH  27  28
ENDBRANCH  26  27
ENDBRANCH  25  26
ENDBRANCH  19  25
BRANCH  20  31
ATOM     31  O   UNL     1       8.230  23.846  33.868  1.00  0.00    -0.387 OA
ATOM     32  H   UNL     1       8.751  24.665  33.616  1.00  0.00     0.211 HD
ENDBRANCH  20  31
BRANCH  21  33
ATOM     33  O   UNL     1       4.804  24.052  34.305  1.00  0.00    -0.385 OA
ATOM     34  H   UNL     1       4.833  23.066  34.212  1.00  0.00     0.211 HD
ENDBRANCH  21  33
ENDBRANCH  15  16
ENDBRANCH  10  15
BRANCH  12  35
ATOM     35  O   UNL     1       6.142  24.234  40.087  1.00  0.00    -0.385 OA
ATOM     36  H   UNL     1       6.663  24.820  40.721  1.00  0.00     0.211 HD
ENDBRANCH  12  35
BRANCH  13  37
ATOM     37  O   UNL     1       4.570  26.685  38.185  1.00  0.00    -0.387 OA
ATOM     38  H   UNL     1       4.897  27.410  38.748  1.00  0.00     0.211 HD
ENDBRANCH  13  37
BRANCH  14  39
ATOM     39  O   UNL     1       3.559  24.927  36.757  1.00  0.00    -0.387 OA
ATOM     40  H   UNL     1       3.810  24.271  36.086  1.00  0.00     0.211 HD
ENDBRANCH  14  39
ENDBRANCH   8   9
ENDBRANCH   7   8
ENDBRANCH   1   7
BRANCH   1  41
ATOM     41  C   UNL     1       1.407  22.461  35.128  1.00  0.00     0.364 C 
ATOM     42  O   UNL     1       0.286  21.862  35.289  1.00  0.00    -0.246 OA
BRANCH  41  43
ATOM     43  O   UNL     1       1.392  23.807  34.952  1.00  0.00    -0.477 OA
ATOM     44  H   UNL     1       1.386  24.477  35.705  1.00  0.00     0.296 HD
ENDBRANCH  41  43
ENDBRANCH   1  41
BRANCH   3  45
ATOM     45  O   UNL     1       4.343  19.660  34.266  1.00  0.00    -0.391 OA
ATOM     46  H   UNL     1       4.655  20.239  33.536  1.00  0.00     0.211 HD
ENDBRANCH   3  45
BRANCH   5  47
ATOM     47  C   UNL     1       3.625  21.655  31.639  1.00  0.00     0.176 C 
BRANCH  47  48
ATOM     48  O   UNL     1       4.891  21.953  32.053  1.00  0.00    -0.388 OA
ATOM     49  H   UNL     1       5.285  21.296  32.678  1.00  0.00     0.211 HD
ENDBRANCH  47  48
BRANCH  47  50
ATOM     50  C   UNL     1       3.662  20.502  30.643  1.00  0.00     0.165 C 
BRANCH  50  51
ATOM     51  O   UNL     1       4.888  20.314  30.099  1.00  0.00    -0.388 OA
ATOM     52  H   UNL     1       4.922  19.963  29.185  1.00  0.00     0.211 HD
ENDBRANCH  50  51
BRANCH  50  53
ATOM     53  C   UNL     1       2.627  20.812  29.608  1.00  0.00     0.154 C 
BRANCH  53  54
ATOM     54  N   UNL     1       2.950  21.973  28.839  1.00  0.00    -0.319 N 
ATOM     55  C   UNL     1       2.444  22.282  27.550  1.00  0.00     0.407 C 
ATOM     56  H   UNL     1       3.633  22.716  29.224  1.00  0.00     0.167 HD
ATOM     57  O   UNL     1       1.630  21.524  26.983  1.00  0.00    -0.225 OA
BRANCH  55  58
ATOM     58  O   UNL     1       2.836  23.440  26.873  1.00  0.00    -0.443 OA
BRANCH  58  59
ATOM     59  C   UNL     1       2.923  24.701  27.477  1.00  0.00     0.294 C 
BRANCH  59  60
ATOM     60  C   UNL     1       3.564  25.652  26.506  1.00  0.00     0.121 A 
ATOM     61  C   UNL     1       4.861  26.159  26.599  1.00  0.00     0.144 A 
ATOM     62  N   UNL     1       3.052  26.184  25.389  1.00  0.00    -0.131 NA
ATOM     63  N   UNL     1       5.081  26.973  25.543  1.00  0.00    -0.220 N 
ATOM     64  N   UNL     1       3.958  26.954  24.842  1.00  0.00    -0.062 NA
BRANCH  63  65
ATOM     65  C   UNL     1       6.247  27.693  25.228  1.00  0.00     0.070 A 
ATOM     66  C   UNL     1       7.475  27.097  25.304  1.00  0.00     0.032 A 
ATOM     67  C   UNL     1       6.169  29.006  24.834  1.00  0.00     0.079 A 
ATOM     68  C   UNL     1       8.629  27.826  24.983  1.00  0.00     0.053 A 
ATOM     69  C   UNL     1       7.293  29.738  24.515  1.00  0.00     0.167 A 
ATOM     70  C   UNL     1       8.523  29.138  24.593  1.00  0.00     0.165 A 
ATOM     71  O   UNL     1       7.448  31.044  24.103  1.00  0.00    -0.454 OA
ATOM     72  O   UNL     1       9.479  30.075  24.224  1.00  0.00    -0.454 OA
ATOM     73  C   UNL     1       8.849  31.327  24.205  1.00  0.00     0.468 C 
ENDBRANCH  63  65
ENDBRANCH  59  60
ENDBRANCH  58  59
ENDBRANCH  55  58
ENDBRANCH  53  54
ENDBRANCH  50  53
ENDBRANCH  47  50
ENDBRANCH   5  47
BRANCH   4  74
ATOM     74  N   UNL     1       1.121  19.424  32.580  1.00  0.00    -0.348 N 
ATOM     75  C   UNL     1       0.790  18.245  31.816  1.00  0.00     0.217 C 
ATOM     76  H   UNL     1       0.289  19.914  32.969  1.00  0.00     0.163 HD
ATOM     77  C   UNL     1      -0.624  17.817  31.638  1.00  0.00     0.114 C 
ATOM     78  O   UNL     1       1.699  17.584  31.303  1.00  0.00    -0.275 OA
ENDBRANCH   4  74
TORSDOF 30
