REMARK VINA RESULT:    -5.805     14.477     18.742
REMARK INTER + INTRA:         -19.706
REMARK INTER:                 -13.248
REMARK INTRA:                  -6.458
REMARK UNBOUND:                -4.909
REMARK SMILES CC(=O)N[C@@H]1[C@@H](O)C[C@](OC[C@H]2O[C@@H](O[C@H]3[C@H](O)[C@@H](O)[C@H](OCCN=[N+]=[N-])O[C@@H]3CO)[C@H](O)[C@@H](O)[C@H]2O)(C(=O)O)O[C@H]1C(O)[C@H](O)CNC(=O)OCc1cn(CCO)nn1
REMARK SMILES IDX 9 1 8 2 6 3 5 4 42 5 41 6 10 7 11 8 12 9 14 10 13 11 32 12
REMARK SMILES IDX 34 13 36 14 15 15 16 16 29 17 28 18 21 19 17 20 19 21 30 22
REMARK SMILES IDX 31 23 22 25 23 26 24 27 25 28 26 29 27 30 18 31 20 33 33 35
REMARK SMILES IDX 35 37 37 39 38 41 39 42 40 43 7 45 43 47 44 48 45 50 46 51
REMARK SMILES IDX 47 53 48 54 49 55 50 57 51 58 52 59 53 60 54 61 60 62 55 63
REMARK SMILES IDX 59 64 56 65 57 66 58 67 4 69 2 70 1 72 3 73
REMARK H PARENT 31 24 18 32 20 34 33 36 35 38 37 40 40 44 7 46 44 49 46 52
REMARK H PARENT 48 56 58 68 4 71
REMARK Flexibility Score: inf
ROOT
ATOM      1  C   UNL     1      15.634  29.258  19.509  1.00  0.00     0.272 C 
ATOM      2  C   UNL     1      14.296  28.794  19.985  1.00  0.00     0.113 C 
ATOM      3  C   UNL     1      14.268  28.753  21.488  1.00  0.00     0.145 C 
ATOM      4  C   UNL     1      14.634  30.163  21.953  1.00  0.00     0.142 C 
ATOM      5  C   UNL     1      16.081  30.381  21.527  1.00  0.00     0.178 C 
ATOM      6  O   UNL     1      16.001  30.422  20.115  1.00  0.00    -0.332 OA
ENDROOT
BRANCH   1   7
ATOM      7  O   UNL     1      15.624  29.488  18.114  1.00  0.00    -0.338 OA
BRANCH   7   8
ATOM      8  C   UNL     1      14.432  29.857  17.584  1.00  0.00     0.199 C 
BRANCH   8   9
ATOM      9  C   UNL     1      14.621  30.549  16.225  1.00  0.00     0.179 C 
ATOM     10  C   UNL     1      16.193  30.974  14.572  1.00  0.00     0.282 C 
ATOM     11  O   UNL     1      15.953  30.529  15.872  1.00  0.00    -0.341 OA
ATOM     12  C   UNL     1      15.539  30.096  13.538  1.00  0.00     0.202 C 
ATOM     13  C   UNL     1      14.394  29.275  14.076  1.00  0.00     0.179 C 
ATOM     14  C   UNL     1      13.700  30.032  15.173  1.00  0.00     0.177 C 
BRANCH  10  15
ATOM     15  O   UNL     1      17.524  30.945  14.400  1.00  0.00    -0.341 OA
BRANCH  15  16
ATOM     16  C   UNL     1      18.358  30.677  15.417  1.00  0.00     0.184 C 
ATOM     17  C   UNL     1      19.222  31.696  16.014  1.00  0.00     0.178 C 
ATOM     18  O   UNL     1      20.430  31.146  16.403  1.00  0.00    -0.341 OA
ATOM     19  C   UNL     1      20.414  29.927  17.003  1.00  0.00     0.281 C 
ATOM     20  C   UNL     1      19.297  29.567  14.877  1.00  0.00     0.180 C 
ATOM     21  C   UNL     1      19.779  28.844  16.116  1.00  0.00     0.202 C 
BRANCH  17  22
ATOM     22  C   UNL     1      18.614  32.369  17.241  1.00  0.00     0.191 C 
BRANCH  22  23
ATOM     23  O   UNL     1      17.646  31.567  17.847  1.00  0.00    -0.394 OA
ATOM     24  H   UNL     1      17.411  31.969  18.705  1.00  0.00     0.210 HD
ENDBRANCH  22  23
ENDBRANCH  17  22
BRANCH  19  25
ATOM     25  O   UNL     1      19.942  29.868  18.283  1.00  0.00    -0.350 OA
BRANCH  25  26
ATOM     26  C   UNL     1      20.843  29.598  19.268  1.00  0.00     0.169 C 
BRANCH  26  27
ATOM     27  C   UNL     1      21.870  28.617  18.812  1.00  0.00     0.119 C 
BRANCH  27  28
ATOM     28  N   UNL     1      21.413  27.255  19.136  1.00  0.00    -0.092 NA
ATOM     29  N   UNL     1      21.394  26.990  20.352  1.00  0.00     0.001 N 
ATOM     30  N   UNL     1      20.813  26.804  21.436  1.00  0.00    -0.003 NA
ENDBRANCH  27  28
ENDBRANCH  26  27
ENDBRANCH  25  26
ENDBRANCH  19  25
BRANCH  20  31
ATOM     31  O   UNL     1      18.636  28.753  13.995  1.00  0.00    -0.387 OA
ATOM     32  H   UNL     1      17.654  28.760  14.126  1.00  0.00     0.211 HD
ENDBRANCH  20  31
BRANCH  21  33
ATOM     33  O   UNL     1      20.640  27.829  15.796  1.00  0.00    -0.385 OA
ATOM     34  H   UNL     1      20.203  26.942  15.787  1.00  0.00     0.211 HD
ENDBRANCH  21  33
ENDBRANCH  15  16
ENDBRANCH  10  15
BRANCH  12  35
ATOM     35  O   UNL     1      14.978  30.934  12.561  1.00  0.00    -0.385 OA
ATOM     36  H   UNL     1      14.328  31.568  12.923  1.00  0.00     0.211 HD
ENDBRANCH  12  35
BRANCH  13  37
ATOM     37  O   UNL     1      14.853  28.042  14.458  1.00  0.00    -0.387 OA
ATOM     38  H   UNL     1      14.885  27.946  15.461  1.00  0.00     0.211 HD
ENDBRANCH  13  37
BRANCH  14  39
ATOM     39  O   UNL     1      12.813  29.128  15.799  1.00  0.00    -0.387 OA
ATOM     40  H   UNL     1      12.699  29.352  16.755  1.00  0.00     0.211 HD
ENDBRANCH  14  39
ENDBRANCH   8   9
ENDBRANCH   7   8
ENDBRANCH   1   7
BRANCH   1  41
ATOM     41  C   UNL     1      16.608  28.159  19.685  1.00  0.00     0.364 C 
ATOM     42  O   UNL     1      17.717  28.318  20.228  1.00  0.00    -0.246 OA
BRANCH  41  43
ATOM     43  O   UNL     1      16.317  26.880  19.243  1.00  0.00    -0.477 OA
ATOM     44  H   UNL     1      17.019  26.120  19.232  1.00  0.00     0.296 HD
ENDBRANCH  41  43
ENDBRANCH   1  41
BRANCH   3  45
ATOM     45  O   UNL     1      12.956  28.517  21.954  1.00  0.00    -0.391 OA
ATOM     46  H   UNL     1      12.491  27.917  21.310  1.00  0.00     0.211 HD
ENDBRANCH   3  45
BRANCH   5  47
ATOM     47  C   UNL     1      16.499  31.762  21.917  1.00  0.00     0.176 C 
BRANCH  47  48
ATOM     48  O   UNL     1      16.595  31.903  23.302  1.00  0.00    -0.388 OA
ATOM     49  H   UNL     1      17.496  31.652  23.640  1.00  0.00     0.211 HD
ENDBRANCH  47  48
BRANCH  47  50
ATOM     50  C   UNL     1      17.676  32.365  21.255  1.00  0.00     0.165 C 
BRANCH  50  51
ATOM     51  O   UNL     1      18.344  31.195  20.687  1.00  0.00    -0.388 OA
ATOM     52  H   UNL     1      17.933  30.390  21.079  1.00  0.00     0.211 HD
ENDBRANCH  50  51
BRANCH  50  53
ATOM     53  C   UNL     1      18.744  32.865  22.211  1.00  0.00     0.154 C 
BRANCH  53  54
ATOM     54  N   UNL     1      19.482  31.823  22.850  1.00  0.00    -0.319 N 
ATOM     55  C   UNL     1      20.820  31.543  22.473  1.00  0.00     0.407 C 
ATOM     56  H   UNL     1      19.053  31.224  23.611  1.00  0.00     0.167 HD
ATOM     57  O   UNL     1      21.304  32.266  21.538  1.00  0.00    -0.225 OA
BRANCH  55  58
ATOM     58  O   UNL     1      21.629  30.582  23.016  1.00  0.00    -0.443 OA
BRANCH  58  59
ATOM     59  C   UNL     1      21.500  30.268  24.390  1.00  0.00     0.294 C 
BRANCH  59  60
ATOM     60  C   UNL     1      21.242  28.846  24.631  1.00  0.00     0.120 A 
ATOM     61  C   UNL     1      22.201  27.889  24.853  1.00  0.00     0.138 A 
ATOM     62  N   UNL     1      20.068  28.198  24.685  1.00  0.00    -0.132 NA
ATOM     63  N   UNL     1      21.602  26.695  25.035  1.00  0.00    -0.250 N 
ATOM     64  N   UNL     1      20.310  26.903  24.930  1.00  0.00    -0.067 NA
BRANCH  63  65
ATOM     65  C   UNL     1      22.291  25.424  25.299  1.00  0.00     0.174 C 
BRANCH  65  66
ATOM     66  C   UNL     1      22.904  25.499  26.676  1.00  0.00     0.179 C 
BRANCH  66  67
ATOM     67  O   UNL     1      22.707  24.252  27.291  1.00  0.00    -0.394 OA
ATOM     68  H   UNL     1      22.010  24.260  27.969  1.00  0.00     0.210 HD
ENDBRANCH  66  67
ENDBRANCH  65  66
ENDBRANCH  63  65
ENDBRANCH  59  60
ENDBRANCH  58  59
ENDBRANCH  55  58
ENDBRANCH  53  54
ENDBRANCH  50  53
ENDBRANCH  47  50
ENDBRANCH   5  47
BRANCH   4  69
ATOM     69  N   UNL     1      14.326  30.408  23.307  1.00  0.00    -0.348 N 
ATOM     70  C   UNL     1      13.139  31.009  23.785  1.00  0.00     0.217 C 
ATOM     71  H   UNL     1      15.010  30.116  24.051  1.00  0.00     0.163 HD
ATOM     72  C   UNL     1      12.952  31.208  25.237  1.00  0.00     0.114 C 
ATOM     73  O   UNL     1      12.248  31.373  23.002  1.00  0.00    -0.275 OA
ENDBRANCH   4  69
TORSDOF 32
