REMARK VINA RESULT:    -6.011     14.077     18.283
REMARK INTER + INTRA:         -21.093
REMARK INTER:                 -14.795
REMARK INTRA:                  -6.298
REMARK UNBOUND:                -6.298
REMARK SMILES CC(=O)N[C@@H]1[C@@H](O)C[C@](OC[C@H]2O[C@@H](O[C@H]3[C@H](O)[C@@H](O)[C@H](OCCN=[N+]=[N-])O[C@@H]3CO)[C@H](O)[C@@H](O)[C@H]2O)(C(=O)O)O[C@H]1C(O)[C@H](O)CNC(=O)OCc1cn(-c2c(C)cc(C)cc2C)nn1
REMARK SMILES IDX 9 1 8 2 6 3 5 4 42 5 41 6 10 7 11 8 12 9 14 10 13 11 32 12
REMARK SMILES IDX 34 13 36 14 15 15 16 16 29 17 28 18 21 19 17 20 19 21 30 22
REMARK SMILES IDX 31 23 22 25 23 26 24 27 25 28 26 29 27 30 18 31 20 33 33 35
REMARK SMILES IDX 35 37 37 39 38 41 39 42 40 43 7 45 43 47 44 48 45 50 46 51
REMARK SMILES IDX 47 53 48 54 49 55 50 57 51 58 52 59 53 60 54 61 66 62 55 63
REMARK SMILES IDX 65 64 56 65 57 66 63 67 58 68 59 69 62 70 64 71 60 72 61 73
REMARK SMILES IDX 4 74 2 75 1 77 3 78
REMARK H PARENT 31 24 18 32 20 34 33 36 35 38 37 40 40 44 7 46 44 49 46 52
REMARK H PARENT 48 56 4 76
REMARK Flexibility Score: inf
ROOT
ATOM      1  C   UNL     1       3.535  23.914  34.095  1.00  0.00     0.272 C 
ATOM      2  C   UNL     1       3.351  25.148  34.889  1.00  0.00     0.113 C 
ATOM      3  C   UNL     1       4.101  26.369  34.417  1.00  0.00     0.145 C 
ATOM      4  C   UNL     1       5.416  25.966  33.831  1.00  0.00     0.142 C 
ATOM      5  C   UNL     1       5.747  24.609  34.467  1.00  0.00     0.178 C 
ATOM      6  O   UNL     1       4.891  23.667  33.836  1.00  0.00    -0.332 OA
ENDROOT
BRANCH   1   7
ATOM      7  O   UNL     1       2.814  23.783  32.947  1.00  0.00    -0.338 OA
BRANCH   7   8
ATOM      8  C   UNL     1       1.484  23.992  32.945  1.00  0.00     0.199 C 
BRANCH   8   9
ATOM      9  C   UNL     1       0.951  23.566  31.569  1.00  0.00     0.179 C 
ATOM     10  C   UNL     1       1.724  23.530  29.401  1.00  0.00     0.282 C 
ATOM     11  O   UNL     1       1.579  24.274  30.562  1.00  0.00    -0.341 OA
ATOM     12  C   UNL     1       2.750  22.471  29.710  1.00  0.00     0.202 C 
ATOM     13  C   UNL     1       2.104  21.544  30.728  1.00  0.00     0.179 C 
ATOM     14  C   UNL     1       0.886  22.095  31.382  1.00  0.00     0.177 C 
BRANCH  10  15
ATOM     15  O   UNL     1       1.942  24.265  28.298  1.00  0.00    -0.341 OA
BRANCH  15  16
ATOM     16  C   UNL     1       3.088  24.965  28.182  1.00  0.00     0.184 C 
ATOM     17  C   UNL     1       2.801  26.442  28.389  1.00  0.00     0.178 C 
ATOM     18  O   UNL     1       2.772  27.151  27.226  1.00  0.00    -0.341 OA
ATOM     19  C   UNL     1       3.970  27.174  26.529  1.00  0.00     0.281 C 
ATOM     20  C   UNL     1       3.652  24.756  26.773  1.00  0.00     0.180 C 
ATOM     21  C   UNL     1       4.646  25.854  26.442  1.00  0.00     0.202 C 
BRANCH  17  22
ATOM     22  C   UNL     1       3.734  27.036  29.431  1.00  0.00     0.191 C 
BRANCH  22  23
ATOM     23  O   UNL     1       3.785  26.226  30.563  1.00  0.00    -0.394 OA
ATOM     24  H   UNL     1       3.287  26.590  31.330  1.00  0.00     0.210 HD
ENDBRANCH  22  23
ENDBRANCH  17  22
BRANCH  19  25
ATOM     25  O   UNL     1       4.854  28.113  27.077  1.00  0.00    -0.350 OA
BRANCH  25  26
ATOM     26  C   UNL     1       6.119  28.055  26.549  1.00  0.00     0.169 C 
BRANCH  26  27
ATOM     27  C   UNL     1       6.385  29.000  25.419  1.00  0.00     0.119 C 
BRANCH  27  28
ATOM     28  N   UNL     1       7.592  28.659  24.688  1.00  0.00    -0.092 NA
ATOM     29  N   UNL     1       7.915  27.467  24.510  1.00  0.00     0.001 N 
ATOM     30  N   UNL     1       8.025  26.242  24.389  1.00  0.00    -0.003 NA
ENDBRANCH  27  28
ENDBRANCH  26  27
ENDBRANCH  25  26
ENDBRANCH  19  25
BRANCH  20  31
ATOM     31  O   UNL     1       4.286  23.548  26.619  1.00  0.00    -0.387 OA
ATOM     32  H   UNL     1       4.450  23.281  25.678  1.00  0.00     0.211 HD
ENDBRANCH  20  31
BRANCH  21  33
ATOM     33  O   UNL     1       5.062  25.641  25.130  1.00  0.00    -0.385 OA
ATOM     34  H   UNL     1       4.310  25.309  24.565  1.00  0.00     0.211 HD
ENDBRANCH  21  33
ENDBRANCH  15  16
ENDBRANCH  10  15
BRANCH  12  35
ATOM     35  O   UNL     1       3.074  21.699  28.598  1.00  0.00    -0.385 OA
ATOM     36  H   UNL     1       2.329  21.034  28.480  1.00  0.00     0.211 HD
ENDBRANCH  12  35
BRANCH  13  37
ATOM     37  O   UNL     1       3.013  21.164  31.714  1.00  0.00    -0.387 OA
ATOM     38  H   UNL     1       3.483  21.931  32.130  1.00  0.00     0.211 HD
ENDBRANCH  13  37
BRANCH  14  39
ATOM     39  O   UNL     1       0.760  21.460  32.641  1.00  0.00    -0.387 OA
ATOM     40  H   UNL     1       0.470  20.525  32.531  1.00  0.00     0.211 HD
ENDBRANCH  14  39
ENDBRANCH   8   9
ENDBRANCH   7   8
ENDBRANCH   1   7
BRANCH   1  41
ATOM     41  C   UNL     1       3.170  22.769  35.014  1.00  0.00     0.364 C 
ATOM     42  O   UNL     1       3.507  21.623  34.702  1.00  0.00    -0.246 OA
BRANCH  41  43
ATOM     43  O   UNL     1       2.471  22.979  36.187  1.00  0.00    -0.477 OA
ATOM     44  H   UNL     1       1.878  22.302  36.633  1.00  0.00     0.296 HD
ENDBRANCH  41  43
ENDBRANCH   1  41
BRANCH   3  45
ATOM     45  O   UNL     1       3.267  27.043  33.526  1.00  0.00    -0.391 OA
ATOM     46  H   UNL     1       2.992  27.920  33.948  1.00  0.00     0.211 HD
ENDBRANCH   3  45
BRANCH   5  47
ATOM     47  C   UNL     1       7.109  24.107  34.191  1.00  0.00     0.176 C 
BRANCH  47  48
ATOM     48  O   UNL     1       6.966  22.706  33.878  1.00  0.00    -0.388 OA
ATOM     49  H   UNL     1       6.497  22.264  34.632  1.00  0.00     0.211 HD
ENDBRANCH  47  48
BRANCH  47  50
ATOM     50  C   UNL     1       8.089  24.063  35.347  1.00  0.00     0.165 C 
BRANCH  50  51
ATOM     51  O   UNL     1       8.771  25.332  35.200  1.00  0.00    -0.388 OA
ATOM     52  H   UNL     1       8.108  26.050  35.201  1.00  0.00     0.211 HD
ENDBRANCH  50  51
BRANCH  50  53
ATOM     53  C   UNL     1       9.195  23.066  35.106  1.00  0.00     0.154 C 
BRANCH  53  54
ATOM     54  N   UNL     1      10.503  23.456  35.536  1.00  0.00    -0.319 N 
ATOM     55  C   UNL     1      10.991  23.010  36.801  1.00  0.00     0.407 C 
ATOM     56  H   UNL     1      11.113  24.076  34.931  1.00  0.00     0.167 HD
ATOM     57  O   UNL     1      10.212  22.288  37.483  1.00  0.00    -0.225 OA
BRANCH  55  58
ATOM     58  O   UNL     1      12.255  23.340  37.275  1.00  0.00    -0.443 OA
BRANCH  58  59
ATOM     59  C   UNL     1      12.562  24.626  37.759  1.00  0.00     0.294 C 
BRANCH  59  60
ATOM     60  C   UNL     1      12.942  25.593  36.694  1.00  0.00     0.121 A 
ATOM     61  C   UNL     1      12.263  26.714  36.274  1.00  0.00     0.144 A 
ATOM     62  N   UNL     1      14.062  25.544  35.915  1.00  0.00    -0.131 NA
ATOM     63  N   UNL     1      12.956  27.303  35.286  1.00  0.00    -0.220 N 
ATOM     64  N   UNL     1      14.043  26.554  35.104  1.00  0.00    -0.062 NA
BRANCH  63  65
ATOM     65  C   UNL     1      12.630  28.492  34.542  1.00  0.00     0.072 A 
ATOM     66  C   UNL     1      13.293  29.643  34.889  1.00  0.00    -0.025 A 
ATOM     67  C   UNL     1      11.707  28.444  33.556  1.00  0.00    -0.025 A 
ATOM     68  C   UNL     1      14.314  29.654  35.993  1.00  0.00     0.047 C 
ATOM     69  C   UNL     1      12.992  30.794  34.189  1.00  0.00     0.009 A 
ATOM     70  C   UNL     1      11.434  29.636  32.876  1.00  0.00     0.009 A 
ATOM     71  C   UNL     1      10.971  27.218  33.152  1.00  0.00     0.047 C 
ATOM     72  C   UNL     1      12.066  30.817  33.178  1.00  0.00    -0.050 A 
ATOM     73  C   UNL     1      11.789  32.088  32.462  1.00  0.00     0.044 C 
ENDBRANCH  63  65
ENDBRANCH  59  60
ENDBRANCH  58  59
ENDBRANCH  55  58
ENDBRANCH  53  54
ENDBRANCH  50  53
ENDBRANCH  47  50
ENDBRANCH   5  47
BRANCH   4  74
ATOM     74  N   UNL     1       6.455  26.899  33.912  1.00  0.00    -0.348 N 
ATOM     75  C   UNL     1       6.624  27.969  32.987  1.00  0.00     0.217 C 
ATOM     76  H   UNL     1       7.140  26.847  34.687  1.00  0.00     0.163 HD
ATOM     77  C   UNL     1       7.745  28.951  33.103  1.00  0.00     0.114 C 
ATOM     78  O   UNL     1       5.797  28.065  32.065  1.00  0.00    -0.275 OA
ENDBRANCH   4  74
TORSDOF 30
