REMARK VINA RESULT:    -6.902      1.616      2.016
REMARK INTER + INTRA:         -23.663
REMARK INTER:                 -15.440
REMARK INTRA:                  -8.223
REMARK UNBOUND:                -5.463
REMARK SMILES CC(=O)N[C@@H]1[C@@H](O)C[C@](OC[C@H]2O[C@@H](O[C@H]3[C@H](O)[C@@H](O)[C@H](OCCN=[N+]=[N-])O[C@@H]3CO)[C@H](O)[C@@H](O)[C@H]2O)(C(=O)O)O[C@H]1C(O)[C@H](O)CNC(=O)OCc1cn(COCc2ccccc2)nn1
REMARK SMILES IDX 43 1 42 2 9 3 8 4 41 5 6 6 5 7 10 8 11 9 12 10 14 11 13 12
REMARK SMILES IDX 32 13 34 14 36 15 15 16 16 17 29 18 28 19 21 20 17 21 19 22
REMARK SMILES IDX 30 23 31 24 22 26 23 27 24 28 25 29 26 30 27 31 18 32 20 34
REMARK SMILES IDX 33 36 35 38 37 40 38 42 39 43 40 44 7 46 4 48 2 49 1 51 3 52
REMARK SMILES IDX 44 53 45 55 46 56 47 58 48 59 49 60 50 62 51 63 52 64 53 65
REMARK SMILES IDX 54 66 66 67 55 68 65 69 56 70 57 71 58 72 59 73 60 74 64 75
REMARK SMILES IDX 61 76 63 77 62 78
REMARK H PARENT 31 25 18 33 20 35 33 37 35 39 37 41 40 45 7 47 4 50 44 54
REMARK H PARENT 46 57 48 61
REMARK Flexibility Score: inf
ROOT
ATOM      1  C   UNL     1      15.259  33.076  21.671  1.00  0.00     0.176 C 
ENDROOT
BRANCH   1   2
ATOM      2  C   UNL     1      14.649  31.674  21.893  1.00  0.00     0.178 C 
ATOM      3  C   UNL     1      15.374  29.473  21.720  1.00  0.00     0.272 C 
ATOM      4  C   UNL     1      14.035  29.093  21.098  1.00  0.00     0.113 C 
ATOM      5  O   UNL     1      15.584  30.774  21.381  1.00  0.00    -0.332 OA
ATOM      6  C   UNL     1      13.525  30.236  20.253  1.00  0.00     0.145 C 
ATOM      7  C   UNL     1      13.359  31.495  21.157  1.00  0.00     0.142 C 
BRANCH   3   8
ATOM      8  O   UNL     1      16.391  28.645  21.204  1.00  0.00    -0.338 OA
BRANCH   8   9
ATOM      9  C   UNL     1      17.555  29.227  20.879  1.00  0.00     0.199 C 
BRANCH   9  10
ATOM     10  C   UNL     1      17.821  29.094  19.397  1.00  0.00     0.179 C 
ATOM     11  C   UNL     1      16.947  28.990  17.309  1.00  0.00     0.282 C 
ATOM     12  O   UNL     1      16.614  29.165  18.672  1.00  0.00    -0.341 OA
ATOM     13  C   UNL     1      17.588  30.258  16.755  1.00  0.00     0.202 C 
ATOM     14  C   UNL     1      18.018  31.072  17.985  1.00  0.00     0.179 C 
ATOM     15  C   UNL     1      18.775  30.098  18.864  1.00  0.00     0.177 C 
BRANCH  11  16
ATOM     16  O   UNL     1      15.786  28.772  16.621  1.00  0.00    -0.341 OA
BRANCH  16  17
ATOM     17  C   UNL     1      15.622  29.593  15.514  1.00  0.00     0.184 C 
ATOM     18  C   UNL     1      14.644  30.692  15.727  1.00  0.00     0.178 C 
ATOM     19  O   UNL     1      13.379  30.187  15.753  1.00  0.00    -0.341 OA
ATOM     20  C   UNL     1      12.924  29.690  14.555  1.00  0.00     0.281 C 
ATOM     21  C   UNL     1      15.269  28.754  14.334  1.00  0.00     0.180 C 
ATOM     22  C   UNL     1      13.913  28.933  13.759  1.00  0.00     0.202 C 
BRANCH  18  23
ATOM     23  C   UNL     1      14.858  31.775  14.697  1.00  0.00     0.191 C 
BRANCH  23  24
ATOM     24  O   UNL     1      14.058  32.893  14.961  1.00  0.00    -0.394 OA
ATOM     25  H   UNL     1      13.119  32.688  14.728  1.00  0.00     0.210 HD
ENDBRANCH  23  24
ENDBRANCH  18  23
BRANCH  20  26
ATOM     26  O   UNL     1      12.477  30.783  13.804  1.00  0.00    -0.350 OA
BRANCH  26  27
ATOM     27  C   UNL     1      11.112  30.890  13.721  1.00  0.00     0.169 C 
BRANCH  27  28
ATOM     28  C   UNL     1      10.769  30.991  12.245  1.00  0.00     0.119 C 
BRANCH  28  29
ATOM     29  N   UNL     1       9.978  29.870  11.791  1.00  0.00    -0.092 NA
ATOM     30  N   UNL     1      10.268  28.714  12.148  1.00  0.00     0.001 N 
ATOM     31  N   UNL     1      10.876  27.630  12.058  1.00  0.00    -0.003 NA
ENDBRANCH  28  29
ENDBRANCH  27  28
ENDBRANCH  26  27
ENDBRANCH  20  26
BRANCH  21  32
ATOM     32  O   UNL     1      16.191  29.000  13.280  1.00  0.00    -0.387 OA
ATOM     33  H   UNL     1      15.992  29.821  12.805  1.00  0.00     0.211 HD
ENDBRANCH  21  32
BRANCH  22  34
ATOM     34  O   UNL     1      13.360  27.641  13.554  1.00  0.00    -0.385 OA
ATOM     35  H   UNL     1      13.501  27.151  14.406  1.00  0.00     0.211 HD
ENDBRANCH  22  34
ENDBRANCH  16  17
ENDBRANCH  11  16
BRANCH  13  36
ATOM     36  O   UNL     1      18.764  29.986  16.057  1.00  0.00    -0.385 OA
ATOM     37  H   UNL     1      19.098  29.111  16.377  1.00  0.00     0.211 HD
ENDBRANCH  13  36
BRANCH  14  38
ATOM     38  O   UNL     1      16.834  31.415  18.625  1.00  0.00    -0.387 OA
ATOM     39  H   UNL     1      16.025  31.251  18.079  1.00  0.00     0.211 HD
ENDBRANCH  14  38
BRANCH  15  40
ATOM     40  O   UNL     1      19.525  30.741  19.836  1.00  0.00    -0.387 OA
ATOM     41  H   UNL     1      20.135  30.134  20.327  1.00  0.00     0.211 HD
ENDBRANCH  15  40
ENDBRANCH   9  10
ENDBRANCH   8   9
ENDBRANCH   3   8
BRANCH   3  42
ATOM     42  C   UNL     1      15.408  29.275  23.169  1.00  0.00     0.364 C 
ATOM     43  O   UNL     1      16.422  29.258  23.916  1.00  0.00    -0.246 OA
BRANCH  42  44
ATOM     44  O   UNL     1      14.187  29.075  23.857  1.00  0.00    -0.477 OA
ATOM     45  H   UNL     1      14.145  29.157  24.872  1.00  0.00     0.296 HD
ENDBRANCH  42  44
ENDBRANCH   3  42
BRANCH   6  46
ATOM     46  O   UNL     1      14.275  30.606  19.193  1.00  0.00    -0.391 OA
ATOM     47  H   UNL     1      14.364  31.605  19.104  1.00  0.00     0.211 HD
ENDBRANCH   6  46
BRANCH   7  48
ATOM     48  N   UNL     1      12.257  31.154  22.023  1.00  0.00    -0.348 N 
ATOM     49  C   UNL     1      11.332  32.159  22.375  1.00  0.00     0.217 C 
ATOM     50  H   UNL     1      12.147  30.202  22.381  1.00  0.00     0.163 HD
ATOM     51  C   UNL     1      10.180  31.828  23.256  1.00  0.00     0.114 C 
ATOM     52  O   UNL     1      11.465  33.348  21.946  1.00  0.00    -0.275 OA
ENDBRANCH   7  48
ENDBRANCH   1   2
BRANCH   1  53
ATOM     53  O   UNL     1      15.171  33.305  20.245  1.00  0.00    -0.388 OA
ATOM     54  H   UNL     1      15.232  32.395  19.829  1.00  0.00     0.211 HD
ENDBRANCH   1  53
BRANCH   1  55
ATOM     55  C   UNL     1      16.702  33.196  22.010  1.00  0.00     0.165 C 
BRANCH  55  56
ATOM     56  O   UNL     1      17.605  32.665  21.133  1.00  0.00    -0.388 OA
ATOM     57  H   UNL     1      17.210  32.208  20.358  1.00  0.00     0.211 HD
ENDBRANCH  55  56
BRANCH  55  58
ATOM     58  C   UNL     1      17.143  33.075  23.418  1.00  0.00     0.154 C 
BRANCH  58  59
ATOM     59  N   UNL     1      17.712  31.827  23.842  1.00  0.00    -0.319 N 
ATOM     60  C   UNL     1      18.759  31.700  24.792  1.00  0.00     0.407 C 
ATOM     61  H   UNL     1      17.346  30.929  23.455  1.00  0.00     0.167 HD
ATOM     62  O   UNL     1      19.239  32.707  25.326  1.00  0.00    -0.225 OA
BRANCH  60  63
ATOM     63  O   UNL     1      19.308  30.475  25.187  1.00  0.00    -0.443 OA
BRANCH  63  64
ATOM     64  C   UNL     1      20.685  30.197  24.925  1.00  0.00     0.294 C 
BRANCH  64  65
ATOM     65  C   UNL     1      20.892  29.564  23.602  1.00  0.00     0.120 A 
ATOM     66  C   UNL     1      21.097  28.211  23.426  1.00  0.00     0.141 A 
ATOM     67  N   UNL     1      20.935  30.113  22.383  1.00  0.00    -0.132 NA
ATOM     68  N   UNL     1      21.259  27.987  22.099  1.00  0.00    -0.226 N 
ATOM     69  N   UNL     1      21.154  29.162  21.496  1.00  0.00    -0.065 NA
BRANCH  68  70
ATOM     70  C   UNL     1      21.494  26.730  21.425  1.00  0.00     0.307 C 
BRANCH  70  71
ATOM     71  O   UNL     1      20.832  25.692  22.020  1.00  0.00    -0.355 OA
BRANCH  71  72
ATOM     72  C   UNL     1      21.647  24.572  22.063  1.00  0.00     0.198 C 
BRANCH  72  73
ATOM     73  C   UNL     1      22.437  24.595  23.344  1.00  0.00    -0.022 A 
ATOM     74  C   UNL     1      21.738  24.655  24.532  1.00  0.00     0.006 A 
ATOM     75  C   UNL     1      23.808  24.561  23.325  1.00  0.00     0.006 A 
ATOM     76  C   UNL     1      22.425  24.679  25.727  1.00  0.00     0.000 A 
ATOM     77  C   UNL     1      24.467  24.587  24.519  1.00  0.00     0.000 A 
ATOM     78  C   UNL     1      23.804  24.646  25.735  1.00  0.00     0.000 A 
ENDBRANCH  72  73
ENDBRANCH  71  72
ENDBRANCH  70  71
ENDBRANCH  68  70
ENDBRANCH  64  65
ENDBRANCH  63  64
ENDBRANCH  60  63
ENDBRANCH  58  59
ENDBRANCH  55  58
ENDBRANCH   1  55
TORSDOF 33
