REMARK VINA RESULT:    -6.433      9.677     15.953
REMARK INTER + INTRA:         -21.033
REMARK INTER:                 -16.729
REMARK INTRA:                  -4.305
REMARK UNBOUND:                -4.822
REMARK SMILES CC(=O)N[C@@H]1[C@@H](O)C[C@](OC[C@H]2O[C@@H](O[C@H]3[C@H](O)[C@@H](O)[C@H](OCCN=[N+]=[N-])O[C@@H]3CO)[C@H](O)[C@@H](O)[C@H]2O)(C(=O)O)O[C@H]1C(O)[C@H](O)CNC(=O)OCc1cn(Cc2ccccc2Br)nn1
REMARK SMILES IDX 9 1 8 2 6 3 5 4 42 5 41 6 10 7 11 8 12 9 14 10 13 11 32 12
REMARK SMILES IDX 34 13 36 14 15 15 16 16 29 17 28 18 21 19 17 20 19 21 30 22
REMARK SMILES IDX 31 23 22 25 23 26 24 27 25 28 26 29 27 30 18 31 20 33 33 35
REMARK SMILES IDX 35 37 37 39 38 41 39 42 40 43 7 45 43 47 44 48 45 50 46 51
REMARK SMILES IDX 47 53 48 54 49 55 50 57 51 58 52 59 53 60 54 61 65 62 55 63
REMARK SMILES IDX 64 64 56 65 57 66 58 67 62 68 59 69 61 70 63 71 60 72 4 73
REMARK SMILES IDX 2 74 1 76 3 77
REMARK H PARENT 31 24 18 32 20 34 33 36 35 38 37 40 40 44 7 46 44 49 46 52
REMARK H PARENT 48 56 4 75
REMARK Flexibility Score: inf
ROOT
ATOM      1  C   UNL     1      17.994  28.817  19.703  1.00  0.00     0.272 C 
ATOM      2  C   UNL     1      18.171  30.271  19.897  1.00  0.00     0.113 C 
ATOM      3  C   UNL     1      16.918  31.019  19.614  1.00  0.00     0.145 C 
ATOM      4  C   UNL     1      15.815  30.489  20.486  1.00  0.00     0.142 C 
ATOM      5  C   UNL     1      15.889  29.034  20.744  1.00  0.00     0.178 C 
ATOM      6  O   UNL     1      17.103  28.448  20.818  1.00  0.00    -0.332 OA
ENDROOT
BRANCH   1   7
ATOM      7  O   UNL     1      19.087  28.060  19.910  1.00  0.00    -0.338 OA
BRANCH   7   8
ATOM      8  C   UNL     1      20.247  28.363  20.395  1.00  0.00     0.199 C 
BRANCH   8   9
ATOM      9  C   UNL     1      21.343  27.507  20.852  1.00  0.00     0.179 C 
ATOM     10  C   UNL     1      22.314  26.191  22.460  1.00  0.00     0.282 C 
ATOM     11  O   UNL     1      21.085  26.651  21.928  1.00  0.00    -0.341 OA
ATOM     12  C   UNL     1      22.799  25.116  21.527  1.00  0.00     0.202 C 
ATOM     13  C   UNL     1      22.791  25.576  20.110  1.00  0.00     0.179 C 
ATOM     14  C   UNL     1      22.313  26.979  19.860  1.00  0.00     0.177 C 
BRANCH  10  15
ATOM     15  O   UNL     1      22.047  25.739  23.718  1.00  0.00    -0.341 OA
BRANCH  15  16
ATOM     16  C   UNL     1      22.931  26.038  24.710  1.00  0.00     0.184 C 
ATOM     17  C   UNL     1      22.945  25.119  25.881  1.00  0.00     0.178 C 
ATOM     18  O   UNL     1      22.875  25.887  27.040  1.00  0.00    -0.341 OA
ATOM     19  C   UNL     1      21.605  26.516  27.010  1.00  0.00     0.281 C 
ATOM     20  C   UNL     1      22.845  27.485  25.170  1.00  0.00     0.180 C 
ATOM     21  C   UNL     1      21.650  27.697  26.078  1.00  0.00     0.202 C 
BRANCH  17  22
ATOM     22  C   UNL     1      24.243  24.320  25.974  1.00  0.00     0.191 C 
BRANCH  22  23
ATOM     23  O   UNL     1      24.875  24.267  24.732  1.00  0.00    -0.394 OA
ATOM     24  H   UNL     1      25.121  25.159  24.396  1.00  0.00     0.210 HD
ENDBRANCH  22  23
ENDBRANCH  17  22
BRANCH  19  25
ATOM     25  O   UNL     1      21.325  26.865  28.329  1.00  0.00    -0.350 OA
BRANCH  25  26
ATOM     26  C   UNL     1      22.423  27.463  28.949  1.00  0.00     0.169 C 
BRANCH  26  27
ATOM     27  C   UNL     1      22.508  26.916  30.364  1.00  0.00     0.119 C 
BRANCH  27  28
ATOM     28  N   UNL     1      23.317  25.724  30.332  1.00  0.00    -0.092 NA
ATOM     29  N   UNL     1      24.515  25.759  30.035  1.00  0.00     0.001 N 
ATOM     30  N   UNL     1      25.536  25.858  29.324  1.00  0.00    -0.003 NA
ENDBRANCH  27  28
ENDBRANCH  26  27
ENDBRANCH  25  26
ENDBRANCH  19  25
BRANCH  20  31
ATOM     31  O   UNL     1      23.970  27.834  25.921  1.00  0.00    -0.387 OA
ATOM     32  H   UNL     1      24.134  27.076  26.549  1.00  0.00     0.211 HD
ENDBRANCH  20  31
BRANCH  21  33
ATOM     33  O   UNL     1      20.483  27.921  25.393  1.00  0.00    -0.385 OA
ATOM     34  H   UNL     1      20.663  27.918  24.424  1.00  0.00     0.211 HD
ENDBRANCH  21  33
ENDBRANCH  15  16
ENDBRANCH  10  15
BRANCH  12  35
ATOM     35  O   UNL     1      24.124  24.751  21.816  1.00  0.00    -0.385 OA
ATOM     36  H   UNL     1      24.080  23.893  22.296  1.00  0.00     0.211 HD
ENDBRANCH  12  35
BRANCH  13  37
ATOM     37  O   UNL     1      21.994  24.706  19.354  1.00  0.00    -0.387 OA
ATOM     38  H   UNL     1      22.375  23.807  19.298  1.00  0.00     0.211 HD
ENDBRANCH  13  37
BRANCH  14  39
ATOM     39  O   UNL     1      21.833  27.009  18.559  1.00  0.00    -0.387 OA
ATOM     40  H   UNL     1      22.443  27.337  17.883  1.00  0.00     0.211 HD
ENDBRANCH  14  39
ENDBRANCH   8   9
ENDBRANCH   7   8
ENDBRANCH   1   7
BRANCH   1  41
ATOM     41  C   UNL     1      17.175  28.368  18.558  1.00  0.00     0.364 C 
ATOM     42  O   UNL     1      17.092  28.924  17.439  1.00  0.00    -0.246 OA
BRANCH  41  43
ATOM     43  O   UNL     1      16.406  27.225  18.702  1.00  0.00    -0.477 OA
ATOM     44  H   UNL     1      16.513  26.600  19.502  1.00  0.00     0.296 HD
ENDBRANCH  41  43
ENDBRANCH   1  41
BRANCH   3  45
ATOM     45  O   UNL     1      17.187  32.368  20.016  1.00  0.00    -0.391 OA
ATOM     46  H   UNL     1      17.099  32.977  19.257  1.00  0.00     0.211 HD
ENDBRANCH   3  45
BRANCH   5  47
ATOM     47  C   UNL     1      15.172  28.713  22.059  1.00  0.00     0.176 C 
BRANCH  47  48
ATOM     48  O   UNL     1      13.810  28.720  21.797  1.00  0.00    -0.388 OA
ATOM     49  H   UNL     1      13.461  29.597  21.559  1.00  0.00     0.211 HD
ENDBRANCH  47  48
BRANCH  47  50
ATOM     50  C   UNL     1      15.476  29.696  23.135  1.00  0.00     0.165 C 
BRANCH  50  51
ATOM     51  O   UNL     1      16.745  29.481  23.700  1.00  0.00    -0.388 OA
ATOM     52  H   UNL     1      17.135  28.638  23.355  1.00  0.00     0.211 HD
ENDBRANCH  50  51
BRANCH  50  53
ATOM     53  C   UNL     1      14.498  29.555  24.273  1.00  0.00     0.154 C 
BRANCH  53  54
ATOM     54  N   UNL     1      13.407  30.450  24.114  1.00  0.00    -0.319 N 
ATOM     55  C   UNL     1      12.083  30.167  24.509  1.00  0.00     0.407 C 
ATOM     56  H   UNL     1      13.608  31.393  23.668  1.00  0.00     0.167 HD
ATOM     57  O   UNL     1      11.779  29.071  25.044  1.00  0.00    -0.225 OA
BRANCH  55  58
ATOM     58  O   UNL     1      11.051  31.095  24.321  1.00  0.00    -0.443 OA
BRANCH  58  59
ATOM     59  C   UNL     1      11.206  32.214  23.490  1.00  0.00     0.294 C 
BRANCH  59  60
ATOM     60  C   UNL     1       9.982  32.600  22.753  1.00  0.00     0.120 A 
ATOM     61  C   UNL     1       8.728  32.002  22.955  1.00  0.00     0.138 A 
ATOM     62  N   UNL     1       9.790  33.522  21.806  1.00  0.00    -0.132 NA
ATOM     63  N   UNL     1       7.858  32.582  22.136  1.00  0.00    -0.248 N 
ATOM     64  N   UNL     1       8.526  33.508  21.442  1.00  0.00    -0.067 NA
BRANCH  63  65
ATOM     65  C   UNL     1       6.427  32.327  21.973  1.00  0.00     0.182 C 
BRANCH  65  66
ATOM     66  C   UNL     1       6.123  31.283  20.972  1.00  0.00    -0.012 A 
ATOM     67  C   UNL     1       6.112  31.674  19.622  1.00  0.00     0.007 A 
ATOM     68  C   UNL     1       5.831  29.982  21.276  1.00  0.00     0.023 A 
ATOM     69  C   UNL     1       5.809  30.750  18.670  1.00  0.00     0.000 A 
ATOM     70  C   UNL     1       5.522  29.053  20.295  1.00  0.00     0.016 A 
ATOM     71  Br  UNL     1       5.888  29.375  23.075  1.00  0.00    -0.050 Br
ATOM     72  C   UNL     1       5.515  29.451  18.984  1.00  0.00     0.001 A 
ENDBRANCH  65  66
ENDBRANCH  63  65
ENDBRANCH  59  60
ENDBRANCH  58  59
ENDBRANCH  55  58
ENDBRANCH  53  54
ENDBRANCH  50  53
ENDBRANCH  47  50
ENDBRANCH   5  47
BRANCH   4  73
ATOM     73  N   UNL     1      14.547  30.829  19.895  1.00  0.00    -0.348 N 
ATOM     74  C   UNL     1      13.648  31.784  20.458  1.00  0.00     0.217 C 
ATOM     75  H   UNL     1      14.214  30.385  19.013  1.00  0.00     0.163 HD
ATOM     76  C   UNL     1      12.343  32.087  19.790  1.00  0.00     0.114 C 
ATOM     77  O   UNL     1      13.979  32.349  21.509  1.00  0.00    -0.275 OA
ENDBRANCH   4  73
TORSDOF 31
