REMARK VINA RESULT:    -5.199      8.650     13.937
REMARK INTER + INTRA:         -21.359
REMARK INTER:                 -17.416
REMARK INTRA:                  -3.943
REMARK UNBOUND:                -8.561
REMARK SMILES CC(=O)N[C@@H]1[C@@H](O)C[C@](OC[C@H]2O[C@@H](O[C@H]3[C@H](O)[C@@H](O)[C@H](OCCN=[N+]=[N-])O[C@@H]3CO)[C@H](O)[C@@H](O)[C@H]2O)(C(=O)O)O[C@H]1C(O)[C@H](O)CNC(=O)OCc1cn(-c2cnc3ccccc3c2)nn1
REMARK SMILES IDX 9 1 8 2 6 3 5 4 42 5 41 6 10 7 11 8 12 9 14 10 13 11 32 12
REMARK SMILES IDX 34 13 36 14 15 15 16 16 29 17 28 18 21 19 17 20 19 21 30 22
REMARK SMILES IDX 31 23 22 25 23 26 24 27 25 28 26 29 27 30 18 31 20 33 33 35
REMARK SMILES IDX 35 37 37 39 38 41 39 42 40 43 7 45 43 47 44 48 45 50 46 51
REMARK SMILES IDX 47 53 48 54 49 55 50 57 51 58 52 59 53 60 54 61 67 62 55 63
REMARK SMILES IDX 66 64 56 65 57 66 65 67 58 68 64 69 59 70 63 71 60 72 62 73
REMARK SMILES IDX 61 74 4 75 2 76 1 78 3 79
REMARK H PARENT 31 24 18 32 20 34 33 36 35 38 37 40 40 44 7 46 44 49 46 52
REMARK H PARENT 48 56 4 77
REMARK Flexibility Score: inf
ROOT
ATOM      1  C   UNL     1      19.031  29.895  21.318  1.00  0.00     0.272 C 
ATOM      2  C   UNL     1      18.420  30.824  22.303  1.00  0.00     0.113 C 
ATOM      3  C   UNL     1      17.060  31.324  21.857  1.00  0.00     0.145 C 
ATOM      4  C   UNL     1      16.288  30.070  21.443  1.00  0.00     0.142 C 
ATOM      5  C   UNL     1      16.993  29.544  20.184  1.00  0.00     0.178 C 
ATOM      6  O   UNL     1      18.193  29.012  20.703  1.00  0.00    -0.332 OA
ENDROOT
BRANCH   1   7
ATOM      7  O   UNL     1      20.022  29.092  21.922  1.00  0.00    -0.338 OA
BRANCH   7   8
ATOM      8  C   UNL     1      20.634  28.213  21.073  1.00  0.00     0.199 C 
BRANCH   8   9
ATOM      9  C   UNL     1      21.662  27.425  21.855  1.00  0.00     0.179 C 
ATOM     10  C   UNL     1      22.258  26.648  23.931  1.00  0.00     0.282 C 
ATOM     11  O   UNL     1      21.216  27.006  23.092  1.00  0.00    -0.341 OA
ATOM     12  C   UNL     1      23.473  26.187  23.179  1.00  0.00     0.202 C 
ATOM     13  C   UNL     1      23.170  25.522  21.883  1.00  0.00     0.179 C 
ATOM     14  C   UNL     1      22.357  26.438  21.015  1.00  0.00     0.177 C 
BRANCH  10  15
ATOM     15  O   UNL     1      21.808  25.723  24.848  1.00  0.00    -0.341 OA
BRANCH  15  16
ATOM     16  C   UNL     1      22.379  25.888  26.111  1.00  0.00     0.184 C 
ATOM     17  C   UNL     1      23.008  24.624  26.643  1.00  0.00     0.178 C 
ATOM     18  O   UNL     1      22.681  24.293  27.921  1.00  0.00    -0.341 OA
ATOM     19  C   UNL     1      22.684  25.288  28.860  1.00  0.00     0.281 C 
ATOM     20  C   UNL     1      21.442  26.554  27.079  1.00  0.00     0.180 C 
ATOM     21  C   UNL     1      22.060  26.583  28.441  1.00  0.00     0.202 C 
BRANCH  17  22
ATOM     22  C   UNL     1      24.512  24.610  26.362  1.00  0.00     0.191 C 
BRANCH  22  23
ATOM     23  O   UNL     1      25.025  25.892  26.193  1.00  0.00    -0.394 OA
ATOM     24  H   UNL     1      25.783  25.922  25.575  1.00  0.00     0.210 HD
ENDBRANCH  22  23
ENDBRANCH  17  22
BRANCH  19  25
ATOM     25  O   UNL     1      23.935  25.483  29.450  1.00  0.00    -0.350 OA
BRANCH  25  26
ATOM     26  C   UNL     1      24.313  26.809  29.467  1.00  0.00     0.169 C 
BRANCH  26  27
ATOM     27  C   UNL     1      25.815  26.968  29.504  1.00  0.00     0.119 C 
BRANCH  27  28
ATOM     28  N   UNL     1      26.470  25.677  29.555  1.00  0.00    -0.092 NA
ATOM     29  N   UNL     1      27.319  25.403  30.402  1.00  0.00     0.001 N 
ATOM     30  N   UNL     1      27.839  25.005  31.445  1.00  0.00    -0.003 NA
ENDBRANCH  27  28
ENDBRANCH  26  27
ENDBRANCH  25  26
ENDBRANCH  19  25
BRANCH  20  31
ATOM     31  O   UNL     1      21.268  27.892  26.662  1.00  0.00    -0.387 OA
ATOM     32  H   UNL     1      20.327  28.176  26.815  1.00  0.00     0.211 HD
ENDBRANCH  20  31
BRANCH  21  33
ATOM     33  O   UNL     1      21.050  27.002  29.339  1.00  0.00    -0.385 OA
ATOM     34  H   UNL     1      20.355  26.284  29.415  1.00  0.00     0.211 HD
ENDBRANCH  21  33
ENDBRANCH  15  16
ENDBRANCH  10  15
BRANCH  12  35
ATOM     35  O   UNL     1      24.407  27.195  22.959  1.00  0.00    -0.385 OA
ATOM     36  H   UNL     1      25.316  26.922  23.232  1.00  0.00     0.211 HD
ENDBRANCH  12  35
BRANCH  13  37
ATOM     37  O   UNL     1      22.529  24.298  22.088  1.00  0.00    -0.387 OA
ATOM     38  H   UNL     1      23.000  23.790  22.769  1.00  0.00     0.211 HD
ENDBRANCH  13  37
BRANCH  14  39
ATOM     39  O   UNL     1      21.517  25.636  20.250  1.00  0.00    -0.387 OA
ATOM     40  H   UNL     1      20.766  25.270  20.755  1.00  0.00     0.211 HD
ENDBRANCH  14  39
ENDBRANCH   8   9
ENDBRANCH   7   8
ENDBRANCH   1   7
BRANCH   1  41
ATOM     41  C   UNL     1      19.670  30.715  20.230  1.00  0.00     0.364 C 
ATOM     42  O   UNL     1      20.351  31.754  20.514  1.00  0.00    -0.246 OA
BRANCH  41  43
ATOM     43  O   UNL     1      19.577  30.429  18.889  1.00  0.00    -0.477 OA
ATOM     44  H   UNL     1      20.099  30.947  18.166  1.00  0.00     0.296 HD
ENDBRANCH  41  43
ENDBRANCH   1  41
BRANCH   3  45
ATOM     45  O   UNL     1      16.407  32.026  22.842  1.00  0.00    -0.391 OA
ATOM     46  H   UNL     1      16.249  31.421  23.597  1.00  0.00     0.211 HD
ENDBRANCH   3  45
BRANCH   5  47
ATOM     47  C   UNL     1      16.260  28.371  19.593  1.00  0.00     0.176 C 
BRANCH  47  48
ATOM     48  O   UNL     1      16.581  27.238  20.387  1.00  0.00    -0.388 OA
ATOM     49  H   UNL     1      15.762  26.817  20.750  1.00  0.00     0.211 HD
ENDBRANCH  47  48
BRANCH  47  50
ATOM     50  C   UNL     1      16.685  28.007  18.177  1.00  0.00     0.165 C 
BRANCH  50  51
ATOM     51  O   UNL     1      18.120  27.985  18.286  1.00  0.00    -0.388 OA
ATOM     52  H   UNL     1      18.342  28.329  19.183  1.00  0.00     0.211 HD
ENDBRANCH  50  51
BRANCH  50  53
ATOM     53  C   UNL     1      16.447  29.172  17.240  1.00  0.00     0.154 C 
BRANCH  53  54
ATOM     54  N   UNL     1      15.127  29.341  16.762  1.00  0.00    -0.319 N 
ATOM     55  C   UNL     1      14.277  30.414  17.106  1.00  0.00     0.407 C 
ATOM     56  H   UNL     1      14.755  28.594  16.093  1.00  0.00     0.167 HD
ATOM     57  O   UNL     1      14.690  31.285  17.896  1.00  0.00    -0.225 OA
BRANCH  55  58
ATOM     58  O   UNL     1      13.019  30.449  16.550  1.00  0.00    -0.443 OA
BRANCH  58  59
ATOM     59  C   UNL     1      12.783  30.860  15.230  1.00  0.00     0.294 C 
BRANCH  59  60
ATOM     60  C   UNL     1      12.454  29.673  14.379  1.00  0.00     0.121 A 
ATOM     61  C   UNL     1      11.994  29.651  13.105  1.00  0.00     0.144 A 
ATOM     62  N   UNL     1      12.573  28.390  14.795  1.00  0.00    -0.131 NA
ATOM     63  N   UNL     1      11.845  28.352  12.779  1.00  0.00    -0.219 N 
ATOM     64  N   UNL     1      12.201  27.591  13.817  1.00  0.00    -0.062 NA
BRANCH  63  65
ATOM     65  C   UNL     1      11.376  27.890  11.515  1.00  0.00     0.085 A 
ATOM     66  C   UNL     1      12.205  27.898  10.441  1.00  0.00     0.140 A 
ATOM     67  C   UNL     1      10.072  27.431  11.418  1.00  0.00     0.040 A 
ATOM     68  N   UNL     1      11.748  27.451   9.254  1.00  0.00    -0.254 NA
ATOM     69  C   UNL     1       9.626  26.982  10.208  1.00  0.00     0.002 A 
ATOM     70  C   UNL     1      10.490  27.007   9.151  1.00  0.00     0.070 A 
ATOM     71  C   UNL     1       8.332  26.520  10.086  1.00  0.00     0.010 A 
ATOM     72  C   UNL     1      10.028  26.545   7.918  1.00  0.00     0.029 A 
ATOM     73  C   UNL     1       7.895  26.067   8.852  1.00  0.00     0.001 A 
ATOM     74  C   UNL     1       8.754  26.079   7.752  1.00  0.00     0.002 A 
ENDBRANCH  63  65
ENDBRANCH  59  60
ENDBRANCH  58  59
ENDBRANCH  55  58
ENDBRANCH  53  54
ENDBRANCH  50  53
ENDBRANCH  47  50
ENDBRANCH   5  47
BRANCH   4  75
ATOM     75  N   UNL     1      14.904  30.317  21.309  1.00  0.00    -0.348 N 
ATOM     76  C   UNL     1      13.988  29.974  22.372  1.00  0.00     0.217 C 
ATOM     77  H   UNL     1      14.458  30.760  20.478  1.00  0.00     0.163 HD
ATOM     78  C   UNL     1      12.551  30.223  22.248  1.00  0.00     0.114 C 
ATOM     79  O   UNL     1      14.494  29.450  23.410  1.00  0.00    -0.275 OA
ENDBRANCH   4  75
TORSDOF 30
