REMARK VINA RESULT:    -6.791      7.183     13.114
REMARK INTER + INTRA:         -21.861
REMARK INTER:                 -15.283
REMARK INTRA:                  -6.579
REMARK UNBOUND:                -4.749
REMARK SMILES CC(=O)N[C@@H]1[C@@H](O)C[C@](OC[C@H]2O[C@@H](O[C@H]3[C@H](O)[C@@H](O)[C@H](OCCN=[N+]=[N-])O[C@@H]3CO)[C@H](O)[C@@H](O)[C@H]2O)(C(=O)O)O[C@H]1C(O)[C@H](O)CNC(=O)OCc1cn(-c2ccccc2C(C)=O)nn1
REMARK SMILES IDX 9 1 8 2 6 3 5 4 42 5 41 6 10 7 11 8 12 9 14 10 13 11 32 12
REMARK SMILES IDX 34 13 36 14 15 15 16 16 29 17 28 18 21 19 17 20 19 21 30 22
REMARK SMILES IDX 31 23 22 25 23 26 24 27 25 28 26 29 27 30 18 31 20 33 33 35
REMARK SMILES IDX 35 37 37 39 38 41 39 42 40 43 7 45 43 47 44 48 45 50 46 51
REMARK SMILES IDX 47 53 48 54 49 55 50 57 51 58 52 59 53 60 54 61 66 62 55 63
REMARK SMILES IDX 65 64 56 65 61 66 57 67 60 68 58 69 59 70 62 71 64 72 63 73
REMARK SMILES IDX 4 74 2 75 1 77 3 78
REMARK H PARENT 31 24 18 32 20 34 33 36 35 38 37 40 40 44 7 46 44 49 46 52
REMARK H PARENT 48 56 4 76
REMARK Flexibility Score: inf
ROOT
ATOM      1  C   UNL     1      20.386  18.839  10.442  1.00  0.00     0.272 C 
ATOM      2  C   UNL     1      20.601  20.244   9.961  1.00  0.00     0.113 C 
ATOM      3  C   UNL     1      20.363  21.176  11.121  1.00  0.00     0.145 C 
ATOM      4  C   UNL     1      21.496  20.879  12.088  1.00  0.00     0.142 C 
ATOM      5  C   UNL     1      21.251  19.473  12.565  1.00  0.00     0.178 C 
ATOM      6  O   UNL     1      20.401  18.715  11.850  1.00  0.00    -0.332 OA
ENDROOT
BRANCH   1   7
ATOM      7  O   UNL     1      21.173  17.901   9.977  1.00  0.00    -0.338 OA
BRANCH   7   8
ATOM      8  C   UNL     1      20.991  16.741   9.429  1.00  0.00     0.199 C 
BRANCH   8   9
ATOM      9  C   UNL     1      21.534  16.292   8.124  1.00  0.00     0.179 C 
ATOM     10  C   UNL     1      21.169  16.583   5.858  1.00  0.00     0.282 C 
ATOM     11  O   UNL     1      20.854  17.051   7.121  1.00  0.00    -0.341 OA
ATOM     12  C   UNL     1      22.337  15.676   5.763  1.00  0.00     0.202 C 
ATOM     13  C   UNL     1      23.464  15.946   6.711  1.00  0.00     0.179 C 
ATOM     14  C   UNL     1      23.003  16.731   7.915  1.00  0.00     0.177 C 
BRANCH  10  15
ATOM     15  O   UNL     1      21.347  17.666   4.998  1.00  0.00    -0.341 OA
BRANCH  15  16
ATOM     16  C   UNL     1      20.167  18.383   4.816  1.00  0.00     0.184 C 
ATOM     17  C   UNL     1      19.808  18.320   3.352  1.00  0.00     0.178 C 
ATOM     18  O   UNL     1      19.773  19.537   2.722  1.00  0.00    -0.341 OA
ATOM     19  C   UNL     1      18.999  20.503   3.315  1.00  0.00     0.281 C 
ATOM     20  C   UNL     1      20.521  19.845   5.124  1.00  0.00     0.180 C 
ATOM     21  C   UNL     1      19.322  20.673   4.791  1.00  0.00     0.202 C 
BRANCH  17  22
ATOM     22  C   UNL     1      18.502  17.558   3.220  1.00  0.00     0.191 C 
BRANCH  22  23
ATOM     23  O   UNL     1      17.930  17.463   4.487  1.00  0.00    -0.394 OA
ATOM     24  H   UNL     1      18.421  16.900   5.113  1.00  0.00     0.210 HD
ENDBRANCH  22  23
ENDBRANCH  17  22
BRANCH  19  25
ATOM     25  O   UNL     1      17.641  20.367   3.103  1.00  0.00    -0.350 OA
BRANCH  25  26
ATOM     26  C   UNL     1      17.121  21.584   2.689  1.00  0.00     0.169 C 
BRANCH  26  27
ATOM     27  C   UNL     1      15.915  21.932   3.548  1.00  0.00     0.119 C 
BRANCH  27  28
ATOM     28  N   UNL     1      16.338  22.725   4.709  1.00  0.00    -0.092 NA
ATOM     29  N   UNL     1      15.522  22.819   5.625  1.00  0.00     0.001 N 
ATOM     30  N   UNL     1      14.782  23.094   6.554  1.00  0.00    -0.003 NA
ENDBRANCH  27  28
ENDBRANCH  26  27
ENDBRANCH  25  26
ENDBRANCH  19  25
BRANCH  20  31
ATOM     31  O   UNL     1      20.920  19.952   6.436  1.00  0.00    -0.387 OA
ATOM     32  H   UNL     1      21.048  20.912   6.713  1.00  0.00     0.211 HD
ENDBRANCH  20  31
BRANCH  21  33
ATOM     33  O   UNL     1      19.490  22.014   5.141  1.00  0.00    -0.385 OA
ATOM     34  H   UNL     1      18.585  22.434   5.265  1.00  0.00     0.211 HD
ENDBRANCH  21  33
ENDBRANCH  15  16
ENDBRANCH  10  15
BRANCH  12  35
ATOM     35  O   UNL     1      21.954  14.326   5.768  1.00  0.00    -0.385 OA
ATOM     36  H   UNL     1      21.109  14.191   6.265  1.00  0.00     0.211 HD
ENDBRANCH  12  35
BRANCH  13  37
ATOM     37  O   UNL     1      24.493  16.687   6.105  1.00  0.00    -0.387 OA
ATOM     38  H   UNL     1      25.084  16.992   6.843  1.00  0.00     0.211 HD
ENDBRANCH  13  37
BRANCH  14  39
ATOM     39  O   UNL     1      23.042  18.109   7.672  1.00  0.00    -0.387 OA
ATOM     40  H   UNL     1      22.679  18.639   8.427  1.00  0.00     0.211 HD
ENDBRANCH  14  39
ENDBRANCH   8   9
ENDBRANCH   7   8
ENDBRANCH   1   7
BRANCH   1  41
ATOM     41  C   UNL     1      18.947  18.569  10.164  1.00  0.00     0.364 C 
ATOM     42  O   UNL     1      18.495  18.651   8.970  1.00  0.00    -0.246 OA
BRANCH  41  43
ATOM     43  O   UNL     1      17.998  18.230  11.094  1.00  0.00    -0.477 OA
ATOM     44  H   UNL     1      17.046  18.569  11.056  1.00  0.00     0.296 HD
ENDBRANCH  41  43
ENDBRANCH   1  41
BRANCH   3  45
ATOM     45  O   UNL     1      20.449  22.471  10.617  1.00  0.00    -0.391 OA
ATOM     46  H   UNL     1      19.691  22.674  10.008  1.00  0.00     0.211 HD
ENDBRANCH   3  45
BRANCH   5  47
ATOM     47  C   UNL     1      22.622  18.775  12.845  1.00  0.00     0.176 C 
BRANCH  47  48
ATOM     48  O   UNL     1      22.898  19.154  14.214  1.00  0.00    -0.388 OA
ATOM     49  H   UNL     1      23.019  20.150  14.128  1.00  0.00     0.211 HD
ENDBRANCH  47  48
BRANCH  47  50
ATOM     50  C   UNL     1      23.697  19.355  12.027  1.00  0.00     0.165 C 
BRANCH  50  51
ATOM     51  O   UNL     1      23.726  18.801  10.723  1.00  0.00    -0.388 OA
ATOM     52  H   UNL     1      23.785  17.821  10.754  1.00  0.00     0.211 HD
ENDBRANCH  50  51
BRANCH  50  53
ATOM     53  C   UNL     1      24.986  19.768  12.579  1.00  0.00     0.154 C 
BRANCH  53  54
ATOM     54  N   UNL     1      25.054  21.053  13.169  1.00  0.00    -0.319 N 
ATOM     55  C   UNL     1      25.679  21.432  14.379  1.00  0.00     0.407 C 
ATOM     56  H   UNL     1      24.584  21.872  12.660  1.00  0.00     0.167 HD
ATOM     57  O   UNL     1      26.243  20.547  15.062  1.00  0.00    -0.225 OA
BRANCH  55  58
ATOM     58  O   UNL     1      25.709  22.731  14.864  1.00  0.00    -0.443 OA
BRANCH  58  59
ATOM     59  C   UNL     1      26.927  23.415  15.007  1.00  0.00     0.294 C 
BRANCH  59  60
ATOM     60  C   UNL     1      26.985  23.931  16.418  1.00  0.00     0.121 A 
ATOM     61  C   UNL     1      26.225  23.518  17.486  1.00  0.00     0.144 A 
ATOM     62  N   UNL     1      27.779  24.890  16.915  1.00  0.00    -0.131 NA
ATOM     63  N   UNL     1      26.592  24.251  18.588  1.00  0.00    -0.220 N 
ATOM     64  N   UNL     1      27.541  25.073  18.194  1.00  0.00    -0.062 NA
BRANCH  63  65
ATOM     65  C   UNL     1      25.984  24.120  19.866  1.00  0.00     0.077 A 
ATOM     66  C   UNL     1      26.534  23.543  20.954  1.00  0.00     0.043 A 
ATOM     67  C   UNL     1      24.688  24.663  19.967  1.00  0.00     0.029 A 
ATOM     68  C   UNL     1      25.772  23.514  22.142  1.00  0.00     0.014 A 
ATOM     69  C   UNL     1      23.967  24.620  21.139  1.00  0.00     0.002 A 
ATOM     70  C   UNL     1      24.515  24.036  22.255  1.00  0.00     0.001 A 
BRANCH  66  71
ATOM     71  C   UNL     1      27.853  22.956  20.942  1.00  0.00     0.161 C 
ATOM     72  O   UNL     1      28.786  23.707  21.424  1.00  0.00    -0.294 OA
ATOM     73  C   UNL     1      28.271  21.638  20.463  1.00  0.00     0.093 C 
ENDBRANCH  66  71
ENDBRANCH  63  65
ENDBRANCH  59  60
ENDBRANCH  58  59
ENDBRANCH  55  58
ENDBRANCH  53  54
ENDBRANCH  50  53
ENDBRANCH  47  50
ENDBRANCH   5  47
BRANCH   4  74
ATOM     74  N   UNL     1      21.569  21.834  13.153  1.00  0.00    -0.348 N 
ATOM     75  C   UNL     1      22.405  22.977  13.128  1.00  0.00     0.217 C 
ATOM     76  H   UNL     1      20.957  21.655  13.992  1.00  0.00     0.163 HD
ATOM     77  C   UNL     1      22.401  23.917  14.303  1.00  0.00     0.114 C 
ATOM     78  O   UNL     1      23.116  23.156  12.118  1.00  0.00    -0.275 OA
ENDBRANCH   4  74
TORSDOF 31
