REMARK VINA RESULT:    -5.944      2.961      4.841
REMARK INTER + INTRA:         -25.448
REMARK INTER:                 -15.280
REMARK INTRA:                 -10.168
REMARK UNBOUND:                -7.166
REMARK SMILES CC(=O)N[C@@H]1[C@@H](O)C[C@](OC[C@H]2O[C@@H](O[C@H]3[C@H](O)[C@@H](O)[C@H](OCCN=[N+]=[N-])O[C@@H]3CO)[C@H](O)[C@@H](O)[C@H]2O)(C(=O)O)O[C@H]1C(O)[C@H](O)CNC(=O)OCc1cn(CCCCCCCCCCC(=O)O)nn1
REMARK SMILES IDX 51 1 49 2 48 3 50 5 47 6 45 7 43 8 42 9 9 10 8 11 41 12 6 13
REMARK SMILES IDX 5 14 10 15 11 16 12 17 14 18 13 19 32 20 34 21 36 22 15 23
REMARK SMILES IDX 16 24 29 25 28 26 21 27 17 28 19 29 30 30 31 31 22 33 23 34
REMARK SMILES IDX 24 35 25 36 26 37 27 38 18 39 20 41 33 43 35 45 37 47 38 49
REMARK SMILES IDX 39 50 40 51 7 53 4 55 2 56 1 58 3 59 44 60 46 62 52 64 53 65
REMARK SMILES IDX 54 66 70 67 55 68 69 69 56 70 57 71 58 72 59 73 60 74 61 75
REMARK SMILES IDX 62 76 63 77 64 78 65 79 66 80 67 81 68 82
REMARK H PARENT 48 4 31 32 18 40 20 42 33 44 35 46 37 48 40 52 7 54 4 57 44 61
REMARK H PARENT 46 63 68 83
REMARK Flexibility Score: inf
ROOT
ATOM      1  O   UNL     1      22.414  29.408  19.607  1.00  0.00    -0.443 OA
ENDROOT
BRANCH   1   2
ATOM      2  C   UNL     1      21.842  30.534  20.240  1.00  0.00     0.407 C 
ATOM      3  N   UNL     1      21.123  30.398  21.454  1.00  0.00    -0.319 N 
ATOM      4  H   UNL     1      21.018  29.435  21.869  1.00  0.00     0.167 HD
ATOM      5  O   UNL     1      21.959  31.679  19.747  1.00  0.00    -0.225 OA
BRANCH   3   6
ATOM      6  C   UNL     1      20.536  31.513  22.133  1.00  0.00     0.154 C 
BRANCH   6   7
ATOM      7  C   UNL     1      19.061  31.737  21.818  1.00  0.00     0.165 C 
BRANCH   7   8
ATOM      8  C   UNL     1      18.423  30.393  21.866  1.00  0.00     0.176 C 
BRANCH   8   9
ATOM      9  C   UNL     1      16.956  30.340  21.506  1.00  0.00     0.178 C 
ATOM     10  C   UNL     1      15.596  29.945  19.662  1.00  0.00     0.272 C 
ATOM     11  C   UNL     1      14.670  30.999  20.230  1.00  0.00     0.113 C 
ATOM     12  O   UNL     1      16.864  30.202  20.149  1.00  0.00    -0.332 OA
ATOM     13  C   UNL     1      15.378  32.087  20.972  1.00  0.00     0.145 C 
ATOM     14  C   UNL     1      16.171  31.465  22.103  1.00  0.00     0.142 C 
BRANCH  10  15
ATOM     15  O   UNL     1      15.595  29.990  18.258  1.00  0.00    -0.338 OA
BRANCH  15  16
ATOM     16  C   UNL     1      14.391  29.902  17.646  1.00  0.00     0.199 C 
BRANCH  16  17
ATOM     17  C   UNL     1      14.534  30.645  16.300  1.00  0.00     0.179 C 
ATOM     18  C   UNL     1      16.627  30.053  15.370  1.00  0.00     0.282 C 
ATOM     19  O   UNL     1      15.801  30.935  15.981  1.00  0.00    -0.341 OA
ATOM     20  C   UNL     1      15.935  28.889  14.768  1.00  0.00     0.202 C 
ATOM     21  C   UNL     1      14.616  29.358  14.165  1.00  0.00     0.179 C 
ATOM     22  C   UNL     1      13.719  29.944  15.236  1.00  0.00     0.177 C 
BRANCH  18  23
ATOM     23  O   UNL     1      17.615  29.698  16.324  1.00  0.00    -0.341 OA
BRANCH  23  24
ATOM     24  C   UNL     1      18.685  30.566  16.152  1.00  0.00     0.184 C 
ATOM     25  C   UNL     1      20.020  29.911  16.014  1.00  0.00     0.178 C 
ATOM     26  O   UNL     1      21.018  30.840  16.025  1.00  0.00    -0.341 OA
ATOM     27  C   UNL     1      20.745  32.155  15.968  1.00  0.00     0.281 C 
ATOM     28  C   UNL     1      18.792  31.499  17.369  1.00  0.00     0.180 C 
ATOM     29  C   UNL     1      19.696  32.633  16.945  1.00  0.00     0.202 C 
BRANCH  25  30
ATOM     30  C   UNL     1      20.144  29.037  14.779  1.00  0.00     0.191 C 
BRANCH  30  31
ATOM     31  O   UNL     1      19.477  29.526  13.686  1.00  0.00    -0.394 OA
ATOM     32  H   UNL     1      19.761  30.465  13.539  1.00  0.00     0.210 HD
ENDBRANCH  30  31
ENDBRANCH  25  30
BRANCH  27  33
ATOM     33  O   UNL     1      20.333  32.506  14.689  1.00  0.00    -0.350 OA
BRANCH  33  34
ATOM     34  C   UNL     1      19.875  33.822  14.626  1.00  0.00     0.169 C 
BRANCH  34  35
ATOM     35  C   UNL     1      20.593  34.620  13.575  1.00  0.00     0.119 C 
BRANCH  35  36
ATOM     36  N   UNL     1      20.059  34.251  12.262  1.00  0.00    -0.092 NA
ATOM     37  N   UNL     1      20.533  34.749  11.218  1.00  0.00     0.001 N 
ATOM     38  N   UNL     1      21.173  35.403  10.366  1.00  0.00    -0.003 NA
ENDBRANCH  35  36
ENDBRANCH  34  35
ENDBRANCH  33  34
ENDBRANCH  27  33
BRANCH  28  39
ATOM     39  O   UNL     1      17.569  31.999  17.763  1.00  0.00    -0.387 OA
ATOM     40  H   UNL     1      17.635  32.799  18.341  1.00  0.00     0.211 HD
ENDBRANCH  28  39
BRANCH  29  41
ATOM     41  O   UNL     1      20.358  33.085  18.083  1.00  0.00    -0.385 OA
ATOM     42  H   UNL     1      21.325  32.819  17.991  1.00  0.00     0.211 HD
ENDBRANCH  29  41
ENDBRANCH  23  24
ENDBRANCH  18  23
BRANCH  20  43
ATOM     43  O   UNL     1      16.643  28.336  13.692  1.00  0.00    -0.385 OA
ATOM     44  H   UNL     1      17.555  28.751  13.730  1.00  0.00     0.211 HD
ENDBRANCH  20  43
BRANCH  21  45
ATOM     45  O   UNL     1      13.961  28.302  13.535  1.00  0.00    -0.387 OA
ATOM     46  H   UNL     1      14.514  27.495  13.696  1.00  0.00     0.211 HD
ENDBRANCH  21  45
BRANCH  22  47
ATOM     47  O   UNL     1      12.995  28.915  15.788  1.00  0.00    -0.387 OA
ATOM     48  H   UNL     1      13.625  28.204  16.072  1.00  0.00     0.211 HD
ENDBRANCH  22  47
ENDBRANCH  16  17
ENDBRANCH  15  16
ENDBRANCH  10  15
BRANCH  10  49
ATOM     49  C   UNL     1      15.157  28.587  19.993  1.00  0.00     0.364 C 
ATOM     50  O   UNL     1      14.104  28.349  20.607  1.00  0.00    -0.246 OA
BRANCH  49  51
ATOM     51  O   UNL     1      15.921  27.492  19.625  1.00  0.00    -0.477 OA
ATOM     52  H   UNL     1      15.643  26.532  19.845  1.00  0.00     0.296 HD
ENDBRANCH  49  51
ENDBRANCH  10  49
BRANCH  13  53
ATOM     53  O   UNL     1      16.135  32.941  20.201  1.00  0.00    -0.391 OA
ATOM     54  H   UNL     1      17.113  32.730  20.206  1.00  0.00     0.211 HD
ENDBRANCH  13  53
BRANCH  14  55
ATOM     55  N   UNL     1      15.244  31.088  23.118  1.00  0.00    -0.348 N 
ATOM     56  C   UNL     1      15.569  30.963  24.498  1.00  0.00     0.217 C 
ATOM     57  H   UNL     1      14.245  30.880  22.874  1.00  0.00     0.163 HD
ATOM     58  C   UNL     1      14.554  30.568  25.490  1.00  0.00     0.114 C 
ATOM     59  O   UNL     1      16.743  31.200  24.839  1.00  0.00    -0.275 OA
ENDBRANCH  14  55
ENDBRANCH   8   9
BRANCH   8  60
ATOM     60  O   UNL     1      18.737  29.791  23.054  1.00  0.00    -0.388 OA
ATOM     61  H   UNL     1      19.686  29.698  23.238  1.00  0.00     0.211 HD
ENDBRANCH   8  60
ENDBRANCH   7   8
BRANCH   7  62
ATOM     62  O   UNL     1      19.003  32.365  20.579  1.00  0.00    -0.388 OA
ATOM     63  H   UNL     1      18.226  32.068  20.047  1.00  0.00     0.211 HD
ENDBRANCH   7  62
ENDBRANCH   6   7
ENDBRANCH   3   6
ENDBRANCH   1   2
BRANCH   1  64
ATOM     64  C   UNL     1      21.496  28.433  19.093  1.00  0.00     0.294 C 
BRANCH  64  65
ATOM     65  C   UNL     1      21.441  27.329  20.073  1.00  0.00     0.120 A 
ATOM     66  C   UNL     1      22.280  26.229  20.077  1.00  0.00     0.138 A 
ATOM     67  N   UNL     1      20.608  27.187  21.113  1.00  0.00    -0.132 NA
ATOM     68  N   UNL     1      21.909  25.472  21.127  1.00  0.00    -0.252 N 
ATOM     69  N   UNL     1      20.880  26.081  21.748  1.00  0.00    -0.067 NA
BRANCH  68  70
ATOM     70  C   UNL     1      22.459  24.232  21.578  1.00  0.00     0.146 C 
BRANCH  70  71
ATOM     71  C   UNL     1      23.929  24.215  21.807  1.00  0.00     0.024 C 
BRANCH  71  72
ATOM     72  C   UNL     1      24.376  24.193  23.226  1.00  0.00     0.002 C 
BRANCH  72  73
ATOM     73  C   UNL     1      23.696  25.157  24.135  1.00  0.00     0.000 C 
BRANCH  73  74
ATOM     74  C   UNL     1      22.810  24.555  25.171  1.00  0.00     0.000 C 
BRANCH  74  75
ATOM     75  C   UNL     1      23.465  24.629  26.522  1.00  0.00     0.000 C 
BRANCH  75  76
ATOM     76  C   UNL     1      22.503  24.996  27.631  1.00  0.00     0.000 C 
BRANCH  76  77
ATOM     77  C   UNL     1      22.482  26.456  27.942  1.00  0.00     0.001 C 
BRANCH  77  78
ATOM     78  C   UNL     1      21.317  27.204  27.372  1.00  0.00     0.012 C 
BRANCH  78  79
ATOM     79  C   UNL     1      21.809  28.029  26.195  1.00  0.00     0.122 C 
BRANCH  79  80
ATOM     80  C   UNL     1      20.978  27.725  25.018  1.00  0.00     0.303 C 
ATOM     81  O   UNL     1      20.066  26.875  25.083  1.00  0.00    -0.252 OA
BRANCH  80  82
ATOM     82  O   UNL     1      21.182  28.367  23.804  1.00  0.00    -0.481 OA
ATOM     83  H   UNL     1      20.932  27.947  22.927  1.00  0.00     0.296 HD
ENDBRANCH  80  82
ENDBRANCH  79  80
ENDBRANCH  78  79
ENDBRANCH  77  78
ENDBRANCH  76  77
ENDBRANCH  75  76
ENDBRANCH  74  75
ENDBRANCH  73  74
ENDBRANCH  72  73
ENDBRANCH  71  72
ENDBRANCH  70  71
ENDBRANCH  68  70
ENDBRANCH  64  65
ENDBRANCH   1  64
TORSDOF 41
