REMARK VINA RESULT:    -5.669      9.373     18.799
REMARK INTER + INTRA:         -21.499
REMARK INTER:                 -16.247
REMARK INTRA:                  -5.252
REMARK UNBOUND:                -7.546
REMARK SMILES CC(=O)N[C@@H]1[C@@H](O)C[C@](OC[C@H]2O[C@@H](O[C@H]3[C@H](O)[C@@H](O)[C@H](OCCN=[N+]=[N-])O[C@@H]3CO)[C@H](O)[C@@H](O)[C@H]2O)(C(=O)O)O[C@H]1C(O)[C@H](O)CNC(=O)OCc1cn(-c2ccc3[nH]ncc3c2)nn1
REMARK SMILES IDX 9 1 8 2 6 3 5 4 42 5 41 6 10 7 11 8 12 9 14 10 13 11 32 12
REMARK SMILES IDX 34 13 36 14 15 15 16 16 29 17 28 18 21 19 17 20 19 21 30 22
REMARK SMILES IDX 31 23 22 25 23 26 24 27 25 28 26 29 27 30 18 31 20 33 33 35
REMARK SMILES IDX 35 37 37 39 38 41 39 42 40 43 7 45 43 47 44 48 45 50 46 51
REMARK SMILES IDX 47 53 48 54 49 55 50 57 51 58 52 59 53 60 54 61 66 62 55 63
REMARK SMILES IDX 65 64 56 65 57 66 64 67 58 68 63 69 59 70 62 71 60 72 61 73
REMARK SMILES IDX 4 75 2 76 1 78 3 79
REMARK H PARENT 31 24 18 32 20 34 33 36 35 38 37 40 40 44 7 46 44 49 46 52
REMARK H PARENT 48 56 60 74 4 77
REMARK Flexibility Score: inf
ROOT
ATOM      1  C   UNL     1      30.042  20.254  22.250  1.00  0.00     0.272 C 
ATOM      2  C   UNL     1      31.256  20.076  21.413  1.00  0.00     0.113 C 
ATOM      3  C   UNL     1      31.079  20.356  19.944  1.00  0.00     0.145 C 
ATOM      4  C   UNL     1      30.592  21.829  19.884  1.00  0.00     0.142 C 
ATOM      5  C   UNL     1      29.381  21.867  20.733  1.00  0.00     0.178 C 
ATOM      6  O   UNL     1      29.483  21.511  22.033  1.00  0.00    -0.332 OA
ENDROOT
BRANCH   1   7
ATOM      7  O   UNL     1      30.425  20.172  23.606  1.00  0.00    -0.338 OA
BRANCH   7   8
ATOM      8  C   UNL     1      30.807  21.342  24.176  1.00  0.00     0.199 C 
BRANCH   8   9
ATOM      9  C   UNL     1      31.508  21.120  25.535  1.00  0.00     0.179 C 
ATOM     10  C   UNL     1      32.722  19.253  26.174  1.00  0.00     0.282 C 
ATOM     11  O   UNL     1      31.459  19.810  25.908  1.00  0.00    -0.341 OA
ATOM     12  C   UNL     1      33.484  19.307  24.890  1.00  0.00     0.202 C 
ATOM     13  C   UNL     1      33.821  20.785  24.648  1.00  0.00     0.179 C 
ATOM     14  C   UNL     1      32.918  21.671  25.462  1.00  0.00     0.177 C 
BRANCH  10  15
ATOM     15  O   UNL     1      32.563  17.993  26.721  1.00  0.00    -0.341 OA
BRANCH  15  16
ATOM     16  C   UNL     1      33.186  17.941  27.962  1.00  0.00     0.184 C 
ATOM     17  C   UNL     1      33.836  16.629  28.282  1.00  0.00     0.178 C 
ATOM     18  O   UNL     1      34.492  16.681  29.453  1.00  0.00    -0.341 OA
ATOM     19  C   UNL     1      34.228  17.642  30.376  1.00  0.00     0.281 C 
ATOM     20  C   UNL     1      32.124  18.086  29.069  1.00  0.00     0.180 C 
ATOM     21  C   UNL     1      32.857  18.228  30.358  1.00  0.00     0.202 C 
BRANCH  17  22
ATOM     22  C   UNL     1      34.769  16.117  27.204  1.00  0.00     0.191 C 
BRANCH  22  23
ATOM     23  O   UNL     1      34.081  15.650  26.099  1.00  0.00    -0.394 OA
ATOM     24  H   UNL     1      34.143  16.383  25.414  1.00  0.00     0.210 HD
ENDBRANCH  22  23
ENDBRANCH  17  22
BRANCH  19  25
ATOM     25  O   UNL     1      35.179  18.622  30.239  1.00  0.00    -0.350 OA
BRANCH  25  26
ATOM     26  C   UNL     1      35.099  19.686  31.069  1.00  0.00     0.169 C 
BRANCH  26  27
ATOM     27  C   UNL     1      35.830  20.900  30.593  1.00  0.00     0.119 C 
BRANCH  27  28
ATOM     28  N   UNL     1      35.267  21.553  29.449  1.00  0.00    -0.092 NA
ATOM     29  N   UNL     1      34.078  21.751  29.298  1.00  0.00     0.001 N 
ATOM     30  N   UNL     1      32.876  21.641  28.967  1.00  0.00    -0.003 NA
ENDBRANCH  27  28
ENDBRANCH  26  27
ENDBRANCH  25  26
ENDBRANCH  19  25
BRANCH  20  31
ATOM     31  O   UNL     1      31.272  19.129  28.826  1.00  0.00    -0.387 OA
ATOM     32  H   UNL     1      30.754  19.419  29.621  1.00  0.00     0.211 HD
ENDBRANCH  20  31
BRANCH  21  33
ATOM     33  O   UNL     1      32.048  17.667  31.362  1.00  0.00    -0.385 OA
ATOM     34  H   UNL     1      31.085  17.796  31.167  1.00  0.00     0.211 HD
ENDBRANCH  21  33
ENDBRANCH  15  16
ENDBRANCH  10  15
BRANCH  12  35
ATOM     35  O   UNL     1      34.610  18.527  24.825  1.00  0.00    -0.385 OA
ATOM     36  H   UNL     1      35.018  18.378  25.732  1.00  0.00     0.211 HD
ENDBRANCH  12  35
BRANCH  13  37
ATOM     37  O   UNL     1      33.864  21.091  23.304  1.00  0.00    -0.387 OA
ATOM     38  H   UNL     1      32.991  21.533  23.077  1.00  0.00     0.211 HD
ENDBRANCH  13  37
BRANCH  14  39
ATOM     39  O   UNL     1      32.842  22.907  24.770  1.00  0.00    -0.387 OA
ATOM     40  H   UNL     1      32.125  22.927  24.119  1.00  0.00     0.211 HD
ENDBRANCH  14  39
ENDBRANCH   8   9
ENDBRANCH   7   8
ENDBRANCH   1   7
BRANCH   1  41
ATOM     41  C   UNL     1      28.951  19.282  21.969  1.00  0.00     0.364 C 
ATOM     42  O   UNL     1      27.772  19.628  22.311  1.00  0.00    -0.246 OA
BRANCH  41  43
ATOM     43  O   UNL     1      29.066  18.057  21.388  1.00  0.00    -0.477 OA
ATOM     44  H   UNL     1      28.273  17.524  21.030  1.00  0.00     0.296 HD
ENDBRANCH  41  43
ENDBRANCH   1  41
BRANCH   3  45
ATOM     45  O   UNL     1      32.309  20.239  19.326  1.00  0.00    -0.391 OA
ATOM     46  H   UNL     1      32.262  19.660  18.506  1.00  0.00     0.211 HD
ENDBRANCH   3  45
BRANCH   5  47
ATOM     47  C   UNL     1      28.579  23.111  20.499  1.00  0.00     0.176 C 
BRANCH  47  48
ATOM     48  O   UNL     1      27.596  22.702  19.525  1.00  0.00    -0.388 OA
ATOM     49  H   UNL     1      27.782  21.792  19.217  1.00  0.00     0.211 HD
ENDBRANCH  47  48
BRANCH  47  50
ATOM     50  C   UNL     1      27.763  23.595  21.673  1.00  0.00     0.165 C 
BRANCH  50  51
ATOM     51  O   UNL     1      26.960  22.481  22.047  1.00  0.00    -0.388 OA
ATOM     52  H   UNL     1      26.231  22.736  22.639  1.00  0.00     0.211 HD
ENDBRANCH  50  51
BRANCH  50  53
ATOM     53  C   UNL     1      26.878  24.754  21.414  1.00  0.00     0.154 C 
BRANCH  53  54
ATOM     54  N   UNL     1      25.550  24.496  20.984  1.00  0.00    -0.319 N 
ATOM     55  C   UNL     1      24.577  25.442  20.582  1.00  0.00     0.407 C 
ATOM     56  H   UNL     1      25.212  23.481  20.945  1.00  0.00     0.167 HD
ATOM     57  O   UNL     1      24.826  26.651  20.558  1.00  0.00    -0.225 OA
BRANCH  55  58
ATOM     58  O   UNL     1      23.308  25.014  20.201  1.00  0.00    -0.443 OA
BRANCH  58  59
ATOM     59  C   UNL     1      22.502  24.118  20.903  1.00  0.00     0.294 C 
BRANCH  59  60
ATOM     60  C   UNL     1      22.030  24.599  22.209  1.00  0.00     0.121 A 
ATOM     61  C   UNL     1      22.756  24.645  23.377  1.00  0.00     0.144 A 
ATOM     62  N   UNL     1      20.795  25.068  22.487  1.00  0.00    -0.131 NA
ATOM     63  N   UNL     1      21.928  25.138  24.300  1.00  0.00    -0.220 N 
ATOM     64  N   UNL     1      20.756  25.386  23.745  1.00  0.00    -0.062 NA
BRANCH  63  65
ATOM     65  C   UNL     1      22.271  25.354  25.669  1.00  0.00     0.067 A 
ATOM     66  C   UNL     1      22.494  24.295  26.521  1.00  0.00     0.030 A 
ATOM     67  C   UNL     1      22.381  26.633  26.163  1.00  0.00     0.040 A 
ATOM     68  C   UNL     1      22.820  24.505  27.838  1.00  0.00     0.030 A 
ATOM     69  C   UNL     1      22.714  26.828  27.502  1.00  0.00     0.022 A 
ATOM     70  C   UNL     1      22.941  25.774  28.370  1.00  0.00     0.065 A 
ATOM     71  C   UNL     1      22.883  27.991  28.218  1.00  0.00     0.143 A 
ATOM     72  N   UNL     1      23.238  26.293  29.574  1.00  0.00    -0.278 N 
ATOM     73  N   UNL     1      23.199  27.601  29.464  1.00  0.00    -0.183 NA
ATOM     74  H   UNL     1      23.456  25.724  30.428  1.00  0.00     0.190 HD
ENDBRANCH  63  65
ENDBRANCH  59  60
ENDBRANCH  58  59
ENDBRANCH  55  58
ENDBRANCH  53  54
ENDBRANCH  50  53
ENDBRANCH  47  50
ENDBRANCH   5  47
BRANCH   4  75
ATOM     75  N   UNL     1      30.199  21.971  18.478  1.00  0.00    -0.348 N 
ATOM     76  C   UNL     1      30.824  22.943  17.694  1.00  0.00     0.217 C 
ATOM     77  H   UNL     1      29.472  21.374  18.050  1.00  0.00     0.163 HD
ATOM     78  C   UNL     1      30.475  23.156  16.250  1.00  0.00     0.114 C 
ATOM     79  O   UNL     1      31.727  23.679  18.211  1.00  0.00    -0.275 OA
ENDBRANCH   4  75
TORSDOF 30
