REMARK VINA RESULT:    -4.738      9.937     16.607
REMARK INTER + INTRA:         -22.779
REMARK INTER:                 -15.461
REMARK INTRA:                  -7.318
REMARK UNBOUND:               -10.839
REMARK SMILES CC(=O)N[C@@H]1[C@@H](O)C[C@](OC[C@H]2O[C@@H](O[C@H]3[C@H](O)[C@@H](O)[C@H](OCCN=[N+]=[N-])O[C@@H]3CO)[C@H](O)[C@@H](O)[C@H]2O)(C(=O)O)O[C@H]1C(O)[C@H](O)CNC(=O)OCc1cn(-c2ccccc2C(C)C)nn1
REMARK SMILES IDX 9 1 8 2 6 3 5 4 42 5 41 6 10 7 11 8 12 9 14 10 13 11 32 12
REMARK SMILES IDX 34 13 36 14 15 15 16 16 29 17 28 18 21 19 17 20 19 21 30 22
REMARK SMILES IDX 31 23 22 25 23 26 24 27 25 28 26 29 27 30 18 31 20 33 33 35
REMARK SMILES IDX 35 37 37 39 38 41 39 42 40 43 7 45 43 47 44 48 45 50 46 51
REMARK SMILES IDX 47 53 48 54 49 55 50 57 51 58 52 59 53 60 54 61 66 62 55 63
REMARK SMILES IDX 65 64 56 65 61 66 57 67 60 68 58 69 59 70 62 71 63 72 64 73
REMARK SMILES IDX 4 74 2 75 1 77 3 78
REMARK H PARENT 31 24 18 32 20 34 33 36 35 38 37 40 40 44 7 46 44 49 46 52
REMARK H PARENT 48 56 4 76
REMARK Flexibility Score: inf
ROOT
ATOM      1  C   UNL     1      15.197  31.453  24.442  1.00  0.00     0.272 C 
ATOM      2  C   UNL     1      13.957  31.059  25.213  1.00  0.00     0.113 C 
ATOM      3  C   UNL     1      13.363  29.837  24.530  1.00  0.00     0.145 C 
ATOM      4  C   UNL     1      12.825  30.309  23.167  1.00  0.00     0.142 C 
ATOM      5  C   UNL     1      13.910  31.068  22.501  1.00  0.00     0.178 C 
ATOM      6  O   UNL     1      15.111  30.840  23.157  1.00  0.00    -0.332 OA
ENDROOT
BRANCH   1   7
ATOM      7  O   UNL     1      16.318  30.923  24.967  1.00  0.00    -0.338 OA
BRANCH   7   8
ATOM      8  C   UNL     1      17.300  31.450  25.612  1.00  0.00     0.199 C 
BRANCH   8   9
ATOM      9  C   UNL     1      18.726  31.423  25.165  1.00  0.00     0.179 C 
ATOM     10  C   UNL     1      20.651  30.214  25.175  1.00  0.00     0.282 C 
ATOM     11  O   UNL     1      19.475  30.447  25.774  1.00  0.00    -0.341 OA
ATOM     12  C   UNL     1      21.143  31.278  24.204  1.00  0.00     0.202 C 
ATOM     13  C   UNL     1      20.111  31.592  23.154  1.00  0.00     0.179 C 
ATOM     14  C   UNL     1      18.768  31.140  23.646  1.00  0.00     0.177 C 
BRANCH  10  15
ATOM     15  O   UNL     1      20.846  28.999  24.591  1.00  0.00    -0.341 OA
BRANCH  15  16
ATOM     16  C   UNL     1      21.378  27.972  25.329  1.00  0.00     0.184 C 
ATOM     17  C   UNL     1      22.570  28.368  26.137  1.00  0.00     0.178 C 
ATOM     18  O   UNL     1      23.682  27.655  25.858  1.00  0.00    -0.341 OA
ATOM     19  C   UNL     1      23.659  26.296  25.917  1.00  0.00     0.281 C 
ATOM     20  C   UNL     1      21.612  26.715  24.595  1.00  0.00     0.180 C 
ATOM     21  C   UNL     1      22.287  25.736  25.540  1.00  0.00     0.202 C 
BRANCH  17  22
ATOM     22  C   UNL     1      22.328  28.298  27.654  1.00  0.00     0.191 C 
BRANCH  22  23
ATOM     23  O   UNL     1      20.982  28.666  27.876  1.00  0.00    -0.394 OA
ATOM     24  H   UNL     1      20.480  28.371  27.052  1.00  0.00     0.210 HD
ENDBRANCH  22  23
ENDBRANCH  17  22
BRANCH  19  25
ATOM     25  O   UNL     1      23.953  25.860  27.181  1.00  0.00    -0.350 OA
BRANCH  25  26
ATOM     26  C   UNL     1      25.259  25.700  27.522  1.00  0.00     0.169 C 
BRANCH  26  27
ATOM     27  C   UNL     1      25.654  25.942  28.931  1.00  0.00     0.119 C 
BRANCH  27  28
ATOM     28  N   UNL     1      27.020  26.329  29.048  1.00  0.00    -0.092 NA
ATOM     29  N   UNL     1      27.902  25.743  29.643  1.00  0.00     0.001 N 
ATOM     30  N   UNL     1      28.698  24.963  30.153  1.00  0.00    -0.003 NA
ENDBRANCH  27  28
ENDBRANCH  26  27
ENDBRANCH  25  26
ENDBRANCH  19  25
BRANCH  20  31
ATOM     31  O   UNL     1      20.453  26.083  24.148  1.00  0.00    -0.387 OA
ATOM     32  H   UNL     1      20.665  25.138  23.982  1.00  0.00     0.211 HD
ENDBRANCH  20  31
BRANCH  21  33
ATOM     33  O   UNL     1      22.486  24.504  24.915  1.00  0.00    -0.385 OA
ATOM     34  H   UNL     1      23.422  24.237  25.098  1.00  0.00     0.211 HD
ENDBRANCH  21  33
ENDBRANCH  15  16
ENDBRANCH  10  15
BRANCH  12  35
ATOM     35  O   UNL     1      21.465  32.407  24.938  1.00  0.00    -0.385 OA
ATOM     36  H   UNL     1      21.536  32.169  25.916  1.00  0.00     0.211 HD
ENDBRANCH  12  35
BRANCH  13  37
ATOM     37  O   UNL     1      20.463  30.949  21.959  1.00  0.00    -0.387 OA
ATOM     38  H   UNL     1      20.535  31.657  21.272  1.00  0.00     0.211 HD
ENDBRANCH  13  37
BRANCH  14  39
ATOM     39  O   UNL     1      18.645  29.776  23.484  1.00  0.00    -0.387 OA
ATOM     40  H   UNL     1      19.521  29.364  23.689  1.00  0.00     0.211 HD
ENDBRANCH  14  39
ENDBRANCH   8   9
ENDBRANCH   7   8
ENDBRANCH   1   7
BRANCH   1  41
ATOM     41  C   UNL     1      15.277  32.904  24.242  1.00  0.00     0.364 C 
ATOM     42  O   UNL     1      16.028  33.304  23.282  1.00  0.00    -0.246 OA
BRANCH  41  43
ATOM     43  O   UNL     1      14.660  33.904  24.946  1.00  0.00    -0.477 OA
ATOM     44  H   UNL     1      13.784  34.342  24.727  1.00  0.00     0.296 HD
ENDBRANCH  41  43
ENDBRANCH   1  41
BRANCH   3  45
ATOM     45  O   UNL     1      14.381  28.930  24.218  1.00  0.00    -0.391 OA
ATOM     46  H   UNL     1      15.191  29.460  24.013  1.00  0.00     0.211 HD
ENDBRANCH   3  45
BRANCH   5  47
ATOM     47  C   UNL     1      14.184  30.759  21.060  1.00  0.00     0.176 C 
BRANCH  47  48
ATOM     48  O   UNL     1      12.941  31.086  20.412  1.00  0.00    -0.388 OA
ATOM     49  H   UNL     1      12.323  30.392  20.807  1.00  0.00     0.211 HD
ENDBRANCH  47  48
BRANCH  47  50
ATOM     50  C   UNL     1      14.443  29.327  20.714  1.00  0.00     0.165 C 
BRANCH  50  51
ATOM     51  O   UNL     1      15.389  28.723  21.496  1.00  0.00    -0.388 OA
ATOM     52  H   UNL     1      15.345  29.158  22.386  1.00  0.00     0.211 HD
ENDBRANCH  50  51
BRANCH  50  53
ATOM     53  C   UNL     1      14.465  29.055  19.257  1.00  0.00     0.154 C 
BRANCH  53  54
ATOM     54  N   UNL     1      15.779  29.055  18.643  1.00  0.00    -0.319 N 
ATOM     55  C   UNL     1      16.635  27.929  18.720  1.00  0.00     0.407 C 
ATOM     56  H   UNL     1      16.150  29.877  18.119  1.00  0.00     0.167 HD
ATOM     57  O   UNL     1      16.336  26.869  19.315  1.00  0.00    -0.225 OA
BRANCH  55  58
ATOM     58  O   UNL     1      17.918  27.903  18.123  1.00  0.00    -0.443 OA
BRANCH  58  59
ATOM     59  C   UNL     1      18.823  28.934  18.371  1.00  0.00     0.294 C 
BRANCH  59  60
ATOM     60  C   UNL     1      19.674  28.550  19.532  1.00  0.00     0.121 A 
ATOM     61  C   UNL     1      21.028  28.308  19.609  1.00  0.00     0.144 A 
ATOM     62  N   UNL     1      19.233  28.357  20.816  1.00  0.00    -0.131 NA
ATOM     63  N   UNL     1      21.392  27.988  20.862  1.00  0.00    -0.220 N 
ATOM     64  N   UNL     1      20.258  28.029  21.574  1.00  0.00    -0.062 NA
BRANCH  63  65
ATOM     65  C   UNL     1      22.680  27.675  21.381  1.00  0.00     0.070 A 
ATOM     66  C   UNL     1      23.146  26.381  21.294  1.00  0.00    -0.020 A 
ATOM     67  C   UNL     1      23.499  28.602  21.985  1.00  0.00     0.029 A 
ATOM     68  C   UNL     1      24.384  26.034  21.797  1.00  0.00     0.006 A 
ATOM     69  C   UNL     1      24.742  28.270  22.494  1.00  0.00     0.002 A 
ATOM     70  C   UNL     1      25.192  26.969  22.399  1.00  0.00     0.000 A 
BRANCH  66  71
ATOM     71  C   UNL     1      22.303  25.358  20.643  1.00  0.00     0.015 C 
ATOM     72  C   UNL     1      22.285  24.125  21.534  1.00  0.00     0.012 C 
ATOM     73  C   UNL     1      22.938  24.954  19.302  1.00  0.00     0.012 C 
ENDBRANCH  66  71
ENDBRANCH  63  65
ENDBRANCH  59  60
ENDBRANCH  58  59
ENDBRANCH  55  58
ENDBRANCH  53  54
ENDBRANCH  50  53
ENDBRANCH  47  50
ENDBRANCH   5  47
BRANCH   4  74
ATOM     74  N   UNL     1      11.653  31.112  23.433  1.00  0.00    -0.348 N 
ATOM     75  C   UNL     1      10.452  30.633  23.979  1.00  0.00     0.217 C 
ATOM     76  H   UNL     1      11.700  32.146  23.191  1.00  0.00     0.163 HD
ATOM     77  C   UNL     1       9.321  31.597  24.191  1.00  0.00     0.114 C 
ATOM     78  O   UNL     1      10.322  29.440  24.283  1.00  0.00    -0.275 OA
ENDBRANCH   4  74
TORSDOF 31
