REMARK VINA RESULT:    -5.737      2.894      3.713
REMARK INTER + INTRA:         -22.230
REMARK INTER:                 -15.503
REMARK INTRA:                  -6.727
REMARK UNBOUND:                -7.606
REMARK SMILES CC(=O)N[C@@H]1[C@@H](O)C[C@](OC[C@H]2O[C@@H](O[C@H]3[C@H](O)[C@@H](O)[C@H](OCCN=[N+]=[N-])O[C@@H]3CO)[C@H](O)[C@@H](O)[C@H]2O)(C(=O)O)O[C@H]1C(O)[C@H](O)CNC(=O)OCc1cn(-c2ccc(CO)cn2)nn1
REMARK SMILES IDX 9 1 8 2 6 3 5 4 42 5 41 6 10 7 11 8 12 9 14 10 13 11 32 12
REMARK SMILES IDX 34 13 36 14 15 15 16 16 29 17 28 18 21 19 17 20 19 21 30 22
REMARK SMILES IDX 31 23 22 25 23 26 24 27 25 28 26 29 27 30 18 31 20 33 33 35
REMARK SMILES IDX 35 37 37 39 38 41 39 42 40 43 7 45 43 47 44 48 45 50 46 51
REMARK SMILES IDX 47 53 48 54 49 55 50 57 51 58 52 59 53 60 54 61 65 62 55 63
REMARK SMILES IDX 64 64 56 65 57 66 63 67 58 68 62 69 59 70 60 71 61 72 4 74
REMARK SMILES IDX 2 75 1 77 3 78
REMARK H PARENT 31 24 18 32 20 34 33 36 35 38 37 40 40 44 7 46 44 49 46 52
REMARK H PARENT 48 56 61 73 4 76
REMARK Flexibility Score: inf
ROOT
ATOM      1  C   UNL     1      25.566  25.025  19.606  1.00  0.00     0.272 C 
ATOM      2  C   UNL     1      26.692  24.378  20.322  1.00  0.00     0.113 C 
ATOM      3  C   UNL     1      26.462  24.302  21.806  1.00  0.00     0.145 C 
ATOM      4  C   UNL     1      25.073  23.764  22.089  1.00  0.00     0.142 C 
ATOM      5  C   UNL     1      24.062  24.507  21.317  1.00  0.00     0.178 C 
ATOM      6  O   UNL     1      24.327  24.584  19.994  1.00  0.00    -0.332 OA
ENDROOT
BRANCH   1   7
ATOM      7  O   UNL     1      25.630  24.893  18.229  1.00  0.00    -0.338 OA
BRANCH   7   8
ATOM      8  C   UNL     1      24.498  24.324  17.684  1.00  0.00     0.199 C 
BRANCH   8   9
ATOM      9  C   UNL     1      24.039  25.136  16.511  1.00  0.00     0.179 C 
ATOM     10  C   UNL     1      23.282  24.953  14.389  1.00  0.00     0.282 C 
ATOM     11  O   UNL     1      23.143  24.418  15.696  1.00  0.00    -0.341 OA
ATOM     12  C   UNL     1      23.164  26.421  14.427  1.00  0.00     0.202 C 
ATOM     13  C   UNL     1      22.626  27.009  15.721  1.00  0.00     0.179 C 
ATOM     14  C   UNL     1      23.327  26.384  16.923  1.00  0.00     0.177 C 
BRANCH  10  15
ATOM     15  O   UNL     1      22.386  24.306  13.530  1.00  0.00    -0.341 OA
BRANCH  15  16
ATOM     16  C   UNL     1      22.342  22.944  13.734  1.00  0.00     0.184 C 
ATOM     17  C   UNL     1      23.610  22.203  13.446  1.00  0.00     0.178 C 
ATOM     18  O   UNL     1      23.526  21.365  12.337  1.00  0.00    -0.341 OA
ATOM     19  C   UNL     1      23.157  22.018  11.188  1.00  0.00     0.281 C 
ATOM     20  C   UNL     1      21.280  22.404  12.759  1.00  0.00     0.180 C 
ATOM     21  C   UNL     1      21.828  22.765  11.372  1.00  0.00     0.202 C 
BRANCH  17  22
ATOM     22  C   UNL     1      23.851  21.254  14.634  1.00  0.00     0.191 C 
BRANCH  22  23
ATOM     23  O   UNL     1      23.295  19.997  14.354  1.00  0.00    -0.394 OA
ATOM     24  H   UNL     1      22.692  19.705  15.103  1.00  0.00     0.210 HD
ENDBRANCH  22  23
ENDBRANCH  17  22
BRANCH  19  25
ATOM     25  O   UNL     1      23.004  21.074  10.177  1.00  0.00    -0.350 OA
BRANCH  25  26
ATOM     26  C   UNL     1      21.884  21.272   9.412  1.00  0.00     0.169 C 
BRANCH  26  27
ATOM     27  C   UNL     1      21.381  19.911   8.949  1.00  0.00     0.119 C 
BRANCH  27  28
ATOM     28  N   UNL     1      19.952  19.787   9.203  1.00  0.00    -0.092 NA
ATOM     29  N   UNL     1      19.472  19.627  10.312  1.00  0.00     0.001 N 
ATOM     30  N   UNL     1      18.897  19.856  11.376  1.00  0.00    -0.003 NA
ENDBRANCH  27  28
ENDBRANCH  26  27
ENDBRANCH  25  26
ENDBRANCH  19  25
BRANCH  20  31
ATOM     31  O   UNL     1      21.043  21.065  12.915  1.00  0.00    -0.387 OA
ATOM     32  H   UNL     1      20.429  20.925  13.651  1.00  0.00     0.211 HD
ENDBRANCH  20  31
BRANCH  21  33
ATOM     33  O   UNL     1      22.054  24.139  11.392  1.00  0.00    -0.385 OA
ATOM     34  H   UNL     1      23.031  24.277  11.483  1.00  0.00     0.211 HD
ENDBRANCH  21  33
ENDBRANCH  15  16
ENDBRANCH  10  15
BRANCH  12  35
ATOM     35  O   UNL     1      24.438  26.989  14.195  1.00  0.00    -0.385 OA
ATOM     36  H   UNL     1      24.913  26.525  13.458  1.00  0.00     0.211 HD
ENDBRANCH  12  35
BRANCH  13  37
ATOM     37  O   UNL     1      21.246  26.924  15.799  1.00  0.00    -0.387 OA
ATOM     38  H   UNL     1      20.796  26.935  14.941  1.00  0.00     0.211 HD
ENDBRANCH  13  37
BRANCH  14  39
ATOM     39  O   UNL     1      22.366  26.138  17.879  1.00  0.00    -0.387 OA
ATOM     40  H   UNL     1      22.303  25.176  18.039  1.00  0.00     0.211 HD
ENDBRANCH  14  39
ENDBRANCH   8   9
ENDBRANCH   7   8
ENDBRANCH   1   7
BRANCH   1  41
ATOM     41  C   UNL     1      25.541  26.519  19.851  1.00  0.00     0.364 C 
ATOM     42  O   UNL     1      24.483  27.161  20.049  1.00  0.00    -0.246 OA
BRANCH  41  43
ATOM     43  O   UNL     1      26.716  27.244  19.864  1.00  0.00    -0.477 OA
ATOM     44  H   UNL     1      27.198  27.447  18.979  1.00  0.00     0.296 HD
ENDBRANCH  41  43
ENDBRANCH   1  41
BRANCH   3  45
ATOM     45  O   UNL     1      27.357  23.330  22.295  1.00  0.00    -0.391 OA
ATOM     46  H   UNL     1      28.288  23.616  22.275  1.00  0.00     0.211 HD
ENDBRANCH   3  45
BRANCH   5  47
ATOM     47  C   UNL     1      22.644  24.018  21.545  1.00  0.00     0.176 C 
BRANCH  47  48
ATOM     48  O   UNL     1      22.294  23.116  20.542  1.00  0.00    -0.388 OA
ATOM     49  H   UNL     1      22.315  23.553  19.659  1.00  0.00     0.211 HD
ENDBRANCH  47  48
BRANCH  47  50
ATOM     50  C   UNL     1      21.606  25.073  21.608  1.00  0.00     0.165 C 
BRANCH  50  51
ATOM     51  O   UNL     1      21.440  25.753  20.393  1.00  0.00    -0.388 OA
ATOM     52  H   UNL     1      22.275  25.970  19.952  1.00  0.00     0.211 HD
ENDBRANCH  50  51
BRANCH  50  53
ATOM     53  C   UNL     1      21.712  26.040  22.752  1.00  0.00     0.154 C 
BRANCH  53  54
ATOM     54  N   UNL     1      22.212  27.313  22.306  1.00  0.00    -0.319 N 
ATOM     55  C   UNL     1      21.491  28.498  22.588  1.00  0.00     0.407 C 
ATOM     56  H   UNL     1      23.132  27.362  21.757  1.00  0.00     0.167 HD
ATOM     57  O   UNL     1      20.414  28.503  23.224  1.00  0.00    -0.225 OA
BRANCH  55  58
ATOM     58  O   UNL     1      21.959  29.745  22.161  1.00  0.00    -0.443 OA
BRANCH  58  59
ATOM     59  C   UNL     1      21.230  30.459  21.204  1.00  0.00     0.294 C 
BRANCH  59  60
ATOM     60  C   UNL     1      20.762  29.694  20.056  1.00  0.00     0.121 A 
ATOM     61  C   UNL     1      19.725  30.016  19.216  1.00  0.00     0.146 A 
ATOM     62  N   UNL     1      21.254  28.528  19.604  1.00  0.00    -0.131 NA
ATOM     63  N   UNL     1      19.612  29.047  18.285  1.00  0.00    -0.202 N 
ATOM     64  N   UNL     1      20.557  28.166  18.556  1.00  0.00    -0.061 NA
BRANCH  63  65
ATOM     65  C   UNL     1      18.645  29.032  17.247  1.00  0.00     0.155 A 
ATOM     66  C   UNL     1      17.281  29.047  17.516  1.00  0.00     0.049 A 
ATOM     67  N   UNL     1      19.014  28.993  15.955  1.00  0.00    -0.237 NA
ATOM     68  C   UNL     1      16.350  29.023  16.486  1.00  0.00     0.011 A 
ATOM     69  C   UNL     1      18.123  28.969  14.935  1.00  0.00     0.119 A 
ATOM     70  C   UNL     1      16.759  28.983  15.172  1.00  0.00    -0.004 A 
BRANCH  70  71
ATOM     71  C   UNL     1      15.756  28.954  14.073  1.00  0.00     0.193 C 
BRANCH  71  72
ATOM     72  O   UNL     1      14.756  28.018  14.337  1.00  0.00    -0.392 OA
ATOM     73  H   UNL     1      15.009  27.390  15.044  1.00  0.00     0.211 HD
ENDBRANCH  71  72
ENDBRANCH  70  71
ENDBRANCH  63  65
ENDBRANCH  59  60
ENDBRANCH  58  59
ENDBRANCH  55  58
ENDBRANCH  53  54
ENDBRANCH  50  53
ENDBRANCH  47  50
ENDBRANCH   5  47
BRANCH   4  74
ATOM     74  N   UNL     1      24.821  23.813  23.531  1.00  0.00    -0.348 N 
ATOM     75  C   UNL     1      24.817  25.004  24.252  1.00  0.00     0.217 C 
ATOM     76  H   UNL     1      24.633  22.915  24.019  1.00  0.00     0.163 HD
ATOM     77  C   UNL     1      24.551  24.910  25.737  1.00  0.00     0.114 C 
ATOM     78  O   UNL     1      25.017  26.121  23.753  1.00  0.00    -0.275 OA
ENDBRANCH   4  74
TORSDOF 32
