REMARK VINA RESULT:    -5.513      1.832      3.914
REMARK INTER + INTRA:         -21.476
REMARK INTER:                 -14.790
REMARK INTRA:                  -6.686
REMARK UNBOUND:                -7.585
REMARK SMILES COc1ccc(-n2cc(COC(=O)NC[C@@H](O)C(O)[C@@H]3O[C@@](OC[C@H]4O[C@@H](O[C@H]5[C@H](O)[C@@H](O)[C@H](OCCN=[N+]=[N-])O[C@@H]5CO)[C@H](O)[C@@H](O)[C@H]4O)(C(=O)O)C[C@H](O)[C@H]3NC(C)=O)nn2)cc1
REMARK SMILES IDX 22 1 54 2 55 3 57 4 20 5 21 6 23 7 24 8 25 9 27 10 26 11
REMARK SMILES IDX 45 12 47 13 49 14 28 15 29 16 42 17 41 18 34 19 30 20 32 21
REMARK SMILES IDX 43 22 44 23 35 25 36 26 37 27 38 28 39 29 40 30 31 31 33 33
REMARK SMILES IDX 46 35 48 37 50 39 51 41 52 42 53 43 56 45 18 47 19 48 16 50
REMARK SMILES IDX 17 51 15 53 14 54 12 55 13 57 11 58 10 59 9 60 8 61 62 62
REMARK SMILES IDX 7 63 63 64 6 65 5 66 64 67 4 68 65 69 3 70 2 71 1 72 58 73
REMARK SMILES IDX 59 74 60 76 61 77
REMARK H PARENT 44 24 31 32 33 34 46 36 48 38 50 40 53 44 56 46 19 49 17 52
REMARK H PARENT 14 56 58 75
REMARK Flexibility Score: inf
ROOT
ATOM      1  C   UNL     1      23.513  23.234   8.886  1.00  0.00     0.272 C 
ATOM      2  C   UNL     1      24.890  23.175   8.338  1.00  0.00     0.113 C 
ATOM      3  C   UNL     1      25.834  22.242   8.988  1.00  0.00     0.145 C 
ATOM      4  C   UNL     1      25.329  21.973  10.420  1.00  0.00     0.142 C 
ATOM      5  C   UNL     1      24.746  23.246  10.921  1.00  0.00     0.178 C 
ATOM      6  O   UNL     1      23.520  23.419  10.280  1.00  0.00    -0.332 OA
ENDROOT
BRANCH   1   7
ATOM      7  O   UNL     1      22.554  22.419   8.579  1.00  0.00    -0.338 OA
BRANCH   7   8
ATOM      8  C   UNL     1      22.305  21.363   7.899  1.00  0.00     0.199 C 
BRANCH   8   9
ATOM      9  C   UNL     1      21.531  20.183   8.413  1.00  0.00     0.179 C 
ATOM     10  C   UNL     1      21.490  18.353   9.781  1.00  0.00     0.282 C 
ATOM     11  O   UNL     1      22.155  19.539   9.426  1.00  0.00    -0.341 OA
ATOM     12  C   UNL     1      20.081  18.562  10.235  1.00  0.00     0.202 C 
ATOM     13  C   UNL     1      19.460  19.850   9.841  1.00  0.00     0.179 C 
ATOM     14  C   UNL     1      20.089  20.530   8.693  1.00  0.00     0.177 C 
BRANCH  10  15
ATOM     15  O   UNL     1      22.221  17.771  10.812  1.00  0.00    -0.341 OA
BRANCH  15  16
ATOM     16  C   UNL     1      23.138  18.621  11.368  1.00  0.00     0.184 C 
ATOM     17  C   UNL     1      24.504  18.043  11.421  1.00  0.00     0.178 C 
ATOM     18  O   UNL     1      25.396  18.919  12.096  1.00  0.00    -0.341 OA
ATOM     19  C   UNL     1      25.005  18.867  13.459  1.00  0.00     0.281 C 
ATOM     20  C   UNL     1      22.669  18.957  12.795  1.00  0.00     0.180 C 
ATOM     21  C   UNL     1      23.745  19.735  13.505  1.00  0.00     0.202 C 
BRANCH  17  22
ATOM     22  C   UNL     1      25.051  17.753  10.048  1.00  0.00     0.191 C 
BRANCH  22  23
ATOM     23  O   UNL     1      26.153  18.559   9.821  1.00  0.00    -0.394 OA
ATOM     24  H   UNL     1      26.944  18.282  10.334  1.00  0.00     0.210 HD
ENDBRANCH  22  23
ENDBRANCH  17  22
BRANCH  19  25
ATOM     25  O   UNL     1      25.978  19.334  14.273  1.00  0.00    -0.350 OA
BRANCH  25  26
ATOM     26  C   UNL     1      27.223  18.789  14.225  1.00  0.00     0.169 C 
BRANCH  26  27
ATOM     27  C   UNL     1      28.155  19.100  15.347  1.00  0.00     0.119 C 
BRANCH  27  28
ATOM     28  N   UNL     1      27.660  20.007  16.338  1.00  0.00    -0.092 NA
ATOM     29  N   UNL     1      28.190  21.097  16.527  1.00  0.00     0.001 N 
ATOM     30  N   UNL     1      28.887  22.103  16.692  1.00  0.00    -0.003 NA
ENDBRANCH  27  28
ENDBRANCH  26  27
ENDBRANCH  25  26
ENDBRANCH  19  25
BRANCH  20  31
ATOM     31  O   UNL     1      21.481  19.660  12.717  1.00  0.00    -0.387 OA
ATOM     32  H   UNL     1      21.055  19.615  13.629  1.00  0.00     0.211 HD
ENDBRANCH  20  31
BRANCH  21  33
ATOM     33  O   UNL     1      23.409  19.926  14.827  1.00  0.00    -0.385 OA
ATOM     34  H   UNL     1      23.377  20.887  15.057  1.00  0.00     0.211 HD
ENDBRANCH  21  33
ENDBRANCH  15  16
ENDBRANCH  10  15
BRANCH  12  35
ATOM     35  O   UNL     1      19.233  17.545   9.766  1.00  0.00    -0.385 OA
ATOM     36  H   UNL     1      19.080  16.859  10.454  1.00  0.00     0.211 HD
ENDBRANCH  12  35
BRANCH  13  37
ATOM     37  O   UNL     1      19.305  20.673  10.963  1.00  0.00    -0.387 OA
ATOM     38  H   UNL     1      19.372  20.189  11.811  1.00  0.00     0.211 HD
ENDBRANCH  13  37
BRANCH  14  39
ATOM     39  O   UNL     1      19.907  21.909   8.832  1.00  0.00    -0.387 OA
ATOM     40  H   UNL     1      20.160  22.319   7.967  1.00  0.00     0.211 HD
ENDBRANCH  14  39
ENDBRANCH   8   9
ENDBRANCH   7   8
ENDBRANCH   1   7
BRANCH   1  41
ATOM     41  C   UNL     1      23.032  24.647   8.427  1.00  0.00     0.364 C 
ATOM     42  O   UNL     1      22.568  25.444   9.246  1.00  0.00    -0.246 OA
BRANCH  41  43
ATOM     43  O   UNL     1      23.162  24.926   7.089  1.00  0.00    -0.477 OA
ATOM     44  H   UNL     1      22.864  24.257   6.365  1.00  0.00     0.296 HD
ENDBRANCH  41  43
ENDBRANCH   1  41
BRANCH   3  45
ATOM     45  O   UNL     1      26.131  21.091   8.317  1.00  0.00    -0.391 OA
ATOM     46  H   UNL     1      26.803  21.167   7.603  1.00  0.00     0.211 HD
ENDBRANCH   3  45
BRANCH   5  47
ATOM     47  C   UNL     1      24.399  23.210  12.428  1.00  0.00     0.176 C 
BRANCH  47  48
ATOM     48  O   UNL     1      25.435  23.676  13.177  1.00  0.00    -0.388 OA
ATOM     49  H   UNL     1      25.938  24.350  12.663  1.00  0.00     0.211 HD
ENDBRANCH  47  48
BRANCH  47  50
ATOM     50  C   UNL     1      23.028  23.570  12.692  1.00  0.00     0.165 C 
BRANCH  50  51
ATOM     51  O   UNL     1      22.695  24.941  12.511  1.00  0.00    -0.388 OA
ATOM     52  H   UNL     1      22.683  25.081  11.543  1.00  0.00     0.211 HD
ENDBRANCH  50  51
BRANCH  50  53
ATOM     53  C   UNL     1      22.271  23.165  13.887  1.00  0.00     0.154 C 
BRANCH  53  54
ATOM     54  N   UNL     1      22.921  23.091  15.117  1.00  0.00    -0.319 N 
ATOM     55  C   UNL     1      23.280  24.165  15.945  1.00  0.00     0.407 C 
ATOM     56  H   UNL     1      23.185  22.114  15.486  1.00  0.00     0.167 HD
ATOM     57  O   UNL     1      23.018  25.342  15.649  1.00  0.00    -0.225 OA
BRANCH  55  58
ATOM     58  O   UNL     1      23.961  23.903  17.156  1.00  0.00    -0.443 OA
BRANCH  58  59
ATOM     59  C   UNL     1      24.246  25.002  17.986  1.00  0.00     0.294 C 
BRANCH  59  60
ATOM     60  C   UNL     1      23.693  24.764  19.340  1.00  0.00     0.121 A 
ATOM     61  C   UNL     1      24.278  24.944  20.579  1.00  0.00     0.144 A 
ATOM     62  N   UNL     1      22.443  24.322  19.577  1.00  0.00    -0.131 NA
ATOM     63  N   UNL     1      23.371  24.608  21.505  1.00  0.00    -0.220 N 
ATOM     64  N   UNL     1      22.259  24.231  20.867  1.00  0.00    -0.062 NA
BRANCH  63  65
ATOM     65  C   UNL     1      23.425  24.607  22.923  1.00  0.00     0.067 A 
ATOM     66  C   UNL     1      24.582  24.513  23.649  1.00  0.00     0.032 A 
ATOM     67  C   UNL     1      22.231  24.696  23.638  1.00  0.00     0.032 A 
ATOM     68  C   UNL     1      24.561  24.506  25.036  1.00  0.00     0.048 A 
ATOM     69  C   UNL     1      22.211  24.689  25.019  1.00  0.00     0.048 A 
ATOM     70  C   UNL     1      23.378  24.594  25.747  1.00  0.00     0.119 A 
BRANCH  70  71
ATOM     71  O   UNL     1      23.372  24.585  27.155  1.00  0.00    -0.497 OA
ATOM     72  C   UNL     1      22.384  25.397  27.805  1.00  0.00     0.278 C 
ENDBRANCH  70  71
ENDBRANCH  63  65
ENDBRANCH  59  60
ENDBRANCH  58  59
ENDBRANCH  55  58
ENDBRANCH  53  54
ENDBRANCH  50  53
ENDBRANCH  47  50
ENDBRANCH   5  47
BRANCH   4  73
ATOM     73  N   UNL     1      26.393  21.375  11.176  1.00  0.00    -0.348 N 
ATOM     74  C   UNL     1      27.594  22.082  11.443  1.00  0.00     0.217 C 
ATOM     75  H   UNL     1      26.272  20.421  11.559  1.00  0.00     0.163 HD
ATOM     76  C   UNL     1      28.681  21.440  12.227  1.00  0.00     0.114 C 
ATOM     77  O   UNL     1      27.795  23.258  11.041  1.00  0.00    -0.275 OA
ENDBRANCH   4  73
TORSDOF 31
