REMARK VINA RESULT:    -6.006     15.022     21.283
REMARK INTER + INTRA:         -23.649
REMARK INTER:                 -16.715
REMARK INTRA:                  -6.934
REMARK UNBOUND:                -6.934
REMARK SMILES CCOCCc1c(-c2ccccc2)nc(N)nc1-n1cc(COC(=O)NC[C@@H](O)C(O)[C@@H]2O[C@@](OC[C@H]3O[C@@H](O[C@H]4[C@H](O)[C@@H](O)[C@H](OCCN=[N+]=[N-])O[C@@H]4CO)[C@H](O)[C@@H](O)[C@H]3O)(C(=O)O)C[C@H](O)[C@H]2NC(C)=O)nn1
REMARK SMILES IDX 30 1 32 2 34 3 66 4 33 5 67 6 69 7 35 8 36 9 37 10 39 11
REMARK SMILES IDX 38 12 57 13 59 14 61 15 40 16 41 17 54 18 53 19 46 20 42 21
REMARK SMILES IDX 44 22 55 23 56 24 47 26 48 27 49 28 50 29 51 30 52 31 43 32
REMARK SMILES IDX 45 34 58 36 60 38 62 40 63 42 64 43 65 44 68 46 70 48 71 49
REMARK SMILES IDX 72 51 73 52 31 53 28 55 29 56 27 58 26 59 24 60 25 62 23 63
REMARK SMILES IDX 22 64 21 65 20 66 74 67 19 68 75 69 18 70 17 71 6 72 15 73
REMARK SMILES IDX 7 74 14 75 5 76 4 77 3 78 2 79 1 80 16 81 8 84 9 85 13 86
REMARK SMILES IDX 10 87 12 88 11 89
REMARK H PARENT 56 25 43 33 45 35 58 37 60 39 62 41 65 45 68 47 70 50 31 54
REMARK H PARENT 29 57 26 61 16 82 16 83
REMARK Flexibility Score: inf
ROOT
ATOM      1  C   UNL     1      21.052  29.335  22.096  1.00  0.00     0.176 C 
ENDROOT
BRANCH   1   2
ATOM      2  C   UNL     1      22.068  28.233  22.051  1.00  0.00     0.178 C 
ATOM      3  C   UNL     1      22.386  26.190  23.147  1.00  0.00     0.272 C 
ATOM      4  C   UNL     1      23.593  26.139  22.207  1.00  0.00     0.113 C 
ATOM      5  O   UNL     1      21.521  27.178  22.842  1.00  0.00    -0.332 OA
ATOM      6  C   UNL     1      24.359  27.427  22.188  1.00  0.00     0.145 C 
ATOM      7  C   UNL     1      23.411  28.531  22.622  1.00  0.00     0.142 C 
BRANCH   3   8
ATOM      8  O   UNL     1      22.879  26.218  24.433  1.00  0.00    -0.338 OA
BRANCH   8   9
ATOM      9  C   UNL     1      22.229  25.428  25.343  1.00  0.00     0.199 C 
BRANCH   9  10
ATOM     10  C   UNL     1      21.900  26.175  26.627  1.00  0.00     0.179 C 
ATOM     11  C   UNL     1      23.047  27.739  27.925  1.00  0.00     0.282 C 
ATOM     12  O   UNL     1      23.073  26.589  27.188  1.00  0.00    -0.341 OA
ATOM     13  C   UNL     1      22.543  28.841  26.985  1.00  0.00     0.202 C 
ATOM     14  C   UNL     1      21.049  28.554  26.846  1.00  0.00     0.179 C 
ATOM     15  C   UNL     1      20.775  27.124  26.537  1.00  0.00     0.177 C 
BRANCH  11  16
ATOM     16  O   UNL     1      24.298  28.009  28.429  1.00  0.00    -0.341 OA
BRANCH  16  17
ATOM     17  C   UNL     1      24.955  26.866  28.853  1.00  0.00     0.184 C 
ATOM     18  C   UNL     1      24.711  26.601  30.299  1.00  0.00     0.178 C 
ATOM     19  O   UNL     1      25.767  26.764  31.139  1.00  0.00    -0.341 OA
ATOM     20  C   UNL     1      26.983  26.280  30.771  1.00  0.00     0.281 C 
ATOM     21  C   UNL     1      26.406  26.893  28.477  1.00  0.00     0.180 C 
ATOM     22  C   UNL     1      27.163  25.914  29.336  1.00  0.00     0.202 C 
BRANCH  18  23
ATOM     23  C   UNL     1      23.993  25.269  30.517  1.00  0.00     0.191 C 
BRANCH  23  24
ATOM     24  O   UNL     1      23.804  24.596  29.323  1.00  0.00    -0.394 OA
ATOM     25  H   UNL     1      24.257  23.718  29.404  1.00  0.00     0.210 HD
ENDBRANCH  23  24
ENDBRANCH  18  23
BRANCH  20  26
ATOM     26  O   UNL     1      27.252  25.167  31.561  1.00  0.00    -0.350 OA
BRANCH  26  27
ATOM     27  C   UNL     1      27.848  25.458  32.763  1.00  0.00     0.169 C 
BRANCH  27  28
ATOM     28  C   UNL     1      29.030  26.392  32.657  1.00  0.00     0.119 C 
BRANCH  28  29
ATOM     29  N   UNL     1      30.032  25.785  31.783  1.00  0.00    -0.092 NA
ATOM     30  N   UNL     1      31.102  26.354  31.534  1.00  0.00     0.001 N 
ATOM     31  N   UNL     1      32.051  27.094  31.282  1.00  0.00    -0.003 NA
ENDBRANCH  28  29
ENDBRANCH  27  28
ENDBRANCH  26  27
ENDBRANCH  20  26
BRANCH  21  32
ATOM     32  O   UNL     1      26.618  26.547  27.140  1.00  0.00    -0.387 OA
ATOM     33  H   UNL     1      27.259  27.166  26.697  1.00  0.00     0.211 HD
ENDBRANCH  21  32
BRANCH  22  34
ATOM     34  O   UNL     1      28.515  26.033  29.016  1.00  0.00    -0.385 OA
ATOM     35  H   UNL     1      28.696  25.832  28.064  1.00  0.00     0.211 HD
ENDBRANCH  22  34
ENDBRANCH  16  17
ENDBRANCH  11  16
BRANCH  13  36
ATOM     36  O   UNL     1      22.732  30.102  27.496  1.00  0.00    -0.385 OA
ATOM     37  H   UNL     1      22.190  30.783  27.010  1.00  0.00     0.211 HD
ENDBRANCH  13  36
BRANCH  14  38
ATOM     38  O   UNL     1      20.394  29.462  26.046  1.00  0.00    -0.387 OA
ATOM     39  H   UNL     1      20.861  29.587  25.165  1.00  0.00     0.211 HD
ENDBRANCH  14  38
BRANCH  15  40
ATOM     40  O   UNL     1      20.240  27.070  25.231  1.00  0.00    -0.387 OA
ATOM     41  H   UNL     1      19.251  27.092  25.286  1.00  0.00     0.211 HD
ENDBRANCH  15  40
ENDBRANCH   9  10
ENDBRANCH   8   9
ENDBRANCH   3   8
BRANCH   3  42
ATOM     42  C   UNL     1      21.712  24.874  22.909  1.00  0.00     0.364 C 
ATOM     43  O   UNL     1      22.430  24.008  22.294  1.00  0.00    -0.246 OA
BRANCH  42  44
ATOM     44  O   UNL     1      20.442  24.551  23.290  1.00  0.00    -0.477 OA
ATOM     45  H   UNL     1      20.072  24.919  24.162  1.00  0.00     0.296 HD
ENDBRANCH  42  44
ENDBRANCH   3  42
BRANCH   6  46
ATOM     46  O   UNL     1      25.428  27.281  23.085  1.00  0.00    -0.391 OA
ATOM     47  H   UNL     1      26.273  27.121  22.621  1.00  0.00     0.211 HD
ENDBRANCH   6  46
BRANCH   7  48
ATOM     48  N   UNL     1      23.956  29.826  22.359  1.00  0.00    -0.348 N 
ATOM     49  C   UNL     1      24.353  30.270  21.070  1.00  0.00     0.217 C 
ATOM     50  H   UNL     1      24.044  30.473  23.172  1.00  0.00     0.163 HD
ATOM     51  C   UNL     1      24.902  31.631  20.913  1.00  0.00     0.114 C 
ATOM     52  O   UNL     1      24.232  29.511  20.084  1.00  0.00    -0.275 OA
ENDBRANCH   7  48
ENDBRANCH   1   2
BRANCH   1  53
ATOM     53  O   UNL     1      20.230  29.039  23.237  1.00  0.00    -0.388 OA
ATOM     54  H   UNL     1      19.744  29.868  23.430  1.00  0.00     0.211 HD
ENDBRANCH   1  53
BRANCH   1  55
ATOM     55  C   UNL     1      20.138  29.508  20.951  1.00  0.00     0.165 C 
BRANCH  55  56
ATOM     56  O   UNL     1      19.542  28.228  20.757  1.00  0.00    -0.388 OA
ATOM     57  H   UNL     1      18.631  28.365  20.427  1.00  0.00     0.211 HD
ENDBRANCH  55  56
BRANCH  55  58
ATOM     58  C   UNL     1      20.708  29.953  19.671  1.00  0.00     0.154 C 
BRANCH  58  59
ATOM     59  N   UNL     1      19.808  30.068  18.590  1.00  0.00    -0.319 N 
ATOM     60  C   UNL     1      19.518  29.069  17.642  1.00  0.00     0.407 C 
ATOM     61  H   UNL     1      19.255  30.988  18.414  1.00  0.00     0.167 HD
ATOM     62  O   UNL     1      20.057  27.941  17.670  1.00  0.00    -0.225 OA
BRANCH  60  63
ATOM     63  O   UNL     1      18.604  29.267  16.602  1.00  0.00    -0.443 OA
BRANCH  63  64
ATOM     64  C   UNL     1      17.251  28.877  16.708  1.00  0.00     0.294 C 
BRANCH  64  65
ATOM     65  C   UNL     1      16.899  28.499  18.098  1.00  0.00     0.121 A 
ATOM     66  C   UNL     1      16.599  29.344  19.134  1.00  0.00     0.146 A 
ATOM     67  N   UNL     1      16.827  27.255  18.624  1.00  0.00    -0.131 NA
ATOM     68  N   UNL     1      16.351  28.598  20.276  1.00  0.00    -0.202 N 
ATOM     69  N   UNL     1      16.504  27.364  19.899  1.00  0.00    -0.060 NA
BRANCH  68  70
ATOM     70  C   UNL     1      16.042  29.267  21.472  1.00  0.00     0.164 A 
ATOM     71  N   UNL     1      17.055  29.585  22.317  1.00  0.00    -0.193 NA
ATOM     72  C   UNL     1      14.758  29.706  21.825  1.00  0.00     0.026 A 
ATOM     73  C   UNL     1      16.886  30.283  23.441  1.00  0.00     0.222 A 
ATOM     74  C   UNL     1      14.563  30.424  22.966  1.00  0.00     0.081 A 
ATOM     75  N   UNL     1      15.656  30.694  23.755  1.00  0.00    -0.213 NA
BRANCH  72  76
ATOM     76  C   UNL     1      13.667  29.243  20.960  1.00  0.00     0.070 C 
BRANCH  76  77
ATOM     77  C   UNL     1      13.183  30.274  19.962  1.00  0.00     0.165 C 
BRANCH  77  78
ATOM     78  O   UNL     1      13.979  31.359  19.757  1.00  0.00    -0.381 OA
BRANCH  78  79
ATOM     79  C   UNL     1      13.404  32.594  19.785  1.00  0.00     0.156 C 
ATOM     80  C   UNL     1      14.360  33.641  20.381  1.00  0.00     0.035 C 
ENDBRANCH  78  79
ENDBRANCH  77  78
ENDBRANCH  76  77
ENDBRANCH  72  76
BRANCH  73  81
ATOM     81  N   UNL     1      17.988  30.590  24.302  1.00  0.00    -0.368 N 
ATOM     82  H   UNL     1      18.408  31.542  24.296  1.00  0.00     0.159 HD
ATOM     83  H   UNL     1      18.402  29.900  24.950  1.00  0.00     0.159 HD
ENDBRANCH  73  81
BRANCH  74  84
ATOM     84  C   UNL     1      13.276  30.934  23.387  1.00  0.00     0.001 A 
ATOM     85  C   UNL     1      12.306  30.014  23.778  1.00  0.00     0.010 A 
ATOM     86  C   UNL     1      12.992  32.286  23.439  1.00  0.00     0.010 A 
ATOM     87  C   UNL     1      11.057  30.427  24.221  1.00  0.00     0.001 A 
ATOM     88  C   UNL     1      11.749  32.674  23.879  1.00  0.00     0.001 A 
ATOM     89  C   UNL     1      10.788  31.774  24.268  1.00  0.00     0.000 A 
ENDBRANCH  74  84
ENDBRANCH  68  70
ENDBRANCH  64  65
ENDBRANCH  63  64
ENDBRANCH  60  63
ENDBRANCH  58  59
ENDBRANCH  55  58
ENDBRANCH   1  55
TORSDOF 36
