REMARK VINA RESULT:    -5.863      5.625     10.496
REMARK INTER + INTRA:         -22.220
REMARK INTER:                 -15.660
REMARK INTRA:                  -6.560
REMARK UNBOUND:                -6.761
REMARK SMILES CC(=O)N[C@@H]1[C@@H](O)C[C@](OC[C@H]2O[C@@H](O[C@H]3[C@H](O)[C@@H](O)[C@H](OCCN=[N+]=[N-])O[C@@H]3CO)[C@H](O)[C@@H](O)[C@H]2O)(C(=O)O)O[C@H]1C(O)[C@H](O)CNC(=O)OCc1cn(CCNS(C)(=O)=O)nn1
REMARK SMILES IDX 43 1 42 2 9 3 8 4 41 5 6 6 5 7 10 8 11 9 12 10 14 11 13 12
REMARK SMILES IDX 32 13 34 14 36 15 15 16 16 17 29 18 28 19 21 20 17 21 19 22
REMARK SMILES IDX 30 23 31 24 22 26 23 27 24 28 25 29 26 30 27 31 18 32 20 34
REMARK SMILES IDX 33 36 35 38 37 40 38 42 39 43 40 44 7 46 4 48 2 49 1 51 3 52
REMARK SMILES IDX 44 53 45 55 46 56 47 58 48 59 49 60 50 62 51 63 52 64 53 65
REMARK SMILES IDX 54 66 64 67 55 68 63 69 56 70 57 71 58 72 59 74 61 75 62 76
REMARK SMILES IDX 60 77
REMARK H PARENT 31 25 18 33 20 35 33 37 35 39 37 41 40 45 7 47 4 50 44 54
REMARK H PARENT 46 57 48 61 58 73
REMARK Flexibility Score: inf
ROOT
ATOM      1  C   UNL     1      23.076  27.908  23.112  1.00  0.00     0.176 C 
ENDROOT
BRANCH   1   2
ATOM      2  C   UNL     1      23.377  26.404  22.981  1.00  0.00     0.178 C 
ATOM      3  C   UNL     1      23.809  24.887  21.250  1.00  0.00     0.272 C 
ATOM      4  C   UNL     1      22.610  24.063  21.497  1.00  0.00     0.113 C 
ATOM      5  O   UNL     1      23.639  26.201  21.669  1.00  0.00    -0.332 OA
ATOM      6  C   UNL     1      21.697  24.556  22.586  1.00  0.00     0.145 C 
ATOM      7  C   UNL     1      22.237  25.611  23.489  1.00  0.00     0.142 C 
BRANCH   3   8
ATOM      8  O   UNL     1      24.209  25.006  19.915  1.00  0.00    -0.338 OA
BRANCH   8   9
ATOM      9  C   UNL     1      23.245  24.559  19.027  1.00  0.00     0.199 C 
BRANCH   9  10
ATOM     10  C   UNL     1      23.245  25.399  17.798  1.00  0.00     0.179 C 
ATOM     11  C   UNL     1      22.762  25.488  15.544  1.00  0.00     0.282 C 
ATOM     12  O   UNL     1      22.564  24.799  16.753  1.00  0.00    -0.341 OA
ATOM     13  C   UNL     1      22.216  26.872  15.603  1.00  0.00     0.202 C 
ATOM     14  C   UNL     1      22.981  27.611  16.680  1.00  0.00     0.179 C 
ATOM     15  C   UNL     1      22.930  26.848  17.961  1.00  0.00     0.177 C 
BRANCH  11  16
ATOM     16  O   UNL     1      22.178  24.743  14.564  1.00  0.00    -0.341 OA
BRANCH  16  17
ATOM     17  C   UNL     1      23.009  24.060  13.745  1.00  0.00     0.184 C 
ATOM     18  C   UNL     1      22.844  24.127  12.279  1.00  0.00     0.178 C 
ATOM     19  O   UNL     1      23.381  22.965  11.722  1.00  0.00    -0.341 OA
ATOM     20  C   UNL     1      22.575  21.879  11.904  1.00  0.00     0.281 C 
ATOM     21  C   UNL     1      23.096  22.564  14.155  1.00  0.00     0.180 C 
ATOM     22  C   UNL     1      22.026  21.898  13.316  1.00  0.00     0.202 C 
BRANCH  18  23
ATOM     23  C   UNL     1      23.691  25.252  11.696  1.00  0.00     0.191 C 
BRANCH  23  24
ATOM     24  O   UNL     1      23.103  26.500  12.009  1.00  0.00    -0.394 OA
ATOM     25  H   UNL     1      23.021  26.629  12.979  1.00  0.00     0.210 HD
ENDBRANCH  23  24
ENDBRANCH  18  23
BRANCH  20  26
ATOM     26  O   UNL     1      23.254  20.681  11.641  1.00  0.00    -0.350 OA
BRANCH  26  27
ATOM     27  C   UNL     1      22.601  19.552  12.065  1.00  0.00     0.169 C 
BRANCH  27  28
ATOM     28  C   UNL     1      21.952  18.907  10.882  1.00  0.00     0.119 C 
BRANCH  28  29
ATOM     29  N   UNL     1      20.549  18.594  11.127  1.00  0.00    -0.092 NA
ATOM     30  N   UNL     1      19.853  19.561  11.483  1.00  0.00     0.001 N 
ATOM     31  N   UNL     1      18.951  20.279  11.899  1.00  0.00    -0.003 NA
ENDBRANCH  28  29
ENDBRANCH  27  28
ENDBRANCH  26  27
ENDBRANCH  20  26
BRANCH  21  32
ATOM     32  O   UNL     1      24.331  22.040  13.762  1.00  0.00    -0.387 OA
ATOM     33  H   UNL     1      24.262  21.725  12.822  1.00  0.00     0.211 HD
ENDBRANCH  21  32
BRANCH  22  34
ATOM     34  O   UNL     1      20.791  22.499  13.400  1.00  0.00    -0.385 OA
ATOM     35  H   UNL     1      20.250  22.433  12.572  1.00  0.00     0.211 HD
ENDBRANCH  22  34
ENDBRANCH  16  17
ENDBRANCH  11  16
BRANCH  13  36
ATOM     36  O   UNL     1      22.485  27.571  14.417  1.00  0.00    -0.385 OA
ATOM     37  H   UNL     1      23.368  28.020  14.444  1.00  0.00     0.211 HD
ENDBRANCH  13  36
BRANCH  14  38
ATOM     38  O   UNL     1      22.607  28.928  16.777  1.00  0.00    -0.387 OA
ATOM     39  H   UNL     1      21.850  29.157  16.150  1.00  0.00     0.211 HD
ENDBRANCH  14  38
BRANCH  15  40
ATOM     40  O   UNL     1      21.652  26.964  18.497  1.00  0.00    -0.387 OA
ATOM     41  H   UNL     1      21.347  26.139  18.955  1.00  0.00     0.211 HD
ENDBRANCH  15  40
ENDBRANCH   9  10
ENDBRANCH   8   9
ENDBRANCH   3   8
BRANCH   3  42
ATOM     42  C   UNL     1      24.997  24.323  21.935  1.00  0.00     0.364 C 
ATOM     43  O   UNL     1      26.184  24.570  21.539  1.00  0.00    -0.246 OA
BRANCH  42  44
ATOM     44  O   UNL     1      24.937  23.496  23.039  1.00  0.00    -0.477 OA
ATOM     45  H   UNL     1      24.082  23.319  23.560  1.00  0.00     0.296 HD
ENDBRANCH  42  44
ENDBRANCH   3  42
BRANCH   6  46
ATOM     46  O   UNL     1      20.476  24.964  22.069  1.00  0.00    -0.391 OA
ATOM     47  H   UNL     1      19.811  24.258  21.944  1.00  0.00     0.211 HD
ENDBRANCH   6  46
BRANCH   7  48
ATOM     48  N   UNL     1      22.610  24.966  24.758  1.00  0.00    -0.348 N 
ATOM     49  C   UNL     1      22.331  25.445  26.041  1.00  0.00     0.217 C 
ATOM     50  H   UNL     1      23.121  24.015  24.717  1.00  0.00     0.163 HD
ATOM     51  C   UNL     1      22.779  24.699  27.270  1.00  0.00     0.114 C 
ATOM     52  O   UNL     1      21.697  26.519  26.228  1.00  0.00    -0.275 OA
ENDBRANCH   7  48
ENDBRANCH   1   2
BRANCH   1  53
ATOM     53  O   UNL     1      23.882  28.604  22.193  1.00  0.00    -0.388 OA
ATOM     54  H   UNL     1      23.591  29.534  22.205  1.00  0.00     0.211 HD
ENDBRANCH   1  53
BRANCH   1  55
ATOM     55  C   UNL     1      21.654  28.178  22.785  1.00  0.00     0.165 C 
BRANCH  55  56
ATOM     56  O   UNL     1      21.302  28.048  21.464  1.00  0.00    -0.388 OA
ATOM     57  H   UNL     1      21.632  28.789  20.891  1.00  0.00     0.211 HD
ENDBRANCH  55  56
BRANCH  55  58
ATOM     58  C   UNL     1      21.075  29.421  23.386  1.00  0.00     0.154 C 
BRANCH  58  59
ATOM     59  N   UNL     1      20.195  30.107  22.477  1.00  0.00    -0.319 N 
ATOM     60  C   UNL     1      18.800  30.211  22.846  1.00  0.00     0.407 C 
ATOM     61  H   UNL     1      20.492  30.527  21.582  1.00  0.00     0.167 HD
ATOM     62  O   UNL     1      18.471  29.711  23.952  1.00  0.00    -0.225 OA
BRANCH  60  63
ATOM     63  O   UNL     1      17.897  30.826  22.018  1.00  0.00    -0.443 OA
BRANCH  63  64
ATOM     64  C   UNL     1      17.045  30.060  21.200  1.00  0.00     0.294 C 
BRANCH  64  65
ATOM     65  C   UNL     1      17.805  29.378  20.137  1.00  0.00     0.120 A 
ATOM     66  C   UNL     1      17.892  29.736  18.802  1.00  0.00     0.138 A 
ATOM     67  N   UNL     1      18.580  28.310  20.265  1.00  0.00    -0.132 NA
ATOM     68  N   UNL     1      18.705  28.892  18.165  1.00  0.00    -0.251 N 
ATOM     69  N   UNL     1      19.124  28.014  19.077  1.00  0.00    -0.067 NA
BRANCH  68  70
ATOM     70  C   UNL     1      19.053  28.921  16.754  1.00  0.00     0.162 C 
BRANCH  70  71
ATOM     71  C   UNL     1      18.008  29.726  15.982  1.00  0.00     0.122 C 
BRANCH  71  72
ATOM     72  N   UNL     1      17.432  28.938  14.931  1.00  0.00    -0.214 NA
ATOM     73  H   UNL     1      16.383  28.925  15.049  1.00  0.00     0.141 HD
BRANCH  72  74
ATOM     74  S   UNL     1      17.750  29.573  13.365  1.00  0.00     0.208 S 
ATOM     75  O   UNL     1      17.846  28.440  12.356  1.00  0.00    -0.213 OA
ATOM     76  O   UNL     1      16.553  30.433  13.005  1.00  0.00    -0.213 OA
ATOM     77  C   UNL     1      19.223  30.547  13.359  1.00  0.00     0.176 C 
ENDBRANCH  72  74
ENDBRANCH  71  72
ENDBRANCH  70  71
ENDBRANCH  68  70
ENDBRANCH  64  65
ENDBRANCH  63  64
ENDBRANCH  60  63
ENDBRANCH  58  59
ENDBRANCH  55  58
ENDBRANCH   1  55
TORSDOF 33
