REMARK VINA RESULT:    -6.168      2.870      8.617
REMARK INTER + INTRA:         -24.098
REMARK INTER:                 -16.459
REMARK INTRA:                  -7.639
REMARK UNBOUND:                -6.934
REMARK SMILES CCOCCc1c(-c2ccccc2)nc(N)nc1-n1cc(COC(=O)NC[C@@H](O)C(O)[C@@H]2O[C@@](OC[C@H]3O[C@@H](O[C@H]4[C@H](O)[C@@H](O)[C@H](OCCN=[N+]=[N-])O[C@@H]4CO)[C@H](O)[C@@H](O)[C@H]3O)(C(=O)O)C[C@H](O)[C@H]2NC(C)=O)nn1
REMARK SMILES IDX 30 1 32 2 34 3 66 4 33 5 67 6 69 7 35 8 36 9 37 10 39 11
REMARK SMILES IDX 38 12 57 13 59 14 61 15 40 16 41 17 54 18 53 19 46 20 42 21
REMARK SMILES IDX 44 22 55 23 56 24 47 26 48 27 49 28 50 29 51 30 52 31 43 32
REMARK SMILES IDX 45 34 58 36 60 38 62 40 63 42 64 43 65 44 68 46 70 48 71 49
REMARK SMILES IDX 72 51 73 52 31 53 28 55 29 56 27 58 26 59 24 60 25 62 23 63
REMARK SMILES IDX 22 64 21 65 20 66 74 67 19 68 75 69 18 70 17 71 6 72 15 73
REMARK SMILES IDX 7 74 14 75 5 76 4 77 3 78 2 79 1 80 16 81 8 84 9 85 13 86
REMARK SMILES IDX 10 87 12 88 11 89
REMARK H PARENT 56 25 43 33 45 35 58 37 60 39 62 41 65 45 68 47 70 50 31 54
REMARK H PARENT 29 57 26 61 16 82 16 83
REMARK Flexibility Score: inf
ROOT
ATOM      1  C   UNL     1       8.017  26.129  35.296  1.00  0.00     0.176 C 
ENDROOT
BRANCH   1   2
ATOM      2  C   UNL     1       7.470  25.133  34.318  1.00  0.00     0.178 C 
ATOM      3  C   UNL     1       5.390  24.140  33.911  1.00  0.00     0.272 C 
ATOM      4  C   UNL     1       6.184  23.490  32.775  1.00  0.00     0.113 C 
ATOM      5  O   UNL     1       6.055  25.148  34.509  1.00  0.00    -0.332 OA
ATOM      6  C   UNL     1       7.506  22.956  33.233  1.00  0.00     0.145 C 
ATOM      7  C   UNL     1       7.899  23.716  34.487  1.00  0.00     0.142 C 
BRANCH   3   8
ATOM      8  O   UNL     1       4.984  23.126  34.749  1.00  0.00    -0.338 OA
BRANCH   8   9
ATOM      9  C   UNL     1       4.333  23.513  35.890  1.00  0.00     0.199 C 
BRANCH   9  10
ATOM     10  C   UNL     1       3.126  22.637  36.192  1.00  0.00     0.179 C 
ATOM     11  C   UNL     1       2.147  20.809  35.123  1.00  0.00     0.282 C 
ATOM     12  O   UNL     1       2.735  22.038  35.030  1.00  0.00    -0.341 OA
ATOM     13  C   UNL     1       3.165  19.897  35.821  1.00  0.00     0.202 C 
ATOM     14  C   UNL     1       3.123  20.346  37.280  1.00  0.00     0.179 C 
ATOM     15  C   UNL     1       3.225  21.825  37.419  1.00  0.00     0.177 C 
BRANCH  11  16
ATOM     16  O   UNL     1       1.803  20.351  33.872  1.00  0.00    -0.341 OA
BRANCH  16  17
ATOM     17  C   UNL     1       2.329  21.136  32.859  1.00  0.00     0.184 C 
ATOM     18  C   UNL     1       1.285  21.513  31.864  1.00  0.00     0.178 C 
ATOM     19  O   UNL     1       1.385  20.953  30.629  1.00  0.00    -0.341 OA
ATOM     20  C   UNL     1       2.603  20.889  30.031  1.00  0.00     0.281 C 
ATOM     21  C   UNL     1       3.548  20.509  32.252  1.00  0.00     0.180 C 
ATOM     22  C   UNL     1       3.799  21.113  30.896  1.00  0.00     0.202 C 
BRANCH  18  23
ATOM     23  C   UNL     1       1.082  23.027  31.803  1.00  0.00     0.191 C 
BRANCH  23  24
ATOM     24  O   UNL     1       1.180  23.601  33.058  1.00  0.00    -0.394 OA
ATOM     25  H   UNL     1       1.306  24.575  32.928  1.00  0.00     0.210 HD
ENDBRANCH  23  24
ENDBRANCH  18  23
BRANCH  20  26
ATOM     26  O   UNL     1       2.615  21.813  28.992  1.00  0.00    -0.350 OA
BRANCH  26  27
ATOM     27  C   UNL     1       1.542  21.719  28.139  1.00  0.00     0.169 C 
BRANCH  27  28
ATOM     28  C   UNL     1       1.877  21.993  26.693  1.00  0.00     0.119 C 
BRANCH  28  29
ATOM     29  N   UNL     1       1.762  23.430  26.449  1.00  0.00    -0.092 NA
ATOM     30  N   UNL     1       2.589  24.231  26.902  1.00  0.00     0.001 N 
ATOM     31  N   UNL     1       3.410  24.905  27.521  1.00  0.00    -0.003 NA
ENDBRANCH  28  29
ENDBRANCH  27  28
ENDBRANCH  26  27
ENDBRANCH  20  26
BRANCH  21  32
ATOM     32  O   UNL     1       4.692  20.705  33.030  1.00  0.00    -0.387 OA
ATOM     33  H   UNL     1       5.510  20.370  32.573  1.00  0.00     0.211 HD
ENDBRANCH  21  32
BRANCH  22  34
ATOM     34  O   UNL     1       4.884  20.445  30.331  1.00  0.00    -0.385 OA
ATOM     35  H   UNL     1       4.619  19.594  29.900  1.00  0.00     0.211 HD
ENDBRANCH  22  34
ENDBRANCH  16  17
ENDBRANCH  11  16
BRANCH  13  36
ATOM     36  O   UNL     1       2.835  18.566  35.731  1.00  0.00    -0.385 OA
ATOM     37  H   UNL     1       1.994  18.360  36.223  1.00  0.00     0.211 HD
ENDBRANCH  13  36
BRANCH  14  38
ATOM     38  O   UNL     1       3.963  19.622  38.094  1.00  0.00    -0.387 OA
ATOM     39  H   UNL     1       4.246  18.758  37.665  1.00  0.00     0.211 HD
ENDBRANCH  14  38
BRANCH  15  40
ATOM     40  O   UNL     1       4.457  22.105  38.050  1.00  0.00    -0.387 OA
ATOM     41  H   UNL     1       4.287  22.354  38.994  1.00  0.00     0.211 HD
ENDBRANCH  15  40
ENDBRANCH   9  10
ENDBRANCH   8   9
ENDBRANCH   3   8
BRANCH   3  42
ATOM     42  C   UNL     1       4.193  24.706  33.212  1.00  0.00     0.364 C 
ATOM     43  O   UNL     1       4.062  24.337  31.991  1.00  0.00    -0.246 OA
BRANCH  42  44
ATOM     44  O   UNL     1       3.272  25.549  33.765  1.00  0.00    -0.477 OA
ATOM     45  H   UNL     1       2.493  25.162  34.291  1.00  0.00     0.296 HD
ENDBRANCH  42  44
ENDBRANCH   3  42
BRANCH   6  46
ATOM     46  O   UNL     1       7.329  21.589  33.491  1.00  0.00    -0.391 OA
ATOM     47  H   UNL     1       7.161  21.082  32.672  1.00  0.00     0.211 HD
ENDBRANCH   6  46
BRANCH   7  48
ATOM     48  N   UNL     1       9.268  23.489  34.833  1.00  0.00    -0.348 N 
ATOM     49  C   UNL     1       9.723  23.280  36.161  1.00  0.00     0.217 C 
ATOM     50  H   UNL     1       9.952  23.463  34.046  1.00  0.00     0.163 HD
ATOM     51  C   UNL     1      11.162  23.052  36.402  1.00  0.00     0.114 C 
ATOM     52  O   UNL     1       8.909  23.288  37.108  1.00  0.00    -0.275 OA
ENDBRANCH   7  48
ENDBRANCH   1   2
BRANCH   1  53
ATOM     53  O   UNL     1       7.422  25.781  36.557  1.00  0.00    -0.388 OA
ATOM     54  H   UNL     1       6.464  25.685  36.375  1.00  0.00     0.211 HD
ENDBRANCH   1  53
BRANCH   1  55
ATOM     55  C   UNL     1       7.743  27.562  35.081  1.00  0.00     0.165 C 
BRANCH  55  56
ATOM     56  O   UNL     1       6.471  27.790  35.683  1.00  0.00    -0.388 OA
ATOM     57  H   UNL     1       5.908  27.011  35.503  1.00  0.00     0.211 HD
ENDBRANCH  55  56
BRANCH  55  58
ATOM     58  C   UNL     1       7.696  28.059  33.697  1.00  0.00     0.154 C 
BRANCH  58  59
ATOM     59  N   UNL     1       6.424  28.098  33.088  1.00  0.00    -0.319 N 
ATOM     60  C   UNL     1       5.793  29.238  32.556  1.00  0.00     0.407 C 
ATOM     61  H   UNL     1       5.820  27.199  32.989  1.00  0.00     0.167 HD
ATOM     62  O   UNL     1       6.325  30.370  32.578  1.00  0.00    -0.225 OA
BRANCH  60  63
ATOM     63  O   UNL     1       4.528  29.184  31.961  1.00  0.00    -0.443 OA
BRANCH  63  64
ATOM     64  C   UNL     1       4.037  28.011  31.350  1.00  0.00     0.294 C 
BRANCH  64  65
ATOM     65  C   UNL     1       4.025  28.128  29.872  1.00  0.00     0.121 A 
ATOM     66  C   UNL     1       5.090  27.979  29.022  1.00  0.00     0.146 A 
ATOM     67  N   UNL     1       2.975  28.427  29.074  1.00  0.00    -0.131 NA
ATOM     68  N   UNL     1       4.667  28.193  27.719  1.00  0.00    -0.202 N 
ATOM     69  N   UNL     1       3.399  28.453  27.824  1.00  0.00    -0.060 NA
BRANCH  68  70
ATOM     70  C   UNL     1       5.607  28.111  26.677  1.00  0.00     0.164 A 
ATOM     71  N   UNL     1       6.015  26.885  26.266  1.00  0.00    -0.193 NA
ATOM     72  C   UNL     1       6.102  29.216  25.969  1.00  0.00     0.026 A 
ATOM     73  C   UNL     1       6.845  26.688  25.240  1.00  0.00     0.222 A 
ATOM     74  C   UNL     1       6.947  29.039  24.915  1.00  0.00     0.081 A 
ATOM     75  N   UNL     1       7.299  27.754  24.578  1.00  0.00    -0.213 NA
BRANCH  72  76
ATOM     76  C   UNL     1       5.744  30.532  26.511  1.00  0.00     0.070 C 
BRANCH  76  77
ATOM     77  C   UNL     1       4.541  31.171  25.850  1.00  0.00     0.165 C 
BRANCH  77  78
ATOM     78  O   UNL     1       3.780  30.377  25.047  1.00  0.00    -0.381 OA
BRANCH  78  79
ATOM     79  C   UNL     1       3.187  30.943  23.959  1.00  0.00     0.156 C 
ATOM     80  C   UNL     1       1.725  31.323  24.255  1.00  0.00     0.035 C 
ENDBRANCH  78  79
ENDBRANCH  77  78
ENDBRANCH  76  77
ENDBRANCH  72  76
BRANCH  73  81
ATOM     81  N   UNL     1       7.248  25.372  24.848  1.00  0.00    -0.368 N 
ATOM     82  H   UNL     1       6.678  24.546  25.122  1.00  0.00     0.159 HD
ATOM     83  H   UNL     1       8.098  25.190  24.289  1.00  0.00     0.159 HD
ENDBRANCH  73  81
BRANCH  74  84
ATOM     84  C   UNL     1       7.480  30.122  24.119  1.00  0.00     0.001 A 
ATOM     85  C   UNL     1       6.732  30.559  23.027  1.00  0.00     0.010 A 
ATOM     86  C   UNL     1       8.677  30.746  24.418  1.00  0.00     0.010 A 
ATOM     87  C   UNL     1       7.164  31.612  22.231  1.00  0.00     0.001 A 
ATOM     88  C   UNL     1       9.087  31.786  23.617  1.00  0.00     0.001 A 
ATOM     89  C   UNL     1       8.357  32.224  22.540  1.00  0.00     0.000 A 
ENDBRANCH  74  84
ENDBRANCH  68  70
ENDBRANCH  64  65
ENDBRANCH  63  64
ENDBRANCH  60  63
ENDBRANCH  58  59
ENDBRANCH  55  58
ENDBRANCH   1  55
TORSDOF 36
