REMARK VINA RESULT:    -5.983      0.000      0.000
REMARK INTER + INTRA:         -22.662
REMARK INTER:                 -16.476
REMARK INTRA:                  -6.187
REMARK UNBOUND:                -7.585
REMARK SMILES COc1ccc(-n2cc(COC(=O)NC[C@@H](O)C(O)[C@@H]3O[C@@](OC[C@H]4O[C@@H](O[C@H]5[C@H](O)[C@@H](O)[C@H](OCCN=[N+]=[N-])O[C@@H]5CO)[C@H](O)[C@@H](O)[C@H]4O)(C(=O)O)C[C@H](O)[C@H]3NC(C)=O)nn2)cc1
REMARK SMILES IDX 22 1 54 2 55 3 57 4 20 5 21 6 23 7 24 8 25 9 27 10 26 11
REMARK SMILES IDX 45 12 47 13 49 14 28 15 29 16 42 17 41 18 34 19 30 20 32 21
REMARK SMILES IDX 43 22 44 23 35 25 36 26 37 27 38 28 39 29 40 30 31 31 33 33
REMARK SMILES IDX 46 35 48 37 50 39 51 41 52 42 53 43 56 45 18 47 19 48 16 50
REMARK SMILES IDX 17 51 15 53 14 54 12 55 13 57 11 58 10 59 9 60 8 61 62 62
REMARK SMILES IDX 7 63 63 64 6 65 5 66 64 67 4 68 65 69 3 70 2 71 1 72 58 73
REMARK SMILES IDX 59 74 60 76 61 77
REMARK H PARENT 44 24 31 32 33 34 46 36 48 38 50 40 53 44 56 46 19 49 17 52
REMARK H PARENT 14 56 58 75
REMARK Flexibility Score: inf
ROOT
ATOM      1  C   UNL     1      20.124  19.514  10.574  1.00  0.00     0.272 C 
ATOM      2  C   UNL     1      19.579  20.198   9.375  1.00  0.00     0.113 C 
ATOM      3  C   UNL     1      20.545  20.894   8.500  1.00  0.00     0.145 C 
ATOM      4  C   UNL     1      21.799  21.218   9.337  1.00  0.00     0.142 C 
ATOM      5  C   UNL     1      21.330  21.561  10.706  1.00  0.00     0.178 C 
ATOM      6  O   UNL     1      20.953  20.370  11.323  1.00  0.00    -0.332 OA
ENDROOT
BRANCH   1   7
ATOM      7  O   UNL     1      20.636  18.325  10.585  1.00  0.00    -0.338 OA
BRANCH   7   8
ATOM      8  C   UNL     1      21.330  17.518   9.874  1.00  0.00     0.199 C 
BRANCH   8   9
ATOM      9  C   UNL     1      22.743  17.111  10.182  1.00  0.00     0.179 C 
ATOM     10  C   UNL     1      24.537  17.294  11.585  1.00  0.00     0.282 C 
ATOM     11  O   UNL     1      23.170  17.551  11.389  1.00  0.00    -0.341 OA
ATOM     12  C   UNL     1      24.895  15.843  11.528  1.00  0.00     0.202 C 
ATOM     13  C   UNL     1      23.908  14.961  10.860  1.00  0.00     0.179 C 
ATOM     14  C   UNL     1      22.974  15.639   9.941  1.00  0.00     0.177 C 
BRANCH  10  15
ATOM     15  O   UNL     1      24.868  17.798  12.840  1.00  0.00    -0.341 OA
BRANCH  15  16
ATOM     16  C   UNL     1      24.723  19.155  12.930  1.00  0.00     0.184 C 
ATOM     17  C   UNL     1      26.012  19.861  13.138  1.00  0.00     0.178 C 
ATOM     18  O   UNL     1      25.799  21.253  13.326  1.00  0.00    -0.341 OA
ATOM     19  C   UNL     1      25.196  21.366  14.606  1.00  0.00     0.281 C 
ATOM     20  C   UNL     1      23.781  19.454  14.110  1.00  0.00     0.180 C 
ATOM     21  C   UNL     1      23.747  20.938  14.361  1.00  0.00     0.202 C 
BRANCH  17  22
ATOM     22  C   UNL     1      26.958  19.664  11.982  1.00  0.00     0.191 C 
BRANCH  22  23
ATOM     23  O   UNL     1      26.311  20.001  10.806  1.00  0.00    -0.394 OA
ATOM     24  H   UNL     1      26.150  20.966  10.718  1.00  0.00     0.210 HD
ENDBRANCH  22  23
ENDBRANCH  17  22
BRANCH  19  25
ATOM     25  O   UNL     1      25.284  22.625  15.087  1.00  0.00    -0.350 OA
BRANCH  25  26
ATOM     26  C   UNL     1      26.106  22.897  16.136  1.00  0.00     0.169 C 
BRANCH  26  27
ATOM     27  C   UNL     1      27.576  22.815  15.899  1.00  0.00     0.119 C 
BRANCH  27  28
ATOM     28  N   UNL     1      28.222  21.630  16.377  1.00  0.00    -0.092 NA
ATOM     29  N   UNL     1      28.043  21.223  17.519  1.00  0.00     0.001 N 
ATOM     30  N   UNL     1      27.869  20.995  18.721  1.00  0.00    -0.003 NA
ENDBRANCH  27  28
ENDBRANCH  26  27
ENDBRANCH  25  26
ENDBRANCH  19  25
BRANCH  20  31
ATOM     31  O   UNL     1      22.529  18.946  13.817  1.00  0.00    -0.387 OA
ATOM     32  H   UNL     1      21.955  19.095  14.631  1.00  0.00     0.211 HD
ENDBRANCH  20  31
BRANCH  21  33
ATOM     33  O   UNL     1      23.023  21.219  15.497  1.00  0.00    -0.385 OA
ATOM     34  H   UNL     1      22.420  20.472  15.736  1.00  0.00     0.211 HD
ENDBRANCH  21  33
ENDBRANCH  15  16
ENDBRANCH  10  15
BRANCH  12  35
ATOM     35  O   UNL     1      26.124  15.641  10.878  1.00  0.00    -0.385 OA
ATOM     36  H   UNL     1      26.880  15.893  11.453  1.00  0.00     0.211 HD
ENDBRANCH  12  35
BRANCH  13  37
ATOM     37  O   UNL     1      23.272  14.147  11.805  1.00  0.00    -0.387 OA
ATOM     38  H   UNL     1      23.887  13.553  12.281  1.00  0.00     0.211 HD
ENDBRANCH  13  37
BRANCH  14  39
ATOM     39  O   UNL     1      21.773  14.926   9.914  1.00  0.00    -0.387 OA
ATOM     40  H   UNL     1      21.750  14.437   9.053  1.00  0.00     0.211 HD
ENDBRANCH  14  39
ENDBRANCH   8   9
ENDBRANCH   7   8
ENDBRANCH   1   7
BRANCH   1  41
ATOM     41  C   UNL     1      18.879  19.450  11.515  1.00  0.00     0.364 C 
ATOM     42  O   UNL     1      18.541  20.439  12.170  1.00  0.00    -0.246 OA
BRANCH  41  43
ATOM     43  O   UNL     1      18.212  18.251  11.556  1.00  0.00    -0.477 OA
ATOM     44  H   UNL     1      17.184  18.202  11.531  1.00  0.00     0.296 HD
ENDBRANCH  41  43
ENDBRANCH   1  41
BRANCH   3  45
ATOM     45  O   UNL     1      20.853  20.293   7.313  1.00  0.00    -0.391 OA
ATOM     46  H   UNL     1      20.144  20.293   6.632  1.00  0.00     0.211 HD
ENDBRANCH   3  45
BRANCH   5  47
ATOM     47  C   UNL     1      22.447  22.134  11.610  1.00  0.00     0.176 C 
BRANCH  47  48
ATOM     48  O   UNL     1      23.672  21.705  11.201  1.00  0.00    -0.388 OA
ATOM     49  H   UNL     1      24.322  21.814  11.934  1.00  0.00     0.211 HD
ENDBRANCH  47  48
BRANCH  47  50
ATOM     50  C   UNL     1      22.196  23.496  12.010  1.00  0.00     0.165 C 
BRANCH  50  51
ATOM     51  O   UNL     1      21.870  24.405  10.965  1.00  0.00    -0.388 OA
ATOM     52  H   UNL     1      22.665  24.444  10.398  1.00  0.00     0.211 HD
ENDBRANCH  50  51
BRANCH  50  53
ATOM     53  C   UNL     1      23.055  24.274  12.917  1.00  0.00     0.154 C 
BRANCH  53  54
ATOM     54  N   UNL     1      22.882  24.157  14.293  1.00  0.00    -0.319 N 
ATOM     55  C   UNL     1      22.539  25.180  15.189  1.00  0.00     0.407 C 
ATOM     56  H   UNL     1      23.024  23.184  14.735  1.00  0.00     0.167 HD
ATOM     57  O   UNL     1      22.327  26.343  14.811  1.00  0.00    -0.225 OA
BRANCH  55  58
ATOM     58  O   UNL     1      22.429  24.881  16.567  1.00  0.00    -0.443 OA
BRANCH  58  59
ATOM     59  C   UNL     1      23.307  25.542  17.442  1.00  0.00     0.294 C 
BRANCH  59  60
ATOM     60  C   UNL     1      23.121  25.032  18.821  1.00  0.00     0.121 A 
ATOM     61  C   UNL     1      23.698  25.449  20.006  1.00  0.00     0.144 A 
ATOM     62  N   UNL     1      22.288  24.024  19.145  1.00  0.00    -0.131 NA
ATOM     63  N   UNL     1      23.198  24.687  20.986  1.00  0.00    -0.220 N 
ATOM     64  N   UNL     1      22.340  23.824  20.435  1.00  0.00    -0.062 NA
BRANCH  63  65
ATOM     65  C   UNL     1      23.428  24.680  22.387  1.00  0.00     0.067 A 
ATOM     66  C   UNL     1      24.670  24.640  22.962  1.00  0.00     0.032 A 
ATOM     67  C   UNL     1      22.331  24.704  23.245  1.00  0.00     0.032 A 
ATOM     68  C   UNL     1      24.823  24.624  24.341  1.00  0.00     0.048 A 
ATOM     69  C   UNL     1      22.483  24.688  24.618  1.00  0.00     0.048 A 
ATOM     70  C   UNL     1      23.735  24.647  25.194  1.00  0.00     0.119 A 
BRANCH  70  71
ATOM     71  O   UNL     1      23.905  24.629  26.592  1.00  0.00    -0.497 OA
ATOM     72  C   UNL     1      22.727  24.431  27.387  1.00  0.00     0.278 C 
ENDBRANCH  70  71
ENDBRANCH  63  65
ENDBRANCH  59  60
ENDBRANCH  58  59
ENDBRANCH  55  58
ENDBRANCH  53  54
ENDBRANCH  50  53
ENDBRANCH  47  50
ENDBRANCH   5  47
BRANCH   4  73
ATOM     73  N   UNL     1      22.582  22.192   8.628  1.00  0.00    -0.348 N 
ATOM     74  C   UNL     1      23.901  21.901   8.194  1.00  0.00     0.217 C 
ATOM     75  H   UNL     1      22.167  23.112   8.404  1.00  0.00     0.163 HD
ATOM     76  C   UNL     1      24.691  22.927   7.464  1.00  0.00     0.114 C 
ATOM     77  O   UNL     1      24.456  20.789   8.399  1.00  0.00    -0.275 OA
ENDBRANCH   4  73
TORSDOF 31
