REMARK VINA RESULT:    -5.766      6.742      9.586
REMARK INTER + INTRA:         -21.337
REMARK INTER:                 -13.963
REMARK INTRA:                  -7.374
REMARK UNBOUND:                -7.145
REMARK SMILES CC(=O)N[C@@H]1[C@@H](O)C[C@](OC[C@H]2O[C@@H](O[C@H]3[C@H](O)[C@@H](O)[C@H](OCCN=[N+]=[N-])O[C@@H]3CO)[C@H](O)[C@@H](O)[C@H]2O)(C(=O)O)O[C@H]1C(O)[C@H](O)CNC(=O)OCc1cn(-c2ccccc2Br)nn1
REMARK SMILES IDX 9 1 8 2 6 3 5 4 42 5 41 6 10 7 11 8 12 9 14 10 13 11 32 12
REMARK SMILES IDX 34 13 36 14 15 15 16 16 29 17 28 18 21 19 17 20 19 21 30 22
REMARK SMILES IDX 31 23 22 25 23 26 24 27 25 28 26 29 27 30 18 31 20 33 33 35
REMARK SMILES IDX 35 37 37 39 38 41 39 42 40 43 7 45 43 47 44 48 45 50 46 51
REMARK SMILES IDX 47 53 48 54 49 55 50 57 51 58 52 59 53 60 54 61 64 62 55 63
REMARK SMILES IDX 63 64 56 65 57 66 61 67 58 68 60 69 62 70 59 71 4 72 2 73
REMARK SMILES IDX 1 75 3 76
REMARK H PARENT 31 24 18 32 20 34 33 36 35 38 37 40 40 44 7 46 44 49 46 52
REMARK H PARENT 48 56 4 74
REMARK Flexibility Score: inf
ROOT
ATOM      1  C   UNL     1      23.373  24.920  21.503  1.00  0.00     0.272 C 
ATOM      2  C   UNL     1      22.126  24.263  21.963  1.00  0.00     0.113 C 
ATOM      3  C   UNL     1      21.573  24.908  23.191  1.00  0.00     0.145 C 
ATOM      4  C   UNL     1      21.556  26.395  23.189  1.00  0.00     0.142 C 
ATOM      5  C   UNL     1      22.380  26.969  22.090  1.00  0.00     0.178 C 
ATOM      6  O   UNL     1      23.480  26.279  21.706  1.00  0.00    -0.332 OA
ENDROOT
BRANCH   1   7
ATOM      7  O   UNL     1      23.675  24.753  20.164  1.00  0.00    -0.338 OA
BRANCH   7   8
ATOM      8  C   UNL     1      22.689  24.311  19.348  1.00  0.00     0.199 C 
BRANCH   8   9
ATOM      9  C   UNL     1      23.236  24.382  17.900  1.00  0.00     0.179 C 
ATOM     10  C   UNL     1      22.806  25.579  15.971  1.00  0.00     0.282 C 
ATOM     11  O   UNL     1      22.328  24.868  17.039  1.00  0.00    -0.341 OA
ATOM     12  C   UNL     1      24.079  24.997  15.398  1.00  0.00     0.202 C 
ATOM     13  C   UNL     1      25.145  24.875  16.465  1.00  0.00     0.179 C 
ATOM     14  C   UNL     1      24.552  25.047  17.850  1.00  0.00     0.177 C 
BRANCH  10  15
ATOM     15  O   UNL     1      22.915  26.938  16.229  1.00  0.00    -0.341 OA
BRANCH  15  16
ATOM     16  C   UNL     1      22.036  27.726  15.523  1.00  0.00     0.184 C 
ATOM     17  C   UNL     1      22.695  28.697  14.575  1.00  0.00     0.178 C 
ATOM     18  O   UNL     1      21.717  29.091  13.675  1.00  0.00    -0.341 OA
ATOM     19  C   UNL     1      20.619  29.671  14.226  1.00  0.00     0.281 C 
ATOM     20  C   UNL     1      21.216  28.608  16.458  1.00  0.00     0.180 C 
ATOM     21  C   UNL     1      20.435  29.586  15.683  1.00  0.00     0.202 C 
BRANCH  17  22
ATOM     22  C   UNL     1      23.863  28.143  13.828  1.00  0.00     0.191 C 
BRANCH  22  23
ATOM     23  O   UNL     1      24.994  28.214  14.638  1.00  0.00    -0.394 OA
ATOM     24  H   UNL     1      25.154  29.136  14.902  1.00  0.00     0.210 HD
ENDBRANCH  22  23
ENDBRANCH  17  22
BRANCH  19  25
ATOM     25  O   UNL     1      19.500  29.072  13.601  1.00  0.00    -0.350 OA
BRANCH  25  26
ATOM     26  C   UNL     1      18.881  29.885  12.694  1.00  0.00     0.169 C 
BRANCH  26  27
ATOM     27  C   UNL     1      17.823  30.785  13.252  1.00  0.00     0.119 C 
BRANCH  27  28
ATOM     28  N   UNL     1      16.546  30.112  13.069  1.00  0.00    -0.092 NA
ATOM     29  N   UNL     1      16.122  29.358  13.933  1.00  0.00     0.001 N 
ATOM     30  N   UNL     1      15.645  28.654  14.814  1.00  0.00    -0.003 NA
ENDBRANCH  27  28
ENDBRANCH  26  27
ENDBRANCH  25  26
ENDBRANCH  19  25
BRANCH  20  31
ATOM     31  O   UNL     1      20.375  27.855  17.261  1.00  0.00    -0.387 OA
ATOM     32  H   UNL     1      19.423  27.944  17.022  1.00  0.00     0.211 HD
ENDBRANCH  20  31
BRANCH  21  33
ATOM     33  O   UNL     1      20.675  30.851  16.300  1.00  0.00    -0.385 OA
ATOM     34  H   UNL     1      19.889  31.439  16.210  1.00  0.00     0.211 HD
ENDBRANCH  21  33
ENDBRANCH  15  16
ENDBRANCH  10  15
BRANCH  12  35
ATOM     35  O   UNL     1      23.840  23.785  14.748  1.00  0.00    -0.385 OA
ATOM     36  H   UNL     1      23.670  23.918  13.783  1.00  0.00     0.211 HD
ENDBRANCH  12  35
BRANCH  13  37
ATOM     37  O   UNL     1      26.201  25.728  16.213  1.00  0.00    -0.387 OA
ATOM     38  H   UNL     1      27.027  25.226  16.057  1.00  0.00     0.211 HD
ENDBRANCH  13  37
BRANCH  14  39
ATOM     39  O   UNL     1      24.519  26.403  18.131  1.00  0.00    -0.387 OA
ATOM     40  H   UNL     1      24.298  26.596  19.074  1.00  0.00     0.211 HD
ENDBRANCH  14  39
ENDBRANCH   8   9
ENDBRANCH   7   8
ENDBRANCH   1   7
BRANCH   1  41
ATOM     41  C   UNL     1      24.484  24.341  22.360  1.00  0.00     0.364 C 
ATOM     42  O   UNL     1      25.231  23.501  21.813  1.00  0.00    -0.246 OA
BRANCH  41  43
ATOM     43  O   UNL     1      24.694  24.687  23.661  1.00  0.00    -0.477 OA
ATOM     44  H   UNL     1      25.472  24.266  24.192  1.00  0.00     0.296 HD
ENDBRANCH  41  43
ENDBRANCH   1  41
BRANCH   3  45
ATOM     45  O   UNL     1      20.277  24.388  23.413  1.00  0.00    -0.391 OA
ATOM     46  H   UNL     1      20.042  23.835  22.618  1.00  0.00     0.211 HD
ENDBRANCH   3  45
BRANCH   5  47
ATOM     47  C   UNL     1      21.508  27.479  20.943  1.00  0.00     0.176 C 
BRANCH  47  48
ATOM     48  O   UNL     1      22.190  27.621  19.760  1.00  0.00    -0.388 OA
ATOM     49  H   UNL     1      21.803  28.355  19.198  1.00  0.00     0.211 HD
ENDBRANCH  47  48
BRANCH  47  50
ATOM     50  C   UNL     1      20.879  28.838  21.289  1.00  0.00     0.165 C 
BRANCH  50  51
ATOM     51  O   UNL     1      19.534  28.642  21.466  1.00  0.00    -0.388 OA
ATOM     52  H   UNL     1      19.244  27.741  21.691  1.00  0.00     0.211 HD
ENDBRANCH  50  51
BRANCH  50  53
ATOM     53  C   UNL     1      21.151  29.827  20.203  1.00  0.00     0.154 C 
BRANCH  53  54
ATOM     54  N   UNL     1      20.054  29.966  19.308  1.00  0.00    -0.319 N 
ATOM     55  C   UNL     1      19.300  31.128  19.040  1.00  0.00     0.407 C 
ATOM     56  H   UNL     1      19.747  29.099  18.763  1.00  0.00     0.167 HD
ATOM     57  O   UNL     1      19.566  32.198  19.596  1.00  0.00    -0.225 OA
BRANCH  55  58
ATOM     58  O   UNL     1      18.236  31.091  18.139  1.00  0.00    -0.443 OA
BRANCH  58  59
ATOM     59  C   UNL     1      17.486  29.940  17.832  1.00  0.00     0.294 C 
BRANCH  59  60
ATOM     60  C   UNL     1      16.901  29.335  19.072  1.00  0.00     0.121 A 
ATOM     61  C   UNL     1      15.945  29.953  19.878  1.00  0.00     0.144 A 
ATOM     62  N   UNL     1      17.157  28.168  19.640  1.00  0.00    -0.131 NA
ATOM     63  N   UNL     1      15.678  29.117  20.892  1.00  0.00    -0.219 N 
ATOM     64  N   UNL     1      16.411  28.041  20.744  1.00  0.00    -0.062 NA
BRANCH  63  65
ATOM     65  C   UNL     1      14.765  29.342  21.952  1.00  0.00     0.081 A 
ATOM     66  C   UNL     1      13.421  29.078  21.816  1.00  0.00     0.029 A 
ATOM     67  C   UNL     1      15.211  29.832  23.150  1.00  0.00     0.043 A 
ATOM     68  C   UNL     1      12.554  29.311  22.881  1.00  0.00     0.002 A 
ATOM     69  C   UNL     1      14.361  30.064  24.205  1.00  0.00     0.018 A 
ATOM     70  Br  UNL     1      17.063  30.214  23.377  1.00  0.00    -0.048 Br
ATOM     71  C   UNL     1      13.016  29.804  24.082  1.00  0.00     0.001 A 
ENDBRANCH  63  65
ENDBRANCH  59  60
ENDBRANCH  58  59
ENDBRANCH  55  58
ENDBRANCH  53  54
ENDBRANCH  50  53
ENDBRANCH  47  50
ENDBRANCH   5  47
BRANCH   4  72
ATOM     72  N   UNL     1      21.942  26.971  24.458  1.00  0.00    -0.348 N 
ATOM     73  C   UNL     1      21.124  27.925  25.112  1.00  0.00     0.217 C 
ATOM     74  H   UNL     1      22.833  26.689  24.910  1.00  0.00     0.163 HD
ATOM     75  C   UNL     1      21.600  28.469  26.419  1.00  0.00     0.114 C 
ATOM     76  O   UNL     1      20.042  28.313  24.632  1.00  0.00    -0.275 OA
ENDBRANCH   4  72
TORSDOF 30
