REMARK VINA RESULT:    -5.794     10.855     17.475
REMARK INTER + INTRA:         -21.804
REMARK INTER:                 -14.787
REMARK INTRA:                  -7.017
REMARK UNBOUND:                -7.203
REMARK SMILES CC(=O)N[C@@H]1[C@@H](O)C[C@](OC[C@H]2O[C@@H](O[C@H]3[C@H](O)[C@@H](O)[C@H](OCCN=[N+]=[N-])O[C@@H]3CO)[C@H](O)[C@@H](O)[C@H]2O)(C(=O)O)O[C@H]1C(O)[C@H](O)CNC(=O)OCc1cn(CC2=CC[C@H]3C[C@@H]2C3(C)C)nn1
REMARK SMILES IDX 9 1 8 2 6 3 5 4 42 5 41 6 10 7 11 8 12 9 14 10 13 11 32 12
REMARK SMILES IDX 34 13 36 14 15 15 16 16 29 17 28 18 21 19 17 20 19 21 30 22
REMARK SMILES IDX 31 23 22 25 23 26 24 27 25 28 26 29 27 30 18 31 20 33 33 35
REMARK SMILES IDX 35 37 37 39 38 41 39 42 40 43 7 45 43 47 44 48 45 50 46 51
REMARK SMILES IDX 47 53 48 54 49 55 50 57 51 58 52 59 53 60 54 61 67 62 55 63
REMARK SMILES IDX 66 64 56 65 57 66 58 67 62 68 59 69 61 70 63 71 60 72 64 73
REMARK SMILES IDX 65 74 4 75 2 76 1 78 3 79
REMARK H PARENT 31 24 18 32 20 34 33 36 35 38 37 40 40 44 7 46 44 49 46 52
REMARK H PARENT 48 56 4 77
REMARK Flexibility Score: inf
ROOT
ATOM      1  C   UNL     1      30.282  19.796  22.694  1.00  0.00     0.272 C 
ATOM      2  C   UNL     1      28.881  19.477  22.287  1.00  0.00     0.113 C 
ATOM      3  C   UNL     1      28.848  19.012  20.820  1.00  0.00     0.145 C 
ATOM      4  C   UNL     1      29.314  20.097  19.918  1.00  0.00     0.142 C 
ATOM      5  C   UNL     1      29.996  21.132  20.788  1.00  0.00     0.178 C 
ATOM      6  O   UNL     1      30.876  20.580  21.647  1.00  0.00    -0.332 OA
ENDROOT
BRANCH   1   7
ATOM      7  O   UNL     1      31.115  18.778  22.846  1.00  0.00    -0.338 OA
BRANCH   7   8
ATOM      8  C   UNL     1      32.380  18.769  23.178  1.00  0.00     0.199 C 
BRANCH   8   9
ATOM      9  C   UNL     1      33.022  17.918  24.190  1.00  0.00     0.179 C 
ATOM     10  C   UNL     1      34.325  18.155  26.087  1.00  0.00     0.282 C 
ATOM     11  O   UNL     1      33.418  18.792  25.250  1.00  0.00    -0.341 OA
ATOM     12  C   UNL     1      34.024  16.762  26.413  1.00  0.00     0.202 C 
ATOM     13  C   UNL     1      32.895  16.083  25.744  1.00  0.00     0.179 C 
ATOM     14  C   UNL     1      32.023  17.016  24.942  1.00  0.00     0.177 C 
BRANCH  10  15
ATOM     15  O   UNL     1      34.314  18.930  27.262  1.00  0.00    -0.341 OA
BRANCH  15  16
ATOM     16  C   UNL     1      34.085  20.272  27.013  1.00  0.00     0.184 C 
ATOM     17  C   UNL     1      35.297  21.081  27.374  1.00  0.00     0.178 C 
ATOM     18  O   UNL     1      35.055  22.437  27.506  1.00  0.00    -0.341 OA
ATOM     19  C   UNL     1      33.835  22.880  27.085  1.00  0.00     0.281 C 
ATOM     20  C   UNL     1      32.969  20.712  27.967  1.00  0.00     0.180 C 
ATOM     21  C   UNL     1      32.674  22.161  27.727  1.00  0.00     0.202 C 
BRANCH  17  22
ATOM     22  C   UNL     1      36.345  20.873  26.274  1.00  0.00     0.191 C 
BRANCH  22  23
ATOM     23  O   UNL     1      35.683  20.845  25.056  1.00  0.00    -0.394 OA
ATOM     24  H   UNL     1      34.793  20.400  25.199  1.00  0.00     0.210 HD
ENDBRANCH  22  23
ENDBRANCH  17  22
BRANCH  19  25
ATOM     25  O   UNL     1      33.700  22.799  25.693  1.00  0.00    -0.350 OA
BRANCH  25  26
ATOM     26  C   UNL     1      32.553  23.455  25.243  1.00  0.00     0.169 C 
BRANCH  26  27
ATOM     27  C   UNL     1      32.971  24.177  23.960  1.00  0.00     0.119 C 
BRANCH  27  28
ATOM     28  N   UNL     1      32.789  23.291  22.831  1.00  0.00    -0.092 NA
ATOM     29  N   UNL     1      33.565  22.387  22.579  1.00  0.00     0.001 N 
ATOM     30  N   UNL     1      34.448  21.574  22.279  1.00  0.00    -0.003 NA
ENDBRANCH  27  28
ENDBRANCH  26  27
ENDBRANCH  25  26
ENDBRANCH  19  25
BRANCH  20  31
ATOM     31  O   UNL     1      31.801  19.975  27.700  1.00  0.00    -0.387 OA
ATOM     32  H   UNL     1      31.106  20.184  28.361  1.00  0.00     0.211 HD
ENDBRANCH  20  31
BRANCH  21  33
ATOM     33  O   UNL     1      32.269  22.825  28.884  1.00  0.00    -0.385 OA
ATOM     34  H   UNL     1      32.828  22.489  29.642  1.00  0.00     0.211 HD
ENDBRANCH  21  33
ENDBRANCH  15  16
ENDBRANCH  10  15
BRANCH  12  35
ATOM     35  O   UNL     1      35.196  16.004  26.145  1.00  0.00    -0.385 OA
ATOM     36  H   UNL     1      36.015  16.527  26.336  1.00  0.00     0.211 HD
ENDBRANCH  12  35
BRANCH  13  37
ATOM     37  O   UNL     1      32.155  15.291  26.629  1.00  0.00    -0.387 OA
ATOM     38  H   UNL     1      31.418  14.833  26.141  1.00  0.00     0.211 HD
ENDBRANCH  13  37
BRANCH  14  39
ATOM     39  O   UNL     1      31.335  17.840  25.856  1.00  0.00    -0.387 OA
ATOM     40  H   UNL     1      31.077  18.689  25.419  1.00  0.00     0.211 HD
ENDBRANCH  14  39
ENDBRANCH   8   9
ENDBRANCH   7   8
ENDBRANCH   1   7
BRANCH   1  41
ATOM     41  C   UNL     1      30.282  20.774  23.813  1.00  0.00     0.364 C 
ATOM     42  O   UNL     1      29.730  21.920  23.658  1.00  0.00    -0.246 OA
BRANCH  41  43
ATOM     43  O   UNL     1      30.847  20.536  25.021  1.00  0.00    -0.477 OA
ATOM     44  H   UNL     1      30.708  21.039  25.881  1.00  0.00     0.296 HD
ENDBRANCH  41  43
ENDBRANCH   1  41
BRANCH   3  45
ATOM     45  O   UNL     1      29.815  17.996  20.774  1.00  0.00    -0.391 OA
ATOM     46  H   UNL     1      30.308  18.090  19.923  1.00  0.00     0.211 HD
ENDBRANCH   3  45
BRANCH   5  47
ATOM     47  C   UNL     1      30.763  22.135  19.921  1.00  0.00     0.176 C 
BRANCH  47  48
ATOM     48  O   UNL     1      32.115  21.943  20.043  1.00  0.00    -0.388 OA
ATOM     49  H   UNL     1      32.591  22.645  20.568  1.00  0.00     0.211 HD
ENDBRANCH  47  48
BRANCH  47  50
ATOM     50  C   UNL     1      30.377  23.542  20.270  1.00  0.00     0.165 C 
BRANCH  50  51
ATOM     51  O   UNL     1      29.864  23.474  21.597  1.00  0.00    -0.388 OA
ATOM     52  H   UNL     1      28.866  23.505  21.454  1.00  0.00     0.211 HD
ENDBRANCH  50  51
BRANCH  50  53
ATOM     53  C   UNL     1      29.250  24.043  19.424  1.00  0.00     0.154 C 
BRANCH  53  54
ATOM     54  N   UNL     1      27.980  24.090  20.073  1.00  0.00    -0.319 N 
ATOM     55  C   UNL     1      26.843  24.576  19.384  1.00  0.00     0.407 C 
ATOM     56  H   UNL     1      27.898  23.753  21.064  1.00  0.00     0.167 HD
ATOM     57  O   UNL     1      26.942  24.964  18.213  1.00  0.00    -0.225 OA
BRANCH  55  58
ATOM     58  O   UNL     1      25.608  24.624  20.002  1.00  0.00    -0.443 OA
BRANCH  58  59
ATOM     59  C   UNL     1      24.366  24.604  19.382  1.00  0.00     0.294 C 
BRANCH  59  60
ATOM     60  C   UNL     1      23.217  24.910  20.284  1.00  0.00     0.120 A 
ATOM     61  C   UNL     1      22.753  24.172  21.346  1.00  0.00     0.138 A 
ATOM     62  N   UNL     1      22.413  26.007  20.217  1.00  0.00    -0.132 NA
ATOM     63  N   UNL     1      21.712  24.810  21.888  1.00  0.00    -0.248 N 
ATOM     64  N   UNL     1      21.528  25.912  21.188  1.00  0.00    -0.067 NA
BRANCH  63  65
ATOM     65  C   UNL     1      20.912  24.378  23.049  1.00  0.00     0.177 C 
BRANCH  65  66
ATOM     66  C   UNL     1      21.513  25.093  24.224  1.00  0.00    -0.049 C 
ATOM     67  C   UNL     1      21.021  26.280  24.632  1.00  0.00    -0.025 C 
ATOM     68  C   UNL     1      22.646  24.547  24.985  1.00  0.00     0.023 C 
ATOM     69  C   UNL     1      21.735  27.027  25.690  1.00  0.00     0.031 C 
ATOM     70  C   UNL     1      22.328  24.776  26.469  1.00  0.00     0.013 C 
ATOM     71  C   UNL     1      23.709  25.594  25.122  1.00  0.00    -0.026 C 
ATOM     72  C   UNL     1      22.858  26.198  26.247  1.00  0.00    -0.000 C 
ATOM     73  C   UNL     1      25.013  25.098  25.698  1.00  0.00     0.012 C 
ATOM     74  C   UNL     1      23.946  26.492  23.954  1.00  0.00     0.012 C 
ENDBRANCH  65  66
ENDBRANCH  63  65
ENDBRANCH  59  60
ENDBRANCH  58  59
ENDBRANCH  55  58
ENDBRANCH  53  54
ENDBRANCH  50  53
ENDBRANCH  47  50
ENDBRANCH   5  47
BRANCH   4  75
ATOM     75  N   UNL     1      28.326  20.761  19.142  1.00  0.00    -0.348 N 
ATOM     76  C   UNL     1      28.279  20.857  17.743  1.00  0.00     0.217 C 
ATOM     77  H   UNL     1      27.549  21.230  19.693  1.00  0.00     0.163 HD
ATOM     78  C   UNL     1      27.181  21.586  17.057  1.00  0.00     0.114 C 
ATOM     79  O   UNL     1      29.196  20.304  17.110  1.00  0.00    -0.275 OA
ENDBRANCH   4  75
TORSDOF 31
