REMARK VINA RESULT:    -6.090      4.137     11.493
REMARK INTER + INTRA:         -21.208
REMARK INTER:                 -15.276
REMARK INTRA:                  -5.932
REMARK UNBOUND:                -5.863
REMARK SMILES CC(=O)N[C@@H]1[C@@H](O)C[C@](OC[C@H]2O[C@@H](O[C@H]3[C@H](O)[C@@H](O)[C@H](OCCN=[N+]=[N-])O[C@@H]3CO)[C@H](O)[C@@H](O)[C@H]2O)(C(=O)O)O[C@H]1C(O)[C@H](O)CNC(=O)OCc1cn(-c2ncccc2C#N)nn1
REMARK SMILES IDX 9 1 8 2 6 3 5 4 42 5 41 6 10 7 11 8 12 9 14 10 13 11 32 12
REMARK SMILES IDX 34 13 36 14 15 15 16 16 29 17 28 18 21 19 17 20 19 21 30 22
REMARK SMILES IDX 31 23 22 25 23 26 24 27 25 28 26 29 27 30 18 31 20 33 33 35
REMARK SMILES IDX 35 37 37 39 38 41 39 42 40 43 7 45 43 47 44 48 45 50 46 51
REMARK SMILES IDX 47 53 48 54 49 55 50 57 51 58 52 59 53 60 54 61 65 62 55 63
REMARK SMILES IDX 64 64 56 65 57 66 61 67 58 68 60 69 59 70 62 71 63 72 4 73
REMARK SMILES IDX 2 74 1 76 3 77
REMARK H PARENT 31 24 18 32 20 34 33 36 35 38 37 40 40 44 7 46 44 49 46 52
REMARK H PARENT 48 56 4 75
REMARK Flexibility Score: inf
ROOT
ATOM      1  C   UNL     1      13.084  30.487  16.137  1.00  0.00     0.272 C 
ATOM      2  C   UNL     1      12.375  29.221  15.906  1.00  0.00     0.113 C 
ATOM      3  C   UNL     1      12.471  28.731  14.514  1.00  0.00     0.145 C 
ATOM      4  C   UNL     1      13.699  29.110  13.754  1.00  0.00     0.142 C 
ATOM      5  C   UNL     1      14.745  29.873  14.515  1.00  0.00     0.178 C 
ATOM      6  O   UNL     1      14.301  30.610  15.507  1.00  0.00    -0.332 OA
ENDROOT
BRANCH   1   7
ATOM      7  O   UNL     1      13.312  30.938  17.374  1.00  0.00    -0.338 OA
BRANCH   7   8
ATOM      8  C   UNL     1      14.015  31.894  17.898  1.00  0.00     0.199 C 
BRANCH   8   9
ATOM      9  C   UNL     1      14.199  31.562  19.383  1.00  0.00     0.179 C 
ATOM     10  C   UNL     1      13.258  30.549  21.180  1.00  0.00     0.282 C 
ATOM     11  O   UNL     1      12.993  31.278  19.963  1.00  0.00    -0.341 OA
ATOM     12  C   UNL     1      13.704  29.172  20.846  1.00  0.00     0.202 C 
ATOM     13  C   UNL     1      14.869  29.199  19.852  1.00  0.00     0.179 C 
ATOM     14  C   UNL     1      15.296  30.607  19.673  1.00  0.00     0.177 C 
BRANCH  10  15
ATOM     15  O   UNL     1      12.175  30.564  21.987  1.00  0.00    -0.341 OA
BRANCH  15  16
ATOM     16  C   UNL     1      12.050  31.660  22.793  1.00  0.00     0.184 C 
ATOM     17  C   UNL     1      13.408  32.417  22.865  1.00  0.00     0.178 C 
ATOM     18  O   UNL     1      13.924  32.253  24.150  1.00  0.00    -0.341 OA
ATOM     19  C   UNL     1      14.004  30.893  24.481  1.00  0.00     0.281 C 
ATOM     20  C   UNL     1      11.616  31.360  24.205  1.00  0.00     0.180 C 
ATOM     21  C   UNL     1      12.630  30.414  24.859  1.00  0.00     0.202 C 
BRANCH  17  22
ATOM     22  C   UNL     1      13.172  33.852  22.518  1.00  0.00     0.191 C 
BRANCH  22  23
ATOM     23  O   UNL     1      11.988  34.026  21.780  1.00  0.00    -0.394 OA
ATOM     24  H   UNL     1      12.149  33.974  20.807  1.00  0.00     0.210 HD
ENDBRANCH  22  23
ENDBRANCH  17  22
BRANCH  19  25
ATOM     25  O   UNL     1      14.912  30.789  25.509  1.00  0.00    -0.350 OA
BRANCH  25  26
ATOM     26  C   UNL     1      16.213  31.118  25.084  1.00  0.00     0.169 C 
BRANCH  26  27
ATOM     27  C   UNL     1      16.535  30.416  23.781  1.00  0.00     0.119 C 
BRANCH  27  28
ATOM     28  N   UNL     1      17.905  30.813  23.429  1.00  0.00    -0.092 NA
ATOM     29  N   UNL     1      18.783  29.928  23.605  1.00  0.00     0.001 N 
ATOM     30  N   UNL     1      19.723  29.269  24.073  1.00  0.00    -0.003 NA
ENDBRANCH  27  28
ENDBRANCH  26  27
ENDBRANCH  25  26
ENDBRANCH  19  25
BRANCH  20  31
ATOM     31  O   UNL     1      11.471  32.488  24.977  1.00  0.00    -0.387 OA
ATOM     32  H   UNL     1      10.871  33.180  24.653  1.00  0.00     0.211 HD
ENDBRANCH  20  31
BRANCH  21  33
ATOM     33  O   UNL     1      12.393  29.109  24.441  1.00  0.00    -0.385 OA
ATOM     34  H   UNL     1      11.771  28.701  25.104  1.00  0.00     0.211 HD
ENDBRANCH  21  33
ENDBRANCH  15  16
ENDBRANCH  10  15
BRANCH  12  35
ATOM     35  O   UNL     1      14.102  28.491  21.983  1.00  0.00    -0.385 OA
ATOM     36  H   UNL     1      14.502  29.174  22.616  1.00  0.00     0.211 HD
ENDBRANCH  12  35
BRANCH  13  37
ATOM     37  O   UNL     1      14.444  28.622  18.631  1.00  0.00    -0.387 OA
ATOM     38  H   UNL     1      13.776  27.903  18.810  1.00  0.00     0.211 HD
ENDBRANCH  13  37
BRANCH  14  39
ATOM     39  O   UNL     1      16.324  30.767  18.739  1.00  0.00    -0.387 OA
ATOM     40  H   UNL     1      17.134  30.232  19.023  1.00  0.00     0.211 HD
ENDBRANCH  14  39
ENDBRANCH   8   9
ENDBRANCH   7   8
ENDBRANCH   1   7
BRANCH   1  41
ATOM     41  C   UNL     1      12.207  31.559  15.489  1.00  0.00     0.364 C 
ATOM     42  O   UNL     1      12.546  32.262  14.553  1.00  0.00    -0.246 OA
BRANCH  41  43
ATOM     43  O   UNL     1      10.909  31.767  15.996  1.00  0.00    -0.477 OA
ATOM     44  H   UNL     1      10.385  32.610  15.817  1.00  0.00     0.296 HD
ENDBRANCH  41  43
ENDBRANCH   1  41
BRANCH   3  45
ATOM     45  O   UNL     1      12.240  27.344  14.461  1.00  0.00    -0.391 OA
ATOM     46  H   UNL     1      13.168  26.937  14.438  1.00  0.00     0.211 HD
ENDBRANCH   3  45
BRANCH   5  47
ATOM     47  C   UNL     1      15.928  28.948  14.920  1.00  0.00     0.176 C 
BRANCH  47  48
ATOM     48  O   UNL     1      15.842  28.811  16.338  1.00  0.00    -0.388 OA
ATOM     49  H   UNL     1      15.938  27.881  16.603  1.00  0.00     0.211 HD
ENDBRANCH  47  48
BRANCH  47  50
ATOM     50  C   UNL     1      17.252  29.435  14.631  1.00  0.00     0.165 C 
BRANCH  50  51
ATOM     51  O   UNL     1      17.679  29.390  13.281  1.00  0.00    -0.388 OA
ATOM     52  H   UNL     1      16.946  28.974  12.727  1.00  0.00     0.211 HD
ENDBRANCH  50  51
BRANCH  50  53
ATOM     53  C   UNL     1      18.356  28.743  15.365  1.00  0.00     0.154 C 
BRANCH  53  54
ATOM     54  N   UNL     1      18.853  29.272  16.573  1.00  0.00    -0.319 N 
ATOM     55  C   UNL     1      18.739  28.786  17.875  1.00  0.00     0.407 C 
ATOM     56  H   UNL     1      19.410  30.208  16.503  1.00  0.00     0.167 HD
ATOM     57  O   UNL     1      18.116  27.709  18.047  1.00  0.00    -0.225 OA
BRANCH  55  58
ATOM     58  O   UNL     1      19.322  29.501  18.940  1.00  0.00    -0.443 OA
BRANCH  58  59
ATOM     59  C   UNL     1      19.354  28.912  20.207  1.00  0.00     0.294 C 
BRANCH  59  60
ATOM     60  C   UNL     1      20.655  28.364  20.540  1.00  0.00     0.121 A 
ATOM     61  C   UNL     1      20.890  27.214  21.193  1.00  0.00     0.146 A 
ATOM     62  N   UNL     1      21.901  28.965  20.302  1.00  0.00    -0.131 NA
ATOM     63  N   UNL     1      22.194  27.055  21.380  1.00  0.00    -0.201 N 
ATOM     64  N   UNL     1      22.722  28.110  20.835  1.00  0.00    -0.060 NA
BRANCH  63  65
ATOM     65  C   UNL     1      22.925  25.993  21.955  1.00  0.00     0.173 A 
ATOM     66  N   UNL     1      23.318  26.180  23.243  1.00  0.00    -0.236 NA
ATOM     67  C   UNL     1      23.348  24.887  21.207  1.00  0.00     0.097 A 
ATOM     68  C   UNL     1      24.205  25.197  23.822  1.00  0.00     0.113 A 
ATOM     69  C   UNL     1      24.199  23.996  21.824  1.00  0.00     0.025 A 
ATOM     70  C   UNL     1      24.588  24.184  23.083  1.00  0.00     0.022 A 
BRANCH  67  71
ATOM     71  C   UNL     1      22.893  24.570  19.891  1.00  0.00     0.103 C 
ATOM     72  N   UNL     1      22.502  24.321  18.773  1.00  0.00    -0.192 NA
ENDBRANCH  67  71
ENDBRANCH  63  65
ENDBRANCH  59  60
ENDBRANCH  58  59
ENDBRANCH  55  58
ENDBRANCH  53  54
ENDBRANCH  50  53
ENDBRANCH  47  50
ENDBRANCH   5  47
BRANCH   4  73
ATOM     73  N   UNL     1      13.232  29.692  12.515  1.00  0.00    -0.348 N 
ATOM     74  C   UNL     1      12.528  29.067  11.482  1.00  0.00     0.217 C 
ATOM     75  H   UNL     1      13.456  30.737  12.337  1.00  0.00     0.163 HD
ATOM     76  C   UNL     1      12.074  29.857  10.268  1.00  0.00     0.114 C 
ATOM     77  O   UNL     1      12.213  27.857  11.456  1.00  0.00    -0.275 OA
ENDBRANCH   4  73
TORSDOF 31
