REMARK VINA RESULT:    -5.954      6.389     10.880
REMARK INTER + INTRA:         -25.535
REMARK INTER:                 -17.527
REMARK INTRA:                  -8.008
REMARK UNBOUND:                -8.963
REMARK SMILES CC(=O)N[C@@H]1[C@@H](O)C[C@](OC[C@H]2O[C@@H](O[C@H]3[C@H](O)[C@@H](O)[C@H](OCCN=[N+]=[N-])O[C@@H]3CO)[C@H](O)[C@@H](O)[C@H]2O)(C(=O)O)O[C@H]1C(O)[C@H](O)CNC(=O)OCc1cn(C[C@@H](C(=O)O)C(c2ccccc2)c2ccccc2)nn1
REMARK SMILES IDX 43 1 42 2 9 3 8 4 41 5 6 6 5 7 10 8 11 9 12 10 14 11 13 12
REMARK SMILES IDX 32 13 34 14 36 15 15 16 16 17 29 18 28 19 21 20 17 21 19 22
REMARK SMILES IDX 30 23 31 24 22 26 23 27 24 28 25 29 26 30 27 31 18 32 20 34
REMARK SMILES IDX 33 36 35 38 37 40 38 42 39 43 40 44 7 46 4 48 2 49 1 51 3 52
REMARK SMILES IDX 44 53 45 55 46 56 47 58 48 59 49 60 50 62 51 63 52 64 53 65
REMARK SMILES IDX 54 66 75 67 55 68 74 69 56 70 57 71 58 72 59 73 60 74 61 76
REMARK SMILES IDX 62 77 63 78 67 79 64 80 66 81 65 82 68 83 69 84 73 85 70 86
REMARK SMILES IDX 72 87 71 88
REMARK H PARENT 31 25 18 33 20 35 33 37 35 39 37 41 40 45 7 47 4 50 44 54
REMARK H PARENT 46 57 48 61 60 75
REMARK Flexibility Score: inf
ROOT
ATOM      1  C   UNL     1      10.868  31.662  12.973  1.00  0.00     0.176 C 
ENDROOT
BRANCH   1   2
ATOM      2  C   UNL     1      11.490  30.809  14.099  1.00  0.00     0.178 C 
ATOM      3  C   UNL     1      12.987  30.656  15.854  1.00  0.00     0.272 C 
ATOM      4  C   UNL     1      12.187  29.312  15.913  1.00  0.00     0.113 C 
ATOM      5  O   UNL     1      12.490  31.408  14.774  1.00  0.00    -0.332 OA
ATOM      6  C   UNL     1      12.233  28.578  14.617  1.00  0.00     0.145 C 
ATOM      7  C   UNL     1      11.821  29.468  13.489  1.00  0.00     0.142 C 
BRANCH   3   8
ATOM      8  O   UNL     1      14.246  30.369  15.835  1.00  0.00    -0.338 OA
BRANCH   8   9
ATOM      9  C   UNL     1      15.392  30.919  15.935  1.00  0.00     0.199 C 
BRANCH   9  10
ATOM     10  C   UNL     1      16.506  30.448  16.833  1.00  0.00     0.179 C 
ATOM     11  C   UNL     1      17.007  30.803  19.124  1.00  0.00     0.282 C 
ATOM     12  O   UNL     1      16.616  31.256  17.923  1.00  0.00    -0.341 OA
ATOM     13  C   UNL     1      17.477  29.409  19.277  1.00  0.00     0.202 C 
ATOM     14  C   UNL     1      17.276  28.524  18.080  1.00  0.00     0.179 C 
ATOM     15  C   UNL     1      16.082  29.057  17.355  1.00  0.00     0.177 C 
BRANCH  11  16
ATOM     16  O   UNL     1      15.855  30.929  19.955  1.00  0.00    -0.341 OA
BRANCH  16  17
ATOM     17  C   UNL     1      16.152  31.198  21.262  1.00  0.00     0.184 C 
ATOM     18  C   UNL     1      15.790  30.001  22.095  1.00  0.00     0.178 C 
ATOM     19  O   UNL     1      14.456  30.004  22.486  1.00  0.00    -0.341 OA
ATOM     20  C   UNL     1      13.617  30.700  21.605  1.00  0.00     0.281 C 
ATOM     21  C   UNL     1      15.370  32.387  21.803  1.00  0.00     0.180 C 
ATOM     22  C   UNL     1      13.883  32.166  21.608  1.00  0.00     0.202 C 
BRANCH  18  23
ATOM     23  C   UNL     1      16.655  29.807  23.308  1.00  0.00     0.191 C 
BRANCH  23  24
ATOM     24  O   UNL     1      15.935  29.750  24.485  1.00  0.00    -0.394 OA
ATOM     25  H   UNL     1      16.526  29.305  25.164  1.00  0.00     0.210 HD
ENDBRANCH  23  24
ENDBRANCH  18  23
BRANCH  20  26
ATOM     26  O   UNL     1      12.315  30.497  22.003  1.00  0.00    -0.350 OA
BRANCH  26  27
ATOM     27  C   UNL     1      12.122  29.901  23.210  1.00  0.00     0.169 C 
BRANCH  27  28
ATOM     28  C   UNL     1      11.278  30.681  24.165  1.00  0.00     0.119 C 
BRANCH  28  29
ATOM     29  N   UNL     1      12.140  31.762  24.683  1.00  0.00    -0.092 NA
ATOM     30  N   UNL     1      13.091  31.422  25.391  1.00  0.00     0.001 N 
ATOM     31  N   UNL     1      13.952  31.114  26.213  1.00  0.00    -0.003 NA
ENDBRANCH  28  29
ENDBRANCH  27  28
ENDBRANCH  26  27
ENDBRANCH  20  26
BRANCH  21  32
ATOM     32  O   UNL     1      15.608  32.442  23.174  1.00  0.00    -0.387 OA
ATOM     33  H   UNL     1      16.549  32.632  23.394  1.00  0.00     0.211 HD
ENDBRANCH  21  32
BRANCH  22  34
ATOM     34  O   UNL     1      13.474  32.712  20.398  1.00  0.00    -0.385 OA
ATOM     35  H   UNL     1      13.479  31.958  19.726  1.00  0.00     0.211 HD
ENDBRANCH  22  34
ENDBRANCH  16  17
ENDBRANCH  11  16
BRANCH  13  36
ATOM     36  O   UNL     1      18.867  29.388  19.541  1.00  0.00    -0.385 OA
ATOM     37  H   UNL     1      19.126  30.183  20.088  1.00  0.00     0.211 HD
ENDBRANCH  13  36
BRANCH  14  38
ATOM     38  O   UNL     1      17.070  27.220  18.482  1.00  0.00    -0.387 OA
ATOM     39  H   UNL     1      17.203  26.617  17.703  1.00  0.00     0.211 HD
ENDBRANCH  14  38
BRANCH  15  40
ATOM     40  O   UNL     1      15.025  29.168  18.249  1.00  0.00    -0.387 OA
ATOM     41  H   UNL     1      14.482  28.356  18.179  1.00  0.00     0.211 HD
ENDBRANCH  15  40
ENDBRANCH   9  10
ENDBRANCH   8   9
ENDBRANCH   3   8
BRANCH   3  42
ATOM     42  C   UNL     1      12.498  31.359  17.057  1.00  0.00     0.364 C 
ATOM     43  O   UNL     1      11.609  32.235  17.069  1.00  0.00    -0.246 OA
BRANCH  42  44
ATOM     44  O   UNL     1      13.056  31.042  18.314  1.00  0.00    -0.477 OA
ATOM     45  H   UNL     1      13.366  30.104  18.453  1.00  0.00     0.296 HD
ENDBRANCH  42  44
ENDBRANCH   3  42
BRANCH   6  46
ATOM     46  O   UNL     1      13.489  28.003  14.374  1.00  0.00    -0.391 OA
ATOM     47  H   UNL     1      13.712  27.309  15.037  1.00  0.00     0.211 HD
ENDBRANCH   6  46
BRANCH   7  48
ATOM     48  N   UNL     1      10.619  28.943  12.882  1.00  0.00    -0.348 N 
ATOM     49  C   UNL     1      10.678  28.041  11.791  1.00  0.00     0.217 C 
ATOM     50  H   UNL     1       9.682  29.246  13.272  1.00  0.00     0.163 HD
ATOM     51  C   UNL     1       9.430  27.491  11.156  1.00  0.00     0.114 C 
ATOM     52  O   UNL     1      11.818  27.716  11.371  1.00  0.00    -0.275 OA
ENDBRANCH   7  48
ENDBRANCH   1   2
BRANCH   1  53
ATOM     53  O   UNL     1      11.839  32.207  12.177  1.00  0.00    -0.388 OA
ATOM     54  H   UNL     1      11.664  33.137  11.904  1.00  0.00     0.211 HD
ENDBRANCH   1  53
BRANCH   1  55
ATOM     55  C   UNL     1      10.006  32.723  13.536  1.00  0.00     0.165 C 
BRANCH  55  56
ATOM     56  O   UNL     1      10.530  33.304  14.709  1.00  0.00    -0.388 OA
ATOM     57  H   UNL     1      10.727  32.518  15.307  1.00  0.00     0.211 HD
ENDBRANCH  55  56
BRANCH  55  58
ATOM     58  C   UNL     1       8.550  32.504  13.712  1.00  0.00     0.154 C 
BRANCH  58  59
ATOM     59  N   UNL     1       8.142  31.795  14.869  1.00  0.00    -0.319 N 
ATOM     60  C   UNL     1       7.917  32.336  16.152  1.00  0.00     0.407 C 
ATOM     61  H   UNL     1       7.979  30.719  14.763  1.00  0.00     0.167 HD
ATOM     62  O   UNL     1       8.102  33.535  16.424  1.00  0.00    -0.225 OA
BRANCH  60  63
ATOM     63  O   UNL     1       7.467  31.488  17.142  1.00  0.00    -0.443 OA
BRANCH  63  64
ATOM     64  C   UNL     1       6.125  31.367  17.460  1.00  0.00     0.294 C 
BRANCH  64  65
ATOM     65  C   UNL     1       5.837  30.457  18.579  1.00  0.00     0.120 A 
ATOM     66  C   UNL     1       6.268  30.510  19.883  1.00  0.00     0.138 A 
ATOM     67  N   UNL     1       5.077  29.320  18.513  1.00  0.00    -0.132 NA
ATOM     68  N   UNL     1       5.788  29.457  20.552  1.00  0.00    -0.251 N 
ATOM     69  N   UNL     1       5.070  28.752  19.698  1.00  0.00    -0.067 NA
BRANCH  68  70
ATOM     70  C   UNL     1       5.989  29.105  21.971  1.00  0.00     0.162 C 
BRANCH  70  71
ATOM     71  C   UNL     1       5.795  30.314  22.826  1.00  0.00     0.132 C 
BRANCH  71  72
ATOM     72  C   UNL     1       4.342  30.603  23.017  1.00  0.00     0.309 C 
ATOM     73  O   UNL     1       3.689  31.323  22.244  1.00  0.00    -0.252 OA
BRANCH  72  74
ATOM     74  O   UNL     1       3.677  30.050  24.098  1.00  0.00    -0.481 OA
ATOM     75  H   UNL     1       3.911  30.361  25.045  1.00  0.00     0.296 HD
ENDBRANCH  72  74
ENDBRANCH  71  72
BRANCH  71  76
ATOM     76  C   UNL     1       6.570  30.413  24.086  1.00  0.00     0.065 C 
BRANCH  76  77
ATOM     77  C   UNL     1       7.131  29.180  24.642  1.00  0.00    -0.040 A 
ATOM     78  C   UNL     1       6.367  28.349  25.475  1.00  0.00     0.004 A 
ATOM     79  C   UNL     1       8.437  28.745  24.404  1.00  0.00     0.004 A 
ATOM     80  C   UNL     1       6.846  27.200  26.017  1.00  0.00     0.000 A 
ATOM     81  C   UNL     1       8.912  27.581  24.958  1.00  0.00     0.000 A 
ATOM     82  C   UNL     1       8.122  26.795  25.772  1.00  0.00     0.000 A 
ENDBRANCH  76  77
BRANCH  76  83
ATOM     83  C   UNL     1       7.475  31.592  24.141  1.00  0.00    -0.040 A 
ATOM     84  C   UNL     1       7.961  32.058  22.937  1.00  0.00     0.004 A 
ATOM     85  C   UNL     1       7.817  32.211  25.313  1.00  0.00     0.004 A 
ATOM     86  C   UNL     1       8.789  33.143  22.890  1.00  0.00     0.000 A 
ATOM     87  C   UNL     1       8.661  33.316  25.249  1.00  0.00     0.000 A 
ATOM     88  C   UNL     1       9.150  33.786  24.051  1.00  0.00     0.000 A 
ENDBRANCH  76  83
ENDBRANCH  71  76
ENDBRANCH  70  71
ENDBRANCH  68  70
ENDBRANCH  64  65
ENDBRANCH  63  64
ENDBRANCH  60  63
ENDBRANCH  58  59
ENDBRANCH  55  58
ENDBRANCH   1  55
TORSDOF 36
