REMARK VINA RESULT:    -7.177      1.826      2.547
REMARK INTER + INTRA:         -23.204
REMARK INTER:                 -15.791
REMARK INTRA:                  -7.413
REMARK UNBOUND:                -5.539
REMARK SMILES CC(=O)N[C@@H]1[C@@H](O)C[C@](OC[C@H]2O[C@@H](O[C@H]3[C@H](O)[C@@H](O)[C@H](OCCN=[N+]=[N-])O[C@@H]3CO)[C@H](O)[C@@H](O)[C@H]2O)(C(=O)O)O[C@H]1C(O)[C@H](O)CNC(=O)OCc1cn(-c2c3ccccc3nc3ccccc23)nn1
REMARK SMILES IDX 9 1 8 2 6 3 5 4 42 5 41 6 10 7 11 8 12 9 14 10 13 11 32 12
REMARK SMILES IDX 34 13 36 14 15 15 16 16 29 17 28 18 21 19 17 20 19 21 30 22
REMARK SMILES IDX 31 23 22 25 23 26 24 27 25 28 26 29 27 30 18 31 20 33 33 35
REMARK SMILES IDX 35 37 37 39 38 41 39 42 40 43 7 45 43 47 44 48 45 50 46 51
REMARK SMILES IDX 47 53 48 54 49 55 50 57 51 58 52 59 53 60 54 61 71 62 55 63
REMARK SMILES IDX 70 64 56 65 57 66 69 67 58 68 62 69 64 70 68 71 59 72 61 73
REMARK SMILES IDX 63 74 65 75 67 76 60 77 66 78 4 79 2 80 1 82 3 83
REMARK H PARENT 31 24 18 32 20 34 33 36 35 38 37 40 40 44 7 46 44 49 46 52
REMARK H PARENT 48 56 4 81
REMARK Flexibility Score: inf
ROOT
ATOM      1  C   UNL     1       2.300  22.084  34.930  1.00  0.00     0.272 C 
ATOM      2  C   UNL     1       3.188  21.175  35.914  1.00  0.00     0.113 C 
ATOM      3  C   UNL     1       2.994  19.801  35.386  1.00  0.00     0.145 C 
ATOM      4  C   UNL     1       3.322  19.633  33.917  1.00  0.00     0.142 C 
ATOM      5  C   UNL     1       3.164  20.855  33.113  1.00  0.00     0.178 C 
ATOM      6  O   UNL     1       2.957  22.017  33.775  1.00  0.00    -0.332 OA
ENDROOT
BRANCH   1   7
ATOM      7  O   UNL     1       2.529  23.326  35.526  1.00  0.00    -0.338 OA
BRANCH   7   8
ATOM      8  C   UNL     1       1.790  24.368  35.079  1.00  0.00     0.199 C 
BRANCH   8   9
ATOM      9  C   UNL     1       2.540  25.611  34.792  1.00  0.00     0.179 C 
ATOM     10  C   UNL     1       4.569  26.742  35.020  1.00  0.00     0.282 C 
ATOM     11  O   UNL     1       3.799  25.599  35.327  1.00  0.00    -0.341 OA
ATOM     12  C   UNL     1       3.815  27.827  34.374  1.00  0.00     0.202 C 
ATOM     13  C   UNL     1       3.044  27.346  33.167  1.00  0.00     0.179 C 
ATOM     14  C   UNL     1       2.590  25.929  33.295  1.00  0.00     0.177 C 
BRANCH  10  15
ATOM     15  O   UNL     1       5.706  26.364  34.320  1.00  0.00    -0.341 OA
BRANCH  15  16
ATOM     16  C   UNL     1       6.547  25.510  35.072  1.00  0.00     0.184 C 
ATOM     17  C   UNL     1       7.849  26.165  35.301  1.00  0.00     0.178 C 
ATOM     18  O   UNL     1       8.894  25.257  35.616  1.00  0.00    -0.341 OA
ATOM     19  C   UNL     1       9.075  24.459  34.493  1.00  0.00     0.281 C 
ATOM     20  C   UNL     1       6.687  24.264  34.183  1.00  0.00     0.180 C 
ATOM     21  C   UNL     1       7.908  23.459  34.532  1.00  0.00     0.202 C 
BRANCH  17  22
ATOM     22  C   UNL     1       7.785  27.151  36.458  1.00  0.00     0.191 C 
BRANCH  22  23
ATOM     23  O   UNL     1       8.210  26.623  37.650  1.00  0.00    -0.394 OA
ATOM     24  H   UNL     1       7.418  26.376  38.194  1.00  0.00     0.210 HD
ENDBRANCH  22  23
ENDBRANCH  17  22
BRANCH  19  25
ATOM     25  O   UNL     1      10.299  23.849  34.598  1.00  0.00    -0.350 OA
BRANCH  25  26
ATOM     26  C   UNL     1      10.834  23.848  35.883  1.00  0.00     0.169 C 
BRANCH  26  27
ATOM     27  C   UNL     1      10.843  22.465  36.497  1.00  0.00     0.119 C 
BRANCH  27  28
ATOM     28  N   UNL     1      10.334  22.599  37.858  1.00  0.00    -0.092 NA
ATOM     29  N   UNL     1       9.204  23.054  38.065  1.00  0.00     0.001 N 
ATOM     30  N   UNL     1       8.062  23.437  38.325  1.00  0.00    -0.003 NA
ENDBRANCH  27  28
ENDBRANCH  26  27
ENDBRANCH  25  26
ENDBRANCH  19  25
BRANCH  20  31
ATOM     31  O   UNL     1       5.520  23.519  34.230  1.00  0.00    -0.387 OA
ATOM     32  H   UNL     1       5.445  22.867  33.490  1.00  0.00     0.211 HD
ENDBRANCH  20  31
BRANCH  21  33
ATOM     33  O   UNL     1       8.080  22.458  33.604  1.00  0.00    -0.385 OA
ATOM     34  H   UNL     1       7.884  21.589  34.068  1.00  0.00     0.211 HD
ENDBRANCH  21  33
ENDBRANCH  15  16
ENDBRANCH  10  15
BRANCH  12  35
ATOM     35  O   UNL     1       2.993  28.488  35.299  1.00  0.00    -0.385 OA
ATOM     36  H   UNL     1       3.351  28.232  36.201  1.00  0.00     0.211 HD
ENDBRANCH  12  35
BRANCH  13  37
ATOM     37  O   UNL     1       3.869  27.523  32.040  1.00  0.00    -0.387 OA
ATOM     38  H   UNL     1       3.533  26.854  31.362  1.00  0.00     0.211 HD
ENDBRANCH  13  37
BRANCH  14  39
ATOM     39  O   UNL     1       3.371  25.034  32.593  1.00  0.00    -0.387 OA
ATOM     40  H   UNL     1       3.895  24.431  33.179  1.00  0.00     0.211 HD
ENDBRANCH  14  39
ENDBRANCH   8   9
ENDBRANCH   7   8
ENDBRANCH   1   7
BRANCH   1  41
ATOM     41  C   UNL     1       0.985  21.573  35.131  1.00  0.00     0.364 C 
ATOM     42  O   UNL     1       0.619  21.134  36.269  1.00  0.00    -0.246 OA
BRANCH  41  43
ATOM     43  O   UNL     1      -0.025  21.494  34.165  1.00  0.00    -0.477 OA
ATOM     44  H   UNL     1      -0.599  20.661  34.131  1.00  0.00     0.296 HD
ENDBRANCH  41  43
ENDBRANCH   1  41
BRANCH   3  45
ATOM     45  O   UNL     1       3.814  18.951  36.167  1.00  0.00    -0.391 OA
ATOM     46  H   UNL     1       3.616  19.107  37.127  1.00  0.00     0.211 HD
ENDBRANCH   3  45
BRANCH   5  47
ATOM     47  C   UNL     1       4.413  21.122  32.228  1.00  0.00     0.176 C 
BRANCH  47  48
ATOM     48  O   UNL     1       5.553  21.053  32.973  1.00  0.00    -0.388 OA
ATOM     49  H   UNL     1       5.443  21.358  33.927  1.00  0.00     0.211 HD
ENDBRANCH  47  48
BRANCH  47  50
ATOM     50  C   UNL     1       4.361  20.468  30.924  1.00  0.00     0.165 C 
BRANCH  50  51
ATOM     51  O   UNL     1       5.538  20.456  30.172  1.00  0.00    -0.388 OA
ATOM     52  H   UNL     1       5.825  21.370  29.925  1.00  0.00     0.211 HD
ENDBRANCH  50  51
BRANCH  50  53
ATOM     53  C   UNL     1       3.132  20.585  30.108  1.00  0.00     0.154 C 
BRANCH  53  54
ATOM     54  N   UNL     1       2.956  21.685  29.235  1.00  0.00    -0.319 N 
ATOM     55  C   UNL     1       2.368  22.920  29.581  1.00  0.00     0.407 C 
ATOM     56  H   UNL     1       3.302  21.577  28.209  1.00  0.00     0.167 HD
ATOM     57  O   UNL     1       1.902  23.195  30.697  1.00  0.00    -0.225 OA
BRANCH  55  58
ATOM     58  O   UNL     1       2.275  23.959  28.634  1.00  0.00    -0.443 OA
BRANCH  58  59
ATOM     59  C   UNL     1       1.972  25.297  28.987  1.00  0.00     0.294 C 
BRANCH  59  60
ATOM     60  C   UNL     1       3.222  26.111  28.961  1.00  0.00     0.121 A 
ATOM     61  C   UNL     1       3.539  27.163  28.128  1.00  0.00     0.144 A 
ATOM     62  N   UNL     1       4.294  25.956  29.751  1.00  0.00    -0.131 NA
ATOM     63  N   UNL     1       4.777  27.626  28.416  1.00  0.00    -0.219 N 
ATOM     64  N   UNL     1       5.211  26.869  29.410  1.00  0.00    -0.062 NA
BRANCH  63  65
ATOM     65  C   UNL     1       5.461  28.712  27.764  1.00  0.00     0.085 A 
ATOM     66  C   UNL     1       6.160  28.485  26.588  1.00  0.00     0.027 A 
ATOM     67  C   UNL     1       5.453  29.991  28.270  1.00  0.00     0.027 A 
ATOM     68  C   UNL     1       6.204  27.226  26.029  1.00  0.00     0.012 A 
ATOM     69  C   UNL     1       6.841  29.501  25.921  1.00  0.00     0.073 A 
ATOM     70  C   UNL     1       6.138  30.966  27.580  1.00  0.00     0.073 A 
ATOM     71  C   UNL     1       4.785  30.286  29.422  1.00  0.00     0.012 A 
ATOM     72  C   UNL     1       6.897  27.000  24.860  1.00  0.00     0.001 A 
ATOM     73  C   UNL     1       7.533  29.271  24.752  1.00  0.00     0.029 A 
ATOM     74  N   UNL     1       6.814  30.734  26.441  1.00  0.00    -0.248 NA
ATOM     75  C   UNL     1       6.154  32.261  28.057  1.00  0.00     0.029 A 
ATOM     76  C   UNL     1       4.816  31.597  29.879  1.00  0.00     0.001 A 
ATOM     77  C   UNL     1       7.578  28.016  24.194  1.00  0.00     0.002 A 
ATOM     78  C   UNL     1       5.489  32.604  29.220  1.00  0.00     0.002 A 
ENDBRANCH  63  65
ENDBRANCH  59  60
ENDBRANCH  58  59
ENDBRANCH  55  58
ENDBRANCH  53  54
ENDBRANCH  50  53
ENDBRANCH  47  50
ENDBRANCH   5  47
BRANCH   4  79
ATOM     79  N   UNL     1       2.598  18.492  33.403  1.00  0.00    -0.348 N 
ATOM     80  C   UNL     1       1.397  18.577  32.637  1.00  0.00     0.217 C 
ATOM     81  H   UNL     1       2.935  17.518  33.584  1.00  0.00     0.163 HD
ATOM     82  C   UNL     1       0.735  17.315  32.164  1.00  0.00     0.114 C 
ATOM     83  O   UNL     1       0.945  19.706  32.391  1.00  0.00    -0.275 OA
ENDBRANCH   4  79
TORSDOF 30
