REMARK VINA RESULT:    -5.900      4.403     11.692
REMARK INTER + INTRA:         -23.498
REMARK INTER:                 -15.364
REMARK INTRA:                  -8.133
REMARK UNBOUND:                -8.458
REMARK SMILES CC(=O)N[C@@H]1[C@@H](O)C[C@](OC[C@H]2O[C@@H](O[C@H]3[C@H](O)[C@@H](O)[C@H](OCCN=[N+]=[N-])O[C@@H]3CO)[C@H](O)[C@@H](O)[C@H]2O)(C(=O)O)O[C@H]1C(O)[C@H](O)CNC(=O)OCc1cn(-c2ccc(O)c([N+](=O)[O-])c2)nn1
REMARK SMILES IDX 9 1 8 2 6 3 5 4 42 5 41 6 10 7 11 8 12 9 14 10 13 11 32 12
REMARK SMILES IDX 34 13 36 14 15 15 16 16 29 17 28 18 21 19 17 20 19 21 30 22
REMARK SMILES IDX 31 23 22 25 23 26 24 27 25 28 26 29 27 30 18 31 20 33 33 35
REMARK SMILES IDX 35 37 37 39 38 41 39 42 40 43 7 45 43 47 44 48 45 50 46 51
REMARK SMILES IDX 47 53 48 54 49 55 50 57 51 58 52 59 53 60 54 61 67 62 55 63
REMARK SMILES IDX 66 64 56 65 57 66 65 67 58 68 61 69 59 70 62 71 63 72 64 73
REMARK SMILES IDX 60 74 4 76 2 77 1 79 3 80
REMARK H PARENT 31 24 18 32 20 34 33 36 35 38 37 40 40 44 7 46 44 49 46 52
REMARK H PARENT 48 56 60 75 4 78
REMARK Flexibility Score: inf
ROOT
ATOM      1  C   UNL     1      22.845  25.175  23.189  1.00  0.00     0.272 C 
ATOM      2  C   UNL     1      22.885  23.984  22.212  1.00  0.00     0.113 C 
ATOM      3  C   UNL     1      24.285  23.885  21.615  1.00  0.00     0.145 C 
ATOM      4  C   UNL     1      24.404  25.146  20.720  1.00  0.00     0.142 C 
ATOM      5  C   UNL     1      23.802  26.325  21.433  1.00  0.00     0.178 C 
ATOM      6  O   UNL     1      23.785  26.113  22.824  1.00  0.00    -0.332 OA
ENDROOT
BRANCH   1   7
ATOM      7  O   UNL     1      23.190  24.633  24.413  1.00  0.00    -0.338 OA
BRANCH   7   8
ATOM      8  C   UNL     1      22.482  25.056  25.496  1.00  0.00     0.199 C 
BRANCH   8   9
ATOM      9  C   UNL     1      23.471  25.907  26.331  1.00  0.00     0.179 C 
ATOM     10  C   UNL     1      23.388  27.843  27.509  1.00  0.00     0.282 C 
ATOM     11  O   UNL     1      22.898  27.140  26.405  1.00  0.00    -0.341 OA
ATOM     12  C   UNL     1      22.782  27.225  28.721  1.00  0.00     0.202 C 
ATOM     13  C   UNL     1      23.275  25.807  28.849  1.00  0.00     0.179 C 
ATOM     14  C   UNL     1      23.762  25.192  27.590  1.00  0.00     0.177 C 
BRANCH  10  15
ATOM     15  O   UNL     1      23.102  29.207  27.361  1.00  0.00    -0.341 OA
BRANCH  15  16
ATOM     16  C   UNL     1      22.329  29.373  26.229  1.00  0.00     0.184 C 
ATOM     17  C   UNL     1      22.928  30.222  25.161  1.00  0.00     0.178 C 
ATOM     18  O   UNL     1      22.174  30.035  24.010  1.00  0.00    -0.341 OA
ATOM     19  C   UNL     1      20.897  30.654  24.152  1.00  0.00     0.281 C 
ATOM     20  C   UNL     1      21.007  30.089  26.613  1.00  0.00     0.180 C 
ATOM     21  C   UNL     1      20.175  30.121  25.333  1.00  0.00     0.202 C 
BRANCH  17  22
ATOM     22  C   UNL     1      24.369  29.978  24.864  1.00  0.00     0.191 C 
BRANCH  22  23
ATOM     23  O   UNL     1      24.581  28.677  24.442  1.00  0.00    -0.394 OA
ATOM     24  H   UNL     1      25.504  28.407  24.748  1.00  0.00     0.210 HD
ENDBRANCH  22  23
ENDBRANCH  17  22
BRANCH  19  25
ATOM     25  O   UNL     1      20.240  30.300  22.979  1.00  0.00    -0.350 OA
BRANCH  25  26
ATOM     26  C   UNL     1      19.802  31.380  22.238  1.00  0.00     0.169 C 
BRANCH  26  27
ATOM     27  C   UNL     1      20.619  32.607  22.501  1.00  0.00     0.119 C 
BRANCH  27  28
ATOM     28  N   UNL     1      21.688  32.665  21.506  1.00  0.00    -0.092 NA
ATOM     29  N   UNL     1      21.499  32.162  20.376  1.00  0.00     0.001 N 
ATOM     30  N   UNL     1      21.356  32.123  19.141  1.00  0.00    -0.003 NA
ENDBRANCH  27  28
ENDBRANCH  26  27
ENDBRANCH  25  26
ENDBRANCH  19  25
BRANCH  20  31
ATOM     31  O   UNL     1      20.300  29.350  27.548  1.00  0.00    -0.387 OA
ATOM     32  H   UNL     1      20.676  29.444  28.465  1.00  0.00     0.211 HD
ENDBRANCH  20  31
BRANCH  21  33
ATOM     33  O   UNL     1      19.083  30.930  25.636  1.00  0.00    -0.385 OA
ATOM     34  H   UNL     1      19.259  31.869  25.433  1.00  0.00     0.211 HD
ENDBRANCH  21  33
ENDBRANCH  15  16
ENDBRANCH  10  15
BRANCH  12  35
ATOM     35  O   UNL     1      23.049  27.927  29.892  1.00  0.00    -0.385 OA
ATOM     36  H   UNL     1      22.514  28.771  29.934  1.00  0.00     0.211 HD
ENDBRANCH  12  35
BRANCH  13  37
ATOM     37  O   UNL     1      22.264  25.083  29.492  1.00  0.00    -0.387 OA
ATOM     38  H   UNL     1      21.584  24.864  28.799  1.00  0.00     0.211 HD
ENDBRANCH  13  37
BRANCH  14  39
ATOM     39  O   UNL     1      23.324  23.851  27.559  1.00  0.00    -0.387 OA
ATOM     40  H   UNL     1      22.408  23.763  27.221  1.00  0.00     0.211 HD
ENDBRANCH  14  39
ENDBRANCH   8   9
ENDBRANCH   7   8
ENDBRANCH   1   7
BRANCH   1  41
ATOM     41  C   UNL     1      21.455  25.616  23.217  1.00  0.00     0.364 C 
ATOM     42  O   UNL     1      21.054  26.792  23.426  1.00  0.00    -0.246 OA
BRANCH  41  43
ATOM     43  O   UNL     1      20.441  24.683  22.993  1.00  0.00    -0.477 OA
ATOM     44  H   UNL     1      19.805  24.377  23.722  1.00  0.00     0.296 HD
ENDBRANCH  41  43
ENDBRANCH   1  41
BRANCH   3  45
ATOM     45  O   UNL     1      25.251  23.893  22.586  1.00  0.00    -0.391 OA
ATOM     46  H   UNL     1      25.905  23.176  22.403  1.00  0.00     0.211 HD
ENDBRANCH   3  45
BRANCH   5  47
ATOM     47  C   UNL     1      24.663  27.542  21.202  1.00  0.00     0.176 C 
BRANCH  47  48
ATOM     48  O   UNL     1      25.435  27.316  20.074  1.00  0.00    -0.388 OA
ATOM     49  H   UNL     1      26.401  27.248  20.278  1.00  0.00     0.211 HD
ENDBRANCH  47  48
BRANCH  47  50
ATOM     50  C   UNL     1      23.888  28.823  21.020  1.00  0.00     0.165 C 
BRANCH  50  51
ATOM     51  O   UNL     1      22.704  28.629  21.781  1.00  0.00    -0.388 OA
ATOM     52  H   UNL     1      22.578  27.665  22.005  1.00  0.00     0.211 HD
ENDBRANCH  50  51
BRANCH  50  53
ATOM     53  C   UNL     1      23.440  29.009  19.599  1.00  0.00     0.154 C 
BRANCH  53  54
ATOM     54  N   UNL     1      22.003  28.995  19.523  1.00  0.00    -0.319 N 
ATOM     55  C   UNL     1      21.220  28.000  18.902  1.00  0.00     0.407 C 
ATOM     56  H   UNL     1      21.457  29.795  19.969  1.00  0.00     0.167 HD
ATOM     57  O   UNL     1      21.812  27.054  18.366  1.00  0.00    -0.225 OA
BRANCH  55  58
ATOM     58  O   UNL     1      19.846  28.004  18.851  1.00  0.00    -0.443 OA
BRANCH  58  59
ATOM     59  C   UNL     1      19.114  29.171  19.127  1.00  0.00     0.294 C 
BRANCH  59  60
ATOM     60  C   UNL     1      17.812  28.768  19.736  1.00  0.00     0.121 A 
ATOM     61  C   UNL     1      17.095  29.493  20.693  1.00  0.00     0.144 A 
ATOM     62  N   UNL     1      17.057  27.679  19.540  1.00  0.00    -0.131 NA
ATOM     63  N   UNL     1      15.993  28.822  21.004  1.00  0.00    -0.220 N 
ATOM     64  N   UNL     1      16.004  27.715  20.277  1.00  0.00    -0.062 NA
BRANCH  63  65
ATOM     65  C   UNL     1      14.985  29.216  21.952  1.00  0.00     0.073 A 
ATOM     66  C   UNL     1      13.661  29.137  21.641  1.00  0.00     0.033 A 
ATOM     67  C   UNL     1      15.314  29.679  23.197  1.00  0.00     0.118 A 
ATOM     68  C   UNL     1      12.662  29.498  22.513  1.00  0.00     0.056 A 
ATOM     69  C   UNL     1      14.311  30.057  24.112  1.00  0.00     0.312 A 
ATOM     70  C   UNL     1      12.979  29.978  23.804  1.00  0.00     0.194 A 
BRANCH  69  71
ATOM     71  N   UNL     1      14.737  30.518  25.369  1.00  0.00     0.066 N 
ATOM     72  O   UNL     1      13.839  30.903  26.182  1.00  0.00    -0.258 OA
ATOM     73  O   UNL     1      16.049  30.560  25.715  1.00  0.00    -0.258 OA
ENDBRANCH  69  71
BRANCH  70  74
ATOM     74  O   UNL     1      11.934  30.325  24.643  1.00  0.00    -0.502 OA
ATOM     75  H   UNL     1      11.067  29.891  24.626  1.00  0.00     0.293 HD
ENDBRANCH  70  74
ENDBRANCH  63  65
ENDBRANCH  59  60
ENDBRANCH  58  59
ENDBRANCH  55  58
ENDBRANCH  53  54
ENDBRANCH  50  53
ENDBRANCH  47  50
ENDBRANCH   5  47
BRANCH   4  76
ATOM     76  N   UNL     1      23.678  24.792  19.516  1.00  0.00    -0.348 N 
ATOM     77  C   UNL     1      24.354  24.626  18.263  1.00  0.00     0.217 C 
ATOM     78  H   UNL     1      22.652  24.651  19.530  1.00  0.00     0.163 HD
ATOM     79  C   UNL     1      23.592  24.264  17.044  1.00  0.00     0.114 C 
ATOM     80  O   UNL     1      25.610  24.794  18.227  1.00  0.00    -0.275 OA
ENDBRANCH   4  76
TORSDOF 32
