REMARK VINA RESULT:    -5.737      3.338      7.117
REMARK INTER + INTRA:         -21.541
REMARK INTER:                 -16.975
REMARK INTRA:                  -4.566
REMARK UNBOUND:                -7.419
REMARK SMILES CC(=O)N[C@@H]1[C@@H](O)C[C@](OC[C@H]2O[C@@H](O[C@H]3[C@H](O)[C@@H](O)[C@H](OCCN=[N+]=[N-])O[C@@H]3CO)[C@H](O)[C@@H](O)[C@H]2O)(C(=O)O)O[C@H]1C(O)[C@H](O)CNC(=O)OCc1cn(-c2ccc(C)cc2)nn1
REMARK SMILES IDX 9 1 8 2 6 3 5 4 42 5 41 6 10 7 11 8 12 9 14 10 13 11 32 12
REMARK SMILES IDX 34 13 36 14 15 15 16 16 29 17 28 18 21 19 17 20 19 21 30 22
REMARK SMILES IDX 31 23 22 25 23 26 24 27 25 28 26 29 27 30 18 31 20 33 33 35
REMARK SMILES IDX 35 37 37 39 38 41 39 42 40 43 7 45 43 47 44 48 45 50 46 51
REMARK SMILES IDX 47 53 48 54 49 55 50 57 51 58 52 59 53 60 54 61 64 62 55 63
REMARK SMILES IDX 63 64 56 65 57 66 62 67 58 68 61 69 59 70 60 71 4 72 2 73
REMARK SMILES IDX 1 75 3 76
REMARK H PARENT 31 24 18 32 20 34 33 36 35 38 37 40 40 44 7 46 44 49 46 52
REMARK H PARENT 48 56 4 74
REMARK Flexibility Score: inf
ROOT
ATOM      1  C   UNL     1      24.992  19.097  12.981  1.00  0.00     0.272 C 
ATOM      2  C   UNL     1      24.972  20.067  11.806  1.00  0.00     0.113 C 
ATOM      3  C   UNL     1      23.607  20.568  11.524  1.00  0.00     0.145 C 
ATOM      4  C   UNL     1      22.718  20.709  12.708  1.00  0.00     0.142 C 
ATOM      5  C   UNL     1      23.369  20.473  14.067  1.00  0.00     0.178 C 
ATOM      6  O   UNL     1      24.281  19.474  14.018  1.00  0.00    -0.332 OA
ENDROOT
BRANCH   1   7
ATOM      7  O   UNL     1      26.364  19.085  13.383  1.00  0.00    -0.338 OA
BRANCH   7   8
ATOM      8  C   UNL     1      26.995  20.188  12.805  1.00  0.00     0.199 C 
BRANCH   8   9
ATOM      9  C   UNL     1      28.179  20.634  13.576  1.00  0.00     0.179 C 
ATOM     10  C   UNL     1      28.933  21.246  15.652  1.00  0.00     0.282 C 
ATOM     11  O   UNL     1      27.915  20.613  14.946  1.00  0.00    -0.341 OA
ATOM     12  C   UNL     1      30.170  20.432  15.613  1.00  0.00     0.202 C 
ATOM     13  C   UNL     1      30.072  19.371  14.551  1.00  0.00     0.179 C 
ATOM     14  C   UNL     1      29.434  19.863  13.269  1.00  0.00     0.177 C 
BRANCH  10  15
ATOM     15  O   UNL     1      28.534  21.422  16.974  1.00  0.00    -0.341 OA
BRANCH  15  16
ATOM     16  C   UNL     1      29.410  20.794  17.861  1.00  0.00     0.184 C 
ATOM     17  C   UNL     1      28.773  19.741  18.722  1.00  0.00     0.178 C 
ATOM     18  O   UNL     1      28.850  20.104  20.071  1.00  0.00    -0.341 OA
ATOM     19  C   UNL     1      28.100  21.248  20.277  1.00  0.00     0.281 C 
ATOM     20  C   UNL     1      29.924  21.888  18.771  1.00  0.00     0.180 C 
ATOM     21  C   UNL     1      28.689  22.419  19.514  1.00  0.00     0.202 C 
BRANCH  17  22
ATOM     22  C   UNL     1      29.573  18.430  18.636  1.00  0.00     0.191 C 
BRANCH  22  23
ATOM     23  O   UNL     1      29.748  17.881  19.904  1.00  0.00    -0.394 OA
ATOM     24  H   UNL     1      29.272  18.487  20.547  1.00  0.00     0.210 HD
ENDBRANCH  22  23
ENDBRANCH  17  22
BRANCH  19  25
ATOM     25  O   UNL     1      27.975  21.571  21.619  1.00  0.00    -0.350 OA
BRANCH  25  26
ATOM     26  C   UNL     1      28.761  20.810  22.447  1.00  0.00     0.169 C 
BRANCH  26  27
ATOM     27  C   UNL     1      29.817  21.566  23.201  1.00  0.00     0.119 C 
BRANCH  27  28
ATOM     28  N   UNL     1      30.669  20.686  23.965  1.00  0.00    -0.092 NA
ATOM     29  N   UNL     1      30.836  20.878  25.157  1.00  0.00     0.001 N 
ATOM     30  N   UNL     1      30.942  21.004  26.378  1.00  0.00    -0.003 NA
ENDBRANCH  27  28
ENDBRANCH  26  27
ENDBRANCH  25  26
ENDBRANCH  19  25
BRANCH  20  31
ATOM     31  O   UNL     1      30.865  21.435  19.684  1.00  0.00    -0.387 OA
ATOM     32  H   UNL     1      30.570  20.541  19.985  1.00  0.00     0.211 HD
ENDBRANCH  20  31
BRANCH  21  33
ATOM     33  O   UNL     1      27.772  22.744  18.495  1.00  0.00    -0.385 OA
ATOM     34  H   UNL     1      27.710  23.714  18.339  1.00  0.00     0.211 HD
ENDBRANCH  21  33
ENDBRANCH  15  16
ENDBRANCH  10  15
BRANCH  12  35
ATOM     35  O   UNL     1      31.319  21.222  15.418  1.00  0.00    -0.385 OA
ATOM     36  H   UNL     1      30.978  22.173  15.474  1.00  0.00     0.211 HD
ENDBRANCH  12  35
BRANCH  13  37
ATOM     37  O   UNL     1      29.482  18.251  15.081  1.00  0.00    -0.387 OA
ATOM     38  H   UNL     1      30.124  17.629  15.550  1.00  0.00     0.211 HD
ENDBRANCH  13  37
BRANCH  14  39
ATOM     39  O   UNL     1      29.090  18.772  12.493  1.00  0.00    -0.387 OA
ATOM     40  H   UNL     1      28.956  17.939  12.989  1.00  0.00     0.211 HD
ENDBRANCH  14  39
ENDBRANCH   8   9
ENDBRANCH   7   8
ENDBRANCH   1   7
BRANCH   1  41
ATOM     41  C   UNL     1      24.626  17.787  12.406  1.00  0.00     0.364 C 
ATOM     42  O   UNL     1      25.434  17.044  11.805  1.00  0.00    -0.246 OA
BRANCH  41  43
ATOM     43  O   UNL     1      23.292  17.362  12.555  1.00  0.00    -0.477 OA
ATOM     44  H   UNL     1      22.601  17.682  11.875  1.00  0.00     0.296 HD
ENDBRANCH  41  43
ENDBRANCH   1  41
BRANCH   3  45
ATOM     45  O   UNL     1      23.659  21.743  10.740  1.00  0.00    -0.391 OA
ATOM     46  H   UNL     1      24.358  21.551  10.036  1.00  0.00     0.211 HD
ENDBRANCH   3  45
BRANCH   5  47
ATOM     47  C   UNL     1      23.931  21.787  14.570  1.00  0.00     0.176 C 
BRANCH  47  48
ATOM     48  O   UNL     1      25.177  21.677  15.169  1.00  0.00    -0.388 OA
ATOM     49  H   UNL     1      25.732  22.398  14.771  1.00  0.00     0.211 HD
ENDBRANCH  47  48
BRANCH  47  50
ATOM     50  C   UNL     1      23.781  22.998  13.779  1.00  0.00     0.165 C 
BRANCH  50  51
ATOM     51  O   UNL     1      24.959  23.737  13.544  1.00  0.00    -0.388 OA
ATOM     52  H   UNL     1      25.443  23.365  12.760  1.00  0.00     0.211 HD
ENDBRANCH  50  51
BRANCH  50  53
ATOM     53  C   UNL     1      22.692  23.979  14.039  1.00  0.00     0.154 C 
BRANCH  53  54
ATOM     54  N   UNL     1      22.328  24.120  15.424  1.00  0.00    -0.319 N 
ATOM     55  C   UNL     1      23.049  24.993  16.291  1.00  0.00     0.407 C 
ATOM     56  H   UNL     1      21.524  23.578  15.816  1.00  0.00     0.167 HD
ATOM     57  O   UNL     1      24.006  25.658  15.824  1.00  0.00    -0.225 OA
BRANCH  55  58
ATOM     58  O   UNL     1      22.692  25.090  17.619  1.00  0.00    -0.443 OA
BRANCH  58  59
ATOM     59  C   UNL     1      23.475  24.624  18.664  1.00  0.00     0.294 C 
BRANCH  59  60
ATOM     60  C   UNL     1      22.849  24.881  19.963  1.00  0.00     0.121 A 
ATOM     61  C   UNL     1      23.422  24.634  21.225  1.00  0.00     0.144 A 
ATOM     62  N   UNL     1      21.651  25.379  20.231  1.00  0.00    -0.131 NA
ATOM     63  N   UNL     1      22.544  24.995  22.160  1.00  0.00    -0.220 N 
ATOM     64  N   UNL     1      21.475  25.444  21.536  1.00  0.00    -0.062 NA
BRANCH  63  65
ATOM     65  C   UNL     1      22.782  24.880  23.574  1.00  0.00     0.066 A 
ATOM     66  C   UNL     1      21.722  24.879  24.453  1.00  0.00     0.029 A 
ATOM     67  C   UNL     1      24.053  24.755  24.094  1.00  0.00     0.029 A 
ATOM     68  C   UNL     1      21.942  24.753  25.828  1.00  0.00     0.005 A 
ATOM     69  C   UNL     1      24.275  24.628  25.471  1.00  0.00     0.005 A 
ATOM     70  C   UNL     1      23.212  24.627  26.344  1.00  0.00    -0.051 A 
ATOM     71  C   UNL     1      23.447  24.480  27.816  1.00  0.00     0.044 C 
ENDBRANCH  63  65
ENDBRANCH  59  60
ENDBRANCH  58  59
ENDBRANCH  55  58
ENDBRANCH  53  54
ENDBRANCH  50  53
ENDBRANCH  47  50
ENDBRANCH   5  47
BRANCH   4  72
ATOM     72  N   UNL     1      21.468  19.987  12.561  1.00  0.00    -0.348 N 
ATOM     73  C   UNL     1      20.311  20.527  11.921  1.00  0.00     0.217 C 
ATOM     74  H   UNL     1      21.363  19.023  12.935  1.00  0.00     0.163 HD
ATOM     75  C   UNL     1      19.043  19.742  11.805  1.00  0.00     0.114 C 
ATOM     76  O   UNL     1      20.441  21.692  11.470  1.00  0.00    -0.275 OA
ENDBRANCH   4  72
TORSDOF 30
