REMARK VINA RESULT:    -6.142      1.940      3.883
REMARK INTER + INTRA:         -26.058
REMARK INTER:                 -17.066
REMARK INTRA:                  -8.992
REMARK UNBOUND:                -8.963
REMARK SMILES CC(=O)N[C@@H]1[C@@H](O)C[C@](OC[C@H]2O[C@@H](O[C@H]3[C@H](O)[C@@H](O)[C@H](OCCN=[N+]=[N-])O[C@@H]3CO)[C@H](O)[C@@H](O)[C@H]2O)(C(=O)O)O[C@H]1C(O)[C@H](O)CNC(=O)OCc1cn(C[C@@H](C(=O)O)C(c2ccccc2)c2ccccc2)nn1
REMARK SMILES IDX 43 1 42 2 9 3 8 4 41 5 6 6 5 7 10 8 11 9 12 10 14 11 13 12
REMARK SMILES IDX 32 13 34 14 36 15 15 16 16 17 29 18 28 19 21 20 17 21 19 22
REMARK SMILES IDX 30 23 31 24 22 26 23 27 24 28 25 29 26 30 27 31 18 32 20 34
REMARK SMILES IDX 33 36 35 38 37 40 38 42 39 43 40 44 7 46 4 48 2 49 1 51 3 52
REMARK SMILES IDX 44 53 45 55 46 56 47 58 48 59 49 60 50 62 51 63 52 64 53 65
REMARK SMILES IDX 54 66 75 67 55 68 74 69 56 70 57 71 58 72 59 73 60 74 61 76
REMARK SMILES IDX 62 77 63 78 67 79 64 80 66 81 65 82 68 83 69 84 73 85 70 86
REMARK SMILES IDX 72 87 71 88
REMARK H PARENT 31 25 18 33 20 35 33 37 35 39 37 41 40 45 7 47 4 50 44 54
REMARK H PARENT 46 57 48 61 60 75
REMARK Flexibility Score: inf
ROOT
ATOM      1  C   UNL     1      21.272  29.194  22.625  1.00  0.00     0.176 C 
ENDROOT
BRANCH   1   2
ATOM      2  C   UNL     1      22.219  27.978  22.719  1.00  0.00     0.178 C 
ATOM      3  C   UNL     1      22.542  25.780  23.356  1.00  0.00     0.272 C 
ATOM      4  C   UNL     1      23.855  26.155  22.593  1.00  0.00     0.113 C 
ATOM      5  O   UNL     1      21.703  26.909  23.356  1.00  0.00    -0.332 OA
ATOM      6  C   UNL     1      24.505  27.368  23.164  1.00  0.00     0.145 C 
ATOM      7  C   UNL     1      23.529  28.496  23.262  1.00  0.00     0.142 C 
BRANCH   3   8
ATOM      8  O   UNL     1      22.874  25.300  24.508  1.00  0.00    -0.338 OA
BRANCH   8   9
ATOM      9  C   UNL     1      22.399  24.620  25.476  1.00  0.00     0.199 C 
BRANCH   9  10
ATOM     10  C   UNL     1      22.462  25.013  26.928  1.00  0.00     0.179 C 
ATOM     11  C   UNL     1      24.172  25.934  28.290  1.00  0.00     0.282 C 
ATOM     12  O   UNL     1      23.754  25.069  27.354  1.00  0.00    -0.341 OA
ATOM     13  C   UNL     1      23.197  26.783  29.008  1.00  0.00     0.202 C 
ATOM     14  C   UNL     1      21.796  26.755  28.469  1.00  0.00     0.179 C 
ATOM     15  C   UNL     1      21.910  26.455  27.009  1.00  0.00     0.177 C 
BRANCH  11  16
ATOM     16  O   UNL     1      25.044  26.827  27.599  1.00  0.00    -0.341 OA
BRANCH  16  17
ATOM     17  C   UNL     1      26.360  26.671  27.934  1.00  0.00     0.184 C 
ATOM     18  C   UNL     1      26.539  27.049  29.377  1.00  0.00     0.178 C 
ATOM     19  O   UNL     1      26.743  28.412  29.553  1.00  0.00    -0.341 OA
ATOM     20  C   UNL     1      26.170  29.198  28.543  1.00  0.00     0.281 C 
ATOM     21  C   UNL     1      27.279  27.562  27.110  1.00  0.00     0.180 C 
ATOM     22  C   UNL     1      26.846  29.009  27.227  1.00  0.00     0.202 C 
BRANCH  18  23
ATOM     23  C   UNL     1      27.630  26.296  30.084  1.00  0.00     0.191 C 
BRANCH  23  24
ATOM     24  O   UNL     1      27.428  24.930  30.094  1.00  0.00    -0.394 OA
ATOM     25  H   UNL     1      27.058  24.699  30.999  1.00  0.00     0.210 HD
ENDBRANCH  23  24
ENDBRANCH  18  23
BRANCH  20  26
ATOM     26  O   UNL     1      26.294  30.520  28.906  1.00  0.00    -0.350 OA
BRANCH  26  27
ATOM     27  C   UNL     1      25.146  31.207  29.145  1.00  0.00     0.169 C 
BRANCH  27  28
ATOM     28  C   UNL     1      23.893  30.475  28.789  1.00  0.00     0.119 C 
BRANCH  28  29
ATOM     29  N   UNL     1      23.514  30.942  27.441  1.00  0.00    -0.092 NA
ATOM     30  N   UNL     1      22.393  30.622  27.038  1.00  0.00     0.001 N 
ATOM     31  N   UNL     1      21.343  30.193  26.565  1.00  0.00    -0.003 NA
ENDBRANCH  28  29
ENDBRANCH  27  28
ENDBRANCH  26  27
ENDBRANCH  20  26
BRANCH  21  32
ATOM     32  O   UNL     1      28.552  27.460  27.665  1.00  0.00    -0.387 OA
ATOM     33  H   UNL     1      28.602  26.804  28.398  1.00  0.00     0.211 HD
ENDBRANCH  21  32
BRANCH  22  34
ATOM     34  O   UNL     1      25.962  29.328  26.205  1.00  0.00    -0.385 OA
ATOM     35  H   UNL     1      25.873  28.501  25.632  1.00  0.00     0.211 HD
ENDBRANCH  22  34
ENDBRANCH  16  17
ENDBRANCH  11  16
BRANCH  13  36
ATOM     36  O   UNL     1      23.096  26.375  30.360  1.00  0.00    -0.385 OA
ATOM     37  H   UNL     1      23.428  27.099  30.964  1.00  0.00     0.211 HD
ENDBRANCH  13  36
BRANCH  14  38
ATOM     38  O   UNL     1      21.181  27.973  28.677  1.00  0.00    -0.387 OA
ATOM     39  H   UNL     1      20.647  28.208  27.873  1.00  0.00     0.211 HD
ENDBRANCH  14  38
BRANCH  15  40
ATOM     40  O   UNL     1      22.795  27.354  26.432  1.00  0.00    -0.387 OA
ATOM     41  H   UNL     1      22.359  27.749  25.648  1.00  0.00     0.211 HD
ENDBRANCH  15  40
ENDBRANCH   9  10
ENDBRANCH   8   9
ENDBRANCH   3   8
BRANCH   3  42
ATOM     42  C   UNL     1      21.900  24.836  22.419  1.00  0.00     0.364 C 
ATOM     43  O   UNL     1      22.502  24.001  21.712  1.00  0.00    -0.246 OA
BRANCH  42  44
ATOM     44  O   UNL     1      20.495  24.847  22.284  1.00  0.00    -0.477 OA
ATOM     45  H   UNL     1      19.957  24.634  23.096  1.00  0.00     0.296 HD
ENDBRANCH  42  44
ENDBRANCH   3  42
BRANCH   6  46
ATOM     46  O   UNL     1      25.110  27.115  24.404  1.00  0.00    -0.391 OA
ATOM     47  H   UNL     1      24.525  27.362  25.158  1.00  0.00     0.211 HD
ENDBRANCH   6  46
BRANCH   7  48
ATOM     48  N   UNL     1      23.967  29.581  22.414  1.00  0.00    -0.348 N 
ATOM     49  C   UNL     1      24.542  30.757  22.959  1.00  0.00     0.217 C 
ATOM     50  H   UNL     1      23.853  29.482  21.366  1.00  0.00     0.163 HD
ATOM     51  C   UNL     1      25.000  31.888  22.081  1.00  0.00     0.114 C 
ATOM     52  O   UNL     1      24.653  30.818  24.210  1.00  0.00    -0.275 OA
ENDBRANCH   7  48
ENDBRANCH   1   2
BRANCH   1  53
ATOM     53  O   UNL     1      20.688  29.456  23.834  1.00  0.00    -0.388 OA
ATOM     54  H   UNL     1      19.764  29.789  23.775  1.00  0.00     0.211 HD
ENDBRANCH   1  53
BRANCH   1  55
ATOM     55  C   UNL     1      20.239  28.972  21.591  1.00  0.00     0.165 C 
BRANCH  55  56
ATOM     56  O   UNL     1      20.136  27.626  21.184  1.00  0.00    -0.388 OA
ATOM     57  H   UNL     1      19.442  27.235  21.802  1.00  0.00     0.211 HD
ENDBRANCH  55  56
BRANCH  55  58
ATOM     58  C   UNL     1      20.160  29.848  20.397  1.00  0.00     0.154 C 
BRANCH  58  59
ATOM     59  N   UNL     1      18.954  29.816  19.655  1.00  0.00    -0.319 N 
ATOM     60  C   UNL     1      18.615  28.900  18.637  1.00  0.00     0.407 C 
ATOM     61  H   UNL     1      18.202  30.574  19.892  1.00  0.00     0.167 HD
ATOM     62  O   UNL     1      19.390  28.012  18.239  1.00  0.00    -0.225 OA
BRANCH  60  63
ATOM     63  O   UNL     1      17.363  28.998  18.067  1.00  0.00    -0.443 OA
BRANCH  63  64
ATOM     64  C   UNL     1      16.334  28.129  18.385  1.00  0.00     0.294 C 
BRANCH  64  65
ATOM     65  C   UNL     1      15.659  28.412  19.660  1.00  0.00     0.120 A 
ATOM     66  C   UNL     1      14.372  28.833  19.893  1.00  0.00     0.138 A 
ATOM     67  N   UNL     1      16.227  28.337  20.904  1.00  0.00    -0.132 NA
ATOM     68  N   UNL     1      14.189  28.999  21.207  1.00  0.00    -0.251 N 
ATOM     69  N   UNL     1      15.330  28.692  21.795  1.00  0.00    -0.067 NA
BRANCH  68  70
ATOM     70  C   UNL     1      12.970  29.436  21.914  1.00  0.00     0.162 C 
BRANCH  70  71
ATOM     71  C   UNL     1      13.217  30.747  22.588  1.00  0.00     0.132 C 
BRANCH  71  72
ATOM     72  C   UNL     1      13.077  31.877  21.621  1.00  0.00     0.309 C 
ATOM     73  O   UNL     1      14.011  32.647  21.343  1.00  0.00    -0.252 OA
BRANCH  72  74
ATOM     74  O   UNL     1      11.860  32.088  20.997  1.00  0.00    -0.481 OA
ATOM     75  H   UNL     1      11.379  32.984  21.122  1.00  0.00     0.296 HD
ENDBRANCH  72  74
ENDBRANCH  71  72
BRANCH  71  76
ATOM     76  C   UNL     1      12.538  31.009  23.880  1.00  0.00     0.065 C 
BRANCH  76  77
ATOM     77  C   UNL     1      11.282  30.305  24.147  1.00  0.00    -0.040 A 
ATOM     78  C   UNL     1      11.280  28.972  24.585  1.00  0.00     0.004 A 
ATOM     79  C   UNL     1      10.020  30.881  23.985  1.00  0.00     0.004 A 
ATOM     80  C   UNL     1      10.140  28.278  24.840  1.00  0.00     0.000 A 
ATOM     81  C   UNL     1       8.874  30.170  24.245  1.00  0.00     0.000 A 
ATOM     82  C   UNL     1       8.921  28.859  24.675  1.00  0.00     0.000 A 
ENDBRANCH  76  77
BRANCH  76  83
ATOM     83  C   UNL     1      13.467  31.092  25.038  1.00  0.00    -0.040 A 
ATOM     84  C   UNL     1      14.775  30.718  24.812  1.00  0.00     0.004 A 
ATOM     85  C   UNL     1      13.073  31.525  26.275  1.00  0.00     0.004 A 
ATOM     86  C   UNL     1      15.701  30.773  25.815  1.00  0.00     0.000 A 
ATOM     87  C   UNL     1      14.028  31.577  27.287  1.00  0.00     0.000 A 
ATOM     88  C   UNL     1      15.335  31.205  27.068  1.00  0.00     0.000 A 
ENDBRANCH  76  83
ENDBRANCH  71  76
ENDBRANCH  70  71
ENDBRANCH  68  70
ENDBRANCH  64  65
ENDBRANCH  63  64
ENDBRANCH  60  63
ENDBRANCH  58  59
ENDBRANCH  55  58
ENDBRANCH   1  55
TORSDOF 36
