REMARK VINA RESULT:    -5.311     14.622     18.689
REMARK INTER + INTRA:         -20.902
REMARK INTER:                 -14.063
REMARK INTRA:                  -6.839
REMARK UNBOUND:                -7.364
REMARK SMILES CC(=O)N[C@@H]1[C@@H](O)C[C@](OC[C@H]2O[C@@H](O[C@H]3[C@H](O)[C@@H](O)[C@H](OCCN=[N+]=[N-])O[C@@H]3CO)[C@H](O)[C@@H](O)[C@H]2O)(C(=O)O)O[C@H]1C(O)[C@H](O)CNC(=O)OCc1cn([C@@H](C)C(=O)O)nn1
REMARK SMILES IDX 9 1 8 2 6 3 5 4 42 5 41 6 10 7 11 8 12 9 14 10 13 11 32 12
REMARK SMILES IDX 34 13 36 14 15 15 16 16 29 17 28 18 21 19 17 20 19 21 30 22
REMARK SMILES IDX 31 23 22 25 23 26 24 27 25 28 26 29 27 30 18 31 20 33 33 35
REMARK SMILES IDX 35 37 37 39 38 41 39 42 40 43 7 45 43 47 44 48 45 50 46 51
REMARK SMILES IDX 47 53 48 54 49 55 50 57 51 58 52 59 53 60 54 61 62 62 55 63
REMARK SMILES IDX 61 64 56 65 57 66 58 67 59 68 60 69 4 71 2 72 1 74 3 75
REMARK H PARENT 31 24 18 32 20 34 33 36 35 38 37 40 40 44 7 46 44 49 46 52
REMARK H PARENT 48 56 60 70 4 73
REMARK Flexibility Score: inf
ROOT
ATOM      1  C   UNL     1      13.431  31.735  16.070  1.00  0.00     0.272 C 
ATOM      2  C   UNL     1      12.058  31.448  15.602  1.00  0.00     0.113 C 
ATOM      3  C   UNL     1      11.980  29.962  15.337  1.00  0.00     0.145 C 
ATOM      4  C   UNL     1      12.815  29.807  14.016  1.00  0.00     0.142 C 
ATOM      5  C   UNL     1      14.030  30.600  14.080  1.00  0.00     0.178 C 
ATOM      6  O   UNL     1      14.409  31.099  15.298  1.00  0.00    -0.332 OA
ENDROOT
BRANCH   1   7
ATOM      7  O   UNL     1      13.606  31.473  17.393  1.00  0.00    -0.338 OA
BRANCH   7   8
ATOM      8  C   UNL     1      14.837  31.563  17.930  1.00  0.00     0.199 C 
BRANCH   8   9
ATOM      9  C   UNL     1      15.228  30.247  18.647  1.00  0.00     0.179 C 
ATOM     10  C   UNL     1      16.747  29.478  20.205  1.00  0.00     0.282 C 
ATOM     11  O   UNL     1      16.167  30.580  19.587  1.00  0.00    -0.341 OA
ATOM     12  C   UNL     1      16.051  28.191  19.869  1.00  0.00     0.202 C 
ATOM     13  C   UNL     1      14.547  28.348  19.981  1.00  0.00     0.179 C 
ATOM     14  C   UNL     1      14.043  29.593  19.271  1.00  0.00     0.177 C 
BRANCH  10  15
ATOM     15  O   UNL     1      16.762  29.584  21.603  1.00  0.00    -0.341 OA
BRANCH  15  16
ATOM     16  C   UNL     1      17.733  30.473  22.040  1.00  0.00     0.184 C 
ATOM     17  C   UNL     1      17.998  30.272  23.498  1.00  0.00     0.178 C 
ATOM     18  O   UNL     1      17.542  31.340  24.273  1.00  0.00    -0.341 OA
ATOM     19  C   UNL     1      16.205  31.635  23.988  1.00  0.00     0.281 C 
ATOM     20  C   UNL     1      17.227  31.872  21.780  1.00  0.00     0.180 C 
ATOM     21  C   UNL     1      16.046  32.254  22.628  1.00  0.00     0.202 C 
BRANCH  17  22
ATOM     22  C   UNL     1      19.470  30.090  23.787  1.00  0.00     0.191 C 
BRANCH  22  23
ATOM     23  O   UNL     1      19.793  28.758  24.036  1.00  0.00    -0.394 OA
ATOM     24  H   UNL     1      20.679  28.703  24.449  1.00  0.00     0.210 HD
ENDBRANCH  22  23
ENDBRANCH  17  22
BRANCH  19  25
ATOM     25  O   UNL     1      15.798  32.549  24.944  1.00  0.00    -0.350 OA
BRANCH  25  26
ATOM     26  C   UNL     1      14.524  32.231  25.366  1.00  0.00     0.169 C 
BRANCH  26  27
ATOM     27  C   UNL     1      14.385  30.736  25.567  1.00  0.00     0.119 C 
BRANCH  27  28
ATOM     28  N   UNL     1      13.007  30.358  25.261  1.00  0.00    -0.092 NA
ATOM     29  N   UNL     1      12.587  30.288  24.106  1.00  0.00     0.001 N 
ATOM     30  N   UNL     1      12.337  30.012  22.946  1.00  0.00    -0.003 NA
ENDBRANCH  27  28
ENDBRANCH  26  27
ENDBRANCH  25  26
ENDBRANCH  19  25
BRANCH  20  31
ATOM     31  O   UNL     1      18.232  32.828  21.928  1.00  0.00    -0.387 OA
ATOM     32  H   UNL     1      19.133  32.447  21.997  1.00  0.00     0.211 HD
ENDBRANCH  20  31
BRANCH  21  33
ATOM     33  O   UNL     1      14.870  31.769  22.061  1.00  0.00    -0.385 OA
ATOM     34  H   UNL     1      14.841  31.942  21.092  1.00  0.00     0.211 HD
ENDBRANCH  21  33
ENDBRANCH  15  16
ENDBRANCH  10  15
BRANCH  12  35
ATOM     35  O   UNL     1      16.452  27.621  18.684  1.00  0.00    -0.385 OA
ATOM     36  H   UNL     1      16.784  28.333  18.054  1.00  0.00     0.211 HD
ENDBRANCH  12  35
BRANCH  13  37
ATOM     37  O   UNL     1      14.255  28.462  21.357  1.00  0.00    -0.387 OA
ATOM     38  H   UNL     1      13.978  29.389  21.583  1.00  0.00     0.211 HD
ENDBRANCH  13  37
BRANCH  14  39
ATOM     39  O   UNL     1      13.398  30.448  20.164  1.00  0.00    -0.387 OA
ATOM     40  H   UNL     1      14.071  30.893  20.742  1.00  0.00     0.211 HD
ENDBRANCH  14  39
ENDBRANCH   8   9
ENDBRANCH   7   8
ENDBRANCH   1   7
BRANCH   1  41
ATOM     41  C   UNL     1      13.697  33.176  15.816  1.00  0.00     0.364 C 
ATOM     42  O   UNL     1      12.858  34.030  16.138  1.00  0.00    -0.246 OA
BRANCH  41  43
ATOM     43  O   UNL     1      14.877  33.597  15.219  1.00  0.00    -0.477 OA
ATOM     44  H   UNL     1      14.941  34.523  14.772  1.00  0.00     0.296 HD
ENDBRANCH  41  43
ENDBRANCH   1  41
BRANCH   3  45
ATOM     45  O   UNL     1      12.733  29.315  16.309  1.00  0.00    -0.391 OA
ATOM     46  H   UNL     1      13.045  29.904  17.016  1.00  0.00     0.211 HD
ENDBRANCH   3  45
BRANCH   5  47
ATOM     47  C   UNL     1      15.273  29.991  13.453  1.00  0.00     0.176 C 
BRANCH  47  48
ATOM     48  O   UNL     1      14.831  29.282  12.279  1.00  0.00    -0.388 OA
ATOM     49  H   UNL     1      15.123  29.763  11.487  1.00  0.00     0.211 HD
ENDBRANCH  47  48
BRANCH  47  50
ATOM     50  C   UNL     1      15.907  28.894  14.284  1.00  0.00     0.165 C 
BRANCH  50  51
ATOM     51  O   UNL     1      15.100  28.308  15.209  1.00  0.00    -0.388 OA
ATOM     52  H   UNL     1      14.296  27.848  14.881  1.00  0.00     0.211 HD
ENDBRANCH  50  51
BRANCH  50  53
ATOM     53  C   UNL     1      17.280  29.251  14.743  1.00  0.00     0.154 C 
BRANCH  53  54
ATOM     54  N   UNL     1      17.662  28.837  16.041  1.00  0.00    -0.319 N 
ATOM     55  C   UNL     1      18.975  28.565  16.507  1.00  0.00     0.407 C 
ATOM     56  H   UNL     1      16.872  28.716  16.748  1.00  0.00     0.167 HD
ATOM     57  O   UNL     1      19.930  28.698  15.733  1.00  0.00    -0.225 OA
BRANCH  55  58
ATOM     58  O   UNL     1      19.171  28.148  17.834  1.00  0.00    -0.443 OA
BRANCH  58  59
ATOM     59  C   UNL     1      20.080  28.817  18.669  1.00  0.00     0.294 C 
BRANCH  59  60
ATOM     60  C   UNL     1      20.592  27.983  19.762  1.00  0.00     0.120 A 
ATOM     61  C   UNL     1      21.765  27.265  19.837  1.00  0.00     0.139 A 
ATOM     62  N   UNL     1      19.926  27.797  20.932  1.00  0.00    -0.132 NA
ATOM     63  N   UNL     1      21.780  26.674  21.033  1.00  0.00    -0.238 N 
ATOM     64  N   UNL     1      20.675  26.991  21.696  1.00  0.00    -0.066 NA
BRANCH  63  65
ATOM     65  C   UNL     1      22.832  25.816  21.538  1.00  0.00     0.215 C 
ATOM     66  C   UNL     1      22.443  25.274  22.877  1.00  0.00     0.046 C 
BRANCH  65  67
ATOM     67  C   UNL     1      23.117  24.705  20.599  1.00  0.00     0.328 C 
ATOM     68  O   UNL     1      22.230  23.837  20.410  1.00  0.00    -0.250 OA
BRANCH  67  69
ATOM     69  O   UNL     1      24.325  24.591  19.926  1.00  0.00    -0.480 OA
ATOM     70  H   UNL     1      24.637  23.711  19.533  1.00  0.00     0.296 HD
ENDBRANCH  67  69
ENDBRANCH  65  67
ENDBRANCH  63  65
ENDBRANCH  59  60
ENDBRANCH  58  59
ENDBRANCH  55  58
ENDBRANCH  53  54
ENDBRANCH  50  53
ENDBRANCH  47  50
ENDBRANCH   5  47
BRANCH   4  71
ATOM     71  N   UNL     1      11.919  30.087  12.909  1.00  0.00    -0.348 N 
ATOM     72  C   UNL     1      11.125  29.172  12.219  1.00  0.00     0.217 C 
ATOM     73  H   UNL     1      11.875  31.101  12.603  1.00  0.00     0.163 HD
ATOM     74  C   UNL     1      10.249  29.584  11.096  1.00  0.00     0.114 C 
ATOM     75  O   UNL     1      11.153  27.973  12.554  1.00  0.00    -0.275 OA
ENDBRANCH   4  71
TORSDOF 32
