REMARK VINA RESULT:    -4.860     12.383     17.802
REMARK INTER + INTRA:         -23.087
REMARK INTER:                 -14.941
REMARK INTRA:                  -8.146
REMARK UNBOUND:               -10.839
REMARK SMILES CC(=O)N[C@@H]1[C@@H](O)C[C@](OC[C@H]2O[C@@H](O[C@H]3[C@H](O)[C@@H](O)[C@H](OCCN=[N+]=[N-])O[C@@H]3CO)[C@H](O)[C@@H](O)[C@H]2O)(C(=O)O)O[C@H]1C(O)[C@H](O)CNC(=O)OCc1cn(-c2ccccc2C(C)C)nn1
REMARK SMILES IDX 9 1 8 2 6 3 5 4 42 5 41 6 10 7 11 8 12 9 14 10 13 11 32 12
REMARK SMILES IDX 34 13 36 14 15 15 16 16 29 17 28 18 21 19 17 20 19 21 30 22
REMARK SMILES IDX 31 23 22 25 23 26 24 27 25 28 26 29 27 30 18 31 20 33 33 35
REMARK SMILES IDX 35 37 37 39 38 41 39 42 40 43 7 45 43 47 44 48 45 50 46 51
REMARK SMILES IDX 47 53 48 54 49 55 50 57 51 58 52 59 53 60 54 61 66 62 55 63
REMARK SMILES IDX 65 64 56 65 61 66 57 67 60 68 58 69 59 70 62 71 63 72 64 73
REMARK SMILES IDX 4 74 2 75 1 77 3 78
REMARK H PARENT 31 24 18 32 20 34 33 36 35 38 37 40 40 44 7 46 44 49 46 52
REMARK H PARENT 48 56 4 76
REMARK Flexibility Score: inf
ROOT
ATOM      1  C   UNL     1      22.993  25.447  21.676  1.00  0.00     0.272 C 
ATOM      2  C   UNL     1      22.496  24.221  22.407  1.00  0.00     0.113 C 
ATOM      3  C   UNL     1      21.207  24.605  23.119  1.00  0.00     0.145 C 
ATOM      4  C   UNL     1      21.594  25.582  24.242  1.00  0.00     0.142 C 
ATOM      5  C   UNL     1      22.442  26.637  23.639  1.00  0.00     0.178 C 
ATOM      6  O   UNL     1      22.347  26.580  22.256  1.00  0.00    -0.332 OA
ENDROOT
BRANCH   1   7
ATOM      7  O   UNL     1      22.588  25.480  20.393  1.00  0.00    -0.338 OA
BRANCH   7   8
ATOM      8  C   UNL     1      23.143  25.939  19.325  1.00  0.00     0.199 C 
BRANCH   8   9
ATOM      9  C   UNL     1      22.637  27.100  18.532  1.00  0.00     0.179 C 
ATOM     10  C   UNL     1      20.823  28.398  18.094  1.00  0.00     0.282 C 
ATOM     11  O   UNL     1      21.269  27.214  18.534  1.00  0.00    -0.341 OA
ATOM     12  C   UNL     1      21.815  29.252  17.316  1.00  0.00     0.202 C 
ATOM     13  C   UNL     1      23.090  29.464  18.087  1.00  0.00     0.179 C 
ATOM     14  C   UNL     1      23.198  28.405  19.144  1.00  0.00     0.177 C 
BRANCH  10  15
ATOM     15  O   UNL     1      20.179  29.212  18.975  1.00  0.00    -0.341 OA
BRANCH  15  16
ATOM     16  C   UNL     1      18.880  29.581  18.729  1.00  0.00     0.184 C 
ATOM     17  C   UNL     1      18.047  28.491  18.140  1.00  0.00     0.178 C 
ATOM     18  O   UNL     1      17.501  28.803  16.945  1.00  0.00    -0.341 OA
ATOM     19  C   UNL     1      16.747  29.927  16.808  1.00  0.00     0.281 C 
ATOM     20  C   UNL     1      18.706  30.852  18.003  1.00  0.00     0.180 C 
ATOM     21  C   UNL     1      17.222  31.044  17.739  1.00  0.00     0.202 C 
BRANCH  17  22
ATOM     22  C   UNL     1      16.918  28.016  19.069  1.00  0.00     0.191 C 
BRANCH  22  23
ATOM     23  O   UNL     1      17.357  28.228  20.396  1.00  0.00    -0.394 OA
ATOM     24  H   UNL     1      17.343  29.228  20.530  1.00  0.00     0.210 HD
ENDBRANCH  22  23
ENDBRANCH  17  22
BRANCH  19  25
ATOM     25  O   UNL     1      15.435  29.671  17.103  1.00  0.00    -0.350 OA
BRANCH  25  26
ATOM     26  C   UNL     1      14.524  29.728  16.095  1.00  0.00     0.169 C 
BRANCH  26  27
ATOM     27  C   UNL     1      13.191  30.310  16.384  1.00  0.00     0.119 C 
BRANCH  27  28
ATOM     28  N   UNL     1      12.134  29.533  15.830  1.00  0.00    -0.092 NA
ATOM     29  N   UNL     1      12.209  28.728  14.924  1.00  0.00     0.001 N 
ATOM     30  N   UNL     1      12.479  27.849  14.113  1.00  0.00    -0.003 NA
ENDBRANCH  27  28
ENDBRANCH  26  27
ENDBRANCH  25  26
ENDBRANCH  19  25
BRANCH  20  31
ATOM     31  O   UNL     1      19.123  31.981  18.704  1.00  0.00    -0.387 OA
ATOM     32  H   UNL     1      18.813  31.896  19.633  1.00  0.00     0.211 HD
ENDBRANCH  20  31
BRANCH  21  33
ATOM     33  O   UNL     1      16.989  32.262  17.098  1.00  0.00    -0.385 OA
ATOM     34  H   UNL     1      17.256  32.975  17.732  1.00  0.00     0.211 HD
ENDBRANCH  21  33
ENDBRANCH  15  16
ENDBRANCH  10  15
BRANCH  12  35
ATOM     35  O   UNL     1      22.063  28.623  16.109  1.00  0.00    -0.385 OA
ATOM     36  H   UNL     1      22.891  29.014  15.684  1.00  0.00     0.211 HD
ENDBRANCH  12  35
BRANCH  13  37
ATOM     37  O   UNL     1      23.079  30.749  18.649  1.00  0.00    -0.387 OA
ATOM     38  H   UNL     1      23.798  31.257  18.198  1.00  0.00     0.211 HD
ENDBRANCH  13  37
BRANCH  14  39
ATOM     39  O   UNL     1      22.392  28.729  20.216  1.00  0.00    -0.387 OA
ATOM     40  H   UNL     1      22.417  29.712  20.329  1.00  0.00     0.211 HD
ENDBRANCH  14  39
ENDBRANCH   8   9
ENDBRANCH   7   8
ENDBRANCH   1   7
BRANCH   1  41
ATOM     41  C   UNL     1      24.441  25.627  21.834  1.00  0.00     0.364 C 
ATOM     42  O   UNL     1      25.098  24.607  22.251  1.00  0.00    -0.246 OA
BRANCH  41  43
ATOM     43  O   UNL     1      25.199  26.743  21.600  1.00  0.00    -0.477 OA
ATOM     44  H   UNL     1      26.172  26.865  21.810  1.00  0.00     0.296 HD
ENDBRANCH  41  43
ENDBRANCH   1  41
BRANCH   3  45
ATOM     45  O   UNL     1      20.398  25.353  22.257  1.00  0.00    -0.391 OA
ATOM     46  H   UNL     1      19.472  25.293  22.601  1.00  0.00     0.211 HD
ENDBRANCH   3  45
BRANCH   5  47
ATOM     47  C   UNL     1      22.131  28.059  23.996  1.00  0.00     0.176 C 
BRANCH  47  48
ATOM     48  O   UNL     1      20.736  28.183  23.666  1.00  0.00    -0.388 OA
ATOM     49  H   UNL     1      20.770  28.191  22.658  1.00  0.00     0.211 HD
ENDBRANCH  47  48
BRANCH  47  50
ATOM     50  C   UNL     1      22.819  29.122  23.199  1.00  0.00     0.165 C 
BRANCH  50  51
ATOM     51  O   UNL     1      24.131  28.853  22.919  1.00  0.00    -0.388 OA
ATOM     52  H   UNL     1      24.243  28.963  21.940  1.00  0.00     0.211 HD
ENDBRANCH  50  51
BRANCH  50  53
ATOM     53  C   UNL     1      22.460  30.503  23.600  1.00  0.00     0.154 C 
BRANCH  53  54
ATOM     54  N   UNL     1      21.138  30.945  23.201  1.00  0.00    -0.319 N 
ATOM     55  C   UNL     1      20.881  31.431  21.896  1.00  0.00     0.407 C 
ATOM     56  H   UNL     1      20.323  30.923  23.851  1.00  0.00     0.167 HD
ATOM     57  O   UNL     1      21.754  31.522  21.003  1.00  0.00    -0.225 OA
BRANCH  55  58
ATOM     58  O   UNL     1      19.598  31.862  21.480  1.00  0.00    -0.443 OA
BRANCH  58  59
ATOM     59  C   UNL     1      18.728  32.446  22.400  1.00  0.00     0.294 C 
BRANCH  59  60
ATOM     60  C   UNL     1      17.660  31.462  22.733  1.00  0.00     0.121 A 
ATOM     61  C   UNL     1      16.325  31.651  23.016  1.00  0.00     0.144 A 
ATOM     62  N   UNL     1      17.825  30.104  22.822  1.00  0.00    -0.131 NA
ATOM     63  N   UNL     1      15.712  30.482  23.261  1.00  0.00    -0.220 N 
ATOM     64  N   UNL     1      16.670  29.553  23.132  1.00  0.00    -0.062 NA
BRANCH  63  65
ATOM     65  C   UNL     1      14.350  30.220  23.583  1.00  0.00     0.070 A 
ATOM     66  C   UNL     1      13.428  30.097  22.568  1.00  0.00    -0.020 A 
ATOM     67  C   UNL     1      13.888  30.093  24.874  1.00  0.00     0.029 A 
ATOM     68  C   UNL     1      12.095  29.857  22.839  1.00  0.00     0.006 A 
ATOM     69  C   UNL     1      12.558  29.851  25.163  1.00  0.00     0.002 A 
ATOM     70  C   UNL     1      11.648  29.731  24.133  1.00  0.00     0.000 A 
BRANCH  66  71
ATOM     71  C   UNL     1      13.883  30.216  21.168  1.00  0.00     0.015 C 
ATOM     72  C   UNL     1      12.913  31.128  20.432  1.00  0.00     0.012 C 
ATOM     73  C   UNL     1      13.826  28.835  20.495  1.00  0.00     0.012 C 
ENDBRANCH  66  71
ENDBRANCH  63  65
ENDBRANCH  59  60
ENDBRANCH  58  59
ENDBRANCH  55  58
ENDBRANCH  53  54
ENDBRANCH  50  53
ENDBRANCH  47  50
ENDBRANCH   5  47
BRANCH   4  74
ATOM     74  N   UNL     1      22.283  24.810  25.251  1.00  0.00    -0.348 N 
ATOM     75  C   UNL     1      22.395  25.165  26.605  1.00  0.00     0.217 C 
ATOM     76  H   UNL     1      22.747  23.903  24.946  1.00  0.00     0.163 HD
ATOM     77  C   UNL     1      23.150  24.254  27.530  1.00  0.00     0.114 C 
ATOM     78  O   UNL     1      21.883  26.208  27.034  1.00  0.00    -0.275 OA
ENDBRANCH   4  74
TORSDOF 31
