REMARK VINA RESULT:    -6.413      5.626     10.391
REMARK INTER + INTRA:         -21.875
REMARK INTER:                 -15.605
REMARK INTRA:                  -6.271
REMARK UNBOUND:                -5.152
REMARK SMILES CC(=O)N[C@@H]1[C@@H](O)C[C@](OC[C@H]2O[C@@H](O[C@H]3[C@H](O)[C@@H](O)[C@H](OCCN=[N+]=[N-])O[C@@H]3CO)[C@H](O)[C@@H](O)[C@H]2O)(C(=O)O)O[C@H]1C(O)[C@H](O)CNC(=O)OCc1cn(CC(O)c2ccccc2)nn1
REMARK SMILES IDX 9 1 8 2 6 3 5 4 42 5 41 6 10 7 11 8 12 9 14 10 13 11 32 12
REMARK SMILES IDX 34 13 36 14 15 15 16 16 29 17 28 18 21 19 17 20 19 21 30 22
REMARK SMILES IDX 31 23 22 25 23 26 24 27 25 28 26 29 27 30 18 31 20 33 33 35
REMARK SMILES IDX 35 37 37 39 38 41 39 42 40 43 7 45 43 47 44 48 45 50 46 51
REMARK SMILES IDX 47 53 48 54 49 55 50 57 51 58 52 59 53 60 54 61 66 62 55 63
REMARK SMILES IDX 65 64 56 65 57 66 58 67 59 69 60 70 64 71 61 72 63 73 62 74
REMARK SMILES IDX 4 75 2 76 1 78 3 79
REMARK H PARENT 31 24 18 32 20 34 33 36 35 38 37 40 40 44 7 46 44 49 46 52
REMARK H PARENT 48 56 58 68 4 77
REMARK Flexibility Score: inf
ROOT
ATOM      1  C   UNL     1      21.534  28.219  21.868  1.00  0.00     0.272 C 
ATOM      2  C   UNL     1      22.102  29.249  20.966  1.00  0.00     0.113 C 
ATOM      3  C   UNL     1      22.310  30.606  21.541  1.00  0.00     0.145 C 
ATOM      4  C   UNL     1      21.558  30.714  22.830  1.00  0.00     0.142 C 
ATOM      5  C   UNL     1      20.233  29.994  22.648  1.00  0.00     0.178 C 
ATOM      6  O   UNL     1      20.329  28.655  22.429  1.00  0.00    -0.332 OA
ENDROOT
BRANCH   1   7
ATOM      7  O   UNL     1      22.312  27.779  22.897  1.00  0.00    -0.338 OA
BRANCH   7   8
ATOM      8  C   UNL     1      23.610  27.469  22.636  1.00  0.00     0.199 C 
BRANCH   8   9
ATOM      9  C   UNL     1      24.332  27.023  23.887  1.00  0.00     0.179 C 
ATOM     10  C   UNL     1      23.799  26.172  25.957  1.00  0.00     0.282 C 
ATOM     11  O   UNL     1      23.494  27.084  24.982  1.00  0.00    -0.341 OA
ATOM     12  C   UNL     1      23.643  24.724  25.546  1.00  0.00     0.202 C 
ATOM     13  C   UNL     1      24.002  24.615  24.081  1.00  0.00     0.179 C 
ATOM     14  C   UNL     1      25.017  25.701  23.789  1.00  0.00     0.177 C 
BRANCH  10  15
ATOM     15  O   UNL     1      22.996  26.323  27.082  1.00  0.00    -0.341 OA
BRANCH  15  16
ATOM     16  C   UNL     1      23.068  27.542  27.700  1.00  0.00     0.184 C 
ATOM     17  C   UNL     1      24.518  27.729  28.132  1.00  0.00     0.178 C 
ATOM     18  O   UNL     1      24.681  27.437  29.471  1.00  0.00    -0.341 OA
ATOM     19  C   UNL     1      24.095  26.181  29.711  1.00  0.00     0.281 C 
ATOM     20  C   UNL     1      22.133  27.482  28.901  1.00  0.00     0.180 C 
ATOM     21  C   UNL     1      22.601  26.425  29.888  1.00  0.00     0.202 C 
BRANCH  17  22
ATOM     22  C   UNL     1      25.006  29.126  27.794  1.00  0.00     0.191 C 
BRANCH  22  23
ATOM     23  O   UNL     1      24.464  29.576  26.593  1.00  0.00    -0.394 OA
ATOM     24  H   UNL     1      23.942  28.869  26.132  1.00  0.00     0.210 HD
ENDBRANCH  22  23
ENDBRANCH  17  22
BRANCH  19  25
ATOM     25  O   UNL     1      24.692  25.674  30.840  1.00  0.00    -0.350 OA
BRANCH  25  26
ATOM     26  C   UNL     1      26.004  25.290  30.695  1.00  0.00     0.169 C 
BRANCH  26  27
ATOM     27  C   UNL     1      26.913  25.760  31.796  1.00  0.00     0.119 C 
BRANCH  27  28
ATOM     28  N   UNL     1      28.229  25.125  31.660  1.00  0.00    -0.092 NA
ATOM     29  N   UNL     1      28.762  25.275  30.550  1.00  0.00     0.001 N 
ATOM     30  N   UNL     1      29.542  25.423  29.610  1.00  0.00    -0.003 NA
ENDBRANCH  27  28
ENDBRANCH  26  27
ENDBRANCH  25  26
ENDBRANCH  19  25
BRANCH  20  31
ATOM     31  O   UNL     1      22.064  28.724  29.518  1.00  0.00    -0.387 OA
ATOM     32  H   UNL     1      22.778  29.319  29.153  1.00  0.00     0.211 HD
ENDBRANCH  20  31
BRANCH  21  33
ATOM     33  O   UNL     1      21.855  25.267  29.767  1.00  0.00    -0.385 OA
ATOM     34  H   UNL     1      21.431  25.273  28.874  1.00  0.00     0.211 HD
ENDBRANCH  21  33
ENDBRANCH  15  16
ENDBRANCH  10  15
BRANCH  12  35
ATOM     35  O   UNL     1      24.535  23.950  26.297  1.00  0.00    -0.385 OA
ATOM     36  H   UNL     1      25.370  24.482  26.399  1.00  0.00     0.211 HD
ENDBRANCH  12  35
BRANCH  13  37
ATOM     37  O   UNL     1      22.821  24.829  23.374  1.00  0.00    -0.387 OA
ATOM     38  H   UNL     1      22.950  25.205  22.486  1.00  0.00     0.211 HD
ENDBRANCH  13  37
BRANCH  14  39
ATOM     39  O   UNL     1      25.718  25.515  22.621  1.00  0.00    -0.387 OA
ATOM     40  H   UNL     1      26.703  25.542  22.735  1.00  0.00     0.211 HD
ENDBRANCH  14  39
ENDBRANCH   8   9
ENDBRANCH   7   8
ENDBRANCH   1   7
BRANCH   1  41
ATOM     41  C   UNL     1      21.114  27.073  20.961  1.00  0.00     0.364 C 
ATOM     42  O   UNL     1      21.068  27.238  19.753  1.00  0.00    -0.246 OA
BRANCH  41  43
ATOM     43  O   UNL     1      20.802  25.882  21.593  1.00  0.00    -0.477 OA
ATOM     44  H   UNL     1      21.408  25.108  21.417  1.00  0.00     0.296 HD
ENDBRANCH  41  43
ENDBRANCH   1  41
BRANCH   3  45
ATOM     45  O   UNL     1      23.664  30.923  21.658  1.00  0.00    -0.391 OA
ATOM     46  H   UNL     1      23.806  31.727  21.084  1.00  0.00     0.211 HD
ENDBRANCH   3  45
BRANCH   5  47
ATOM     47  C   UNL     1      19.385  30.385  23.832  1.00  0.00     0.176 C 
BRANCH  47  48
ATOM     48  O   UNL     1      19.857  29.702  24.963  1.00  0.00    -0.388 OA
ATOM     49  H   UNL     1      19.941  28.743  24.699  1.00  0.00     0.211 HD
ENDBRANCH  47  48
BRANCH  47  50
ATOM     50  C   UNL     1      17.930  30.150  23.596  1.00  0.00     0.165 C 
BRANCH  50  51
ATOM     51  O   UNL     1      17.647  29.826  22.297  1.00  0.00    -0.388 OA
ATOM     52  H   UNL     1      16.751  30.046  22.000  1.00  0.00     0.211 HD
ENDBRANCH  50  51
BRANCH  50  53
ATOM     53  C   UNL     1      17.019  31.171  24.226  1.00  0.00     0.154 C 
BRANCH  53  54
ATOM     54  N   UNL     1      15.621  30.859  24.196  1.00  0.00    -0.319 N 
ATOM     55  C   UNL     1      14.654  31.543  23.402  1.00  0.00     0.407 C 
ATOM     56  H   UNL     1      15.253  30.055  24.798  1.00  0.00     0.167 HD
ATOM     57  O   UNL     1      14.991  32.479  22.656  1.00  0.00    -0.225 OA
BRANCH  55  58
ATOM     58  O   UNL     1      13.323  31.188  23.436  1.00  0.00    -0.443 OA
BRANCH  58  59
ATOM     59  C   UNL     1      12.822  29.971  22.884  1.00  0.00     0.294 C 
BRANCH  59  60
ATOM     60  C   UNL     1      13.770  29.472  21.838  1.00  0.00     0.120 A 
ATOM     61  C   UNL     1      13.808  29.727  20.492  1.00  0.00     0.138 A 
ATOM     62  N   UNL     1      14.807  28.647  22.102  1.00  0.00    -0.132 NA
ATOM     63  N   UNL     1      14.870  29.057  19.951  1.00  0.00    -0.249 N 
ATOM     64  N   UNL     1      15.423  28.433  20.966  1.00  0.00    -0.067 NA
BRANCH  63  65
ATOM     65  C   UNL     1      15.259  29.071  18.550  1.00  0.00     0.182 C 
BRANCH  65  66
ATOM     66  C   UNL     1      16.693  28.591  18.406  1.00  0.00     0.166 C 
BRANCH  66  67
ATOM     67  O   UNL     1      16.642  27.212  18.718  1.00  0.00    -0.386 OA
ATOM     68  H   UNL     1      15.971  26.761  18.135  1.00  0.00     0.211 HD
ENDBRANCH  66  67
BRANCH  66  69
ATOM     69  C   UNL     1      17.262  28.789  17.069  1.00  0.00    -0.018 A 
ATOM     70  C   UNL     1      18.600  28.788  16.823  1.00  0.00     0.006 A 
ATOM     71  C   UNL     1      16.330  29.001  16.042  1.00  0.00     0.006 A 
ATOM     72  C   UNL     1      19.032  29.001  15.523  1.00  0.00     0.000 A 
ATOM     73  C   UNL     1      16.782  29.210  14.768  1.00  0.00     0.000 A 
ATOM     74  C   UNL     1      18.137  29.212  14.501  1.00  0.00     0.000 A 
ENDBRANCH  66  69
ENDBRANCH  65  66
ENDBRANCH  63  65
ENDBRANCH  59  60
ENDBRANCH  58  59
ENDBRANCH  55  58
ENDBRANCH  53  54
ENDBRANCH  50  53
ENDBRANCH  47  50
ENDBRANCH   5  47
BRANCH   4  75
ATOM     75  N   UNL     1      21.192  32.116  23.087  1.00  0.00    -0.348 N 
ATOM     76  C   UNL     1      21.849  32.904  24.065  1.00  0.00     0.217 C 
ATOM     77  H   UNL     1      20.423  32.563  22.544  1.00  0.00     0.163 HD
ATOM     78  C   UNL     1      21.507  34.321  24.353  1.00  0.00     0.114 C 
ATOM     79  O   UNL     1      22.781  32.368  24.726  1.00  0.00    -0.275 OA
ENDBRANCH   4  75
TORSDOF 33
