REMARK VINA RESULT:    -4.637      3.909     10.604
REMARK INTER + INTRA:         -20.803
REMARK INTER:                 -13.929
REMARK INTRA:                  -6.874
REMARK UNBOUND:                -9.390
REMARK SMILES CC(=O)N[C@@H]1[C@@H](O)C[C@](OC[C@H]2O[C@@H](O[C@H]3[C@H](O)[C@@H](O)[C@H](OCCN=[N+]=[N-])O[C@@H]3CO)[C@H](O)[C@@H](O)[C@H]2O)(C(=O)O)O[C@H]1C(O)[C@H](O)CNC(=O)OCc1cn(-c2ccncc2)nn1
REMARK SMILES IDX 9 1 8 2 6 3 5 4 42 5 41 6 10 7 11 8 12 9 14 10 13 11 32 12
REMARK SMILES IDX 34 13 36 14 15 15 16 16 29 17 28 18 21 19 17 20 19 21 30 22
REMARK SMILES IDX 31 23 22 25 23 26 24 27 25 28 26 29 27 30 18 31 20 33 33 35
REMARK SMILES IDX 35 37 37 39 38 41 39 42 40 43 7 45 43 47 44 48 45 50 46 51
REMARK SMILES IDX 47 53 48 54 49 55 50 57 51 58 52 59 53 60 54 61 63 62 55 63
REMARK SMILES IDX 62 64 56 65 57 66 61 67 58 68 60 69 59 70 4 71 2 72 1 74
REMARK SMILES IDX 3 75
REMARK H PARENT 31 24 18 32 20 34 33 36 35 38 37 40 40 44 7 46 44 49 46 52
REMARK H PARENT 48 56 4 73
REMARK Flexibility Score: inf
ROOT
ATOM      1  C   UNL     1      20.444  28.792  20.256  1.00  0.00     0.272 C 
ATOM      2  C   UNL     1      21.357  30.035  20.289  1.00  0.00     0.113 C 
ATOM      3  C   UNL     1      21.116  30.832  21.576  1.00  0.00     0.145 C 
ATOM      4  C   UNL     1      19.677  31.435  21.437  1.00  0.00     0.142 C 
ATOM      5  C   UNL     1      18.783  30.278  21.102  1.00  0.00     0.178 C 
ATOM      6  O   UNL     1      19.501  29.099  21.255  1.00  0.00    -0.332 OA
ENDROOT
BRANCH   1   7
ATOM      7  O   UNL     1      21.087  27.730  20.700  1.00  0.00    -0.338 OA
BRANCH   7   8
ATOM      8  C   UNL     1      21.832  26.776  20.353  1.00  0.00     0.199 C 
BRANCH   8   9
ATOM      9  C   UNL     1      23.014  26.362  21.175  1.00  0.00     0.179 C 
ATOM     10  C   UNL     1      23.357  25.145  23.156  1.00  0.00     0.282 C 
ATOM     11  O   UNL     1      22.434  25.625  22.256  1.00  0.00    -0.341 OA
ATOM     12  C   UNL     1      24.275  24.155  22.509  1.00  0.00     0.202 C 
ATOM     13  C   UNL     1      24.916  24.786  21.270  1.00  0.00     0.179 C 
ATOM     14  C   UNL     1      23.817  25.314  20.398  1.00  0.00     0.177 C 
BRANCH  10  15
ATOM     15  O   UNL     1      22.562  24.491  24.132  1.00  0.00    -0.341 OA
BRANCH  15  16
ATOM     16  C   UNL     1      22.635  25.062  25.358  1.00  0.00     0.184 C 
ATOM     17  C   UNL     1      22.128  26.446  25.419  1.00  0.00     0.178 C 
ATOM     18  O   UNL     1      22.139  26.913  26.750  1.00  0.00    -0.341 OA
ATOM     19  C   UNL     1      23.534  27.247  26.935  1.00  0.00     0.281 C 
ATOM     20  C   UNL     1      24.136  25.079  25.781  1.00  0.00     0.180 C 
ATOM     21  C   UNL     1      24.266  25.960  27.010  1.00  0.00     0.202 C 
BRANCH  17  22
ATOM     22  C   UNL     1      20.771  26.612  24.849  1.00  0.00     0.191 C 
BRANCH  22  23
ATOM     23  O   UNL     1      20.761  27.443  23.718  1.00  0.00    -0.394 OA
ATOM     24  H   UNL     1      20.197  28.237  23.956  1.00  0.00     0.210 HD
ENDBRANCH  22  23
ENDBRANCH  17  22
BRANCH  19  25
ATOM     25  O   UNL     1      23.572  27.926  28.122  1.00  0.00    -0.350 OA
BRANCH  25  26
ATOM     26  C   UNL     1      22.672  27.463  29.033  1.00  0.00     0.169 C 
BRANCH  26  27
ATOM     27  C   UNL     1      23.028  27.638  30.473  1.00  0.00     0.119 C 
BRANCH  27  28
ATOM     28  N   UNL     1      23.645  26.460  31.049  1.00  0.00    -0.092 NA
ATOM     29  N   UNL     1      24.767  26.063  30.767  1.00  0.00     0.001 N 
ATOM     30  N   UNL     1      25.778  25.600  30.230  1.00  0.00    -0.003 NA
ENDBRANCH  27  28
ENDBRANCH  26  27
ENDBRANCH  25  26
ENDBRANCH  19  25
BRANCH  20  31
ATOM     31  O   UNL     1      24.451  23.789  26.133  1.00  0.00    -0.387 OA
ATOM     32  H   UNL     1      25.339  23.743  26.610  1.00  0.00     0.211 HD
ENDBRANCH  20  31
BRANCH  21  33
ATOM     33  O   UNL     1      25.603  26.186  27.298  1.00  0.00    -0.385 OA
ATOM     34  H   UNL     1      26.023  25.328  27.566  1.00  0.00     0.211 HD
ENDBRANCH  21  33
ENDBRANCH  15  16
ENDBRANCH  10  15
BRANCH  12  35
ATOM     35  O   UNL     1      25.338  23.809  23.377  1.00  0.00    -0.385 OA
ATOM     36  H   UNL     1      26.148  24.191  22.964  1.00  0.00     0.211 HD
ENDBRANCH  12  35
BRANCH  13  37
ATOM     37  O   UNL     1      25.694  23.901  20.563  1.00  0.00    -0.387 OA
ATOM     38  H   UNL     1      26.075  24.340  19.739  1.00  0.00     0.211 HD
ENDBRANCH  13  37
BRANCH  14  39
ATOM     39  O   UNL     1      22.900  24.303  20.072  1.00  0.00    -0.387 OA
ATOM     40  H   UNL     1      23.282  23.736  19.335  1.00  0.00     0.211 HD
ENDBRANCH  14  39
ENDBRANCH   8   9
ENDBRANCH   7   8
ENDBRANCH   1   7
BRANCH   1  41
ATOM     41  C   UNL     1      19.822  28.634  18.937  1.00  0.00     0.364 C 
ATOM     42  O   UNL     1      18.833  27.854  18.748  1.00  0.00    -0.246 OA
BRANCH  41  43
ATOM     43  O   UNL     1      20.251  29.306  17.817  1.00  0.00    -0.477 OA
ATOM     44  H   UNL     1      19.744  29.433  16.967  1.00  0.00     0.296 HD
ENDBRANCH  41  43
ENDBRANCH   1  41
BRANCH   3  45
ATOM     45  O   UNL     1      21.096  29.982  22.648  1.00  0.00    -0.391 OA
ATOM     46  H   UNL     1      21.234  29.050  22.389  1.00  0.00     0.211 HD
ENDBRANCH   3  45
BRANCH   5  47
ATOM     47  C   UNL     1      17.634  30.086  22.101  1.00  0.00     0.176 C 
BRANCH  47  48
ATOM     48  O   UNL     1      16.697  31.104  21.623  1.00  0.00    -0.388 OA
ATOM     49  H   UNL     1      15.918  30.606  21.232  1.00  0.00     0.211 HD
ENDBRANCH  47  48
BRANCH  47  50
ATOM     50  C   UNL     1      17.908  30.388  23.509  1.00  0.00     0.165 C 
BRANCH  50  51
ATOM     51  O   UNL     1      18.696  29.518  24.223  1.00  0.00    -0.388 OA
ATOM     52  H   UNL     1      18.780  28.641  23.761  1.00  0.00     0.211 HD
ENDBRANCH  50  51
BRANCH  50  53
ATOM     53  C   UNL     1      16.833  31.084  24.249  1.00  0.00     0.154 C 
BRANCH  53  54
ATOM     54  N   UNL     1      15.573  30.393  24.331  1.00  0.00    -0.319 N 
ATOM     55  C   UNL     1      14.361  31.045  23.999  1.00  0.00     0.407 C 
ATOM     56  H   UNL     1      15.588  29.411  24.655  1.00  0.00     0.167 HD
ATOM     57  O   UNL     1      14.436  32.238  23.630  1.00  0.00    -0.225 OA
BRANCH  55  58
ATOM     58  O   UNL     1      13.130  30.454  24.055  1.00  0.00    -0.443 OA
BRANCH  58  59
ATOM     59  C   UNL     1      12.383  29.977  22.957  1.00  0.00     0.294 C 
BRANCH  59  60
ATOM     60  C   UNL     1      13.267  29.577  21.814  1.00  0.00     0.121 A 
ATOM     61  C   UNL     1      13.337  30.090  20.538  1.00  0.00     0.144 A 
ATOM     62  N   UNL     1      14.193  28.588  21.852  1.00  0.00    -0.131 NA
ATOM     63  N   UNL     1      14.277  29.418  19.850  1.00  0.00    -0.220 N 
ATOM     64  N   UNL     1      14.788  28.503  20.676  1.00  0.00    -0.062 NA
BRANCH  63  65
ATOM     65  C   UNL     1      14.637  29.660  18.497  1.00  0.00     0.069 A 
ATOM     66  C   UNL     1      13.746  30.029  17.512  1.00  0.00     0.048 A 
ATOM     67  C   UNL     1      15.961  29.521  18.146  1.00  0.00     0.048 A 
ATOM     68  C   UNL     1      14.141  30.260  16.205  1.00  0.00     0.113 A 
ATOM     69  C   UNL     1      16.348  29.754  16.837  1.00  0.00     0.113 A 
ATOM     70  N   UNL     1      15.453  30.112  15.908  1.00  0.00    -0.265 NA
ENDBRANCH  63  65
ENDBRANCH  59  60
ENDBRANCH  58  59
ENDBRANCH  55  58
ENDBRANCH  53  54
ENDBRANCH  50  53
ENDBRANCH  47  50
ENDBRANCH   5  47
BRANCH   4  71
ATOM     71  N   UNL     1      19.836  32.384  20.361  1.00  0.00    -0.348 N 
ATOM     72  C   UNL     1      18.974  33.475  20.114  1.00  0.00     0.217 C 
ATOM     73  H   UNL     1      20.635  32.270  19.711  1.00  0.00     0.163 HD
ATOM     74  C   UNL     1      19.237  34.377  18.984  1.00  0.00     0.114 C 
ATOM     75  O   UNL     1      17.991  33.676  20.854  1.00  0.00    -0.275 OA
ENDBRANCH   4  71
TORSDOF 30
