REMARK VINA RESULT:    -5.619     18.301     23.737
REMARK INTER + INTRA:         -20.868
REMARK INTER:                 -14.052
REMARK INTRA:                  -6.816
REMARK UNBOUND:                -6.052
REMARK SMILES CC(=O)N[C@@H]1[C@@H](O)C[C@](OC[C@H]2O[C@@H](O[C@H]3[C@H](O)[C@@H](O)[C@H](OCCN=[N+]=[N-])O[C@@H]3CO)[C@H](O)[C@@H](O)[C@H]2O)(C(=O)O)O[C@H]1C(O)[C@H](O)CNC(=O)OCc1cn(CC(O)CO)nn1
REMARK SMILES IDX 43 1 42 2 9 3 8 4 41 5 6 6 5 7 10 8 11 9 12 10 14 11 13 12
REMARK SMILES IDX 32 13 34 14 36 15 15 16 16 17 29 18 28 19 21 20 17 21 19 22
REMARK SMILES IDX 30 23 31 24 22 26 23 27 24 28 25 29 26 30 27 31 18 32 20 34
REMARK SMILES IDX 33 36 35 38 37 40 38 42 39 43 40 44 7 46 4 48 2 49 1 51 3 52
REMARK SMILES IDX 44 53 45 55 46 56 47 58 48 59 49 60 50 62 51 63 52 64 53 65
REMARK SMILES IDX 54 66 62 67 55 68 61 69 56 70 57 71 58 72 59 74 60 75
REMARK H PARENT 31 25 18 33 20 35 33 37 35 39 37 41 40 45 7 47 4 50 44 54
REMARK H PARENT 46 57 48 61 58 73 60 76
REMARK Flexibility Score: inf
ROOT
ATOM      1  C   UNL     1      21.695  25.099  23.046  1.00  0.00     0.176 C 
ENDROOT
BRANCH   1   2
ATOM      2  C   UNL     1      21.735  26.386  23.892  1.00  0.00     0.178 C 
ATOM      3  C   UNL     1      21.753  28.742  23.722  1.00  0.00     0.272 C 
ATOM      4  C   UNL     1      22.939  28.818  24.644  1.00  0.00     0.113 C 
ATOM      5  O   UNL     1      21.721  27.473  23.125  1.00  0.00    -0.332 OA
ATOM      6  C   UNL     1      23.669  27.558  24.915  1.00  0.00     0.145 C 
ATOM      7  C   UNL     1      22.884  26.302  24.825  1.00  0.00     0.142 C 
BRANCH   3   8
ATOM      8  O   UNL     1      21.848  29.635  22.759  1.00  0.00    -0.338 OA
BRANCH   8   9
ATOM      9  C   UNL     1      22.313  29.877  21.607  1.00  0.00     0.199 C 
BRANCH   9  10
ATOM     10  C   UNL     1      21.696  29.440  20.319  1.00  0.00     0.179 C 
ATOM     11  C   UNL     1      22.032  27.981  18.589  1.00  0.00     0.282 C 
ATOM     12  O   UNL     1      22.255  28.156  19.951  1.00  0.00    -0.341 OA
ATOM     13  C   UNL     1      20.866  28.724  18.034  1.00  0.00     0.202 C 
ATOM     14  C   UNL     1      19.733  28.954  18.987  1.00  0.00     0.179 C 
ATOM     15  C   UNL     1      20.214  29.076  20.424  1.00  0.00     0.177 C 
BRANCH  11  16
ATOM     16  O   UNL     1      21.970  26.664  18.184  1.00  0.00    -0.341 OA
BRANCH  16  17
ATOM     17  C   UNL     1      23.176  26.161  17.701  1.00  0.00     0.184 C 
ATOM     18  C   UNL     1      23.881  27.225  16.915  1.00  0.00     0.178 C 
ATOM     19  O   UNL     1      24.032  26.910  15.573  1.00  0.00    -0.341 OA
ATOM     20  C   UNL     1      22.855  26.347  15.053  1.00  0.00     0.281 C 
ATOM     21  C   UNL     1      22.953  24.884  17.004  1.00  0.00     0.180 C 
ATOM     22  C   UNL     1      22.861  24.911  15.517  1.00  0.00     0.202 C 
BRANCH  18  23
ATOM     23  C   UNL     1      25.257  27.528  17.471  1.00  0.00     0.191 C 
BRANCH  23  24
ATOM     24  O   UNL     1      25.950  26.369  17.792  1.00  0.00    -0.394 OA
ATOM     25  H   UNL     1      26.932  26.607  17.779  1.00  0.00     0.210 HD
ENDBRANCH  23  24
ENDBRANCH  18  23
BRANCH  20  26
ATOM     26  O   UNL     1      22.964  26.429  13.674  1.00  0.00    -0.350 OA
BRANCH  26  27
ATOM     27  C   UNL     1      24.032  25.722  13.143  1.00  0.00     0.169 C 
BRANCH  27  28
ATOM     28  C   UNL     1      23.686  25.010  11.855  1.00  0.00     0.119 C 
BRANCH  28  29
ATOM     29  N   UNL     1      22.561  24.126  11.998  1.00  0.00    -0.092 NA
ATOM     30  N   UNL     1      21.806  23.781  11.096  1.00  0.00     0.001 N 
ATOM     31  N   UNL     1      21.074  23.595  10.124  1.00  0.00    -0.003 NA
ENDBRANCH  28  29
ENDBRANCH  27  28
ENDBRANCH  26  27
ENDBRANCH  20  26
BRANCH  21  32
ATOM     32  O   UNL     1      23.926  23.916  17.356  1.00  0.00    -0.387 OA
ATOM     33  H   UNL     1      24.377  23.699  16.477  1.00  0.00     0.211 HD
ENDBRANCH  21  32
BRANCH  22  34
ATOM     34  O   UNL     1      21.781  24.194  15.009  1.00  0.00    -0.385 OA
ATOM     35  H   UNL     1      20.997  24.744  14.844  1.00  0.00     0.211 HD
ENDBRANCH  22  34
ENDBRANCH  16  17
ENDBRANCH  11  16
BRANCH  13  36
ATOM     36  O   UNL     1      21.261  29.903  17.358  1.00  0.00    -0.385 OA
ATOM     37  H   UNL     1      21.484  30.633  17.964  1.00  0.00     0.211 HD
ENDBRANCH  13  36
BRANCH  14  38
ATOM     38  O   UNL     1      18.717  28.007  18.881  1.00  0.00    -0.387 OA
ATOM     39  H   UNL     1      19.092  27.171  18.513  1.00  0.00     0.211 HD
ENDBRANCH  14  38
BRANCH  15  40
ATOM     40  O   UNL     1      20.175  27.764  20.969  1.00  0.00    -0.387 OA
ATOM     41  H   UNL     1      20.899  27.642  21.629  1.00  0.00     0.211 HD
ENDBRANCH  15  40
ENDBRANCH   9  10
ENDBRANCH   8   9
ENDBRANCH   3   8
BRANCH   3  42
ATOM     42  C   UNL     1      20.470  28.903  24.481  1.00  0.00     0.364 C 
ATOM     43  O   UNL     1      20.551  28.819  25.746  1.00  0.00    -0.246 OA
BRANCH  42  44
ATOM     44  O   UNL     1      19.256  29.127  23.887  1.00  0.00    -0.477 OA
ATOM     45  H   UNL     1      19.132  29.078  22.869  1.00  0.00     0.296 HD
ENDBRANCH  42  44
ENDBRANCH   3  42
BRANCH   6  46
ATOM     46  O   UNL     1      24.728  27.483  23.979  1.00  0.00    -0.391 OA
ATOM     47  H   UNL     1      25.150  28.361  23.895  1.00  0.00     0.211 HD
ENDBRANCH   6  46
BRANCH   7  48
ATOM     48  N   UNL     1      22.513  25.871  26.170  1.00  0.00    -0.348 N 
ATOM     49  C   UNL     1      23.171  24.801  26.826  1.00  0.00     0.217 C 
ATOM     50  H   UNL     1      21.747  26.336  26.697  1.00  0.00     0.163 HD
ATOM     51  C   UNL     1      22.797  24.359  28.194  1.00  0.00     0.114 C 
ATOM     52  O   UNL     1      24.101  24.224  26.208  1.00  0.00    -0.275 OA
ENDBRANCH   7  48
ENDBRANCH   1   2
BRANCH   1  53
ATOM     53  O   UNL     1      20.442  24.966  22.480  1.00  0.00    -0.388 OA
ATOM     54  H   UNL     1      20.289  24.034  22.187  1.00  0.00     0.211 HD
ENDBRANCH   1  53
BRANCH   1  55
ATOM     55  C   UNL     1      22.748  25.166  21.951  1.00  0.00     0.165 C 
BRANCH  55  56
ATOM     56  O   UNL     1      22.008  25.240  20.746  1.00  0.00    -0.388 OA
ATOM     57  H   UNL     1      21.464  24.421  20.644  1.00  0.00     0.211 HD
ENDBRANCH  55  56
BRANCH  55  58
ATOM     58  C   UNL     1      23.633  23.969  21.888  1.00  0.00     0.154 C 
BRANCH  58  59
ATOM     59  N   UNL     1      25.034  24.315  21.998  1.00  0.00    -0.319 N 
ATOM     60  C   UNL     1      25.830  24.490  20.843  1.00  0.00     0.407 C 
ATOM     61  H   UNL     1      25.506  24.450  22.935  1.00  0.00     0.167 HD
ATOM     62  O   UNL     1      25.367  24.342  19.688  1.00  0.00    -0.225 OA
BRANCH  60  63
ATOM     63  O   UNL     1      27.161  24.840  20.940  1.00  0.00    -0.443 OA
BRANCH  63  64
ATOM     64  C   UNL     1      28.194  24.496  20.084  1.00  0.00     0.294 C 
BRANCH  64  65
ATOM     65  C   UNL     1      28.795  23.162  20.308  1.00  0.00     0.120 A 
ATOM     66  C   UNL     1      29.717  22.871  21.273  1.00  0.00     0.138 A 
ATOM     67  N   UNL     1      28.538  22.028  19.589  1.00  0.00    -0.132 NA
ATOM     68  N   UNL     1      30.006  21.565  21.125  1.00  0.00    -0.249 N 
ATOM     69  N   UNL     1      29.302  21.086  20.128  1.00  0.00    -0.067 NA
BRANCH  68  70
ATOM     70  C   UNL     1      30.942  20.792  21.912  1.00  0.00     0.180 C 
BRANCH  70  71
ATOM     71  C   UNL     1      30.109  19.879  22.823  1.00  0.00     0.161 C 
BRANCH  71  72
ATOM     72  O   UNL     1      28.862  20.443  22.934  1.00  0.00    -0.389 OA
ATOM     73  H   UNL     1      28.885  21.429  22.857  1.00  0.00     0.211 HD
ENDBRANCH  71  72
BRANCH  71  74
ATOM     74  C   UNL     1      30.047  18.492  22.228  1.00  0.00     0.189 C 
BRANCH  74  75
ATOM     75  O   UNL     1      28.807  18.270  21.670  1.00  0.00    -0.394 OA
ATOM     76  H   UNL     1      28.509  19.087  21.193  1.00  0.00     0.210 HD
ENDBRANCH  74  75
ENDBRANCH  71  74
ENDBRANCH  70  71
ENDBRANCH  68  70
ENDBRANCH  64  65
ENDBRANCH  63  64
ENDBRANCH  60  63
ENDBRANCH  58  59
ENDBRANCH  55  58
ENDBRANCH   1  55
TORSDOF 34
