REMARK VINA RESULT:    -3.935     13.171     19.503
REMARK INTER + INTRA:         -21.795
REMARK INTER:                 -13.562
REMARK INTRA:                  -8.233
REMARK UNBOUND:               -11.418
REMARK SMILES CC(=O)N[C@@H]1[C@@H](O)C[C@](OC[C@H]2O[C@@H](O[C@H]3[C@H](O)[C@@H](O)[C@H](OCCN=[N+]=[N-])O[C@@H]3CO)[C@H](O)[C@@H](O)[C@H]2O)(C(=O)O)O[C@H]1C(O)[C@H](O)CNC(=O)OCc1cn(CC(=O)NCc2cccs2)nn1
REMARK SMILES IDX 43 1 42 2 9 3 8 4 41 5 6 6 5 7 10 8 11 9 12 10 14 11 13 12
REMARK SMILES IDX 32 13 34 14 36 15 15 16 16 17 29 18 28 19 21 20 17 21 19 22
REMARK SMILES IDX 30 23 31 24 22 26 23 27 24 28 25 29 26 30 27 31 18 32 20 34
REMARK SMILES IDX 33 36 35 38 37 40 38 42 39 43 40 44 7 46 4 48 2 49 1 51 3 52
REMARK SMILES IDX 44 53 45 55 46 56 47 58 48 59 49 60 50 62 51 63 52 64 53 65
REMARK SMILES IDX 54 66 67 67 55 68 66 69 56 70 57 71 58 72 59 73 60 75 61 76
REMARK SMILES IDX 62 77 65 78 63 79 64 80
REMARK H PARENT 31 25 18 33 20 35 33 37 35 39 37 41 40 45 7 47 4 50 44 54
REMARK H PARENT 46 57 48 61 59 74
REMARK Flexibility Score: inf
ROOT
ATOM      1  C   UNL     1      16.372  28.067  19.173  1.00  0.00     0.176 C 
ENDROOT
BRANCH   1   2
ATOM      2  C   UNL     1      17.457  28.146  18.130  1.00  0.00     0.178 C 
ATOM      3  C   UNL     1      19.562  28.825  18.967  1.00  0.00     0.272 C 
ATOM      4  C   UNL     1      19.083  30.275  18.785  1.00  0.00     0.113 C 
ATOM      5  O   UNL     1      18.640  27.887  18.729  1.00  0.00    -0.332 OA
ATOM      6  C   UNL     1      18.402  30.385  17.482  1.00  0.00     0.145 C 
ATOM      7  C   UNL     1      17.390  29.302  17.211  1.00  0.00     0.142 C 
BRANCH   3   8
ATOM      8  O   UNL     1      19.997  28.781  20.271  1.00  0.00    -0.338 OA
BRANCH   8   9
ATOM      9  C   UNL     1      20.445  27.650  20.820  1.00  0.00     0.199 C 
BRANCH   9  10
ATOM     10  C   UNL     1      21.918  27.360  20.831  1.00  0.00     0.179 C 
ATOM     11  C   UNL     1      23.649  27.621  22.315  1.00  0.00     0.282 C 
ATOM     12  O   UNL     1      22.277  27.358  22.201  1.00  0.00    -0.341 OA
ATOM     13  C   UNL     1      24.449  26.832  21.333  1.00  0.00     0.202 C 
ATOM     14  C   UNL     1      23.719  25.717  20.661  1.00  0.00     0.179 C 
ATOM     15  C   UNL     1      22.277  25.968  20.357  1.00  0.00     0.177 C 
BRANCH  11  16
ATOM     16  O   UNL     1      24.119  27.437  23.586  1.00  0.00    -0.341 OA
BRANCH  16  17
ATOM     17  C   UNL     1      23.169  26.907  24.457  1.00  0.00     0.184 C 
ATOM     18  C   UNL     1      22.892  27.747  25.625  1.00  0.00     0.178 C 
ATOM     19  O   UNL     1      23.307  27.316  26.856  1.00  0.00    -0.341 OA
ATOM     20  C   UNL     1      24.143  26.248  26.914  1.00  0.00     0.281 C 
ATOM     21  C   UNL     1      23.547  25.476  24.714  1.00  0.00     0.180 C 
ATOM     22  C   UNL     1      23.450  25.094  26.169  1.00  0.00     0.202 C 
BRANCH  18  23
ATOM     23  C   UNL     1      21.372  27.961  25.775  1.00  0.00     0.191 C 
BRANCH  23  24
ATOM     24  O   UNL     1      20.840  27.229  26.814  1.00  0.00    -0.394 OA
ATOM     25  H   UNL     1      21.508  27.215  27.552  1.00  0.00     0.210 HD
ENDBRANCH  23  24
ENDBRANCH  18  23
BRANCH  20  26
ATOM     26  O   UNL     1      24.208  25.803  28.245  1.00  0.00    -0.350 OA
BRANCH  26  27
ATOM     27  C   UNL     1      23.786  26.772  29.133  1.00  0.00     0.169 C 
BRANCH  27  28
ATOM     28  C   UNL     1      22.907  26.077  30.177  1.00  0.00     0.119 C 
BRANCH  28  29
ATOM     29  N   UNL     1      21.510  26.210  29.789  1.00  0.00    -0.092 NA
ATOM     30  N   UNL     1      20.956  27.304  29.882  1.00  0.00     0.001 N 
ATOM     31  N   UNL     1      20.402  28.413  29.763  1.00  0.00    -0.003 NA
ENDBRANCH  28  29
ENDBRANCH  27  28
ENDBRANCH  26  27
ENDBRANCH  20  26
BRANCH  21  32
ATOM     32  O   UNL     1      22.847  24.572  23.910  1.00  0.00    -0.387 OA
ATOM     33  H   UNL     1      22.526  23.786  24.449  1.00  0.00     0.211 HD
ENDBRANCH  21  32
BRANCH  22  34
ATOM     34  O   UNL     1      24.133  23.908  26.354  1.00  0.00    -0.385 OA
ATOM     35  H   UNL     1      23.502  23.152  26.459  1.00  0.00     0.211 HD
ENDBRANCH  22  34
ENDBRANCH  16  17
ENDBRANCH  11  16
BRANCH  13  36
ATOM     36  O   UNL     1      25.051  27.666  20.363  1.00  0.00    -0.385 OA
ATOM     37  H   UNL     1      26.016  27.577  20.320  1.00  0.00     0.211 HD
ENDBRANCH  13  36
BRANCH  14  38
ATOM     38  O   UNL     1      23.898  24.507  21.372  1.00  0.00    -0.387 OA
ATOM     39  H   UNL     1      23.405  24.549  22.228  1.00  0.00     0.211 HD
ENDBRANCH  14  38
BRANCH  15  40
ATOM     40  O   UNL     1      21.541  25.029  21.118  1.00  0.00    -0.387 OA
ATOM     41  H   UNL     1      20.578  25.062  20.918  1.00  0.00     0.211 HD
ENDBRANCH  15  40
ENDBRANCH   9  10
ENDBRANCH   8   9
ENDBRANCH   3   8
BRANCH   3  42
ATOM     42  C   UNL     1      20.701  28.693  18.006  1.00  0.00     0.364 C 
ATOM     43  O   UNL     1      21.667  29.486  17.936  1.00  0.00    -0.246 OA
BRANCH  42  44
ATOM     44  O   UNL     1      20.716  27.623  17.119  1.00  0.00    -0.477 OA
ATOM     45  H   UNL     1      19.851  27.262  16.737  1.00  0.00     0.296 HD
ENDBRANCH  42  44
ENDBRANCH   3  42
BRANCH   6  46
ATOM     46  O   UNL     1      17.806  31.675  17.373  1.00  0.00    -0.391 OA
ATOM     47  H   UNL     1      17.799  32.138  18.239  1.00  0.00     0.211 HD
ENDBRANCH   6  46
BRANCH   7  48
ATOM     48  N   UNL     1      17.434  28.893  15.821  1.00  0.00    -0.348 N 
ATOM     49  C   UNL     1      16.633  29.548  14.862  1.00  0.00     0.217 C 
ATOM     50  H   UNL     1      18.049  28.103  15.490  1.00  0.00     0.163 HD
ATOM     51  C   UNL     1      16.691  29.112  13.436  1.00  0.00     0.114 C 
ATOM     52  O   UNL     1      15.856  30.495  15.131  1.00  0.00    -0.275 OA
ENDBRANCH   7  48
ENDBRANCH   1   2
BRANCH   1  53
ATOM     53  O   UNL     1      16.778  27.704  20.424  1.00  0.00    -0.388 OA
ATOM     54  H   UNL     1      17.591  28.133  20.764  1.00  0.00     0.211 HD
ENDBRANCH   1  53
BRANCH   1  55
ATOM     55  C   UNL     1      15.396  29.223  19.171  1.00  0.00     0.165 C 
BRANCH  55  56
ATOM     56  O   UNL     1      15.866  30.333  19.804  1.00  0.00    -0.388 OA
ATOM     57  H   UNL     1      16.084  31.091  19.218  1.00  0.00     0.211 HD
ENDBRANCH  55  56
BRANCH  55  58
ATOM     58  C   UNL     1      14.063  28.781  19.750  1.00  0.00     0.154 C 
BRANCH  58  59
ATOM     59  N   UNL     1      14.060  28.745  21.182  1.00  0.00    -0.319 N 
ATOM     60  C   UNL     1      13.326  29.585  22.055  1.00  0.00     0.407 C 
ATOM     61  H   UNL     1      14.663  28.019  21.713  1.00  0.00     0.167 HD
ATOM     62  O   UNL     1      12.576  30.467  21.637  1.00  0.00    -0.225 OA
BRANCH  60  63
ATOM     63  O   UNL     1      13.422  29.450  23.454  1.00  0.00    -0.443 OA
BRANCH  63  64
ATOM     64  C   UNL     1      14.502  29.862  24.225  1.00  0.00     0.294 C 
BRANCH  64  65
ATOM     65  C   UNL     1      15.702  30.228  23.461  1.00  0.00     0.120 A 
ATOM     66  C   UNL     1      16.186  31.498  23.231  1.00  0.00     0.138 A 
ATOM     67  N   UNL     1      16.567  29.382  22.840  1.00  0.00    -0.132 NA
ATOM     68  N   UNL     1      17.301  31.402  22.495  1.00  0.00    -0.243 N 
ATOM     69  N   UNL     1      17.500  30.123  22.281  1.00  0.00    -0.067 NA
BRANCH  68  70
ATOM     70  C   UNL     1      18.186  32.430  21.992  1.00  0.00     0.245 C 
BRANCH  70  71
ATOM     71  C   UNL     1      17.381  33.417  21.249  1.00  0.00     0.242 C 
ATOM     72  O   UNL     1      17.117  34.522  21.757  1.00  0.00    -0.273 OA
ATOM     73  N   UNL     1      16.898  33.120  19.952  1.00  0.00    -0.350 N 
ATOM     74  H   UNL     1      17.098  32.191  19.485  1.00  0.00     0.163 HD
BRANCH  73  75
ATOM     75  C   UNL     1      16.116  34.050  19.198  1.00  0.00     0.162 C 
BRANCH  75  76
ATOM     76  C   UNL     1      14.816  33.443  18.878  1.00  0.00     0.024 A 
ATOM     77  C   UNL     1      14.401  32.710  17.814  1.00  0.00     0.017 A 
ATOM     78  S   UNL     1      13.385  33.532  19.895  1.00  0.00    -0.147 S 
ATOM     79  C   UNL     1      13.136  32.265  17.774  1.00  0.00     0.012 A 
ATOM     80  C   UNL     1      12.289  32.543  18.781  1.00  0.00     0.065 A 
ENDBRANCH  75  76
ENDBRANCH  73  75
ENDBRANCH  70  71
ENDBRANCH  68  70
ENDBRANCH  64  65
ENDBRANCH  63  64
ENDBRANCH  60  63
ENDBRANCH  58  59
ENDBRANCH  55  58
ENDBRANCH   1  55
TORSDOF 33
