REMARK VINA RESULT:    -5.930      4.254      9.617
REMARK INTER + INTRA:         -21.291
REMARK INTER:                 -13.803
REMARK INTRA:                  -7.488
REMARK UNBOUND:                -6.520
REMARK SMILES CC(=O)N[C@@H]1[C@@H](O)C[C@](OC[C@H]2O[C@@H](O[C@H]3[C@H](O)[C@@H](O)[C@H](OCCN=[N+]=[N-])O[C@@H]3CO)[C@H](O)[C@@H](O)[C@H]2O)(C(=O)O)O[C@H]1C(O)[C@H](O)CNC(=O)OCc1cn(-c2nc(C)nc(N)n2)nn1
REMARK SMILES IDX 9 1 8 2 6 3 5 4 42 5 41 6 10 7 11 8 12 9 14 10 13 11 32 12
REMARK SMILES IDX 34 13 36 14 15 15 16 16 29 17 28 18 21 19 17 20 19 21 30 22
REMARK SMILES IDX 31 23 22 25 23 26 24 27 25 28 26 29 27 30 18 31 20 33 33 35
REMARK SMILES IDX 35 37 37 39 38 41 39 42 40 43 7 45 43 47 44 48 45 50 46 51
REMARK SMILES IDX 47 53 48 54 49 55 50 57 51 58 52 59 53 60 54 61 65 62 55 63
REMARK SMILES IDX 64 64 56 65 63 66 57 67 61 68 58 69 60 70 59 71 62 72 4 75
REMARK SMILES IDX 2 76 1 78 3 79
REMARK H PARENT 31 24 18 32 20 34 33 36 35 38 37 40 40 44 7 46 44 49 46 52
REMARK H PARENT 48 56 62 73 62 74 4 77
REMARK Flexibility Score: inf
ROOT
ATOM      1  C   UNL     1      23.681  25.653  22.619  1.00  0.00     0.272 C 
ATOM      2  C   UNL     1      22.575  24.812  23.158  1.00  0.00     0.113 C 
ATOM      3  C   UNL     1      21.281  25.565  23.197  1.00  0.00     0.145 C 
ATOM      4  C   UNL     1      21.478  26.819  24.007  1.00  0.00     0.142 C 
ATOM      5  C   UNL     1      22.748  27.559  23.654  1.00  0.00     0.178 C 
ATOM      6  O   UNL     1      23.825  26.776  23.477  1.00  0.00    -0.332 OA
ENDROOT
BRANCH   1   7
ATOM      7  O   UNL     1      23.713  25.933  21.363  1.00  0.00    -0.338 OA
BRANCH   7   8
ATOM      8  C   UNL     1      24.365  26.551  20.456  1.00  0.00     0.199 C 
BRANCH   8   9
ATOM      9  C   UNL     1      24.616  26.142  19.045  1.00  0.00     0.179 C 
ATOM     10  C   UNL     1      25.860  25.008  17.593  1.00  0.00     0.282 C 
ATOM     11  O   UNL     1      25.506  25.120  18.966  1.00  0.00    -0.341 OA
ATOM     12  C   UNL     1      24.705  24.252  16.986  1.00  0.00     0.202 C 
ATOM     13  C   UNL     1      23.466  25.110  17.049  1.00  0.00     0.179 C 
ATOM     14  C   UNL     1      23.430  26.109  18.138  1.00  0.00     0.177 C 
BRANCH  10  15
ATOM     15  O   UNL     1      27.041  24.334  17.435  1.00  0.00    -0.341 OA
BRANCH  15  16
ATOM     16  C   UNL     1      27.289  23.394  18.421  1.00  0.00     0.184 C 
ATOM     17  C   UNL     1      28.354  23.763  19.398  1.00  0.00     0.178 C 
ATOM     18  O   UNL     1      29.352  22.805  19.511  1.00  0.00    -0.341 OA
ATOM     19  C   UNL     1      28.886  21.518  19.747  1.00  0.00     0.281 C 
ATOM     20  C   UNL     1      27.733  22.130  17.660  1.00  0.00     0.180 C 
ATOM     21  C   UNL     1      27.927  21.046  18.694  1.00  0.00     0.202 C 
BRANCH  17  22
ATOM     22  C   UNL     1      27.849  24.191  20.750  1.00  0.00     0.191 C 
BRANCH  22  23
ATOM     23  O   UNL     1      26.583  23.588  20.919  1.00  0.00    -0.394 OA
ATOM     24  H   UNL     1      26.629  22.607  20.901  1.00  0.00     0.210 HD
ENDBRANCH  22  23
ENDBRANCH  17  22
BRANCH  19  25
ATOM     25  O   UNL     1      28.311  21.362  20.978  1.00  0.00    -0.350 OA
BRANCH  25  26
ATOM     26  C   UNL     1      28.521  20.182  21.627  1.00  0.00     0.169 C 
BRANCH  26  27
ATOM     27  C   UNL     1      29.905  19.625  21.436  1.00  0.00     0.119 C 
BRANCH  27  28
ATOM     28  N   UNL     1      29.776  18.251  20.930  1.00  0.00    -0.092 NA
ATOM     29  N   UNL     1      30.404  17.978  19.909  1.00  0.00     0.001 N 
ATOM     30  N   UNL     1      30.536  17.546  18.743  1.00  0.00    -0.003 NA
ENDBRANCH  27  28
ENDBRANCH  26  27
ENDBRANCH  25  26
ENDBRANCH  19  25
BRANCH  20  31
ATOM     31  O   UNL     1      26.792  21.803  16.707  1.00  0.00    -0.387 OA
ATOM     32  H   UNL     1      26.723  20.816  16.590  1.00  0.00     0.211 HD
ENDBRANCH  20  31
BRANCH  21  33
ATOM     33  O   UNL     1      28.401  19.919  18.022  1.00  0.00    -0.385 OA
ATOM     34  H   UNL     1      29.112  20.159  17.377  1.00  0.00     0.211 HD
ENDBRANCH  21  33
ENDBRANCH  15  16
ENDBRANCH  10  15
BRANCH  12  35
ATOM     35  O   UNL     1      24.958  23.836  15.681  1.00  0.00    -0.385 OA
ATOM     36  H   UNL     1      24.589  22.923  15.578  1.00  0.00     0.211 HD
ENDBRANCH  12  35
BRANCH  13  37
ATOM     37  O   UNL     1      22.372  24.240  17.044  1.00  0.00    -0.387 OA
ATOM     38  H   UNL     1      22.111  23.946  17.953  1.00  0.00     0.211 HD
ENDBRANCH  13  37
BRANCH  14  39
ATOM     39  O   UNL     1      22.196  26.071  18.778  1.00  0.00    -0.387 OA
ATOM     40  H   UNL     1      22.075  26.979  19.188  1.00  0.00     0.211 HD
ENDBRANCH  14  39
ENDBRANCH   8   9
ENDBRANCH   7   8
ENDBRANCH   1   7
BRANCH   1  41
ATOM     41  C   UNL     1      24.945  24.853  23.045  1.00  0.00     0.364 C 
ATOM     42  O   UNL     1      25.932  25.517  23.336  1.00  0.00    -0.246 OA
BRANCH  41  43
ATOM     43  O   UNL     1      24.919  23.494  23.078  1.00  0.00    -0.477 OA
ATOM     44  H   UNL     1      24.052  22.941  23.131  1.00  0.00     0.296 HD
ENDBRANCH  41  43
ENDBRANCH   1  41
BRANCH   3  45
ATOM     45  O   UNL     1      20.810  25.952  21.963  1.00  0.00    -0.391 OA
ATOM     46  H   UNL     1      20.401  25.223  21.466  1.00  0.00     0.211 HD
ENDBRANCH   3  45
BRANCH   5  47
ATOM     47  C   UNL     1      22.553  28.617  22.596  1.00  0.00     0.176 C 
BRANCH  47  48
ATOM     48  O   UNL     1      21.233  29.034  22.555  1.00  0.00    -0.388 OA
ATOM     49  H   UNL     1      20.819  29.193  23.422  1.00  0.00     0.211 HD
ENDBRANCH  47  48
BRANCH  47  50
ATOM     50  C   UNL     1      23.476  29.762  22.867  1.00  0.00     0.165 C 
BRANCH  50  51
ATOM     51  O   UNL     1      22.736  30.808  23.448  1.00  0.00    -0.388 OA
ATOM     52  H   UNL     1      22.459  30.532  24.339  1.00  0.00     0.211 HD
ENDBRANCH  50  51
BRANCH  50  53
ATOM     53  C   UNL     1      24.187  30.307  21.676  1.00  0.00     0.154 C 
BRANCH  53  54
ATOM     54  N   UNL     1      23.362  30.306  20.489  1.00  0.00    -0.319 N 
ATOM     55  C   UNL     1      22.518  31.366  20.107  1.00  0.00     0.407 C 
ATOM     56  H   UNL     1      23.367  29.465  19.840  1.00  0.00     0.167 HD
ATOM     57  O   UNL     1      22.444  32.388  20.796  1.00  0.00    -0.225 OA
BRANCH  55  58
ATOM     58  O   UNL     1      21.740  31.311  18.955  1.00  0.00    -0.443 OA
BRANCH  58  59
ATOM     59  C   UNL     1      21.230  30.121  18.409  1.00  0.00     0.294 C 
BRANCH  59  60
ATOM     60  C   UNL     1      20.248  29.466  19.325  1.00  0.00     0.121 A 
ATOM     61  C   UNL     1      19.155  30.065  19.915  1.00  0.00     0.148 A 
ATOM     62  N   UNL     1      20.249  28.185  19.740  1.00  0.00    -0.131 NA
ATOM     63  N   UNL     1      18.530  29.141  20.665  1.00  0.00    -0.185 N 
ATOM     64  N   UNL     1      19.210  28.020  20.540  1.00  0.00    -0.059 NA
BRANCH  63  65
ATOM     65  C   UNL     1      17.357  29.394  21.424  1.00  0.00     0.257 A 
ATOM     66  N   UNL     1      17.454  30.065  22.588  1.00  0.00    -0.175 NA
ATOM     67  N   UNL     1      16.124  29.005  21.054  1.00  0.00    -0.196 NA
ATOM     68  C   UNL     1      16.366  30.337  23.354  1.00  0.00     0.225 A 
ATOM     69  C   UNL     1      15.030  29.254  21.781  1.00  0.00     0.133 A 
ATOM     70  N   UNL     1      15.155  29.918  22.926  1.00  0.00    -0.198 NA
ATOM     71  C   UNL     1      13.669  28.798  21.327  1.00  0.00     0.090 C 
BRANCH  68  72
ATOM     72  N   UNL     1      16.523  31.044  24.567  1.00  0.00    -0.368 N 
ATOM     73  H   UNL     1      17.426  31.491  24.822  1.00  0.00     0.159 HD
ATOM     74  H   UNL     1      15.732  31.132  25.234  1.00  0.00     0.159 HD
ENDBRANCH  68  72
ENDBRANCH  63  65
ENDBRANCH  59  60
ENDBRANCH  58  59
ENDBRANCH  55  58
ENDBRANCH  53  54
ENDBRANCH  50  53
ENDBRANCH  47  50
ENDBRANCH   5  47
BRANCH   4  75
ATOM     75  N   UNL     1      21.480  26.470  25.411  1.00  0.00    -0.348 N 
ATOM     76  C   UNL     1      21.110  27.423  26.402  1.00  0.00     0.217 C 
ATOM     77  H   UNL     1      21.749  25.513  25.754  1.00  0.00     0.163 HD
ATOM     78  C   UNL     1      21.118  27.051  27.823  1.00  0.00     0.114 C 
ATOM     79  O   UNL     1      20.780  28.578  26.054  1.00  0.00    -0.275 OA
ENDBRANCH   4  75
TORSDOF 31
