REMARK VINA RESULT:    -5.294      3.110      7.987
REMARK INTER + INTRA:         -22.685
REMARK INTER:                 -14.227
REMARK INTRA:                  -8.459
REMARK UNBOUND:                -8.417
REMARK SMILES CC(=O)N[C@@H]1[C@@H](O)C[C@](OC[C@H]2O[C@@H](O[C@H]3[C@H](O)[C@@H](O)[C@H](OCCN=[N+]=[N-])O[C@@H]3CO)[C@H](O)[C@@H](O)[C@H]2O)(C(=O)O)O[C@H]1C(O)[C@H](O)CNC(=O)OCc1cn(CCNC(=O)NCc2ccco2)nn1
REMARK SMILES IDX 43 1 42 2 9 3 8 4 41 5 6 6 5 7 10 8 11 9 12 10 14 11 13 12
REMARK SMILES IDX 32 13 34 14 36 15 15 16 16 17 29 18 28 19 21 20 17 21 19 22
REMARK SMILES IDX 30 23 31 24 22 26 23 27 24 28 25 29 26 30 27 31 18 32 20 34
REMARK SMILES IDX 33 36 35 38 37 40 38 42 39 43 40 44 7 46 4 48 2 49 1 51 3 52
REMARK SMILES IDX 44 53 45 55 46 56 47 58 48 59 49 60 50 62 51 63 52 64 53 65
REMARK SMILES IDX 54 66 69 67 55 68 68 69 56 70 57 71 58 72 59 73 60 75 61 76
REMARK SMILES IDX 62 78 63 79 64 80 67 81 65 82 66 83
REMARK H PARENT 31 25 18 33 20 35 33 37 35 39 37 41 40 45 7 47 4 50 44 54
REMARK H PARENT 46 57 48 61 58 74 61 77
REMARK Flexibility Score: inf
ROOT
ATOM      1  C   UNL     1      15.901  30.638  24.033  1.00  0.00     0.176 C 
ENDROOT
BRANCH   1   2
ATOM      2  C   UNL     1      14.686  30.345  23.211  1.00  0.00     0.178 C 
ATOM      3  C   UNL     1      15.430  29.478  21.125  1.00  0.00     0.272 C 
ATOM      4  C   UNL     1      15.668  30.995  20.834  1.00  0.00     0.113 C 
ATOM      5  O   UNL     1      14.846  29.320  22.330  1.00  0.00    -0.332 OA
ATOM      6  C   UNL     1      14.546  31.845  21.280  1.00  0.00     0.145 C 
ATOM      7  C   UNL     1      13.983  31.524  22.643  1.00  0.00     0.142 C 
BRANCH   3   8
ATOM      8  O   UNL     1      16.708  28.964  21.190  1.00  0.00    -0.338 OA
BRANCH   8   9
ATOM      9  C   UNL     1      17.768  29.717  20.913  1.00  0.00     0.199 C 
BRANCH   9  10
ATOM     10  C   UNL     1      19.005  29.299  20.281  1.00  0.00     0.179 C 
ATOM     11  C   UNL     1      20.899  28.005  20.282  1.00  0.00     0.282 C 
ATOM     12  O   UNL     1      19.608  28.160  20.787  1.00  0.00    -0.341 OA
ATOM     13  C   UNL     1      21.167  28.715  19.006  1.00  0.00     0.202 C 
ATOM     14  C   UNL     1      19.994  28.876  18.083  1.00  0.00     0.179 C 
ATOM     15  C   UNL     1      18.686  28.946  18.815  1.00  0.00     0.177 C 
BRANCH  11  16
ATOM     16  O   UNL     1      21.253  26.672  20.151  1.00  0.00    -0.341 OA
BRANCH  16  17
ATOM     17  C   UNL     1      22.218  26.272  21.098  1.00  0.00     0.184 C 
ATOM     18  C   UNL     1      21.849  24.891  21.554  1.00  0.00     0.178 C 
ATOM     19  O   UNL     1      22.172  24.672  22.891  1.00  0.00    -0.341 OA
ATOM     20  C   UNL     1      21.341  25.499  23.638  1.00  0.00     0.281 C 
ATOM     21  C   UNL     1      22.262  27.312  22.167  1.00  0.00     0.180 C 
ATOM     22  C   UNL     1      21.810  26.910  23.520  1.00  0.00     0.202 C 
BRANCH  18  23
ATOM     23  C   UNL     1      22.679  23.890  20.750  1.00  0.00     0.191 C 
BRANCH  23  24
ATOM     24  O   UNL     1      22.325  24.061  19.394  1.00  0.00    -0.394 OA
ATOM     25  H   UNL     1      23.134  24.481  18.978  1.00  0.00     0.210 HD
ENDBRANCH  23  24
ENDBRANCH  18  23
BRANCH  20  26
ATOM     26  O   UNL     1      21.502  25.111  24.971  1.00  0.00    -0.350 OA
BRANCH  26  27
ATOM     27  C   UNL     1      22.799  24.661  25.220  1.00  0.00     0.169 C 
BRANCH  27  28
ATOM     28  C   UNL     1      22.985  24.694  26.739  1.00  0.00     0.119 C 
BRANCH  28  29
ATOM     29  N   UNL     1      22.313  25.892  27.210  1.00  0.00    -0.092 NA
ATOM     30  N   UNL     1      21.925  25.984  28.384  1.00  0.00     0.001 N 
ATOM     31  N   UNL     1      21.832  26.172  29.609  1.00  0.00    -0.003 NA
ENDBRANCH  28  29
ENDBRANCH  27  28
ENDBRANCH  26  27
ENDBRANCH  20  26
BRANCH  21  32
ATOM     32  O   UNL     1      23.585  27.795  22.224  1.00  0.00    -0.387 OA
ATOM     33  H   UNL     1      24.242  27.077  22.186  1.00  0.00     0.211 HD
ENDBRANCH  21  32
BRANCH  22  34
ATOM     34  O   UNL     1      20.702  27.721  23.874  1.00  0.00    -0.385 OA
ATOM     35  H   UNL     1      20.307  28.016  22.997  1.00  0.00     0.211 HD
ENDBRANCH  22  34
ENDBRANCH  16  17
ENDBRANCH  11  16
BRANCH  13  36
ATOM     36  O   UNL     1      21.863  29.918  19.187  1.00  0.00    -0.385 OA
ATOM     37  H   UNL     1      22.752  29.773  19.582  1.00  0.00     0.211 HD
ENDBRANCH  13  36
BRANCH  14  38
ATOM     38  O   UNL     1      19.959  27.875  17.104  1.00  0.00    -0.387 OA
ATOM     39  H   UNL     1      19.790  27.028  17.604  1.00  0.00     0.211 HD
ENDBRANCH  14  38
BRANCH  15  40
ATOM     40  O   UNL     1      17.934  27.799  18.731  1.00  0.00    -0.387 OA
ATOM     41  H   UNL     1      18.372  27.107  19.259  1.00  0.00     0.211 HD
ENDBRANCH  15  40
ENDBRANCH   9  10
ENDBRANCH   8   9
ENDBRANCH   3   8
BRANCH   3  42
ATOM     42  C   UNL     1      14.716  29.015  19.938  1.00  0.00     0.364 C 
ATOM     43  O   UNL     1      13.684  29.575  19.542  1.00  0.00    -0.246 OA
BRANCH  42  44
ATOM     44  O   UNL     1      15.131  27.923  19.169  1.00  0.00    -0.477 OA
ATOM     45  H   UNL     1      16.079  27.917  18.789  1.00  0.00     0.296 HD
ENDBRANCH  42  44
ENDBRANCH   3  42
BRANCH   6  46
ATOM     46  O   UNL     1      15.001  33.177  21.286  1.00  0.00    -0.391 OA
ATOM     47  H   UNL     1      14.234  33.779  21.456  1.00  0.00     0.211 HD
ENDBRANCH   6  46
BRANCH   7  48
ATOM     48  N   UNL     1      12.547  31.281  22.507  1.00  0.00    -0.348 N 
ATOM     49  C   UNL     1      11.651  31.609  23.533  1.00  0.00     0.217 C 
ATOM     50  H   UNL     1      12.206  30.854  21.619  1.00  0.00     0.163 HD
ATOM     51  C   UNL     1      10.178  31.379  23.443  1.00  0.00     0.114 C 
ATOM     52  O   UNL     1      12.137  32.128  24.589  1.00  0.00    -0.275 OA
ENDBRANCH   7  48
ENDBRANCH   1   2
BRANCH   1  53
ATOM     53  O   UNL     1      16.639  29.409  24.175  1.00  0.00    -0.388 OA
ATOM     54  H   UNL     1      16.085  28.730  23.761  1.00  0.00     0.211 HD
ENDBRANCH   1  53
BRANCH   1  55
ATOM     55  C   UNL     1      15.660  31.039  25.459  1.00  0.00     0.165 C 
BRANCH  55  56
ATOM     56  O   UNL     1      14.734  32.031  25.677  1.00  0.00    -0.388 OA
ATOM     57  H   UNL     1      14.629  32.652  24.913  1.00  0.00     0.211 HD
ENDBRANCH  55  56
BRANCH  55  58
ATOM     58  C   UNL     1      16.976  31.365  26.173  1.00  0.00     0.154 C 
BRANCH  58  59
ATOM     59  N   UNL     1      17.904  32.011  25.275  1.00  0.00    -0.319 N 
ATOM     60  C   UNL     1      19.078  31.389  24.794  1.00  0.00     0.407 C 
ATOM     61  H   UNL     1      17.695  32.980  24.966  1.00  0.00     0.167 HD
ATOM     62  O   UNL     1      19.345  30.213  25.154  1.00  0.00    -0.225 OA
BRANCH  60  63
ATOM     63  O   UNL     1      19.956  32.038  23.931  1.00  0.00    -0.443 OA
BRANCH  63  64
ATOM     64  C   UNL     1      19.716  33.404  23.609  1.00  0.00     0.294 C 
BRANCH  64  65
ATOM     65  C   UNL     1      19.199  33.391  22.206  1.00  0.00     0.120 A 
ATOM     66  C   UNL     1      19.867  32.889  21.122  1.00  0.00     0.138 A 
ATOM     67  N   UNL     1      18.003  33.862  21.775  1.00  0.00    -0.132 NA
ATOM     68  N   UNL     1      19.071  33.068  20.079  1.00  0.00    -0.250 N 
ATOM     69  N   UNL     1      17.945  33.657  20.480  1.00  0.00    -0.067 NA
BRANCH  68  70
ATOM     70  C   UNL     1      19.397  32.684  18.706  1.00  0.00     0.167 C 
BRANCH  70  71
ATOM     71  C   UNL     1      18.237  33.149  17.825  1.00  0.00     0.141 C 
BRANCH  71  72
ATOM     72  N   UNL     1      17.207  32.156  17.930  1.00  0.00    -0.336 N 
ATOM     73  C   UNL     1      16.792  31.336  16.861  1.00  0.00     0.315 C 
ATOM     74  H   UNL     1      16.747  32.056  18.874  1.00  0.00     0.165 HD
ATOM     75  O   UNL     1      17.302  31.446  15.725  1.00  0.00    -0.249 OA
ATOM     76  N   UNL     1      15.767  30.360  17.099  1.00  0.00    -0.331 N 
ATOM     77  H   UNL     1      15.368  30.303  18.070  1.00  0.00     0.165 HD
BRANCH  76  78
ATOM     78  C   UNL     1      15.320  29.504  16.036  1.00  0.00     0.193 C 
BRANCH  78  79
ATOM     79  C   UNL     1      13.931  29.855  15.638  1.00  0.00     0.122 A 
ATOM     80  C   UNL     1      13.571  30.325  14.381  1.00  0.00     0.047 A 
ATOM     81  O   UNL     1      12.870  29.782  16.368  1.00  0.00    -0.467 OA
ATOM     82  C   UNL     1      12.222  30.523  14.426  1.00  0.00     0.042 A 
ATOM     83  C   UNL     1      11.816  30.173  15.686  1.00  0.00     0.195 A 
ENDBRANCH  78  79
ENDBRANCH  76  78
ENDBRANCH  71  72
ENDBRANCH  70  71
ENDBRANCH  68  70
ENDBRANCH  64  65
ENDBRANCH  63  64
ENDBRANCH  60  63
ENDBRANCH  58  59
ENDBRANCH  55  58
ENDBRANCH   1  55
TORSDOF 34
