REMARK VINA RESULT:    -6.503      4.890     10.955
REMARK INTER + INTRA:         -21.136
REMARK INTER:                 -16.387
REMARK INTRA:                  -4.749
REMARK UNBOUND:                -4.749
REMARK SMILES CC(=O)N[C@@H]1[C@@H](O)C[C@](OC[C@H]2O[C@@H](O[C@H]3[C@H](O)[C@@H](O)[C@H](OCCN=[N+]=[N-])O[C@@H]3CO)[C@H](O)[C@@H](O)[C@H]2O)(C(=O)O)O[C@H]1C(O)[C@H](O)CNC(=O)OCc1cn(-c2ccccc2C(C)=O)nn1
REMARK SMILES IDX 9 1 8 2 6 3 5 4 42 5 41 6 10 7 11 8 12 9 14 10 13 11 32 12
REMARK SMILES IDX 34 13 36 14 15 15 16 16 29 17 28 18 21 19 17 20 19 21 30 22
REMARK SMILES IDX 31 23 22 25 23 26 24 27 25 28 26 29 27 30 18 31 20 33 33 35
REMARK SMILES IDX 35 37 37 39 38 41 39 42 40 43 7 45 43 47 44 48 45 50 46 51
REMARK SMILES IDX 47 53 48 54 49 55 50 57 51 58 52 59 53 60 54 61 66 62 55 63
REMARK SMILES IDX 65 64 56 65 61 66 57 67 60 68 58 69 59 70 62 71 64 72 63 73
REMARK SMILES IDX 4 74 2 75 1 77 3 78
REMARK H PARENT 31 24 18 32 20 34 33 36 35 38 37 40 40 44 7 46 44 49 46 52
REMARK H PARENT 48 56 4 76
REMARK Flexibility Score: inf
ROOT
ATOM      1  C   UNL     1      16.150  29.084  20.389  1.00  0.00     0.272 C 
ATOM      2  C   UNL     1      15.616  30.371  19.832  1.00  0.00     0.113 C 
ATOM      3  C   UNL     1      14.117  30.361  19.988  1.00  0.00     0.145 C 
ATOM      4  C   UNL     1      13.889  30.419  21.489  1.00  0.00     0.142 C 
ATOM      5  C   UNL     1      14.420  29.115  22.021  1.00  0.00     0.178 C 
ATOM      6  O   UNL     1      15.231  28.403  21.219  1.00  0.00    -0.332 OA
ENDROOT
BRANCH   1   7
ATOM      7  O   UNL     1      17.285  29.117  21.040  1.00  0.00    -0.338 OA
BRANCH   7   8
ATOM      8  C   UNL     1      18.357  29.842  20.977  1.00  0.00     0.199 C 
BRANCH   8   9
ATOM      9  C   UNL     1      19.716  29.372  20.616  1.00  0.00     0.179 C 
ATOM     10  C   UNL     1      21.128  27.577  20.990  1.00  0.00     0.282 C 
ATOM     11  O   UNL     1      19.832  28.041  21.127  1.00  0.00    -0.341 OA
ATOM     12  C   UNL     1      22.013  28.350  20.088  1.00  0.00     0.202 C 
ATOM     13  C   UNL     1      21.361  28.971  18.892  1.00  0.00     0.179 C 
ATOM     14  C   UNL     1      19.876  29.144  19.094  1.00  0.00     0.177 C 
BRANCH  10  15
ATOM     15  O   UNL     1      21.097  26.243  20.584  1.00  0.00    -0.341 OA
BRANCH  15  16
ATOM     16  C   UNL     1      21.666  25.398  21.534  1.00  0.00     0.184 C 
ATOM     17  C   UNL     1      21.913  26.206  22.784  1.00  0.00     0.178 C 
ATOM     18  O   UNL     1      23.230  26.293  23.154  1.00  0.00    -0.341 OA
ATOM     19  C   UNL     1      23.905  25.103  23.269  1.00  0.00     0.281 C 
ATOM     20  C   UNL     1      23.043  25.016  20.973  1.00  0.00     0.180 C 
ATOM     21  C   UNL     1      23.752  24.233  22.031  1.00  0.00     0.202 C 
BRANCH  17  22
ATOM     22  C   UNL     1      21.032  25.648  23.888  1.00  0.00     0.191 C 
BRANCH  22  23
ATOM     23  O   UNL     1      20.331  24.561  23.368  1.00  0.00    -0.394 OA
ATOM     24  H   UNL     1      19.384  24.726  23.212  1.00  0.00     0.210 HD
ENDBRANCH  22  23
ENDBRANCH  17  22
BRANCH  19  25
ATOM     25  O   UNL     1      23.638  24.394  24.424  1.00  0.00    -0.350 OA
BRANCH  25  26
ATOM     26  C   UNL     1      24.582  24.720  25.386  1.00  0.00     0.169 C 
BRANCH  26  27
ATOM     27  C   UNL     1      23.898  24.837  26.740  1.00  0.00     0.119 C 
BRANCH  27  28
ATOM     28  N   UNL     1      23.985  26.219  27.228  1.00  0.00    -0.092 NA
ATOM     29  N   UNL     1      23.276  27.042  26.651  1.00  0.00     0.001 N 
ATOM     30  N   UNL     1      22.723  27.982  26.107  1.00  0.00    -0.003 NA
ENDBRANCH  27  28
ENDBRANCH  26  27
ENDBRANCH  25  26
ENDBRANCH  19  25
BRANCH  20  31
ATOM     31  O   UNL     1      22.881  24.328  19.792  1.00  0.00    -0.387 OA
ATOM     32  H   UNL     1      22.009  24.556  19.341  1.00  0.00     0.211 HD
ENDBRANCH  20  31
BRANCH  21  33
ATOM     33  O   UNL     1      24.978  23.732  21.587  1.00  0.00    -0.385 OA
ATOM     34  H   UNL     1      25.659  23.844  22.319  1.00  0.00     0.211 HD
ENDBRANCH  21  33
ENDBRANCH  15  16
ENDBRANCH  10  15
BRANCH  12  35
ATOM     35  O   UNL     1      22.807  29.268  20.793  1.00  0.00    -0.385 OA
ATOM     36  H   UNL     1      23.772  29.093  20.653  1.00  0.00     0.211 HD
ENDBRANCH  12  35
BRANCH  13  37
ATOM     37  O   UNL     1      21.532  28.189  17.737  1.00  0.00    -0.387 OA
ATOM     38  H   UNL     1      22.448  28.383  17.406  1.00  0.00     0.211 HD
ENDBRANCH  13  37
BRANCH  14  39
ATOM     39  O   UNL     1      19.172  27.992  18.724  1.00  0.00    -0.387 OA
ATOM     40  H   UNL     1      19.760  27.198  18.638  1.00  0.00     0.211 HD
ENDBRANCH  14  39
ENDBRANCH   8   9
ENDBRANCH   7   8
ENDBRANCH   1   7
BRANCH   1  41
ATOM     41  C   UNL     1      16.189  28.162  19.218  1.00  0.00     0.364 C 
ATOM     42  O   UNL     1      16.351  26.905  19.393  1.00  0.00    -0.246 OA
BRANCH  41  43
ATOM     43  O   UNL     1      16.069  28.529  17.902  1.00  0.00    -0.477 OA
ATOM     44  H   UNL     1      15.808  27.879  17.173  1.00  0.00     0.296 HD
ENDBRANCH  41  43
ENDBRANCH   1  41
BRANCH   3  45
ATOM     45  O   UNL     1      13.642  31.507  19.355  1.00  0.00    -0.391 OA
ATOM     46  H   UNL     1      12.860  31.303  18.777  1.00  0.00     0.211 HD
ENDBRANCH   3  45
BRANCH   5  47
ATOM     47  C   UNL     1      15.002  29.340  23.454  1.00  0.00     0.176 C 
BRANCH  47  48
ATOM     48  O   UNL     1      13.854  29.113  24.304  1.00  0.00    -0.388 OA
ATOM     49  H   UNL     1      13.842  28.108  24.365  1.00  0.00     0.211 HD
ENDBRANCH  47  48
BRANCH  47  50
ATOM     50  C   UNL     1      15.402  30.740  23.659  1.00  0.00     0.165 C 
BRANCH  50  51
ATOM     51  O   UNL     1      16.782  30.938  23.406  1.00  0.00    -0.388 OA
ATOM     52  H   UNL     1      16.971  31.876  23.185  1.00  0.00     0.211 HD
ENDBRANCH  50  51
BRANCH  50  53
ATOM     53  C   UNL     1      14.806  31.599  24.679  1.00  0.00     0.154 C 
BRANCH  53  54
ATOM     54  N   UNL     1      14.899  31.166  26.025  1.00  0.00    -0.319 N 
ATOM     55  C   UNL     1      16.053  31.044  26.830  1.00  0.00     0.407 C 
ATOM     56  H   UNL     1      13.996  30.889  26.532  1.00  0.00     0.167 HD
ATOM     57  O   UNL     1      17.165  31.326  26.327  1.00  0.00    -0.225 OA
BRANCH  55  58
ATOM     58  O   UNL     1      16.037  30.629  28.154  1.00  0.00    -0.443 OA
BRANCH  58  59
ATOM     59  C   UNL     1      14.890  30.800  28.945  1.00  0.00     0.294 C 
BRANCH  59  60
ATOM     60  C   UNL     1      15.301  30.593  30.376  1.00  0.00     0.121 A 
ATOM     61  C   UNL     1      15.160  29.447  31.124  1.00  0.00     0.144 A 
ATOM     62  N   UNL     1      15.878  31.473  31.206  1.00  0.00    -0.131 NA
ATOM     63  N   UNL     1      15.659  29.687  32.381  1.00  0.00    -0.220 N 
ATOM     64  N   UNL     1      16.085  30.932  32.385  1.00  0.00    -0.062 NA
BRANCH  63  65
ATOM     65  C   UNL     1      15.641  28.735  33.436  1.00  0.00     0.077 A 
ATOM     66  C   UNL     1      14.566  28.376  34.167  1.00  0.00     0.043 A 
ATOM     67  C   UNL     1      16.882  28.126  33.708  1.00  0.00     0.029 A 
ATOM     68  C   UNL     1      14.747  27.403  35.173  1.00  0.00     0.014 A 
ATOM     69  C   UNL     1      17.030  27.179  34.697  1.00  0.00     0.002 A 
ATOM     70  C   UNL     1      15.943  26.804  35.449  1.00  0.00     0.001 A 
BRANCH  66  71
ATOM     71  C   UNL     1      13.257  28.950  33.962  1.00  0.00     0.161 C 
ATOM     72  O   UNL     1      13.165  30.207  34.241  1.00  0.00    -0.294 OA
ATOM     73  C   UNL     1      12.033  28.306  33.483  1.00  0.00     0.093 C 
ENDBRANCH  66  71
ENDBRANCH  63  65
ENDBRANCH  59  60
ENDBRANCH  58  59
ENDBRANCH  55  58
ENDBRANCH  53  54
ENDBRANCH  50  53
ENDBRANCH  47  50
ENDBRANCH   5  47
BRANCH   4  74
ATOM     74  N   UNL     1      12.516  30.650  21.824  1.00  0.00    -0.348 N 
ATOM     75  C   UNL     1      11.988  31.928  22.135  1.00  0.00     0.217 C 
ATOM     76  H   UNL     1      11.882  29.809  21.832  1.00  0.00     0.163 HD
ATOM     77  C   UNL     1      10.527  32.057  22.471  1.00  0.00     0.114 C 
ATOM     78  O   UNL     1      12.768  32.902  22.115  1.00  0.00    -0.275 OA
ENDBRANCH   4  74
TORSDOF 31
