REMARK VINA RESULT:    -5.980      4.137     11.430
REMARK INTER + INTRA:         -21.498
REMARK INTER:                 -15.268
REMARK INTRA:                  -6.229
REMARK UNBOUND:                -6.778
REMARK SMILES CC(=O)N[C@@H]1[C@@H](O)C[C@](OC[C@H]2O[C@@H](O[C@H]3[C@H](O)[C@@H](O)[C@H](OCCN=[N+]=[N-])O[C@@H]3CO)[C@H](O)[C@@H](O)[C@H]2O)(C(=O)O)O[C@H]1C(O)[C@H](O)CNC(=O)OCc1cn(-c2ccc3c(c2)OCO3)nn1
REMARK SMILES IDX 9 1 8 2 6 3 5 4 42 5 41 6 10 7 11 8 12 9 14 10 13 11 32 12
REMARK SMILES IDX 34 13 36 14 15 15 16 16 29 17 28 18 21 19 17 20 19 21 30 22
REMARK SMILES IDX 31 23 22 25 23 26 24 27 25 28 26 29 27 30 18 31 20 33 33 35
REMARK SMILES IDX 35 37 37 39 38 41 39 42 40 43 7 45 43 47 44 48 45 50 46 51
REMARK SMILES IDX 47 53 48 54 49 55 50 57 51 58 52 59 53 60 54 61 66 62 55 63
REMARK SMILES IDX 65 64 56 65 57 66 61 67 58 68 60 69 59 70 62 71 64 72 63 73
REMARK SMILES IDX 4 74 2 75 1 77 3 78
REMARK H PARENT 31 24 18 32 20 34 33 36 35 38 37 40 40 44 7 46 44 49 46 52
REMARK H PARENT 48 56 4 76
REMARK Flexibility Score: inf
ROOT
ATOM      1  C   UNL     1      20.916  28.777  24.047  1.00  0.00     0.272 C 
ATOM      2  C   UNL     1      21.847  29.771  23.412  1.00  0.00     0.113 C 
ATOM      3  C   UNL     1      22.039  29.501  21.908  1.00  0.00     0.145 C 
ATOM      4  C   UNL     1      22.794  28.191  21.834  1.00  0.00     0.142 C 
ATOM      5  C   UNL     1      21.983  27.205  22.649  1.00  0.00     0.178 C 
ATOM      6  O   UNL     1      20.816  27.681  23.143  1.00  0.00    -0.332 OA
ENDROOT
BRANCH   1   7
ATOM      7  O   UNL     1      19.675  29.208  24.205  1.00  0.00    -0.338 OA
BRANCH   7   8
ATOM      8  C   UNL     1      19.152  30.360  24.494  1.00  0.00     0.199 C 
BRANCH   8   9
ATOM      9  C   UNL     1      18.264  31.103  23.533  1.00  0.00     0.179 C 
ATOM     10  C   UNL     1      17.541  30.915  21.327  1.00  0.00     0.282 C 
ATOM     11  O   UNL     1      18.483  30.606  22.274  1.00  0.00    -0.341 OA
ATOM     12  C   UNL     1      16.567  31.962  21.752  1.00  0.00     0.202 C 
ATOM     13  C   UNL     1      15.874  31.595  23.053  1.00  0.00     0.179 C 
ATOM     14  C   UNL     1      16.796  30.829  23.947  1.00  0.00     0.177 C 
BRANCH  10  15
ATOM     15  O   UNL     1      16.795  29.742  21.095  1.00  0.00    -0.341 OA
BRANCH  15  16
ATOM     16  C   UNL     1      17.325  28.951  20.109  1.00  0.00     0.184 C 
ATOM     17  C   UNL     1      17.868  29.820  19.004  1.00  0.00     0.178 C 
ATOM     18  O   UNL     1      16.929  30.184  18.069  1.00  0.00    -0.341 OA
ATOM     19  C   UNL     1      15.637  30.251  18.592  1.00  0.00     0.281 C 
ATOM     20  C   UNL     1      16.224  28.036  19.627  1.00  0.00     0.180 C 
ATOM     21  C   UNL     1      15.135  28.896  19.023  1.00  0.00     0.202 C 
BRANCH  17  22
ATOM     22  C   UNL     1      19.005  29.134  18.262  1.00  0.00     0.191 C 
BRANCH  22  23
ATOM     23  O   UNL     1      19.527  28.079  19.000  1.00  0.00    -0.394 OA
ATOM     24  H   UNL     1      20.376  27.715  18.601  1.00  0.00     0.210 HD
ENDBRANCH  22  23
ENDBRANCH  17  22
BRANCH  19  25
ATOM     25  O   UNL     1      14.832  30.694  17.551  1.00  0.00    -0.350 OA
BRANCH  25  26
ATOM     26  C   UNL     1      15.321  30.178  16.356  1.00  0.00     0.169 C 
BRANCH  26  27
ATOM     27  C   UNL     1      14.319  30.372  15.223  1.00  0.00     0.119 C 
BRANCH  27  28
ATOM     28  N   UNL     1      13.008  30.579  15.856  1.00  0.00    -0.092 NA
ATOM     29  N   UNL     1      12.103  29.741  15.652  1.00  0.00     0.001 N 
ATOM     30  N   UNL     1      11.334  28.833  15.288  1.00  0.00    -0.003 NA
ENDBRANCH  27  28
ENDBRANCH  26  27
ENDBRANCH  25  26
ENDBRANCH  19  25
BRANCH  20  31
ATOM     31  O   UNL     1      16.664  27.054  18.762  1.00  0.00    -0.387 OA
ATOM     32  H   UNL     1      17.202  27.405  17.993  1.00  0.00     0.211 HD
ENDBRANCH  20  31
BRANCH  21  33
ATOM     33  O   UNL     1      14.167  29.100  20.009  1.00  0.00    -0.385 OA
ATOM     34  H   UNL     1      14.161  30.027  20.357  1.00  0.00     0.211 HD
ENDBRANCH  21  33
ENDBRANCH  15  16
ENDBRANCH  10  15
BRANCH  12  35
ATOM     35  O   UNL     1      17.111  33.237  21.883  1.00  0.00    -0.385 OA
ATOM     36  H   UNL     1      17.625  33.440  21.040  1.00  0.00     0.211 HD
ENDBRANCH  12  35
BRANCH  13  37
ATOM     37  O   UNL     1      14.745  30.836  22.739  1.00  0.00    -0.387 OA
ATOM     38  H   UNL     1      14.702  30.558  21.805  1.00  0.00     0.211 HD
ENDBRANCH  13  37
BRANCH  14  39
ATOM     39  O   UNL     1      16.517  29.472  23.812  1.00  0.00    -0.387 OA
ATOM     40  H   UNL     1      15.665  29.283  23.386  1.00  0.00     0.211 HD
ENDBRANCH  14  39
ENDBRANCH   8   9
ENDBRANCH   7   8
ENDBRANCH   1   7
BRANCH   1  41
ATOM     41  C   UNL     1      21.517  28.203  25.295  1.00  0.00     0.364 C 
ATOM     42  O   UNL     1      20.748  27.443  25.981  1.00  0.00    -0.246 OA
BRANCH  41  43
ATOM     43  O   UNL     1      22.777  28.418  25.752  1.00  0.00    -0.477 OA
ATOM     44  H   UNL     1      23.019  28.502  26.727  1.00  0.00     0.296 HD
ENDBRANCH  41  43
ENDBRANCH   1  41
BRANCH   3  45
ATOM     45  O   UNL     1      20.744  29.368  21.389  1.00  0.00    -0.391 OA
ATOM     46  H   UNL     1      20.778  29.083  20.449  1.00  0.00     0.211 HD
ENDBRANCH   3  45
BRANCH   5  47
ATOM     47  C   UNL     1      21.583  26.108  21.641  1.00  0.00     0.176 C 
BRANCH  47  48
ATOM     48  O   UNL     1      22.397  26.062  20.547  1.00  0.00    -0.388 OA
ATOM     49  H   UNL     1      22.275  25.264  19.976  1.00  0.00     0.211 HD
ENDBRANCH  47  48
BRANCH  47  50
ATOM     50  C   UNL     1      21.536  24.741  22.311  1.00  0.00     0.165 C 
BRANCH  50  51
ATOM     51  O   UNL     1      20.433  24.565  23.077  1.00  0.00    -0.388 OA
ATOM     52  H   UNL     1      19.576  24.851  22.698  1.00  0.00     0.211 HD
ENDBRANCH  50  51
BRANCH  50  53
ATOM     53  C   UNL     1      22.798  24.623  23.107  1.00  0.00     0.154 C 
BRANCH  53  54
ATOM     54  N   UNL     1      23.959  24.509  22.280  1.00  0.00    -0.319 N 
ATOM     55  C   UNL     1      25.220  25.110  22.532  1.00  0.00     0.407 C 
ATOM     56  H   UNL     1      23.933  23.925  21.370  1.00  0.00     0.167 HD
ATOM     57  O   UNL     1      25.407  25.800  23.554  1.00  0.00    -0.225 OA
BRANCH  55  58
ATOM     58  O   UNL     1      26.291  24.950  21.649  1.00  0.00    -0.443 OA
BRANCH  58  59
ATOM     59  C   UNL     1      26.210  24.226  20.452  1.00  0.00     0.294 C 
BRANCH  59  60
ATOM     60  C   UNL     1      27.193  23.091  20.513  1.00  0.00     0.121 A 
ATOM     61  C   UNL     1      27.924  22.708  21.639  1.00  0.00     0.144 A 
ATOM     62  N   UNL     1      27.554  22.239  19.546  1.00  0.00    -0.131 NA
ATOM     63  N   UNL     1      28.694  21.647  21.310  1.00  0.00    -0.220 N 
ATOM     64  N   UNL     1      28.434  21.402  20.036  1.00  0.00    -0.062 NA
BRANCH  63  65
ATOM     65  C   UNL     1      29.585  20.932  22.131  1.00  0.00     0.070 A 
ATOM     66  C   UNL     1      30.240  19.831  21.653  1.00  0.00     0.032 A 
ATOM     67  C   UNL     1      29.812  21.331  23.425  1.00  0.00     0.079 A 
ATOM     68  C   UNL     1      31.127  19.130  22.482  1.00  0.00     0.053 A 
ATOM     69  C   UNL     1      30.681  20.654  24.253  1.00  0.00     0.167 A 
ATOM     70  C   UNL     1      31.336  19.551  23.771  1.00  0.00     0.165 A 
ATOM     71  O   UNL     1      31.056  20.872  25.561  1.00  0.00    -0.454 OA
ATOM     72  O   UNL     1      32.143  19.056  24.788  1.00  0.00    -0.454 OA
ATOM     73  C   UNL     1      31.753  19.690  25.975  1.00  0.00     0.468 C 
ENDBRANCH  63  65
ENDBRANCH  59  60
ENDBRANCH  58  59
ENDBRANCH  55  58
ENDBRANCH  53  54
ENDBRANCH  50  53
ENDBRANCH  47  50
ENDBRANCH   5  47
BRANCH   4  74
ATOM     74  N   UNL     1      24.131  28.388  22.306  1.00  0.00    -0.348 N 
ATOM     75  C   UNL     1      25.236  28.569  21.395  1.00  0.00     0.217 C 
ATOM     76  H   UNL     1      24.412  28.413  23.309  1.00  0.00     0.163 HD
ATOM     77  C   UNL     1      26.620  28.773  21.898  1.00  0.00     0.114 C 
ATOM     78  O   UNL     1      25.021  28.554  20.178  1.00  0.00    -0.275 OA
ENDBRANCH   4  74
TORSDOF 30
