REMARK VINA RESULT:    -7.041      8.018     12.519
REMARK INTER + INTRA:         -22.924
REMARK INTER:                 -15.760
REMARK INTRA:                  -7.164
REMARK UNBOUND:                -5.593
REMARK SMILES CC(=O)N[C@@H]1[C@@H](O)C[C@](OC[C@H]2O[C@@H](O[C@H]3[C@H](O)[C@@H](O)[C@H](OCCN=[N+]=[N-])O[C@@H]3CO)[C@H](O)[C@@H](O)[C@H]2O)(C(=O)O)O[C@H]1C(O)[C@H](O)CNC(=O)OCc1cn(C2c3ccccc3-c3ccccc32)nn1
REMARK SMILES IDX 9 1 8 2 6 3 5 4 42 5 41 6 10 7 11 8 12 9 14 10 13 11 32 12
REMARK SMILES IDX 34 13 36 14 15 15 16 16 29 17 28 18 21 19 17 20 19 21 30 22
REMARK SMILES IDX 31 23 22 25 23 26 24 27 25 28 26 29 27 30 18 31 20 33 33 35
REMARK SMILES IDX 35 37 37 39 38 41 39 42 40 43 7 45 43 47 44 48 45 50 46 51
REMARK SMILES IDX 47 53 48 54 49 55 50 57 51 58 52 59 53 60 54 61 70 62 55 63
REMARK SMILES IDX 69 64 56 65 57 66 68 67 58 68 62 69 63 70 67 71 59 72 61 73
REMARK SMILES IDX 64 74 66 75 60 76 65 77 4 78 2 79 1 81 3 82
REMARK H PARENT 31 24 18 32 20 34 33 36 35 38 37 40 40 44 7 46 44 49 46 52
REMARK H PARENT 48 56 4 80
REMARK Flexibility Score: inf
ROOT
ATOM      1  C   UNL     1      13.330  30.474  14.764  1.00  0.00     0.272 C 
ATOM      2  C   UNL     1      13.327  30.954  13.370  1.00  0.00     0.113 C 
ATOM      3  C   UNL     1      13.391  32.430  13.262  1.00  0.00     0.145 C 
ATOM      4  C   UNL     1      12.951  33.155  14.504  1.00  0.00     0.142 C 
ATOM      5  C   UNL     1      11.958  32.315  15.227  1.00  0.00     0.178 C 
ATOM      6  O   UNL     1      12.337  31.055  15.567  1.00  0.00    -0.332 OA
ENDROOT
BRANCH   1   7
ATOM      7  O   UNL     1      14.535  30.636  15.395  1.00  0.00    -0.338 OA
BRANCH   7   8
ATOM      8  C   UNL     1      14.554  30.454  16.751  1.00  0.00     0.199 C 
BRANCH   8   9
ATOM      9  C   UNL     1      15.971  30.561  17.269  1.00  0.00     0.179 C 
ATOM     10  C   UNL     1      15.397  29.782  19.404  1.00  0.00     0.282 C 
ATOM     11  O   UNL     1      15.915  30.778  18.626  1.00  0.00    -0.341 OA
ATOM     12  C   UNL     1      15.937  28.458  19.019  1.00  0.00     0.202 C 
ATOM     13  C   UNL     1      17.265  28.748  18.293  1.00  0.00     0.179 C 
ATOM     14  C   UNL     1      16.799  29.346  16.948  1.00  0.00     0.177 C 
BRANCH  10  15
ATOM     15  O   UNL     1      14.042  29.901  19.559  1.00  0.00    -0.341 OA
BRANCH  15  16
ATOM     16  C   UNL     1      13.594  30.321  20.782  1.00  0.00     0.184 C 
ATOM     17  C   UNL     1      14.052  31.701  21.073  1.00  0.00     0.178 C 
ATOM     18  O   UNL     1      14.424  31.894  22.399  1.00  0.00    -0.341 OA
ATOM     19  C   UNL     1      13.705  31.162  23.287  1.00  0.00     0.281 C 
ATOM     20  C   UNL     1      14.149  29.297  21.768  1.00  0.00     0.180 C 
ATOM     21  C   UNL     1      14.167  29.712  23.179  1.00  0.00     0.202 C 
BRANCH  17  22
ATOM     22  C   UNL     1      12.991  32.733  20.756  1.00  0.00     0.191 C 
BRANCH  22  23
ATOM     23  O   UNL     1      11.853  32.111  20.187  1.00  0.00    -0.394 OA
ATOM     24  H   UNL     1      11.717  31.212  20.613  1.00  0.00     0.210 HD
ENDBRANCH  22  23
ENDBRANCH  17  22
BRANCH  19  25
ATOM     25  O   UNL     1      12.333  31.150  23.118  1.00  0.00    -0.350 OA
BRANCH  25  26
ATOM     26  C   UNL     1      11.622  31.481  24.236  1.00  0.00     0.169 C 
BRANCH  26  27
ATOM     27  C   UNL     1      10.326  32.185  24.023  1.00  0.00     0.119 C 
BRANCH  27  28
ATOM     28  N   UNL     1       9.772  31.977  22.701  1.00  0.00    -0.092 NA
ATOM     29  N   UNL     1       9.601  32.990  22.011  1.00  0.00     0.001 N 
ATOM     30  N   UNL     1       9.305  33.960  21.304  1.00  0.00    -0.003 NA
ENDBRANCH  27  28
ENDBRANCH  26  27
ENDBRANCH  25  26
ENDBRANCH  19  25
BRANCH  20  31
ATOM     31  O   UNL     1      13.379  28.107  21.674  1.00  0.00    -0.387 OA
ATOM     32  H   UNL     1      12.506  28.297  21.246  1.00  0.00     0.211 HD
ENDBRANCH  20  31
BRANCH  21  33
ATOM     33  O   UNL     1      15.474  29.671  23.685  1.00  0.00    -0.385 OA
ATOM     34  H   UNL     1      15.568  30.166  24.539  1.00  0.00     0.211 HD
ENDBRANCH  21  33
ENDBRANCH  15  16
ENDBRANCH  10  15
BRANCH  12  35
ATOM     35  O   UNL     1      16.290  27.661  20.106  1.00  0.00    -0.385 OA
ATOM     36  H   UNL     1      16.444  28.246  20.885  1.00  0.00     0.211 HD
ENDBRANCH  12  35
BRANCH  13  37
ATOM     37  O   UNL     1      17.947  27.590  18.001  1.00  0.00    -0.387 OA
ATOM     38  H   UNL     1      17.660  26.888  18.634  1.00  0.00     0.211 HD
ENDBRANCH  13  37
BRANCH  14  39
ATOM     39  O   UNL     1      15.993  28.381  16.373  1.00  0.00    -0.387 OA
ATOM     40  H   UNL     1      15.607  28.666  15.508  1.00  0.00     0.211 HD
ENDBRANCH  14  39
ENDBRANCH   8   9
ENDBRANCH   7   8
ENDBRANCH   1   7
BRANCH   1  41
ATOM     41  C   UNL     1      12.938  28.998  14.808  1.00  0.00     0.364 C 
ATOM     42  O   UNL     1      11.807  28.718  15.218  1.00  0.00    -0.246 OA
BRANCH  41  43
ATOM     43  O   UNL     1      13.803  28.010  14.409  1.00  0.00    -0.477 OA
ATOM     44  H   UNL     1      14.098  27.264  15.051  1.00  0.00     0.296 HD
ENDBRANCH  41  43
ENDBRANCH   1  41
BRANCH   3  45
ATOM     45  O   UNL     1      14.627  32.938  12.857  1.00  0.00    -0.391 OA
ATOM     46  H   UNL     1      14.732  32.974  11.896  1.00  0.00     0.211 HD
ENDBRANCH   3  45
BRANCH   5  47
ATOM     47  C   UNL     1      11.527  33.052  16.493  1.00  0.00     0.176 C 
BRANCH  47  48
ATOM     48  O   UNL     1      12.589  33.131  17.358  1.00  0.00    -0.388 OA
ATOM     49  H   UNL     1      13.422  32.746  16.951  1.00  0.00     0.211 HD
ENDBRANCH  47  48
BRANCH  47  50
ATOM     50  C   UNL     1      10.363  32.320  17.090  1.00  0.00     0.165 C 
BRANCH  50  51
ATOM     51  O   UNL     1       9.670  31.635  16.077  1.00  0.00    -0.388 OA
ATOM     52  H   UNL     1      10.134  30.801  15.842  1.00  0.00     0.211 HD
ENDBRANCH  50  51
BRANCH  50  53
ATOM     53  C   UNL     1       9.381  33.386  17.591  1.00  0.00     0.154 C 
BRANCH  53  54
ATOM     54  N   UNL     1       8.542  32.781  18.580  1.00  0.00    -0.319 N 
ATOM     55  C   UNL     1       7.277  32.262  18.233  1.00  0.00     0.407 C 
ATOM     56  H   UNL     1       8.870  32.720  19.574  1.00  0.00     0.167 HD
ATOM     57  O   UNL     1       6.847  32.325  17.053  1.00  0.00    -0.225 OA
BRANCH  55  58
ATOM     58  O   UNL     1       6.454  31.661  19.164  1.00  0.00    -0.443 OA
BRANCH  58  59
ATOM     59  C   UNL     1       6.219  32.205  20.454  1.00  0.00     0.294 C 
BRANCH  59  60
ATOM     60  C   UNL     1       6.093  31.068  21.399  1.00  0.00     0.120 A 
ATOM     61  C   UNL     1       6.227  31.082  22.781  1.00  0.00     0.139 A 
ATOM     62  N   UNL     1       5.819  29.793  21.083  1.00  0.00    -0.132 NA
ATOM     63  N   UNL     1       6.032  29.840  23.253  1.00  0.00    -0.240 N 
ATOM     64  N   UNL     1       5.786  29.081  22.197  1.00  0.00    -0.066 NA
BRANCH  63  65
ATOM     65  C   UNL     1       6.081  29.417  24.654  1.00  0.00     0.170 C 
ATOM     66  C   UNL     1       7.291  28.614  24.846  1.00  0.00    -0.011 A 
ATOM     67  C   UNL     1       4.981  28.481  24.948  1.00  0.00    -0.011 A 
ATOM     68  C   UNL     1       8.641  28.923  24.725  1.00  0.00     0.007 A 
ATOM     69  C   UNL     1       6.975  27.333  25.212  1.00  0.00    -0.012 A 
ATOM     70  C   UNL     1       5.517  27.258  25.274  1.00  0.00    -0.012 A 
ATOM     71  C   UNL     1       3.606  28.621  24.952  1.00  0.00     0.007 A 
ATOM     72  C   UNL     1       9.606  27.972  24.966  1.00  0.00     0.000 A 
ATOM     73  C   UNL     1       7.949  26.376  25.454  1.00  0.00     0.009 A 
ATOM     74  C   UNL     1       4.709  26.192  25.599  1.00  0.00     0.009 A 
ATOM     75  C   UNL     1       2.780  27.568  25.273  1.00  0.00     0.000 A 
ATOM     76  C   UNL     1       9.286  26.674  25.336  1.00  0.00     0.001 A 
ATOM     77  C   UNL     1       3.335  26.348  25.598  1.00  0.00     0.001 A 
ENDBRANCH  63  65
ENDBRANCH  59  60
ENDBRANCH  58  59
ENDBRANCH  55  58
ENDBRANCH  53  54
ENDBRANCH  50  53
ENDBRANCH  47  50
ENDBRANCH   5  47
BRANCH   4  78
ATOM     78  N   UNL     1      12.218  34.350  14.044  1.00  0.00    -0.348 N 
ATOM     79  C   UNL     1      12.716  35.660  14.265  1.00  0.00     0.217 C 
ATOM     80  H   UNL     1      11.325  34.203  13.554  1.00  0.00     0.163 HD
ATOM     81  C   UNL     1      11.961  36.863  13.792  1.00  0.00     0.114 C 
ATOM     82  O   UNL     1      13.817  35.781  14.871  1.00  0.00    -0.275 OA
ENDBRANCH   4  78
TORSDOF 30
