REMARK VINA RESULT:    -5.702      2.861     10.222
REMARK INTER + INTRA:         -21.071
REMARK INTER:                 -12.661
REMARK INTRA:                  -8.410
REMARK UNBOUND:                -7.035
REMARK SMILES CC(=O)N[C@@H]1[C@@H](O)C[C@](OC[C@H]2O[C@@H](O[C@H]3[C@H](O)[C@@H](O)[C@H](OCCN=[N+]=[N-])O[C@@H]3CO)[C@H](O)[C@@H](O)[C@H]2O)(C(=O)O)O[C@H]1C(O)[C@H](O)CNC(=O)OCc1cn([C@@H]2C[C@H]3CC[C@@H](C2)N3C)nn1
REMARK SMILES IDX 9 1 8 2 6 3 5 4 42 5 41 6 10 7 11 8 12 9 14 10 13 11 32 12
REMARK SMILES IDX 34 13 36 14 15 15 16 16 29 17 28 18 21 19 17 20 19 21 30 22
REMARK SMILES IDX 31 23 22 25 23 26 24 27 25 28 26 29 27 30 18 31 20 33 33 35
REMARK SMILES IDX 35 37 37 39 38 41 39 42 40 43 7 45 43 47 44 48 45 50 46 51
REMARK SMILES IDX 47 53 48 54 49 55 50 57 51 58 52 59 53 60 54 61 66 62 55 63
REMARK SMILES IDX 65 64 56 65 62 66 57 67 61 68 58 69 63 70 60 71 59 72 64 73
REMARK SMILES IDX 4 74 2 75 1 77 3 78
REMARK H PARENT 31 24 18 32 20 34 33 36 35 38 37 40 40 44 7 46 44 49 46 52
REMARK H PARENT 48 56 4 76
REMARK Flexibility Score: inf
ROOT
ATOM      1  C   UNL     1      15.053  30.426  20.734  1.00  0.00     0.272 C 
ATOM      2  C   UNL     1      14.466  29.292  19.994  1.00  0.00     0.113 C 
ATOM      3  C   UNL     1      15.534  28.335  19.485  1.00  0.00     0.145 C 
ATOM      4  C   UNL     1      16.584  29.129  18.673  1.00  0.00     0.142 C 
ATOM      5  C   UNL     1      16.921  30.407  19.331  1.00  0.00     0.178 C 
ATOM      6  O   UNL     1      16.470  30.362  20.635  1.00  0.00    -0.332 OA
ENDROOT
BRANCH   1   7
ATOM      7  O   UNL     1      14.727  30.691  22.016  1.00  0.00    -0.338 OA
BRANCH   7   8
ATOM      8  C   UNL     1      15.241  30.285  23.132  1.00  0.00     0.199 C 
BRANCH   8   9
ATOM      9  C   UNL     1      15.042  31.165  24.358  1.00  0.00     0.179 C 
ATOM     10  C   UNL     1      16.869  31.690  25.742  1.00  0.00     0.282 C 
ATOM     11  O   UNL     1      15.977  30.749  25.317  1.00  0.00    -0.341 OA
ATOM     12  C   UNL     1      16.239  32.935  26.269  1.00  0.00     0.202 C 
ATOM     13  C   UNL     1      15.295  33.456  25.242  1.00  0.00     0.179 C 
ATOM     14  C   UNL     1      15.196  32.613  24.018  1.00  0.00     0.177 C 
BRANCH  10  15
ATOM     15  O   UNL     1      17.908  31.911  24.856  1.00  0.00    -0.341 OA
BRANCH  15  16
ATOM     16  C   UNL     1      18.986  31.066  25.017  1.00  0.00     0.184 C 
ATOM     17  C   UNL     1      20.251  31.802  25.216  1.00  0.00     0.178 C 
ATOM     18  O   UNL     1      21.312  30.951  25.544  1.00  0.00    -0.341 OA
ATOM     19  C   UNL     1      21.041  29.607  25.285  1.00  0.00     0.281 C 
ATOM     20  C   UNL     1      19.204  30.287  23.676  1.00  0.00     0.180 C 
ATOM     21  C   UNL     1      20.346  29.367  23.960  1.00  0.00     0.202 C 
BRANCH  17  22
ATOM     22  C   UNL     1      20.232  32.965  26.144  1.00  0.00     0.191 C 
BRANCH  22  23
ATOM     23  O   UNL     1      19.742  32.587  27.392  1.00  0.00    -0.394 OA
ATOM     24  H   UNL     1      19.011  31.933  27.264  1.00  0.00     0.210 HD
ENDBRANCH  22  23
ENDBRANCH  17  22
BRANCH  19  25
ATOM     25  O   UNL     1      20.467  28.975  26.352  1.00  0.00    -0.350 OA
BRANCH  25  26
ATOM     26  C   UNL     1      21.241  28.466  27.334  1.00  0.00     0.169 C 
BRANCH  26  27
ATOM     27  C   UNL     1      20.849  28.833  28.717  1.00  0.00     0.119 C 
BRANCH  27  28
ATOM     28  N   UNL     1      19.989  29.960  28.837  1.00  0.00    -0.092 NA
ATOM     29  N   UNL     1      19.143  30.088  29.727  1.00  0.00     0.001 N 
ATOM     30  N   UNL     1      18.007  30.262  30.180  1.00  0.00    -0.003 NA
ENDBRANCH  27  28
ENDBRANCH  26  27
ENDBRANCH  25  26
ENDBRANCH  19  25
BRANCH  20  31
ATOM     31  O   UNL     1      18.089  29.562  23.340  1.00  0.00    -0.387 OA
ATOM     32  H   UNL     1      18.341  28.754  22.817  1.00  0.00     0.211 HD
ENDBRANCH  20  31
BRANCH  21  33
ATOM     33  O   UNL     1      21.301  29.437  22.941  1.00  0.00    -0.385 OA
ATOM     34  H   UNL     1      20.945  29.981  22.223  1.00  0.00     0.211 HD
ENDBRANCH  21  33
ENDBRANCH  15  16
ENDBRANCH  10  15
BRANCH  12  35
ATOM     35  O   UNL     1      15.536  32.635  27.454  1.00  0.00    -0.385 OA
ATOM     36  H   UNL     1      16.206  32.347  28.129  1.00  0.00     0.211 HD
ENDBRANCH  12  35
BRANCH  13  37
ATOM     37  O   UNL     1      15.654  34.767  24.847  1.00  0.00    -0.387 OA
ATOM     38  H   UNL     1      15.046  35.087  24.137  1.00  0.00     0.211 HD
ENDBRANCH  13  37
BRANCH  14  39
ATOM     39  O   UNL     1      16.269  32.885  23.161  1.00  0.00    -0.387 OA
ATOM     40  H   UNL     1      16.918  32.135  23.294  1.00  0.00     0.211 HD
ENDBRANCH  14  39
ENDBRANCH   8   9
ENDBRANCH   7   8
ENDBRANCH   1   7
BRANCH   1  41
ATOM     41  C   UNL     1      14.656  31.690  19.999  1.00  0.00     0.364 C 
ATOM     42  O   UNL     1      13.944  31.726  18.982  1.00  0.00    -0.246 OA
BRANCH  41  43
ATOM     43  O   UNL     1      15.104  32.929  20.469  1.00  0.00    -0.477 OA
ATOM     44  H   UNL     1      14.469  33.540  20.996  1.00  0.00     0.296 HD
ENDBRANCH  41  43
ENDBRANCH   1  41
BRANCH   3  45
ATOM     45  O   UNL     1      16.116  27.560  20.463  1.00  0.00    -0.391 OA
ATOM     46  H   UNL     1      15.730  26.634  20.399  1.00  0.00     0.211 HD
ENDBRANCH   3  45
BRANCH   5  47
ATOM     47  C   UNL     1      18.475  30.525  19.556  1.00  0.00     0.176 C 
BRANCH  47  48
ATOM     48  O   UNL     1      18.766  29.342  20.364  1.00  0.00    -0.388 OA
ATOM     49  H   UNL     1      18.731  29.672  21.312  1.00  0.00     0.211 HD
ENDBRANCH  47  48
BRANCH  47  50
ATOM     50  C   UNL     1      18.832  31.634  20.488  1.00  0.00     0.165 C 
BRANCH  50  51
ATOM     51  O   UNL     1      18.008  32.718  20.293  1.00  0.00    -0.388 OA
ATOM     52  H   UNL     1      18.441  33.586  20.269  1.00  0.00     0.211 HD
ENDBRANCH  50  51
BRANCH  50  53
ATOM     53  C   UNL     1      20.274  31.964  20.582  1.00  0.00     0.154 C 
BRANCH  53  54
ATOM     54  N   UNL     1      21.089  30.884  20.027  1.00  0.00    -0.319 N 
ATOM     55  C   UNL     1      22.390  30.650  20.484  1.00  0.00     0.407 C 
ATOM     56  H   UNL     1      20.672  30.296  19.289  1.00  0.00     0.167 HD
ATOM     57  O   UNL     1      22.857  31.397  21.394  1.00  0.00    -0.225 OA
BRANCH  55  58
ATOM     58  O   UNL     1      23.198  29.633  19.985  1.00  0.00    -0.443 OA
BRANCH  58  59
ATOM     59  C   UNL     1      22.634  28.549  19.257  1.00  0.00     0.294 C 
BRANCH  59  60
ATOM     60  C   UNL     1      22.058  27.551  20.210  1.00  0.00     0.120 A 
ATOM     61  C   UNL     1      22.639  26.378  20.643  1.00  0.00     0.138 A 
ATOM     62  N   UNL     1      20.876  27.609  20.815  1.00  0.00    -0.132 NA
ATOM     63  N   UNL     1      21.806  25.757  21.490  1.00  0.00    -0.249 N 
ATOM     64  N   UNL     1      20.723  26.551  21.571  1.00  0.00    -0.067 NA
BRANCH  63  65
ATOM     65  C   UNL     1      21.950  24.511  22.205  1.00  0.00     0.112 C 
ATOM     66  C   UNL     1      23.372  24.168  22.541  1.00  0.00     0.046 C 
ATOM     67  C   UNL     1      21.214  24.654  23.546  1.00  0.00     0.046 C 
ATOM     68  C   UNL     1      23.910  25.095  23.599  1.00  0.00     0.058 C 
ATOM     69  C   UNL     1      21.876  25.736  24.378  1.00  0.00     0.058 C 
ATOM     70  N   UNL     1      23.022  26.249  23.648  1.00  0.00    -0.300 NA
ATOM     71  C   UNL     1      23.795  24.508  24.981  1.00  0.00     0.021 C 
ATOM     72  C   UNL     1      22.555  25.111  25.581  1.00  0.00     0.021 C 
ATOM     73  C   UNL     1      23.697  27.294  24.355  1.00  0.00     0.105 C 
ENDBRANCH  63  65
ENDBRANCH  59  60
ENDBRANCH  58  59
ENDBRANCH  55  58
ENDBRANCH  53  54
ENDBRANCH  50  53
ENDBRANCH  47  50
ENDBRANCH   5  47
BRANCH   4  74
ATOM     74  N   UNL     1      16.066  29.238  17.303  1.00  0.00    -0.348 N 
ATOM     75  C   UNL     1      16.923  28.972  16.169  1.00  0.00     0.217 C 
ATOM     76  H   UNL     1      15.092  29.502  17.062  1.00  0.00     0.163 HD
ATOM     77  C   UNL     1      16.485  29.058  14.773  1.00  0.00     0.114 C 
ATOM     78  O   UNL     1      18.102  28.651  16.429  1.00  0.00    -0.275 OA
ENDBRANCH   4  74
TORSDOF 30
