REMARK VINA RESULT:    -6.104     15.027     20.340
REMARK INTER + INTRA:         -21.260
REMARK INTER:                 -10.726
REMARK INTRA:                 -10.534
REMARK UNBOUND:                -5.342
REMARK SMILES CC(=O)N[C@@H]1[C@@H](O)C[C@](OC[C@H]2O[C@@H](O[C@H]3[C@H](O)[C@@H](O)[C@H](OCCN=[N+]=[N-])O[C@@H]3CO)[C@H](O)[C@@H](O)[C@H]2O)(C(=O)O)O[C@H]1C(O)[C@H](O)CNC(=O)OCc1cn(CCC(=O)O)nn1
REMARK SMILES IDX 43 1 42 2 9 3 8 4 41 5 6 6 5 7 10 8 11 9 12 10 14 11 13 12
REMARK SMILES IDX 32 13 34 14 36 15 15 16 16 17 29 18 28 19 21 20 17 21 19 22
REMARK SMILES IDX 30 23 31 24 22 26 23 27 24 28 25 29 26 30 27 31 18 32 20 34
REMARK SMILES IDX 33 36 35 38 37 40 38 42 39 43 40 44 7 46 4 48 2 49 1 51 3 52
REMARK SMILES IDX 44 53 45 55 46 56 47 58 48 59 49 60 50 62 51 63 52 64 53 65
REMARK SMILES IDX 54 66 62 67 55 68 61 69 56 70 57 71 58 72 59 73 60 74
REMARK H PARENT 31 25 18 33 20 35 33 37 35 39 37 41 40 45 7 47 4 50 44 54
REMARK H PARENT 46 57 48 61 60 75
REMARK Flexibility Score: inf
ROOT
ATOM      1  C   UNL     1      14.904  33.144  22.179  1.00  0.00     0.176 C 
ENDROOT
BRANCH   1   2
ATOM      2  C   UNL     1      14.289  31.784  21.952  1.00  0.00     0.178 C 
ATOM      3  C   UNL     1      14.824  29.500  22.010  1.00  0.00     0.272 C 
ATOM      4  C   UNL     1      13.321  29.529  21.800  1.00  0.00     0.113 C 
ATOM      5  O   UNL     1      15.209  30.831  21.597  1.00  0.00    -0.332 OA
ATOM      6  C   UNL     1      12.950  30.349  20.547  1.00  0.00     0.145 C 
ATOM      7  C   UNL     1      13.254  31.813  20.836  1.00  0.00     0.142 C 
BRANCH   3   8
ATOM      8  O   UNL     1      15.405  28.605  21.190  1.00  0.00    -0.338 OA
BRANCH   8   9
ATOM      9  C   UNL     1      16.649  28.517  20.808  1.00  0.00     0.199 C 
BRANCH   9  10
ATOM     10  C   UNL     1      17.171  28.612  19.440  1.00  0.00     0.179 C 
ATOM     11  C   UNL     1      16.829  28.595  17.169  1.00  0.00     0.282 C 
ATOM     12  O   UNL     1      16.307  28.363  18.409  1.00  0.00    -0.341 OA
ATOM     13  C   UNL     1      18.262  29.046  17.131  1.00  0.00     0.202 C 
ATOM     14  C   UNL     1      18.538  30.146  18.138  1.00  0.00     0.179 C 
ATOM     15  C   UNL     1      17.520  30.134  19.255  1.00  0.00     0.177 C 
BRANCH  11  16
ATOM     16  O   UNL     1      16.104  29.523  16.423  1.00  0.00    -0.341 OA
BRANCH  16  17
ATOM     17  C   UNL     1      16.563  29.662  15.115  1.00  0.00     0.184 C 
ATOM     18  C   UNL     1      16.267  31.045  14.650  1.00  0.00     0.178 C 
ATOM     19  O   UNL     1      15.318  31.108  13.615  1.00  0.00    -0.341 OA
ATOM     20  C   UNL     1      14.216  30.371  14.095  1.00  0.00     0.281 C 
ATOM     21  C   UNL     1      15.920  28.581  14.297  1.00  0.00     0.180 C 
ATOM     22  C   UNL     1      14.544  28.922  13.815  1.00  0.00     0.202 C 
BRANCH  18  23
ATOM     23  C   UNL     1      17.527  31.750  14.170  1.00  0.00     0.191 C 
BRANCH  23  24
ATOM     24  O   UNL     1      18.021  32.587  15.167  1.00  0.00    -0.394 OA
ATOM     25  H   UNL     1      18.624  32.062  15.744  1.00  0.00     0.210 HD
ENDBRANCH  23  24
ENDBRANCH  18  23
BRANCH  20  26
ATOM     26  O   UNL     1      13.039  30.765  13.504  1.00  0.00    -0.350 OA
BRANCH  26  27
ATOM     27  C   UNL     1      13.245  30.933  12.137  1.00  0.00     0.169 C 
BRANCH  27  28
ATOM     28  C   UNL     1      11.915  30.793  11.409  1.00  0.00     0.119 C 
BRANCH  28  29
ATOM     29  N   UNL     1      11.802  29.400  11.030  1.00  0.00    -0.092 NA
ATOM     30  N   UNL     1      11.483  28.582  11.891  1.00  0.00     0.001 N 
ATOM     31  N   UNL     1      11.091  27.579  12.525  1.00  0.00    -0.003 NA
ENDBRANCH  28  29
ENDBRANCH  27  28
ENDBRANCH  26  27
ENDBRANCH  20  26
BRANCH  21  32
ATOM     32  O   UNL     1      16.733  28.358  13.191  1.00  0.00    -0.387 OA
ATOM     33  H   UNL     1      16.170  28.340  12.393  1.00  0.00     0.211 HD
ENDBRANCH  21  32
BRANCH  22  34
ATOM     34  O   UNL     1      13.591  28.073  14.380  1.00  0.00    -0.385 OA
ATOM     35  H   UNL     1      12.715  28.182  13.917  1.00  0.00     0.211 HD
ENDBRANCH  22  34
ENDBRANCH  16  17
ENDBRANCH  11  16
BRANCH  13  36
ATOM     36  O   UNL     1      19.178  27.990  17.248  1.00  0.00    -0.385 OA
ATOM     37  H   UNL     1      20.017  28.236  16.826  1.00  0.00     0.211 HD
ENDBRANCH  13  36
BRANCH  14  38
ATOM     38  O   UNL     1      18.635  31.365  17.506  1.00  0.00    -0.387 OA
ATOM     39  H   UNL     1      19.523  31.758  17.629  1.00  0.00     0.211 HD
ENDBRANCH  14  38
BRANCH  15  40
ATOM     40  O   UNL     1      16.336  30.738  18.902  1.00  0.00    -0.387 OA
ATOM     41  H   UNL     1      15.563  30.131  18.831  1.00  0.00     0.211 HD
ENDBRANCH  15  40
ENDBRANCH   9  10
ENDBRANCH   8   9
ENDBRANCH   3   8
BRANCH   3  42
ATOM     42  C   UNL     1      15.228  29.391  23.415  1.00  0.00     0.364 C 
ATOM     43  O   UNL     1      14.364  29.207  24.306  1.00  0.00    -0.246 OA
BRANCH  42  44
ATOM     44  O   UNL     1      16.543  29.485  23.792  1.00  0.00    -0.477 OA
ATOM     45  H   UNL     1      17.001  30.310  24.123  1.00  0.00     0.296 HD
ENDBRANCH  42  44
ENDBRANCH   3  42
BRANCH   6  46
ATOM     46  O   UNL     1      13.775  29.925  19.528  1.00  0.00    -0.391 OA
ATOM     47  H   UNL     1      13.479  30.376  18.684  1.00  0.00     0.211 HD
ENDBRANCH   6  46
BRANCH   7  48
ATOM     48  N   UNL     1      12.068  32.510  21.214  1.00  0.00    -0.348 N 
ATOM     49  C   UNL     1      11.696  33.689  20.514  1.00  0.00     0.217 C 
ATOM     50  H   UNL     1      11.450  32.194  21.992  1.00  0.00     0.163 HD
ATOM     51  C   UNL     1      10.483  34.475  20.843  1.00  0.00     0.114 C 
ATOM     52  O   UNL     1      12.403  34.126  19.559  1.00  0.00    -0.275 OA
ENDBRANCH   7  48
ENDBRANCH   1   2
BRANCH   1  53
ATOM     53  O   UNL     1      14.193  33.775  23.200  1.00  0.00    -0.388 OA
ATOM     54  H   UNL     1      13.288  34.011  22.915  1.00  0.00     0.211 HD
ENDBRANCH   1  53
BRANCH   1  55
ATOM     55  C   UNL     1      16.353  33.122  22.548  1.00  0.00     0.165 C 
BRANCH  55  56
ATOM     56  O   UNL     1      16.518  33.814  23.752  1.00  0.00    -0.388 OA
ATOM     57  H   UNL     1      15.631  34.107  24.069  1.00  0.00     0.211 HD
ENDBRANCH  55  56
BRANCH  55  58
ATOM     58  C   UNL     1      17.094  33.917  21.467  1.00  0.00     0.154 C 
BRANCH  58  59
ATOM     59  N   UNL     1      16.904  33.322  20.173  1.00  0.00    -0.319 N 
ATOM     60  C   UNL     1      16.576  34.044  18.993  1.00  0.00     0.407 C 
ATOM     61  H   UNL     1      17.009  32.271  20.043  1.00  0.00     0.167 HD
ATOM     62  O   UNL     1      16.443  35.291  19.090  1.00  0.00    -0.225 OA
BRANCH  60  63
ATOM     63  O   UNL     1      16.402  33.426  17.768  1.00  0.00    -0.443 OA
BRANCH  63  64
ATOM     64  C   UNL     1      15.476  33.960  16.855  1.00  0.00     0.294 C 
BRANCH  64  65
ATOM     65  C   UNL     1      14.249  33.142  16.811  1.00  0.00     0.120 A 
ATOM     66  C   UNL     1      13.124  33.503  16.081  1.00  0.00     0.138 A 
ATOM     67  N   UNL     1      14.000  31.955  17.415  1.00  0.00    -0.132 NA
ATOM     68  N   UNL     1      12.228  32.506  16.275  1.00  0.00    -0.252 N 
ATOM     69  N   UNL     1      12.779  31.602  17.072  1.00  0.00    -0.067 NA
BRANCH  68  70
ATOM     70  C   UNL     1      10.899  32.427  15.708  1.00  0.00     0.158 C 
BRANCH  70  71
ATOM     71  C   UNL     1      10.090  31.268  16.245  1.00  0.00     0.146 C 
BRANCH  71  72
ATOM     72  C   UNL     1      10.182  30.160  15.285  1.00  0.00     0.305 C 
ATOM     73  O   UNL     1       9.337  30.063  14.368  1.00  0.00    -0.252 OA
BRANCH  72  74
ATOM     74  O   UNL     1      11.190  29.200  15.363  1.00  0.00    -0.481 OA
ATOM     75  H   UNL     1      12.049  29.248  14.827  1.00  0.00     0.296 HD
ENDBRANCH  72  74
ENDBRANCH  71  72
ENDBRANCH  70  71
ENDBRANCH  68  70
ENDBRANCH  64  65
ENDBRANCH  63  64
ENDBRANCH  60  63
ENDBRANCH  58  59
ENDBRANCH  55  58
ENDBRANCH   1  55
TORSDOF 33
