REMARK VINA RESULT:    -6.775     21.036     26.314
REMARK INTER + INTRA:         -23.303
REMARK INTER:                 -16.078
REMARK INTRA:                  -7.226
REMARK UNBOUND:                -6.033
REMARK SMILES CC(=O)N[C@@H]1[C@@H](O)C[C@](OC[C@H]2O[C@@H](O[C@H]3[C@H](O)[C@@H](O)[C@H](OCCN=[N+]=[N-])O[C@@H]3CO)[C@H](O)[C@@H](O)[C@H]2O)(C(=O)O)O[C@H]1C(O)[C@H](O)CNC(=O)OCc1cn(-c2cccc(S(N)(=O)=O)c2)nn1
REMARK SMILES IDX 9 1 8 2 6 3 5 4 42 5 41 6 10 7 11 8 12 9 14 10 13 11 32 12
REMARK SMILES IDX 34 13 36 14 15 15 16 16 29 17 28 18 21 19 17 20 19 21 30 22
REMARK SMILES IDX 31 23 22 25 23 26 24 27 25 28 26 29 27 30 18 31 20 33 33 35
REMARK SMILES IDX 35 37 37 39 38 41 39 42 40 43 7 45 43 47 44 48 45 50 46 51
REMARK SMILES IDX 47 53 48 54 49 55 50 57 51 58 52 59 53 60 54 61 67 62 55 63
REMARK SMILES IDX 66 64 56 65 65 66 57 67 60 68 58 69 59 70 61 71 63 72 64 73
REMARK SMILES IDX 62 74 4 77 2 78 1 80 3 81
REMARK H PARENT 31 24 18 32 20 34 33 36 35 38 37 40 40 44 7 46 44 49 46 52
REMARK H PARENT 48 56 62 75 62 76 4 79
REMARK Flexibility Score: inf
ROOT
ATOM      1  C   UNL     1      22.703  22.365  12.125  1.00  0.00     0.272 C 
ATOM      2  C   UNL     1      21.297  22.332  12.754  1.00  0.00     0.113 C 
ATOM      3  C   UNL     1      20.440  21.449  11.917  1.00  0.00     0.145 C 
ATOM      4  C   UNL     1      21.005  20.076  11.839  1.00  0.00     0.142 C 
ATOM      5  C   UNL     1      22.492  20.050  11.882  1.00  0.00     0.178 C 
ATOM      6  O   UNL     1      23.217  21.138  12.164  1.00  0.00    -0.332 OA
ENDROOT
BRANCH   1   7
ATOM      7  O   UNL     1      23.407  23.254  12.981  1.00  0.00    -0.338 OA
BRANCH   7   8
ATOM      8  C   UNL     1      23.155  22.908  14.272  1.00  0.00     0.199 C 
BRANCH   8   9
ATOM      9  C   UNL     1      23.236  24.081  15.225  1.00  0.00     0.179 C 
ATOM     10  C   UNL     1      22.878  24.575  17.377  1.00  0.00     0.282 C 
ATOM     11  O   UNL     1      23.557  23.673  16.518  1.00  0.00    -0.341 OA
ATOM     12  C   UNL     1      23.075  25.987  16.965  1.00  0.00     0.202 C 
ATOM     13  C   UNL     1      24.155  26.208  15.936  1.00  0.00     0.179 C 
ATOM     14  C   UNL     1      24.155  25.170  14.829  1.00  0.00     0.177 C 
BRANCH  10  15
ATOM     15  O   UNL     1      23.114  24.281  18.696  1.00  0.00    -0.341 OA
BRANCH  15  16
ATOM     16  C   UNL     1      24.032  25.089  19.325  1.00  0.00     0.184 C 
ATOM     17  C   UNL     1      25.208  24.253  19.766  1.00  0.00     0.178 C 
ATOM     18  O   UNL     1      25.625  24.617  21.052  1.00  0.00    -0.341 OA
ATOM     19  C   UNL     1      24.700  24.135  21.948  1.00  0.00     0.281 C 
ATOM     20  C   UNL     1      23.328  25.711  20.511  1.00  0.00     0.180 C 
ATOM     21  C   UNL     1      23.421  24.884  21.754  1.00  0.00     0.202 C 
BRANCH  17  22
ATOM     22  C   UNL     1      26.405  24.373  18.876  1.00  0.00     0.191 C 
BRANCH  22  23
ATOM     23  O   UNL     1      26.158  23.802  17.612  1.00  0.00    -0.394 OA
ATOM     24  H   UNL     1      25.580  23.007  17.688  1.00  0.00     0.210 HD
ENDBRANCH  22  23
ENDBRANCH  17  22
BRANCH  19  25
ATOM     25  O   UNL     1      25.108  24.288  23.273  1.00  0.00    -0.350 OA
BRANCH  25  26
ATOM     26  C   UNL     1      24.336  25.132  24.024  1.00  0.00     0.169 C 
BRANCH  26  27
ATOM     27  C   UNL     1      23.987  24.610  25.401  1.00  0.00     0.119 C 
BRANCH  27  28
ATOM     28  N   UNL     1      22.594  24.854  25.723  1.00  0.00    -0.092 NA
ATOM     29  N   UNL     1      21.751  25.096  24.865  1.00  0.00     0.001 N 
ATOM     30  N   UNL     1      20.841  25.354  24.096  1.00  0.00    -0.003 NA
ENDBRANCH  27  28
ENDBRANCH  26  27
ENDBRANCH  25  26
ENDBRANCH  19  25
BRANCH  20  31
ATOM     31  O   UNL     1      23.930  26.952  20.784  1.00  0.00    -0.387 OA
ATOM     32  H   UNL     1      24.814  26.852  21.217  1.00  0.00     0.211 HD
ENDBRANCH  20  31
BRANCH  21  33
ATOM     33  O   UNL     1      22.369  23.938  21.786  1.00  0.00    -0.385 OA
ATOM     34  H   UNL     1      22.726  23.098  21.414  1.00  0.00     0.211 HD
ENDBRANCH  21  33
ENDBRANCH  15  16
ENDBRANCH  10  15
BRANCH  12  35
ATOM     35  O   UNL     1      21.875  26.625  16.567  1.00  0.00    -0.385 OA
ATOM     36  H   UNL     1      21.664  26.190  15.681  1.00  0.00     0.211 HD
ENDBRANCH  12  35
BRANCH  13  37
ATOM     37  O   UNL     1      25.395  26.396  16.517  1.00  0.00    -0.387 OA
ATOM     38  H   UNL     1      25.879  27.064  15.934  1.00  0.00     0.211 HD
ENDBRANCH  13  37
BRANCH  14  39
ATOM     39  O   UNL     1      25.455  24.659  14.748  1.00  0.00    -0.387 OA
ATOM     40  H   UNL     1      25.520  23.747  15.128  1.00  0.00     0.211 HD
ENDBRANCH  14  39
ENDBRANCH   8   9
ENDBRANCH   7   8
ENDBRANCH   1   7
BRANCH   1  41
ATOM     41  C   UNL     1      22.530  22.994  10.793  1.00  0.00     0.364 C 
ATOM     42  O   UNL     1      22.063  24.191  10.748  1.00  0.00    -0.246 OA
BRANCH  41  43
ATOM     43  O   UNL     1      22.817  22.439   9.581  1.00  0.00    -0.477 OA
ATOM     44  H   UNL     1      22.146  22.414   8.802  1.00  0.00     0.296 HD
ENDBRANCH  41  43
ENDBRANCH   1  41
BRANCH   3  45
ATOM     45  O   UNL     1      19.167  21.438  12.556  1.00  0.00    -0.391 OA
ATOM     46  H   UNL     1      18.558  21.030  11.864  1.00  0.00     0.211 HD
ENDBRANCH   3  45
BRANCH   5  47
ATOM     47  C   UNL     1      22.904  18.894  12.825  1.00  0.00     0.176 C 
BRANCH  47  48
ATOM     48  O   UNL     1      22.155  18.984  13.983  1.00  0.00    -0.388 OA
ATOM     49  H   UNL     1      21.191  18.947  13.869  1.00  0.00     0.211 HD
ENDBRANCH  47  48
BRANCH  47  50
ATOM     50  C   UNL     1      24.374  18.862  12.996  1.00  0.00     0.165 C 
BRANCH  50  51
ATOM     51  O   UNL     1      24.741  19.789  13.968  1.00  0.00    -0.388 OA
ATOM     52  H   UNL     1      24.382  19.417  14.824  1.00  0.00     0.211 HD
ENDBRANCH  50  51
BRANCH  50  53
ATOM     53  C   UNL     1      25.117  19.224  11.721  1.00  0.00     0.154 C 
BRANCH  53  54
ATOM     54  N   UNL     1      26.107  20.221  12.049  1.00  0.00    -0.319 N 
ATOM     55  C   UNL     1      27.509  19.912  11.880  1.00  0.00     0.407 C 
ATOM     56  H   UNL     1      25.856  21.168  12.414  1.00  0.00     0.167 HD
ATOM     57  O   UNL     1      27.879  18.788  11.452  1.00  0.00    -0.225 OA
BRANCH  55  58
ATOM     58  O   UNL     1      28.401  20.911  12.209  1.00  0.00    -0.443 OA
BRANCH  58  59
ATOM     59  C   UNL     1      27.999  22.035  12.934  1.00  0.00     0.294 C 
BRANCH  59  60
ATOM     60  C   UNL     1      27.591  21.689  14.304  1.00  0.00     0.121 A 
ATOM     61  C   UNL     1      28.411  21.003  15.212  1.00  0.00     0.144 A 
ATOM     62  N   UNL     1      26.451  21.930  14.938  1.00  0.00    -0.131 NA
ATOM     63  N   UNL     1      27.721  20.868  16.339  1.00  0.00    -0.220 N 
ATOM     64  N   UNL     1      26.559  21.427  16.154  1.00  0.00    -0.062 NA
BRANCH  63  65
ATOM     65  C   UNL     1      28.231  20.223  17.514  1.00  0.00     0.068 A 
ATOM     66  C   UNL     1      28.173  20.903  18.733  1.00  0.00     0.050 A 
ATOM     67  C   UNL     1      28.763  18.971  17.452  1.00  0.00     0.028 A 
ATOM     68  C   UNL     1      28.646  20.329  19.887  1.00  0.00     0.084 A 
ATOM     69  C   UNL     1      29.234  18.392  18.586  1.00  0.00     0.004 A 
ATOM     70  C   UNL     1      29.186  19.052  19.817  1.00  0.00     0.022 A 
BRANCH  68  71
ATOM     71  S   UNL     1      28.603  21.116  21.438  1.00  0.00     0.238 S 
ATOM     72  O   UNL     1      27.665  20.359  22.336  1.00  0.00    -0.207 OA
ATOM     73  O   UNL     1      28.108  22.519  21.298  1.00  0.00    -0.207 OA
BRANCH  71  74
ATOM     74  N   UNL     1      30.209  21.106  22.109  1.00  0.00    -0.225 NA
ATOM     75  H   UNL     1      30.133  20.961  23.140  1.00  0.00     0.137 HD
ATOM     76  H   UNL     1      30.747  21.954  21.835  1.00  0.00     0.137 HD
ENDBRANCH  71  74
ENDBRANCH  68  71
ENDBRANCH  63  65
ENDBRANCH  59  60
ENDBRANCH  58  59
ENDBRANCH  55  58
ENDBRANCH  53  54
ENDBRANCH  50  53
ENDBRANCH  47  50
ENDBRANCH   5  47
BRANCH   4  77
ATOM     77  N   UNL     1      20.566  19.506  10.555  1.00  0.00    -0.348 N 
ATOM     78  C   UNL     1      19.346  18.793  10.408  1.00  0.00     0.217 C 
ATOM     79  H   UNL     1      21.169  19.627   9.715  1.00  0.00     0.163 HD
ATOM     80  C   UNL     1      18.956  18.243   9.085  1.00  0.00     0.114 C 
ATOM     81  O   UNL     1      18.618  18.646  11.433  1.00  0.00    -0.275 OA
ENDBRANCH   4  77
TORSDOF 32
