REMARK VINA RESULT:    -5.603      0.000      0.000
REMARK INTER + INTRA:         -22.459
REMARK INTER:                 -14.718
REMARK INTRA:                  -7.741
REMARK UNBOUND:                -8.339
REMARK SMILES CC(=O)N[C@@H]1[C@@H](O)C[C@](OC[C@H]2O[C@@H](O[C@H]3[C@H](O)[C@@H](O)[C@H](OCCN=[N+]=[N-])O[C@@H]3CO)[C@H](O)[C@@H](O)[C@H]2O)(C(=O)O)O[C@H]1C(O)[C@H](O)CNC(=O)OCc1cn(Cc2ccccc2)nn1
REMARK SMILES IDX 9 1 8 2 6 3 5 4 42 5 41 6 10 7 11 8 12 9 14 10 13 11 32 12
REMARK SMILES IDX 34 13 36 14 15 15 16 16 29 17 28 18 21 19 17 20 19 21 30 22
REMARK SMILES IDX 31 23 22 25 23 26 24 27 25 28 26 29 27 30 18 31 20 33 33 35
REMARK SMILES IDX 35 37 37 39 38 41 39 42 40 43 7 45 43 47 44 48 45 50 46 51
REMARK SMILES IDX 47 53 48 54 49 55 50 57 51 58 52 59 53 60 54 61 64 62 55 63
REMARK SMILES IDX 63 64 56 65 57 66 58 67 62 68 59 69 61 70 60 71 4 72 2 73
REMARK SMILES IDX 1 75 3 76
REMARK H PARENT 31 24 18 32 20 34 33 36 35 38 37 40 40 44 7 46 44 49 46 52
REMARK H PARENT 48 56 4 74
REMARK Flexibility Score: inf
ROOT
ATOM      1  C   UNL     1      15.077  29.384  21.324  1.00  0.00     0.272 C 
ATOM      2  C   UNL     1      13.616  29.297  21.568  1.00  0.00     0.113 C 
ATOM      3  C   UNL     1      13.250  30.177  22.701  1.00  0.00     0.145 C 
ATOM      4  C   UNL     1      14.451  30.842  23.392  1.00  0.00     0.142 C 
ATOM      5  C   UNL     1      15.564  29.896  23.554  1.00  0.00     0.178 C 
ATOM      6  O   UNL     1      15.713  28.966  22.508  1.00  0.00    -0.332 OA
ENDROOT
BRANCH   1   7
ATOM      7  O   UNL     1      15.553  30.608  20.899  1.00  0.00    -0.338 OA
BRANCH   7   8
ATOM      8  C   UNL     1      15.004  30.933  19.670  1.00  0.00     0.199 C 
BRANCH   8   9
ATOM      9  C   UNL     1      16.038  31.456  18.699  1.00  0.00     0.179 C 
ATOM     10  C   UNL     1      18.343  31.375  18.348  1.00  0.00     0.282 C 
ATOM     11  O   UNL     1      17.294  31.540  19.256  1.00  0.00    -0.341 OA
ATOM     12  C   UNL     1      18.087  32.020  17.038  1.00  0.00     0.202 C 
ATOM     13  C   UNL     1      16.896  31.406  16.374  1.00  0.00     0.179 C 
ATOM     14  C   UNL     1      16.024  30.709  17.392  1.00  0.00     0.177 C 
BRANCH  10  15
ATOM     15  O   UNL     1      18.660  30.037  18.187  1.00  0.00    -0.341 OA
BRANCH  15  16
ATOM     16  C   UNL     1      19.917  29.696  18.674  1.00  0.00     0.184 C 
ATOM     17  C   UNL     1      20.647  28.858  17.691  1.00  0.00     0.178 C 
ATOM     18  O   UNL     1      21.886  28.514  18.273  1.00  0.00    -0.341 OA
ATOM     19  C   UNL     1      21.586  27.483  19.186  1.00  0.00     0.281 C 
ATOM     20  C   UNL     1      19.634  28.834  19.915  1.00  0.00     0.180 C 
ATOM     21  C   UNL     1      20.831  28.069  20.371  1.00  0.00     0.202 C 
BRANCH  17  22
ATOM     22  C   UNL     1      20.895  29.587  16.375  1.00  0.00     0.191 C 
BRANCH  22  23
ATOM     23  O   UNL     1      19.843  29.222  15.506  1.00  0.00    -0.394 OA
ATOM     24  H   UNL     1      19.021  29.684  15.799  1.00  0.00     0.210 HD
ENDBRANCH  22  23
ENDBRANCH  17  22
BRANCH  19  25
ATOM     25  O   UNL     1      22.755  26.904  19.611  1.00  0.00    -0.350 OA
BRANCH  25  26
ATOM     26  C   UNL     1      23.401  26.308  18.545  1.00  0.00     0.169 C 
BRANCH  26  27
ATOM     27  C   UNL     1      23.051  24.868  18.317  1.00  0.00     0.119 C 
BRANCH  27  28
ATOM     28  N   UNL     1      22.972  24.688  16.859  1.00  0.00    -0.092 NA
ATOM     29  N   UNL     1      22.467  25.606  16.215  1.00  0.00     0.001 N 
ATOM     30  N   UNL     1      22.179  26.381  15.292  1.00  0.00    -0.003 NA
ENDBRANCH  27  28
ENDBRANCH  26  27
ENDBRANCH  25  26
ENDBRANCH  19  25
BRANCH  20  31
ATOM     31  O   UNL     1      19.285  29.762  20.918  1.00  0.00    -0.387 OA
ATOM     32  H   UNL     1      20.001  29.861  21.600  1.00  0.00     0.211 HD
ENDBRANCH  20  31
BRANCH  21  33
ATOM     33  O   UNL     1      20.422  27.004  21.172  1.00  0.00    -0.385 OA
ATOM     34  H   UNL     1      19.743  27.272  21.848  1.00  0.00     0.211 HD
ENDBRANCH  21  33
ENDBRANCH  15  16
ENDBRANCH  10  15
BRANCH  12  35
ATOM     35  O   UNL     1      17.958  33.416  17.145  1.00  0.00    -0.385 OA
ATOM     36  H   UNL     1      18.643  33.703  17.801  1.00  0.00     0.211 HD
ENDBRANCH  12  35
BRANCH  13  37
ATOM     37  O   UNL     1      17.333  30.505  15.411  1.00  0.00    -0.387 OA
ATOM     38  H   UNL     1      17.759  29.699  15.810  1.00  0.00     0.211 HD
ENDBRANCH  13  37
BRANCH  14  39
ATOM     39  O   UNL     1      16.242  29.362  17.487  1.00  0.00    -0.387 OA
ATOM     40  H   UNL     1      17.011  28.998  17.005  1.00  0.00     0.211 HD
ENDBRANCH  14  39
ENDBRANCH   8   9
ENDBRANCH   7   8
ENDBRANCH   1   7
BRANCH   1  41
ATOM     41  C   UNL     1      15.549  28.358  20.331  1.00  0.00     0.364 C 
ATOM     42  O   UNL     1      16.688  27.900  20.426  1.00  0.00    -0.246 OA
BRANCH  41  43
ATOM     43  O   UNL     1      14.707  27.938  19.325  1.00  0.00    -0.477 OA
ATOM     44  H   UNL     1      14.214  27.044  19.361  1.00  0.00     0.296 HD
ENDBRANCH  41  43
ENDBRANCH   1  41
BRANCH   3  45
ATOM     45  O   UNL     1      12.387  31.234  22.354  1.00  0.00    -0.391 OA
ATOM     46  H   UNL     1      12.126  31.780  23.110  1.00  0.00     0.211 HD
ENDBRANCH   3  45
BRANCH   5  47
ATOM     47  C   UNL     1      16.920  30.395  23.831  1.00  0.00     0.176 C 
BRANCH  47  48
ATOM     48  O   UNL     1      17.951  29.561  23.457  1.00  0.00    -0.388 OA
ATOM     49  H   UNL     1      18.542  29.916  22.758  1.00  0.00     0.211 HD
ENDBRANCH  47  48
BRANCH  47  50
ATOM     50  C   UNL     1      17.254  31.805  23.437  1.00  0.00     0.165 C 
BRANCH  50  51
ATOM     51  O   UNL     1      17.694  31.938  22.156  1.00  0.00    -0.388 OA
ATOM     52  H   UNL     1      17.382  32.743  21.698  1.00  0.00     0.211 HD
ENDBRANCH  50  51
BRANCH  50  53
ATOM     53  C   UNL     1      17.998  32.545  24.509  1.00  0.00     0.154 C 
BRANCH  53  54
ATOM     54  N   UNL     1      19.337  32.072  24.744  1.00  0.00    -0.319 N 
ATOM     55  C   UNL     1      19.747  31.314  25.889  1.00  0.00     0.407 C 
ATOM     56  H   UNL     1      20.130  32.260  24.060  1.00  0.00     0.167 HD
ATOM     57  O   UNL     1      18.905  31.030  26.771  1.00  0.00    -0.225 OA
BRANCH  55  58
ATOM     58  O   UNL     1      21.053  30.889  26.046  1.00  0.00    -0.443 OA
BRANCH  58  59
ATOM     59  C   UNL     1      21.673  30.163  25.012  1.00  0.00     0.294 C 
BRANCH  59  60
ATOM     60  C   UNL     1      21.264  28.743  25.032  1.00  0.00     0.120 A 
ATOM     61  C   UNL     1      22.144  27.679  25.272  1.00  0.00     0.138 A 
ATOM     62  N   UNL     1      20.070  28.167  24.849  1.00  0.00    -0.132 NA
ATOM     63  N   UNL     1      21.448  26.533  25.223  1.00  0.00    -0.248 N 
ATOM     64  N   UNL     1      20.210  26.839  24.969  1.00  0.00    -0.067 NA
BRANCH  63  65
ATOM     65  C   UNL     1      22.001  25.212  25.426  1.00  0.00     0.181 C 
BRANCH  65  66
ATOM     66  C   UNL     1      22.712  24.782  24.197  1.00  0.00    -0.026 A 
ATOM     67  C   UNL     1      24.083  24.589  24.173  1.00  0.00     0.005 A 
ATOM     68  C   UNL     1      21.976  24.567  23.042  1.00  0.00     0.005 A 
ATOM     69  C   UNL     1      24.701  24.188  23.001  1.00  0.00     0.000 A 
ATOM     70  C   UNL     1      22.604  24.166  21.878  1.00  0.00     0.000 A 
ATOM     71  C   UNL     1      23.962  23.979  21.863  1.00  0.00     0.000 A 
ENDBRANCH  65  66
ENDBRANCH  63  65
ENDBRANCH  59  60
ENDBRANCH  58  59
ENDBRANCH  55  58
ENDBRANCH  53  54
ENDBRANCH  50  53
ENDBRANCH  47  50
ENDBRANCH   5  47
BRANCH   4  72
ATOM     72  N   UNL     1      13.867  31.168  24.709  1.00  0.00    -0.348 N 
ATOM     73  C   UNL     1      13.895  32.466  25.267  1.00  0.00     0.217 C 
ATOM     74  H   UNL     1      13.411  30.409  25.261  1.00  0.00     0.163 HD
ATOM     75  C   UNL     1      13.300  32.765  26.604  1.00  0.00     0.114 C 
ATOM     76  O   UNL     1      14.438  33.388  24.611  1.00  0.00    -0.275 OA
ENDBRANCH   4  72
TORSDOF 31
