REMARK VINA RESULT:    -6.456      3.063      8.760
REMARK INTER + INTRA:         -21.476
REMARK INTER:                 -12.620
REMARK INTRA:                  -8.855
REMARK UNBOUND:                -4.828
REMARK SMILES CC(=O)N[C@@H]1[C@@H](O)C[C@](OC[C@H]2O[C@@H](O[C@H]3[C@H](O)[C@@H](O)[C@H](OCCN=[N+]=[N-])O[C@@H]3CO)[C@H](O)[C@@H](O)[C@H]2O)(C(=O)O)O[C@H]1C(O)[C@H](O)CNC(=O)OCc1cn(CCN2CCCC2)nn1
REMARK SMILES IDX 9 1 8 2 6 3 5 4 42 5 41 6 10 7 11 8 12 9 14 10 13 11 32 12
REMARK SMILES IDX 34 13 36 14 15 15 16 16 29 17 28 18 21 19 17 20 19 21 30 22
REMARK SMILES IDX 31 23 22 25 23 26 24 27 25 28 26 29 27 30 18 31 20 33 33 35
REMARK SMILES IDX 35 37 37 39 38 41 39 42 40 43 7 45 43 47 44 48 45 50 46 51
REMARK SMILES IDX 47 53 48 54 49 55 50 57 51 58 52 59 53 60 54 61 64 62 55 63
REMARK SMILES IDX 63 64 56 65 57 66 58 67 59 68 62 69 60 70 61 71 4 72 2 73
REMARK SMILES IDX 1 75 3 76
REMARK H PARENT 31 24 18 32 20 34 33 36 35 38 37 40 40 44 7 46 44 49 46 52
REMARK H PARENT 48 56 4 74
REMARK Flexibility Score: inf
ROOT
ATOM      1  C   UNL     1      20.615  28.853  23.953  1.00  0.00     0.272 C 
ATOM      2  C   UNL     1      21.458  30.078  23.789  1.00  0.00     0.113 C 
ATOM      3  C   UNL     1      22.012  30.168  22.360  1.00  0.00     0.145 C 
ATOM      4  C   UNL     1      22.961  28.946  22.211  1.00  0.00     0.142 C 
ATOM      5  C   UNL     1      22.161  27.742  22.550  1.00  0.00     0.178 C 
ATOM      6  O   UNL     1      20.827  28.070  22.811  1.00  0.00    -0.332 OA
ENDROOT
BRANCH   1   7
ATOM      7  O   UNL     1      19.251  29.145  23.880  1.00  0.00    -0.338 OA
BRANCH   7   8
ATOM      8  C   UNL     1      18.880  30.440  23.896  1.00  0.00     0.199 C 
BRANCH   8   9
ATOM      9  C   UNL     1      17.808  30.768  22.860  1.00  0.00     0.179 C 
ATOM     10  C   UNL     1      17.379  30.827  20.608  1.00  0.00     0.282 C 
ATOM     11  O   UNL     1      18.048  30.196  21.622  1.00  0.00    -0.341 OA
ATOM     12  C   UNL     1      16.011  31.224  21.047  1.00  0.00     0.202 C 
ATOM     13  C   UNL     1      15.553  30.290  22.152  1.00  0.00     0.179 C 
ATOM     14  C   UNL     1      16.429  30.417  23.382  1.00  0.00     0.177 C 
BRANCH  10  15
ATOM     15  O   UNL     1      17.442  30.214  19.391  1.00  0.00    -0.341 OA
BRANCH  15  16
ATOM     16  C   UNL     1      18.589  29.983  18.762  1.00  0.00     0.184 C 
ATOM     17  C   UNL     1      18.692  30.404  17.310  1.00  0.00     0.178 C 
ATOM     18  O   UNL     1      20.051  30.581  17.036  1.00  0.00    -0.341 OA
ATOM     19  C   UNL     1      20.583  29.266  16.896  1.00  0.00     0.281 C 
ATOM     20  C   UNL     1      19.095  28.551  18.792  1.00  0.00     0.180 C 
ATOM     21  C   UNL     1      20.517  28.637  18.273  1.00  0.00     0.202 C 
BRANCH  17  22
ATOM     22  C   UNL     1      17.905  31.622  16.961  1.00  0.00     0.191 C 
BRANCH  22  23
ATOM     23  O   UNL     1      18.334  32.662  17.781  1.00  0.00    -0.394 OA
ATOM     24  H   UNL     1      17.555  33.073  18.246  1.00  0.00     0.210 HD
ENDBRANCH  22  23
ENDBRANCH  17  22
BRANCH  19  25
ATOM     25  O   UNL     1      21.892  29.435  16.577  1.00  0.00    -0.350 OA
BRANCH  25  26
ATOM     26  C   UNL     1      22.731  30.038  17.448  1.00  0.00     0.169 C 
BRANCH  26  27
ATOM     27  C   UNL     1      24.115  29.504  17.573  1.00  0.00     0.119 C 
BRANCH  27  28
ATOM     28  N   UNL     1      24.458  29.024  18.889  1.00  0.00    -0.092 NA
ATOM     29  N   UNL     1      25.028  29.770  19.672  1.00  0.00     0.001 N 
ATOM     30  N   UNL     1      25.520  30.646  20.392  1.00  0.00    -0.003 NA
ENDBRANCH  27  28
ENDBRANCH  26  27
ENDBRANCH  25  26
ENDBRANCH  19  25
BRANCH  20  31
ATOM     31  O   UNL     1      19.179  28.071  20.091  1.00  0.00    -0.387 OA
ATOM     32  H   UNL     1      19.834  28.532  20.650  1.00  0.00     0.211 HD
ENDBRANCH  20  31
BRANCH  21  33
ATOM     33  O   UNL     1      21.196  27.444  18.349  1.00  0.00    -0.385 OA
ATOM     34  H   UNL     1      20.675  26.635  18.208  1.00  0.00     0.211 HD
ENDBRANCH  21  33
ENDBRANCH  15  16
ENDBRANCH  10  15
BRANCH  12  35
ATOM     35  O   UNL     1      15.949  32.523  21.566  1.00  0.00    -0.385 OA
ATOM     36  H   UNL     1      16.521  32.597  22.385  1.00  0.00     0.211 HD
ENDBRANCH  12  35
BRANCH  13  37
ATOM     37  O   UNL     1      15.650  28.963  21.720  1.00  0.00    -0.387 OA
ATOM     38  H   UNL     1      15.306  28.344  22.439  1.00  0.00     0.211 HD
ENDBRANCH  13  37
BRANCH  14  39
ATOM     39  O   UNL     1      16.415  29.173  24.010  1.00  0.00    -0.387 OA
ATOM     40  H   UNL     1      16.393  29.378  24.991  1.00  0.00     0.211 HD
ENDBRANCH  14  39
ENDBRANCH   8   9
ENDBRANCH   7   8
ENDBRANCH   1   7
BRANCH   1  41
ATOM     41  C   UNL     1      20.924  28.062  25.173  1.00  0.00     0.364 C 
ATOM     42  O   UNL     1      20.226  27.026  25.396  1.00  0.00    -0.246 OA
BRANCH  41  43
ATOM     43  O   UNL     1      21.900  28.345  26.092  1.00  0.00    -0.477 OA
ATOM     44  H   UNL     1      21.908  29.065  26.777  1.00  0.00     0.296 HD
ENDBRANCH  41  43
ENDBRANCH   1  41
BRANCH   3  45
ATOM     45  O   UNL     1      21.021  30.006  21.425  1.00  0.00    -0.391 OA
ATOM     46  H   UNL     1      21.342  30.122  20.491  1.00  0.00     0.211 HD
ENDBRANCH   3  45
BRANCH   5  47
ATOM     47  C   UNL     1      22.072  26.807  21.367  1.00  0.00     0.176 C 
BRANCH  47  48
ATOM     48  O   UNL     1      23.175  26.826  20.535  1.00  0.00    -0.388 OA
ATOM     49  H   UNL     1      22.992  27.034  19.593  1.00  0.00     0.211 HD
ENDBRANCH  47  48
BRANCH  47  50
ATOM     50  C   UNL     1      21.577  25.430  21.582  1.00  0.00     0.165 C 
BRANCH  50  51
ATOM     51  O   UNL     1      20.447  25.291  22.353  1.00  0.00    -0.388 OA
ATOM     52  H   UNL     1      20.237  26.044  22.949  1.00  0.00     0.211 HD
ENDBRANCH  50  51
BRANCH  50  53
ATOM     53  C   UNL     1      22.602  24.347  21.661  1.00  0.00     0.154 C 
BRANCH  53  54
ATOM     54  N   UNL     1      23.614  24.581  22.623  1.00  0.00    -0.319 N 
ATOM     55  C   UNL     1      23.357  24.575  24.038  1.00  0.00     0.407 C 
ATOM     56  H   UNL     1      24.601  24.765  22.320  1.00  0.00     0.167 HD
ATOM     57  O   UNL     1      22.230  24.364  24.523  1.00  0.00    -0.225 OA
BRANCH  55  58
ATOM     58  O   UNL     1      24.395  24.809  24.940  1.00  0.00    -0.443 OA
BRANCH  58  59
ATOM     59  C   UNL     1      24.226  24.486  26.324  1.00  0.00     0.294 C 
BRANCH  59  60
ATOM     60  C   UNL     1      24.261  25.707  27.155  1.00  0.00     0.120 A 
ATOM     61  C   UNL     1      24.169  25.914  28.502  1.00  0.00     0.138 A 
ATOM     62  N   UNL     1      24.411  26.957  26.628  1.00  0.00    -0.132 NA
ATOM     63  N   UNL     1      24.261  27.218  28.761  1.00  0.00    -0.251 N 
ATOM     64  N   UNL     1      24.411  27.845  27.575  1.00  0.00    -0.067 NA
BRANCH  63  65
ATOM     65  C   UNL     1      24.219  27.919  30.005  1.00  0.00     0.161 C 
BRANCH  65  66
ATOM     66  C   UNL     1      25.529  28.444  30.463  1.00  0.00     0.108 C 
BRANCH  66  67
ATOM     67  N   UNL     1      26.526  27.553  30.887  1.00  0.00    -0.301 NA
ATOM     68  C   UNL     1      26.219  26.485  31.752  1.00  0.00     0.084 C 
ATOM     69  C   UNL     1      27.477  27.152  29.894  1.00  0.00     0.084 C 
ATOM     70  C   UNL     1      26.852  25.225  31.179  1.00  0.00     0.017 C 
ATOM     71  C   UNL     1      27.835  25.723  30.160  1.00  0.00     0.017 C 
ENDBRANCH  66  67
ENDBRANCH  65  66
ENDBRANCH  63  65
ENDBRANCH  59  60
ENDBRANCH  58  59
ENDBRANCH  55  58
ENDBRANCH  53  54
ENDBRANCH  50  53
ENDBRANCH  47  50
ENDBRANCH   5  47
BRANCH   4  72
ATOM     72  N   UNL     1      24.082  29.204  23.096  1.00  0.00    -0.348 N 
ATOM     73  C   UNL     1      25.219  28.353  23.204  1.00  0.00     0.217 C 
ATOM     74  H   UNL     1      24.092  30.047  23.699  1.00  0.00     0.163 HD
ATOM     75  C   UNL     1      26.320  28.714  24.162  1.00  0.00     0.114 C 
ATOM     76  O   UNL     1      25.281  27.336  22.511  1.00  0.00    -0.275 OA
ENDBRANCH   4  72
TORSDOF 32
