REMARK VINA RESULT:    -6.413     20.307     27.730
REMARK INTER + INTRA:         -25.704
REMARK INTER:                 -18.220
REMARK INTRA:                  -7.483
REMARK UNBOUND:                -8.981
REMARK SMILES CC(=O)N[C@@H]1[C@@H](O)C[C@](OC[C@H]2O[C@@H](O[C@H]3[C@H](O)[C@@H](O)[C@H](OCCN=[N+]=[N-])O[C@@H]3CO)[C@H](O)[C@@H](O)[C@H]2O)(C(=O)O)O[C@H]1C(O)[C@H](O)CNC(=O)OCc1cn(-c2cc(C(=O)O)nc(-c3ccccc3)c2)nn1
REMARK SMILES IDX 9 1 8 2 6 3 5 4 42 5 41 6 10 7 11 8 12 9 14 10 13 11 32 12
REMARK SMILES IDX 34 13 36 14 15 15 16 16 29 17 28 18 21 19 17 20 19 21 30 22
REMARK SMILES IDX 31 23 22 25 23 26 24 27 25 28 26 29 27 30 18 31 20 33 33 35
REMARK SMILES IDX 35 37 37 39 38 41 39 42 40 43 7 45 43 47 44 48 45 50 46 51
REMARK SMILES IDX 47 53 48 54 49 55 50 57 51 58 52 59 53 60 54 61 72 62 55 63
REMARK SMILES IDX 71 64 56 65 57 66 70 67 58 68 63 69 62 70 59 71 60 72 61 73
REMARK SMILES IDX 64 75 65 76 69 77 66 78 68 79 67 80 4 81 2 82 1 84 3 85
REMARK H PARENT 31 24 18 32 20 34 33 36 35 38 37 40 40 44 7 46 44 49 46 52
REMARK H PARENT 48 56 61 74 4 83
REMARK Flexibility Score: inf
ROOT
ATOM      1  C   UNL     1       2.790  24.229  32.919  1.00  0.00     0.272 C 
ATOM      2  C   UNL     1       1.557  23.768  33.723  1.00  0.00     0.113 C 
ATOM      3  C   UNL     1       1.869  22.811  34.815  1.00  0.00     0.145 C 
ATOM      4  C   UNL     1       2.908  21.767  34.424  1.00  0.00     0.142 C 
ATOM      5  C   UNL     1       3.128  21.997  32.926  1.00  0.00     0.178 C 
ATOM      6  O   UNL     1       3.749  23.222  32.830  1.00  0.00    -0.332 OA
ENDROOT
BRANCH   1   7
ATOM      7  O   UNL     1       3.298  25.279  33.614  1.00  0.00    -0.338 OA
BRANCH   7   8
ATOM      8  C   UNL     1       3.065  26.545  33.187  1.00  0.00     0.199 C 
BRANCH   8   9
ATOM      9  C   UNL     1       4.153  27.508  33.724  1.00  0.00     0.179 C 
ATOM     10  C   UNL     1       5.886  27.512  35.294  1.00  0.00     0.282 C 
ATOM     11  O   UNL     1       4.826  26.864  34.712  1.00  0.00    -0.341 OA
ATOM     12  C   UNL     1       6.248  28.717  34.448  1.00  0.00     0.202 C 
ATOM     13  C   UNL     1       6.335  28.404  32.974  1.00  0.00     0.179 C 
ATOM     14  C   UNL     1       5.084  27.727  32.542  1.00  0.00     0.177 C 
BRANCH  10  15
ATOM     15  O   UNL     1       6.936  26.616  35.374  1.00  0.00    -0.341 OA
BRANCH  15  16
ATOM     16  C   UNL     1       6.566  25.296  35.569  1.00  0.00     0.184 C 
ATOM     17  C   UNL     1       6.910  24.773  36.915  1.00  0.00     0.178 C 
ATOM     18  O   UNL     1       7.798  23.712  36.849  1.00  0.00    -0.341 OA
ATOM     19  C   UNL     1       8.924  24.011  36.084  1.00  0.00     0.281 C 
ATOM     20  C   UNL     1       7.128  24.497  34.429  1.00  0.00     0.180 C 
ATOM     21  C   UNL     1       8.490  23.937  34.637  1.00  0.00     0.202 C 
BRANCH  17  22
ATOM     22  C   UNL     1       5.657  24.255  37.591  1.00  0.00     0.191 C 
BRANCH  22  23
ATOM     23  O   UNL     1       5.084  23.204  36.899  1.00  0.00    -0.394 OA
ATOM     24  H   UNL     1       4.126  23.129  37.149  1.00  0.00     0.210 HD
ENDBRANCH  22  23
ENDBRANCH  17  22
BRANCH  19  25
ATOM     25  O   UNL     1       9.855  23.013  36.331  1.00  0.00    -0.350 OA
BRANCH  25  26
ATOM     26  C   UNL     1      10.999  23.511  36.958  1.00  0.00     0.169 C 
BRANCH  26  27
ATOM     27  C   UNL     1      10.765  23.664  38.440  1.00  0.00     0.119 C 
BRANCH  27  28
ATOM     28  N   UNL     1      10.291  22.410  38.980  1.00  0.00    -0.092 NA
ATOM     29  N   UNL     1       9.220  22.395  39.571  1.00  0.00     0.001 N 
ATOM     30  N   UNL     1       8.103  22.024  39.969  1.00  0.00    -0.003 NA
ENDBRANCH  27  28
ENDBRANCH  26  27
ENDBRANCH  25  26
ENDBRANCH  19  25
BRANCH  20  31
ATOM     31  O   UNL     1       6.260  23.398  34.232  1.00  0.00    -0.387 OA
ATOM     32  H   UNL     1       6.422  22.984  33.347  1.00  0.00     0.211 HD
ENDBRANCH  20  31
BRANCH  21  33
ATOM     33  O   UNL     1       9.387  24.630  33.797  1.00  0.00    -0.385 OA
ATOM     34  H   UNL     1      10.252  24.142  33.707  1.00  0.00     0.211 HD
ENDBRANCH  21  33
ENDBRANCH  15  16
ENDBRANCH  10  15
BRANCH  12  35
ATOM     35  O   UNL     1       5.376  29.786  34.613  1.00  0.00    -0.385 OA
ATOM     36  H   UNL     1       4.705  29.691  33.880  1.00  0.00     0.211 HD
ENDBRANCH  12  35
BRANCH  13  37
ATOM     37  O   UNL     1       7.472  27.615  32.798  1.00  0.00    -0.387 OA
ATOM     38  H   UNL     1       7.179  26.786  32.340  1.00  0.00     0.211 HD
ENDBRANCH  13  37
BRANCH  14  39
ATOM     39  O   UNL     1       5.457  26.461  32.045  1.00  0.00    -0.387 OA
ATOM     40  H   UNL     1       4.694  25.929  31.765  1.00  0.00     0.211 HD
ENDBRANCH  14  39
ENDBRANCH   8   9
ENDBRANCH   7   8
ENDBRANCH   1   7
BRANCH   1  41
ATOM     41  C   UNL     1       2.353  24.531  31.533  1.00  0.00     0.364 C 
ATOM     42  O   UNL     1       1.137  24.623  31.214  1.00  0.00    -0.246 OA
BRANCH  41  43
ATOM     43  O   UNL     1       3.282  24.727  30.535  1.00  0.00    -0.477 OA
ATOM     44  H   UNL     1       3.295  25.552  29.922  1.00  0.00     0.296 HD
ENDBRANCH  41  43
ENDBRANCH   1  41
BRANCH   3  45
ATOM     45  O   UNL     1       2.150  23.417  36.021  1.00  0.00    -0.391 OA
ATOM     46  H   UNL     1       1.402  23.995  36.272  1.00  0.00     0.211 HD
ENDBRANCH   3  45
BRANCH   5  47
ATOM     47  C   UNL     1       3.787  20.864  32.235  1.00  0.00     0.176 C 
BRANCH  47  48
ATOM     48  O   UNL     1       5.006  21.320  31.683  1.00  0.00    -0.388 OA
ATOM     49  H   UNL     1       5.625  20.536  31.541  1.00  0.00     0.211 HD
ENDBRANCH  47  48
BRANCH  47  50
ATOM     50  C   UNL     1       2.972  20.170  31.179  1.00  0.00     0.165 C 
BRANCH  50  51
ATOM     51  O   UNL     1       3.077  18.802  31.335  1.00  0.00    -0.388 OA
ATOM     52  H   UNL     1       2.917  18.512  32.272  1.00  0.00     0.211 HD
ENDBRANCH  50  51
BRANCH  50  53
ATOM     53  C   UNL     1       3.504  20.633  29.845  1.00  0.00     0.154 C 
BRANCH  53  54
ATOM     54  N   UNL     1       3.164  21.954  29.458  1.00  0.00    -0.319 N 
ATOM     55  C   UNL     1       2.209  22.216  28.442  1.00  0.00     0.407 C 
ATOM     56  H   UNL     1       3.614  22.783  29.918  1.00  0.00     0.167 HD
ATOM     57  O   UNL     1       1.665  21.261  27.855  1.00  0.00    -0.225 OA
BRANCH  55  58
ATOM     58  O   UNL     1       1.869  23.536  28.090  1.00  0.00    -0.443 OA
BRANCH  58  59
ATOM     59  C   UNL     1       1.935  23.910  26.737  1.00  0.00     0.294 C 
BRANCH  59  60
ATOM     60  C   UNL     1       2.725  25.151  26.558  1.00  0.00     0.121 A 
ATOM     61  C   UNL     1       3.827  25.394  25.771  1.00  0.00     0.144 A 
ATOM     62  N   UNL     1       2.516  26.340  27.194  1.00  0.00    -0.131 NA
ATOM     63  N   UNL     1       4.258  26.664  25.930  1.00  0.00    -0.220 N 
ATOM     64  N   UNL     1       3.424  27.213  26.813  1.00  0.00    -0.062 NA
BRANCH  63  65
ATOM     65  C   UNL     1       5.380  27.265  25.308  1.00  0.00     0.071 A 
ATOM     66  C   UNL     1       6.637  26.826  25.697  1.00  0.00     0.064 A 
ATOM     67  C   UNL     1       5.325  28.240  24.334  1.00  0.00     0.057 A 
ATOM     68  C   UNL     1       7.758  27.376  25.103  1.00  0.00     0.151 A 
ATOM     69  C   UNL     1       6.432  28.775  23.754  1.00  0.00     0.073 A 
ATOM     70  N   UNL     1       7.639  28.328  24.155  1.00  0.00    -0.241 NA
BRANCH  68  71
ATOM     71  C   UNL     1       9.091  26.934  25.488  1.00  0.00     0.354 C 
ATOM     72  O   UNL     1       9.190  26.109  26.432  1.00  0.00    -0.245 OA
BRANCH  71  73
ATOM     73  O   UNL     1      10.246  27.363  24.881  1.00  0.00    -0.477 OA
ATOM     74  H   UNL     1      10.639  26.911  24.046  1.00  0.00     0.297 HD
ENDBRANCH  71  73
ENDBRANCH  68  71
BRANCH  69  75
ATOM     75  C   UNL     1       6.351  29.801  22.721  1.00  0.00     0.000 A 
ATOM     76  C   UNL     1       5.754  29.460  21.509  1.00  0.00     0.010 A 
ATOM     77  C   UNL     1       6.824  31.072  22.871  1.00  0.00     0.010 A 
ATOM     78  C   UNL     1       5.632  30.359  20.484  1.00  0.00     0.001 A 
ATOM     79  C   UNL     1       6.696  31.973  21.828  1.00  0.00     0.001 A 
ATOM     80  C   UNL     1       6.112  31.648  20.638  1.00  0.00     0.000 A 
ENDBRANCH  69  75
ENDBRANCH  63  65
ENDBRANCH  59  60
ENDBRANCH  58  59
ENDBRANCH  55  58
ENDBRANCH  53  54
ENDBRANCH  50  53
ENDBRANCH  47  50
ENDBRANCH   5  47
BRANCH   4  81
ATOM     81  N   UNL     1       2.485  20.441  34.739  1.00  0.00    -0.348 N 
ATOM     82  C   UNL     1       2.747  19.896  36.022  1.00  0.00     0.217 C 
ATOM     83  H   UNL     1       1.983  19.884  34.010  1.00  0.00     0.163 HD
ATOM     84  C   UNL     1       2.331  18.522  36.406  1.00  0.00     0.114 C 
ATOM     85  O   UNL     1       3.361  20.583  36.907  1.00  0.00    -0.275 OA
ENDBRANCH   4  81
TORSDOF 33
