REMARK VINA RESULT:    -5.414     16.815     20.643
REMARK INTER + INTRA:         -20.363
REMARK INTER:                 -12.916
REMARK INTRA:                  -7.447
REMARK UNBOUND:                -7.035
REMARK SMILES CC(=O)N[C@@H]1[C@@H](O)C[C@](OC[C@H]2O[C@@H](O[C@H]3[C@H](O)[C@@H](O)[C@H](OCCN=[N+]=[N-])O[C@@H]3CO)[C@H](O)[C@@H](O)[C@H]2O)(C(=O)O)O[C@H]1C(O)[C@H](O)CNC(=O)OCc1cn([C@@H]2C[C@H]3CC[C@@H](C2)N3C)nn1
REMARK SMILES IDX 9 1 8 2 6 3 5 4 42 5 41 6 10 7 11 8 12 9 14 10 13 11 32 12
REMARK SMILES IDX 34 13 36 14 15 15 16 16 29 17 28 18 21 19 17 20 19 21 30 22
REMARK SMILES IDX 31 23 22 25 23 26 24 27 25 28 26 29 27 30 18 31 20 33 33 35
REMARK SMILES IDX 35 37 37 39 38 41 39 42 40 43 7 45 43 47 44 48 45 50 46 51
REMARK SMILES IDX 47 53 48 54 49 55 50 57 51 58 52 59 53 60 54 61 66 62 55 63
REMARK SMILES IDX 65 64 56 65 62 66 57 67 61 68 58 69 63 70 60 71 59 72 64 73
REMARK SMILES IDX 4 74 2 75 1 77 3 78
REMARK H PARENT 31 24 18 32 20 34 33 36 35 38 37 40 40 44 7 46 44 49 46 52
REMARK H PARENT 48 56 4 76
REMARK Flexibility Score: inf
ROOT
ATOM      1  C   UNL     1       2.734  21.587  30.889  1.00  0.00     0.272 C 
ATOM      2  C   UNL     1       1.471  21.157  31.520  1.00  0.00     0.113 C 
ATOM      3  C   UNL     1       1.336  21.690  32.939  1.00  0.00     0.145 C 
ATOM      4  C   UNL     1       2.597  21.305  33.748  1.00  0.00     0.142 C 
ATOM      5  C   UNL     1       3.827  21.487  32.951  1.00  0.00     0.178 C 
ATOM      6  O   UNL     1       3.527  22.267  31.853  1.00  0.00    -0.332 OA
ENDROOT
BRANCH   1   7
ATOM      7  O   UNL     1       2.757  22.295  29.741  1.00  0.00    -0.338 OA
BRANCH   7   8
ATOM      8  C   UNL     1       2.260  22.051  28.572  1.00  0.00     0.199 C 
BRANCH   8   9
ATOM      9  C   UNL     1       1.646  23.216  27.812  1.00  0.00     0.179 C 
ATOM     10  C   UNL     1       2.071  25.426  28.494  1.00  0.00     0.282 C 
ATOM     11  O   UNL     1       1.432  24.246  28.740  1.00  0.00    -0.341 OA
ATOM     12  C   UNL     1       1.795  26.001  27.145  1.00  0.00     0.202 C 
ATOM     13  C   UNL     1       2.088  24.961  26.121  1.00  0.00     0.179 C 
ATOM     14  C   UNL     1       2.527  23.654  26.684  1.00  0.00     0.177 C 
BRANCH  10  15
ATOM     15  O   UNL     1       3.410  25.417  28.843  1.00  0.00    -0.341 OA
BRANCH  15  16
ATOM     16  C   UNL     1       3.757  26.351  29.797  1.00  0.00     0.184 C 
ATOM     17  C   UNL     1       5.048  27.004  29.499  1.00  0.00     0.178 C 
ATOM     18  O   UNL     1       5.319  28.063  30.372  1.00  0.00    -0.341 OA
ATOM     19  C   UNL     1       4.512  28.060  31.510  1.00  0.00     0.281 C 
ATOM     20  C   UNL     1       4.012  25.600  31.148  1.00  0.00     0.180 C 
ATOM     21  C   UNL     1       4.327  26.687  32.124  1.00  0.00     0.202 C 
BRANCH  17  22
ATOM     22  C   UNL     1       5.294  27.432  28.095  1.00  0.00     0.191 C 
BRANCH  22  23
ATOM     23  O   UNL     1       4.230  28.197  27.623  1.00  0.00    -0.394 OA
ATOM     24  H   UNL     1       3.627  27.616  27.097  1.00  0.00     0.210 HD
ENDBRANCH  22  23
ENDBRANCH  17  22
BRANCH  19  25
ATOM     25  O   UNL     1       3.355  28.765  31.333  1.00  0.00    -0.350 OA
BRANCH  25  26
ATOM     26  C   UNL     1       3.403  30.088  31.067  1.00  0.00     0.169 C 
BRANCH  26  27
ATOM     27  C   UNL     1       2.780  30.509  29.788  1.00  0.00     0.119 C 
BRANCH  27  28
ATOM     28  N   UNL     1       2.148  29.478  29.039  1.00  0.00    -0.092 NA
ATOM     29  N   UNL     1       0.965  29.153  29.179  1.00  0.00     0.001 N 
ATOM     30  N   UNL     1       0.034  28.373  29.401  1.00  0.00    -0.003 NA
ENDBRANCH  27  28
ENDBRANCH  26  27
ENDBRANCH  25  26
ENDBRANCH  19  25
BRANCH  20  31
ATOM     31  O   UNL     1       2.893  24.917  31.551  1.00  0.00    -0.387 OA
ATOM     32  H   UNL     1       3.072  24.416  32.392  1.00  0.00     0.211 HD
ENDBRANCH  20  31
BRANCH  21  33
ATOM     33  O   UNL     1       5.474  26.372  32.859  1.00  0.00    -0.385 OA
ATOM     34  H   UNL     1       6.250  26.548  32.307  1.00  0.00     0.211 HD
ENDBRANCH  21  33
ENDBRANCH  15  16
ENDBRANCH  10  15
BRANCH  12  35
ATOM     35  O   UNL     1       0.437  26.375  27.069  1.00  0.00    -0.385 OA
ATOM     36  H   UNL     1      -0.079  25.722  27.612  1.00  0.00     0.211 HD
ENDBRANCH  12  35
BRANCH  13  37
ATOM     37  O   UNL     1       3.083  25.409  25.219  1.00  0.00    -0.387 OA
ATOM     38  H   UNL     1       3.831  24.765  25.191  1.00  0.00     0.211 HD
ENDBRANCH  13  37
BRANCH  14  39
ATOM     39  O   UNL     1       3.887  23.706  27.013  1.00  0.00    -0.387 OA
ATOM     40  H   UNL     1       4.138  22.771  27.268  1.00  0.00     0.211 HD
ENDBRANCH  14  39
ENDBRANCH   8   9
ENDBRANCH   7   8
ENDBRANCH   1   7
BRANCH   1  41
ATOM     41  C   UNL     1       3.509  20.331  30.546  1.00  0.00     0.364 C 
ATOM     42  O   UNL     1       3.048  19.178  30.587  1.00  0.00    -0.246 OA
BRANCH  41  43
ATOM     43  O   UNL     1       4.846  20.434  30.149  1.00  0.00    -0.477 OA
ATOM     44  H   UNL     1       5.277  21.358  30.027  1.00  0.00     0.296 HD
ENDBRANCH  41  43
ENDBRANCH   1  41
BRANCH   3  45
ATOM     45  O   UNL     1       1.066  23.038  33.017  1.00  0.00    -0.391 OA
ATOM     46  H   UNL     1       0.302  23.167  33.658  1.00  0.00     0.211 HD
ENDBRANCH   3  45
BRANCH   5  47
ATOM     47  C   UNL     1       4.849  22.415  33.708  1.00  0.00     0.176 C 
BRANCH  47  48
ATOM     48  O   UNL     1       4.107  23.668  33.827  1.00  0.00    -0.388 OA
ATOM     49  H   UNL     1       4.271  23.970  34.771  1.00  0.00     0.211 HD
ENDBRANCH  47  48
BRANCH  47  50
ATOM     50  C   UNL     1       5.999  22.816  32.846  1.00  0.00     0.165 C 
BRANCH  50  51
ATOM     51  O   UNL     1       6.357  21.788  32.004  1.00  0.00    -0.388 OA
ATOM     52  H   UNL     1       7.182  21.324  32.221  1.00  0.00     0.211 HD
ENDBRANCH  50  51
BRANCH  50  53
ATOM     53  C   UNL     1       7.135  23.467  33.541  1.00  0.00     0.154 C 
BRANCH  53  54
ATOM     54  N   UNL     1       6.938  23.440  34.990  1.00  0.00    -0.319 N 
ATOM     55  C   UNL     1       6.945  24.618  35.744  1.00  0.00     0.407 C 
ATOM     56  H   UNL     1       6.791  22.524  35.439  1.00  0.00     0.167 HD
ATOM     57  O   UNL     1       7.128  25.720  35.147  1.00  0.00    -0.225 OA
BRANCH  55  58
ATOM     58  O   UNL     1       6.762  24.637  37.123  1.00  0.00    -0.443 OA
BRANCH  58  59
ATOM     59  C   UNL     1       7.558  23.821  37.973  1.00  0.00     0.294 C 
BRANCH  59  60
ATOM     60  C   UNL     1       9.001  23.981  37.613  1.00  0.00     0.120 A 
ATOM     61  C   UNL     1       9.809  25.071  37.864  1.00  0.00     0.138 A 
ATOM     62  N   UNL     1       9.773  23.104  36.979  1.00  0.00    -0.132 NA
ATOM     63  N   UNL     1      11.037  24.833  37.383  1.00  0.00    -0.249 N 
ATOM     64  N   UNL     1      10.974  23.603  36.841  1.00  0.00    -0.067 NA
BRANCH  63  65
ATOM     65  C   UNL     1      12.225  25.652  37.395  1.00  0.00     0.112 C 
ATOM     66  C   UNL     1      13.157  25.383  36.250  1.00  0.00     0.046 C 
ATOM     67  C   UNL     1      11.785  27.117  37.257  1.00  0.00     0.046 C 
ATOM     68  C   UNL     1      12.565  25.871  34.954  1.00  0.00     0.058 C 
ATOM     69  C   UNL     1      11.106  27.321  35.916  1.00  0.00     0.058 C 
ATOM     70  N   UNL     1      11.139  26.068  35.182  1.00  0.00    -0.300 NA
ATOM     71  C   UNL     1      13.052  27.249  34.589  1.00  0.00     0.021 C 
ATOM     72  C   UNL     1      11.973  28.196  35.032  1.00  0.00     0.021 C 
ATOM     73  C   UNL     1      10.498  26.163  33.906  1.00  0.00     0.105 C 
ENDBRANCH  63  65
ENDBRANCH  59  60
ENDBRANCH  58  59
ENDBRANCH  55  58
ENDBRANCH  53  54
ENDBRANCH  50  53
ENDBRANCH  47  50
ENDBRANCH   5  47
BRANCH   4  74
ATOM     74  N   UNL     1       2.370  19.949  34.264  1.00  0.00    -0.348 N 
ATOM     75  C   UNL     1       2.733  19.608  35.622  1.00  0.00     0.217 C 
ATOM     76  H   UNL     1       1.953  19.174  33.716  1.00  0.00     0.163 HD
ATOM     77  C   UNL     1       2.540  18.281  36.213  1.00  0.00     0.114 C 
ATOM     78  O   UNL     1       3.239  20.523  36.306  1.00  0.00    -0.275 OA
ENDBRANCH   4  74
TORSDOF 30
