REMARK VINA RESULT:    -5.459     22.594     25.903
REMARK INTER + INTRA:         -20.583
REMARK INTER:                 -14.059
REMARK INTRA:                  -6.524
REMARK UNBOUND:                -7.145
REMARK SMILES CC(=O)N[C@@H]1[C@@H](O)C[C@](OC[C@H]2O[C@@H](O[C@H]3[C@H](O)[C@@H](O)[C@H](OCCN=[N+]=[N-])O[C@@H]3CO)[C@H](O)[C@@H](O)[C@H]2O)(C(=O)O)O[C@H]1C(O)[C@H](O)CNC(=O)OCc1cn(-c2ccccc2Br)nn1
REMARK SMILES IDX 9 1 8 2 6 3 5 4 42 5 41 6 10 7 11 8 12 9 14 10 13 11 32 12
REMARK SMILES IDX 34 13 36 14 15 15 16 16 29 17 28 18 21 19 17 20 19 21 30 22
REMARK SMILES IDX 31 23 22 25 23 26 24 27 25 28 26 29 27 30 18 31 20 33 33 35
REMARK SMILES IDX 35 37 37 39 38 41 39 42 40 43 7 45 43 47 44 48 45 50 46 51
REMARK SMILES IDX 47 53 48 54 49 55 50 57 51 58 52 59 53 60 54 61 64 62 55 63
REMARK SMILES IDX 63 64 56 65 57 66 61 67 58 68 60 69 62 70 59 71 4 72 2 73
REMARK SMILES IDX 1 75 3 76
REMARK H PARENT 31 24 18 32 20 34 33 36 35 38 37 40 40 44 7 46 44 49 46 52
REMARK H PARENT 48 56 4 74
REMARK Flexibility Score: inf
ROOT
ATOM      1  C   UNL     1       9.838  23.933  36.543  1.00  0.00     0.272 C 
ATOM      2  C   UNL     1       9.820  24.717  37.802  1.00  0.00     0.113 C 
ATOM      3  C   UNL     1      11.150  25.328  38.100  1.00  0.00     0.145 C 
ATOM      4  C   UNL     1      11.839  25.970  36.950  1.00  0.00     0.142 C 
ATOM      5  C   UNL     1      11.217  25.613  35.646  1.00  0.00     0.178 C 
ATOM      6  O   UNL     1      10.660  24.384  35.533  1.00  0.00    -0.332 OA
ENDROOT
BRANCH   1   7
ATOM      7  O   UNL     1       8.610  23.763  35.930  1.00  0.00    -0.338 OA
BRANCH   7   8
ATOM      8  C   UNL     1       8.597  23.216  34.692  1.00  0.00     0.199 C 
BRANCH   8   9
ATOM      9  C   UNL     1       7.381  23.818  33.945  1.00  0.00     0.179 C 
ATOM     10  C   UNL     1       5.525  23.046  32.806  1.00  0.00     0.282 C 
ATOM     11  O   UNL     1       6.872  22.969  33.038  1.00  0.00    -0.341 OA
ATOM     12  C   UNL     1       5.006  24.467  32.809  1.00  0.00     0.202 C 
ATOM     13  C   UNL     1       5.354  25.166  34.106  1.00  0.00     0.179 C 
ATOM     14  C   UNL     1       6.393  24.382  34.886  1.00  0.00     0.177 C 
BRANCH  10  15
ATOM     15  O   UNL     1       4.784  22.210  33.629  1.00  0.00    -0.341 OA
BRANCH  15  16
ATOM     16  C   UNL     1       3.624  21.734  33.065  1.00  0.00     0.184 C 
ATOM     17  C   UNL     1       2.703  21.034  34.034  1.00  0.00     0.178 C 
ATOM     18  O   UNL     1       1.455  20.997  33.433  1.00  0.00    -0.341 OA
ATOM     19  C   UNL     1       1.407  20.369  32.229  1.00  0.00     0.281 C 
ATOM     20  C   UNL     1       3.921  20.684  32.000  1.00  0.00     0.180 C 
ATOM     21  C   UNL     1       2.674  20.038  31.558  1.00  0.00     0.202 C 
BRANCH  17  22
ATOM     22  C   UNL     1       2.592  21.688  35.371  1.00  0.00     0.191 C 
BRANCH  22  23
ATOM     23  O   UNL     1       2.703  23.067  35.213  1.00  0.00    -0.394 OA
ATOM     24  H   UNL     1       1.821  23.456  35.080  1.00  0.00     0.210 HD
ENDBRANCH  22  23
ENDBRANCH  17  22
BRANCH  19  25
ATOM     25  O   UNL     1       0.657  21.210  31.374  1.00  0.00    -0.350 OA
BRANCH  25  26
ATOM     26  C   UNL     1       0.782  20.894  30.051  1.00  0.00     0.169 C 
BRANCH  26  27
ATOM     27  C   UNL     1       0.872  22.058  29.115  1.00  0.00     0.119 C 
BRANCH  27  28
ATOM     28  N   UNL     1       2.236  22.561  29.185  1.00  0.00    -0.092 NA
ATOM     29  N   UNL     1       2.460  23.655  29.682  1.00  0.00     0.001 N 
ATOM     30  N   UNL     1       2.718  24.715  30.239  1.00  0.00    -0.003 NA
ENDBRANCH  27  28
ENDBRANCH  26  27
ENDBRANCH  25  26
ENDBRANCH  19  25
BRANCH  20  31
ATOM     31  O   UNL     1       4.585  21.233  30.915  1.00  0.00    -0.387 OA
ATOM     32  H   UNL     1       5.530  21.441  31.100  1.00  0.00     0.211 HD
ENDBRANCH  20  31
BRANCH  21  33
ATOM     33  O   UNL     1       2.924  18.634  31.607  1.00  0.00    -0.385 OA
ATOM     34  H   UNL     1       3.602  18.375  30.940  1.00  0.00     0.211 HD
ENDBRANCH  21  33
ENDBRANCH  15  16
ENDBRANCH  10  15
BRANCH  12  35
ATOM     35  O   UNL     1       5.448  25.176  31.691  1.00  0.00    -0.385 OA
ATOM     36  H   UNL     1       4.693  25.461  31.120  1.00  0.00     0.211 HD
ENDBRANCH  12  35
BRANCH  13  37
ATOM     37  O   UNL     1       4.219  25.447  34.839  1.00  0.00    -0.387 OA
ATOM     38  H   UNL     1       4.445  25.914  35.669  1.00  0.00     0.211 HD
ENDBRANCH  13  37
BRANCH  14  39
ATOM     39  O   UNL     1       5.727  23.438  35.649  1.00  0.00    -0.387 OA
ATOM     40  H   UNL     1       6.180  22.560  35.659  1.00  0.00     0.211 HD
ENDBRANCH  14  39
ENDBRANCH   8   9
ENDBRANCH   7   8
ENDBRANCH   1   7
BRANCH   1  41
ATOM     41  C   UNL     1      10.426  22.582  36.908  1.00  0.00     0.364 C 
ATOM     42  O   UNL     1       9.965  22.030  37.930  1.00  0.00    -0.246 OA
BRANCH  41  43
ATOM     43  O   UNL     1      11.406  21.965  36.190  1.00  0.00    -0.477 OA
ATOM     44  H   UNL     1      11.320  21.871  35.166  1.00  0.00     0.296 HD
ENDBRANCH  41  43
ENDBRANCH   1  41
BRANCH   3  45
ATOM     45  O   UNL     1      10.981  26.244  39.164  1.00  0.00    -0.391 OA
ATOM     46  H   UNL     1      11.093  25.733  40.012  1.00  0.00     0.211 HD
ENDBRANCH   3  45
BRANCH   5  47
ATOM     47  C   UNL     1      10.364  26.757  35.099  1.00  0.00     0.176 C 
BRANCH  47  48
ATOM     48  O   UNL     1       9.019  26.585  35.309  1.00  0.00    -0.388 OA
ATOM     49  H   UNL     1       8.763  25.617  35.286  1.00  0.00     0.211 HD
ENDBRANCH  47  48
BRANCH  47  50
ATOM     50  C   UNL     1      10.584  26.938  33.588  1.00  0.00     0.165 C 
BRANCH  50  51
ATOM     51  O   UNL     1      11.859  26.523  33.300  1.00  0.00    -0.388 OA
ATOM     52  H   UNL     1      12.372  27.069  32.679  1.00  0.00     0.211 HD
ENDBRANCH  50  51
BRANCH  50  53
ATOM     53  C   UNL     1      10.369  28.364  33.199  1.00  0.00     0.154 C 
BRANCH  53  54
ATOM     54  N   UNL     1       8.993  28.727  33.208  1.00  0.00    -0.319 N 
ATOM     55  C   UNL     1       8.346  29.642  34.065  1.00  0.00     0.407 C 
ATOM     56  H   UNL     1       8.354  28.264  32.486  1.00  0.00     0.167 HD
ATOM     57  O   UNL     1       8.979  30.253  34.932  1.00  0.00    -0.225 OA
BRANCH  55  58
ATOM     58  O   UNL     1       6.976  29.875  33.951  1.00  0.00    -0.443 OA
BRANCH  58  59
ATOM     59  C   UNL     1       5.978  28.913  34.194  1.00  0.00     0.294 C 
BRANCH  59  60
ATOM     60  C   UNL     1       5.271  28.540  32.926  1.00  0.00     0.121 A 
ATOM     61  C   UNL     1       5.815  28.677  31.649  1.00  0.00     0.144 A 
ATOM     62  N   UNL     1       4.056  28.045  32.754  1.00  0.00    -0.131 NA
ATOM     63  N   UNL     1       4.890  28.254  30.775  1.00  0.00    -0.219 N 
ATOM     64  N   UNL     1       3.831  27.873  31.447  1.00  0.00    -0.062 NA
BRANCH  63  65
ATOM     65  C   UNL     1       5.017  28.219  29.365  1.00  0.00     0.081 A 
ATOM     66  C   UNL     1       5.030  27.031  28.669  1.00  0.00     0.029 A 
ATOM     67  C   UNL     1       5.128  29.385  28.656  1.00  0.00     0.043 A 
ATOM     68  C   UNL     1       5.155  27.037  27.282  1.00  0.00     0.002 A 
ATOM     69  C   UNL     1       5.253  29.398  27.287  1.00  0.00     0.018 A 
ATOM     70  Br  UNL     1       5.119  31.050  29.581  1.00  0.00    -0.048 Br
ATOM     71  C   UNL     1       5.266  28.219  26.581  1.00  0.00     0.001 A 
ENDBRANCH  63  65
ENDBRANCH  59  60
ENDBRANCH  58  59
ENDBRANCH  55  58
ENDBRANCH  53  54
ENDBRANCH  50  53
ENDBRANCH  47  50
ENDBRANCH   5  47
BRANCH   4  72
ATOM     72  N   UNL     1      13.260  25.705  36.916  1.00  0.00    -0.348 N 
ATOM     73  C   UNL     1      14.146  26.531  36.184  1.00  0.00     0.217 C 
ATOM     74  H   UNL     1      13.652  24.895  37.435  1.00  0.00     0.163 HD
ATOM     75  C   UNL     1      15.599  26.184  36.204  1.00  0.00     0.114 C 
ATOM     76  O   UNL     1      13.752  27.520  35.538  1.00  0.00    -0.275 OA
ENDBRANCH   4  72
TORSDOF 30
