REMARK VINA RESULT:    -7.253      0.000      0.000
REMARK INTER + INTRA:         -23.027
REMARK INTER:                 -15.738
REMARK INTRA:                  -7.288
REMARK UNBOUND:                -4.749
REMARK SMILES CC(=O)N[C@@H]1[C@@H](O)C[C@](OC[C@H]2O[C@@H](O[C@H]3[C@H](O)[C@@H](O)[C@H](OCCN=[N+]=[N-])O[C@@H]3CO)[C@H](O)[C@@H](O)[C@H]2O)(C(=O)O)O[C@H]1C(O)[C@H](O)CNC(=O)OCc1cn(-c2ccccc2C(C)=O)nn1
REMARK SMILES IDX 9 1 8 2 6 3 5 4 42 5 41 6 10 7 11 8 12 9 14 10 13 11 32 12
REMARK SMILES IDX 34 13 36 14 15 15 16 16 29 17 28 18 21 19 17 20 19 21 30 22
REMARK SMILES IDX 31 23 22 25 23 26 24 27 25 28 26 29 27 30 18 31 20 33 33 35
REMARK SMILES IDX 35 37 37 39 38 41 39 42 40 43 7 45 43 47 44 48 45 50 46 51
REMARK SMILES IDX 47 53 48 54 49 55 50 57 51 58 52 59 53 60 54 61 66 62 55 63
REMARK SMILES IDX 65 64 56 65 61 66 57 67 60 68 58 69 59 70 62 71 64 72 63 73
REMARK SMILES IDX 4 74 2 75 1 77 3 78
REMARK H PARENT 31 24 18 32 20 34 33 36 35 38 37 40 40 44 7 46 44 49 46 52
REMARK H PARENT 48 56 4 76
REMARK Flexibility Score: inf
ROOT
ATOM      1  C   UNL     1      23.179  25.985  15.936  1.00  0.00     0.272 C 
ATOM      2  C   UNL     1      22.271  24.842  15.585  1.00  0.00     0.113 C 
ATOM      3  C   UNL     1      22.859  24.125  14.399  1.00  0.00     0.145 C 
ATOM      4  C   UNL     1      24.141  23.503  14.925  1.00  0.00     0.142 C 
ATOM      5  C   UNL     1      25.038  24.666  15.256  1.00  0.00     0.178 C 
ATOM      6  O   UNL     1      24.467  25.879  15.363  1.00  0.00    -0.332 OA
ENDROOT
BRANCH   1   7
ATOM      7  O   UNL     1      23.357  26.266  17.202  1.00  0.00    -0.338 OA
BRANCH   7   8
ATOM      8  C   UNL     1      23.541  27.353  17.882  1.00  0.00     0.199 C 
BRANCH   8   9
ATOM      9  C   UNL     1      22.594  27.954  18.851  1.00  0.00     0.179 C 
ATOM     10  C   UNL     1      20.391  28.650  18.979  1.00  0.00     0.282 C 
ATOM     11  O   UNL     1      21.312  27.951  18.219  1.00  0.00    -0.341 OA
ATOM     12  C   UNL     1      20.783  28.952  20.375  1.00  0.00     0.202 C 
ATOM     13  C   UNL     1      21.624  27.923  21.065  1.00  0.00     0.179 C 
ATOM     14  C   UNL     1      22.347  27.041  20.076  1.00  0.00     0.177 C 
BRANCH  10  15
ATOM     15  O   UNL     1      19.177  27.964  18.972  1.00  0.00    -0.341 OA
BRANCH  15  16
ATOM     16  C   UNL     1      18.091  28.832  19.065  1.00  0.00     0.184 C 
ATOM     17  C   UNL     1      17.377  28.545  20.363  1.00  0.00     0.178 C 
ATOM     18  O   UNL     1      16.081  28.123  20.217  1.00  0.00    -0.341 OA
ATOM     19  C   UNL     1      15.270  28.918  19.445  1.00  0.00     0.281 C 
ATOM     20  C   UNL     1      17.138  28.422  17.933  1.00  0.00     0.180 C 
ATOM     21  C   UNL     1      15.888  29.227  18.091  1.00  0.00     0.202 C 
BRANCH  17  22
ATOM     22  C   UNL     1      17.496  29.772  21.248  1.00  0.00     0.191 C 
BRANCH  22  23
ATOM     23  O   UNL     1      16.880  29.485  22.464  1.00  0.00    -0.394 OA
ATOM     24  H   UNL     1      16.829  28.536  22.680  1.00  0.00     0.210 HD
ENDBRANCH  22  23
ENDBRANCH  17  22
BRANCH  19  25
ATOM     25  O   UNL     1      14.816  30.063  20.071  1.00  0.00    -0.350 OA
BRANCH  25  26
ATOM     26  C   UNL     1      13.466  29.923  20.352  1.00  0.00     0.169 C 
BRANCH  26  27
ATOM     27  C   UNL     1      13.301  29.093  21.616  1.00  0.00     0.119 C 
BRANCH  27  28
ATOM     28  N   UNL     1      14.055  29.703  22.719  1.00  0.00    -0.092 NA
ATOM     29  N   UNL     1      13.456  29.810  23.788  1.00  0.00     0.001 N 
ATOM     30  N   UNL     1      12.960  30.085  24.867  1.00  0.00    -0.003 NA
ENDBRANCH  27  28
ENDBRANCH  26  27
ENDBRANCH  25  26
ENDBRANCH  19  25
BRANCH  20  31
ATOM     31  O   UNL     1      17.763  28.604  16.721  1.00  0.00    -0.387 OA
ATOM     32  H   UNL     1      18.676  28.179  16.701  1.00  0.00     0.211 HD
ENDBRANCH  20  31
BRANCH  21  33
ATOM     33  O   UNL     1      14.988  29.020  17.043  1.00  0.00    -0.385 OA
ATOM     34  H   UNL     1      14.528  28.136  17.181  1.00  0.00     0.211 HD
ENDBRANCH  21  33
ENDBRANCH  15  16
ENDBRANCH  10  15
BRANCH  12  35
ATOM     35  O   UNL     1      21.317  30.243  20.502  1.00  0.00    -0.385 OA
ATOM     36  H   UNL     1      21.940  30.303  21.270  1.00  0.00     0.211 HD
ENDBRANCH  12  35
BRANCH  13  37
ATOM     37  O   UNL     1      20.855  27.080  21.884  1.00  0.00    -0.387 OA
ATOM     38  H   UNL     1      21.401  26.912  22.697  1.00  0.00     0.211 HD
ENDBRANCH  13  37
BRANCH  14  39
ATOM     39  O   UNL     1      21.556  25.953  19.689  1.00  0.00    -0.387 OA
ATOM     40  H   UNL     1      20.959  26.169  18.927  1.00  0.00     0.211 HD
ENDBRANCH  14  39
ENDBRANCH   8   9
ENDBRANCH   7   8
ENDBRANCH   1   7
BRANCH   1  41
ATOM     41  C   UNL     1      22.636  27.139  15.163  1.00  0.00     0.364 C 
ATOM     42  O   UNL     1      23.381  27.767  14.335  1.00  0.00    -0.246 OA
BRANCH  41  43
ATOM     43  O   UNL     1      21.360  27.634  15.249  1.00  0.00    -0.477 OA
ATOM     44  H   UNL     1      20.730  27.401  16.005  1.00  0.00     0.296 HD
ENDBRANCH  41  43
ENDBRANCH   1  41
BRANCH   3  45
ATOM     45  O   UNL     1      21.937  23.151  14.023  1.00  0.00    -0.391 OA
ATOM     46  H   UNL     1      21.045  23.549  13.839  1.00  0.00     0.211 HD
ENDBRANCH   3  45
BRANCH   5  47
ATOM     47  C   UNL     1      25.940  24.293  16.477  1.00  0.00     0.176 C 
BRANCH  47  48
ATOM     48  O   UNL     1      24.973  23.897  17.477  1.00  0.00    -0.388 OA
ATOM     49  H   UNL     1      25.124  24.590  18.191  1.00  0.00     0.211 HD
ENDBRANCH  47  48
BRANCH  47  50
ATOM     50  C   UNL     1      26.634  25.474  17.012  1.00  0.00     0.165 C 
BRANCH  50  51
ATOM     51  O   UNL     1      27.159  26.292  15.981  1.00  0.00    -0.388 OA
ATOM     52  H   UNL     1      26.749  27.183  15.991  1.00  0.00     0.211 HD
ENDBRANCH  50  51
BRANCH  50  53
ATOM     53  C   UNL     1      27.386  25.458  18.265  1.00  0.00     0.154 C 
BRANCH  53  54
ATOM     54  N   UNL     1      26.728  24.941  19.408  1.00  0.00    -0.319 N 
ATOM     55  C   UNL     1      26.033  25.646  20.416  1.00  0.00     0.407 C 
ATOM     56  H   UNL     1      26.734  23.879  19.560  1.00  0.00     0.167 HD
ATOM     57  O   UNL     1      25.981  26.895  20.342  1.00  0.00    -0.225 OA
BRANCH  55  58
ATOM     58  O   UNL     1      25.398  25.041  21.491  1.00  0.00    -0.443 OA
BRANCH  58  59
ATOM     59  C   UNL     1      24.318  24.167  21.288  1.00  0.00     0.294 C 
BRANCH  59  60
ATOM     60  C   UNL     1      23.324  24.425  22.385  1.00  0.00     0.121 A 
ATOM     61  C   UNL     1      23.588  24.865  23.661  1.00  0.00     0.144 A 
ATOM     62  N   UNL     1      21.992  24.277  22.345  1.00  0.00    -0.131 NA
ATOM     63  N   UNL     1      22.399  24.962  24.340  1.00  0.00    -0.220 N 
ATOM     64  N   UNL     1      21.455  24.594  23.501  1.00  0.00    -0.062 NA
BRANCH  63  65
ATOM     65  C   UNL     1      22.295  25.349  25.704  1.00  0.00     0.077 A 
ATOM     66  C   UNL     1      21.802  26.517  26.165  1.00  0.00     0.043 A 
ATOM     67  C   UNL     1      22.754  24.393  26.631  1.00  0.00     0.029 A 
ATOM     68  C   UNL     1      21.775  26.717  27.561  1.00  0.00     0.014 A 
ATOM     69  C   UNL     1      22.716  24.615  27.989  1.00  0.00     0.002 A 
ATOM     70  C   UNL     1      22.216  25.800  28.472  1.00  0.00     0.001 A 
BRANCH  66  71
ATOM     71  C   UNL     1      21.314  27.556  25.289  1.00  0.00     0.161 C 
ATOM     72  O   UNL     1      20.087  27.418  24.912  1.00  0.00    -0.294 OA
ATOM     73  C   UNL     1      22.015  28.735  24.777  1.00  0.00     0.093 C 
ENDBRANCH  66  71
ENDBRANCH  63  65
ENDBRANCH  59  60
ENDBRANCH  58  59
ENDBRANCH  55  58
ENDBRANCH  53  54
ENDBRANCH  50  53
ENDBRANCH  47  50
ENDBRANCH   5  47
BRANCH   4  74
ATOM     74  N   UNL     1      24.725  22.585  13.994  1.00  0.00    -0.348 N 
ATOM     75  C   UNL     1      24.462  21.192  13.994  1.00  0.00     0.217 C 
ATOM     76  H   UNL     1      25.383  22.990  13.278  1.00  0.00     0.163 HD
ATOM     77  C   UNL     1      25.129  20.319  12.967  1.00  0.00     0.114 C 
ATOM     78  O   UNL     1      23.676  20.749  14.856  1.00  0.00    -0.275 OA
ENDBRANCH   4  74
TORSDOF 31
