REMARK VINA RESULT:    -6.146     17.435     23.653
REMARK INTER + INTRA:         -23.387
REMARK INTER:                 -16.589
REMARK INTRA:                  -6.798
REMARK UNBOUND:                -6.283
REMARK SMILES CC(=O)N[C@@H]1[C@@H](O)C[C@](OC[C@H]2O[C@@H](O[C@H]3[C@H](O)[C@@H](O)[C@H](OCCN=[N+]=[N-])O[C@@H]3CO)[C@H](O)[C@@H](O)[C@H]2O)(C(=O)O)O[C@H]1C(O)[C@H](O)CNC(=O)OCc1cn(C[C@H](CC(=O)O)CC(C)C)nn1
REMARK SMILES IDX 43 1 42 2 9 3 8 4 41 5 6 6 5 7 10 8 11 9 12 10 14 11 13 12
REMARK SMILES IDX 32 13 34 14 36 15 15 16 16 17 29 18 28 19 21 20 17 21 19 22
REMARK SMILES IDX 30 23 31 24 22 26 23 27 24 28 25 29 26 30 27 31 18 32 20 34
REMARK SMILES IDX 33 36 35 38 37 40 38 42 39 43 40 44 7 46 4 48 2 49 1 51 3 52
REMARK SMILES IDX 44 53 45 55 46 56 47 58 48 59 49 60 50 62 51 63 52 64 53 65
REMARK SMILES IDX 54 66 67 67 55 68 66 69 56 70 57 71 58 72 59 73 60 74 61 75
REMARK SMILES IDX 62 77 63 78 64 79 65 80
REMARK H PARENT 31 25 18 33 20 35 33 37 35 39 37 41 40 45 7 47 4 50 44 54
REMARK H PARENT 46 57 48 61 61 76
REMARK Flexibility Score: inf
ROOT
ATOM      1  C   UNL     1      22.328  27.186  21.097  1.00  0.00     0.176 C 
ENDROOT
BRANCH   1   2
ATOM      2  C   UNL     1      23.601  26.665  21.703  1.00  0.00     0.178 C 
ATOM      3  C   UNL     1      25.260  25.650  20.280  1.00  0.00     0.272 C 
ATOM      4  C   UNL     1      24.779  24.293  20.648  1.00  0.00     0.113 C 
ATOM      5  O   UNL     1      24.512  26.651  20.697  1.00  0.00    -0.332 OA
ATOM      6  C   UNL     1      23.505  24.194  21.385  1.00  0.00     0.145 C 
ATOM      7  C   UNL     1      23.294  25.360  22.353  1.00  0.00     0.142 C 
BRANCH   3   8
ATOM      8  O   UNL     1      25.386  25.735  18.866  1.00  0.00    -0.338 OA
BRANCH   8   9
ATOM      9  C   UNL     1      25.225  24.556  18.208  1.00  0.00     0.199 C 
BRANCH   9  10
ATOM     10  C   UNL     1      24.609  24.805  16.813  1.00  0.00     0.179 C 
ATOM     11  C   UNL     1      23.940  23.690  14.891  1.00  0.00     0.282 C 
ATOM     12  O   UNL     1      24.155  23.625  16.259  1.00  0.00    -0.341 OA
ATOM     13  C   UNL     1      23.430  25.109  14.595  1.00  0.00     0.202 C 
ATOM     14  C   UNL     1      22.568  25.603  15.738  1.00  0.00     0.179 C 
ATOM     15  C   UNL     1      23.386  25.719  16.980  1.00  0.00     0.177 C 
BRANCH  11  16
ATOM     16  O   UNL     1      22.894  22.861  14.570  1.00  0.00    -0.341 OA
BRANCH  16  17
ATOM     17  C   UNL     1      23.023  22.130  13.418  1.00  0.00     0.184 C 
ATOM     18  C   UNL     1      21.872  22.256  12.464  1.00  0.00     0.178 C 
ATOM     19  O   UNL     1      21.162  21.112  12.249  1.00  0.00    -0.341 OA
ATOM     20  C   UNL     1      21.899  20.027  11.816  1.00  0.00     0.281 C 
ATOM     21  C   UNL     1      23.127  20.674  13.819  1.00  0.00     0.180 C 
ATOM     22  C   UNL     1      23.191  19.840  12.532  1.00  0.00     0.202 C 
BRANCH  18  23
ATOM     23  C   UNL     1      22.399  22.882  11.185  1.00  0.00     0.191 C 
BRANCH  23  24
ATOM     24  O   UNL     1      23.759  23.165  11.282  1.00  0.00    -0.394 OA
ATOM     25  H   UNL     1      24.012  23.981  10.769  1.00  0.00     0.210 HD
ENDBRANCH  23  24
ENDBRANCH  18  23
BRANCH  20  26
ATOM     26  O   UNL     1      22.012  20.116  10.437  1.00  0.00    -0.350 OA
BRANCH  26  27
ATOM     27  C   UNL     1      21.360  19.095   9.768  1.00  0.00     0.169 C 
BRANCH  27  28
ATOM     28  C   UNL     1      20.062  19.679   9.227  1.00  0.00     0.119 C 
BRANCH  28  29
ATOM     29  N   UNL     1      19.004  18.796   9.695  1.00  0.00    -0.092 NA
ATOM     30  N   UNL     1      18.684  18.841  10.860  1.00  0.00     0.001 N 
ATOM     31  N   UNL     1      18.272  18.571  11.996  1.00  0.00    -0.003 NA
ENDBRANCH  28  29
ENDBRANCH  27  28
ENDBRANCH  26  27
ENDBRANCH  20  26
BRANCH  21  32
ATOM     32  O   UNL     1      24.241  20.474  14.613  1.00  0.00    -0.387 OA
ATOM     33  H   UNL     1      24.481  21.370  15.008  1.00  0.00     0.211 HD
ENDBRANCH  21  32
BRANCH  22  34
ATOM     34  O   UNL     1      23.384  18.514  12.973  1.00  0.00    -0.385 OA
ATOM     35  H   UNL     1      22.755  18.361  13.710  1.00  0.00     0.211 HD
ENDBRANCH  22  34
ENDBRANCH  16  17
ENDBRANCH  11  16
BRANCH  13  36
ATOM     36  O   UNL     1      24.434  25.974  14.237  1.00  0.00    -0.385 OA
ATOM     37  H   UNL     1      24.170  26.909  14.184  1.00  0.00     0.211 HD
ENDBRANCH  13  36
BRANCH  14  38
ATOM     38  O   UNL     1      21.590  24.606  15.929  1.00  0.00    -0.387 OA
ATOM     39  H   UNL     1      20.857  24.682  15.299  1.00  0.00     0.211 HD
ENDBRANCH  14  38
BRANCH  15  40
ATOM     40  O   UNL     1      22.595  25.255  18.052  1.00  0.00    -0.387 OA
ATOM     41  H   UNL     1      22.675  24.293  18.153  1.00  0.00     0.211 HD
ENDBRANCH  15  40
ENDBRANCH   9  10
ENDBRANCH   8   9
ENDBRANCH   3   8
BRANCH   3  42
ATOM     42  C   UNL     1      26.697  25.818  20.740  1.00  0.00     0.364 C 
ATOM     43  O   UNL     1      27.185  25.037  21.566  1.00  0.00    -0.246 OA
BRANCH  42  44
ATOM     44  O   UNL     1      27.466  26.832  20.247  1.00  0.00    -0.477 OA
ATOM     45  H   UNL     1      27.160  27.804  20.221  1.00  0.00     0.296 HD
ENDBRANCH  42  44
ENDBRANCH   3  42
BRANCH   6  46
ATOM     46  O   UNL     1      22.363  24.008  20.637  1.00  0.00    -0.391 OA
ATOM     47  H   UNL     1      22.631  23.506  19.827  1.00  0.00     0.211 HD
ENDBRANCH   6  46
BRANCH   7  48
ATOM     48  N   UNL     1      24.070  25.035  23.520  1.00  0.00    -0.348 N 
ATOM     49  C   UNL     1      23.364  24.671  24.727  1.00  0.00     0.217 C 
ATOM     50  H   UNL     1      25.111  25.040  23.585  1.00  0.00     0.163 HD
ATOM     51  C   UNL     1      24.178  24.325  25.944  1.00  0.00     0.114 C 
ATOM     52  O   UNL     1      22.110  24.636  24.787  1.00  0.00    -0.275 OA
ENDBRANCH   7  48
ENDBRANCH   1   2
BRANCH   1  53
ATOM     53  O   UNL     1      22.609  28.444  20.483  1.00  0.00    -0.388 OA
ATOM     54  H   UNL     1      22.171  29.164  21.007  1.00  0.00     0.211 HD
ENDBRANCH   1  53
BRANCH   1  55
ATOM     55  C   UNL     1      21.193  27.503  22.044  1.00  0.00     0.165 C 
BRANCH  55  56
ATOM     56  O   UNL     1      20.070  27.570  21.109  1.00  0.00    -0.388 OA
ATOM     57  H   UNL     1      20.450  28.172  20.392  1.00  0.00     0.211 HD
ENDBRANCH  55  56
BRANCH  55  58
ATOM     58  C   UNL     1      21.250  28.893  22.576  1.00  0.00     0.154 C 
BRANCH  58  59
ATOM     59  N   UNL     1      20.109  29.660  22.224  1.00  0.00    -0.319 N 
ATOM     60  C   UNL     1      19.119  29.846  23.260  1.00  0.00     0.407 C 
ATOM     61  H   UNL     1      19.885  30.104  21.315  1.00  0.00     0.167 HD
ATOM     62  O   UNL     1      19.308  29.338  24.402  1.00  0.00    -0.225 OA
BRANCH  60  63
ATOM     63  O   UNL     1      17.952  30.553  23.077  1.00  0.00    -0.443 OA
BRANCH  63  64
ATOM     64  C   UNL     1      16.871  30.162  22.257  1.00  0.00     0.294 C 
BRANCH  64  65
ATOM     65  C   UNL     1      17.296  29.743  20.891  1.00  0.00     0.120 A 
ATOM     66  C   UNL     1      17.676  30.530  19.829  1.00  0.00     0.138 A 
ATOM     67  N   UNL     1      17.377  28.474  20.479  1.00  0.00    -0.132 NA
ATOM     68  N   UNL     1      17.983  29.710  18.779  1.00  0.00    -0.252 N 
ATOM     69  N   UNL     1      17.787  28.491  19.224  1.00  0.00    -0.067 NA
BRANCH  68  70
ATOM     70  C   UNL     1      18.397  30.096  17.480  1.00  0.00     0.150 C 
BRANCH  70  71
ATOM     71  C   UNL     1      18.594  29.003  16.517  1.00  0.00     0.022 C 
BRANCH  71  72
ATOM     72  C   UNL     1      19.991  28.615  16.205  1.00  0.00     0.128 C 
BRANCH  72  73
ATOM     73  C   UNL     1      20.902  28.425  17.342  1.00  0.00     0.303 C 
ATOM     74  O   UNL     1      21.996  29.046  17.364  1.00  0.00    -0.252 OA
BRANCH  73  75
ATOM     75  O   UNL     1      20.628  27.587  18.415  1.00  0.00    -0.481 OA
ATOM     76  H   UNL     1      20.169  26.700  18.265  1.00  0.00     0.296 HD
ENDBRANCH  73  75
ENDBRANCH  72  73
ENDBRANCH  71  72
BRANCH  71  77
ATOM     77  C   UNL     1      17.717  29.071  15.299  1.00  0.00     0.009 C 
BRANCH  77  78
ATOM     78  C   UNL     1      16.266  28.992  15.448  1.00  0.00    -0.017 C 
ATOM     79  C   UNL     1      15.536  30.148  16.032  1.00  0.00     0.007 C 
ATOM     80  C   UNL     1      15.528  28.556  14.195  1.00  0.00     0.007 C 
ENDBRANCH  77  78
ENDBRANCH  71  77
ENDBRANCH  70  71
ENDBRANCH  68  70
ENDBRANCH  64  65
ENDBRANCH  63  64
ENDBRANCH  60  63
ENDBRANCH  58  59
ENDBRANCH  55  58
ENDBRANCH   1  55
TORSDOF 36
