REMARK VINA RESULT:    -6.470      0.000      0.000
REMARK INTER + INTRA:         -22.223
REMARK INTER:                 -16.713
REMARK INTRA:                  -5.510
REMARK UNBOUND:                -6.298
REMARK SMILES CC(=O)N[C@@H]1[C@@H](O)C[C@](OC[C@H]2O[C@@H](O[C@H]3[C@H](O)[C@@H](O)[C@H](OCCN=[N+]=[N-])O[C@@H]3CO)[C@H](O)[C@@H](O)[C@H]2O)(C(=O)O)O[C@H]1C(O)[C@H](O)CNC(=O)OCc1cn(-c2c(C)cc(C)cc2C)nn1
REMARK SMILES IDX 9 1 8 2 6 3 5 4 42 5 41 6 10 7 11 8 12 9 14 10 13 11 32 12
REMARK SMILES IDX 34 13 36 14 15 15 16 16 29 17 28 18 21 19 17 20 19 21 30 22
REMARK SMILES IDX 31 23 22 25 23 26 24 27 25 28 26 29 27 30 18 31 20 33 33 35
REMARK SMILES IDX 35 37 37 39 38 41 39 42 40 43 7 45 43 47 44 48 45 50 46 51
REMARK SMILES IDX 47 53 48 54 49 55 50 57 51 58 52 59 53 60 54 61 66 62 55 63
REMARK SMILES IDX 65 64 56 65 57 66 63 67 58 68 59 69 62 70 64 71 60 72 61 73
REMARK SMILES IDX 4 74 2 75 1 77 3 78
REMARK H PARENT 31 24 18 32 20 34 33 36 35 38 37 40 40 44 7 46 44 49 46 52
REMARK H PARENT 48 56 4 76
REMARK Flexibility Score: inf
ROOT
ATOM      1  C   UNL     1      15.618  29.015  19.330  1.00  0.00     0.272 C 
ATOM      2  C   UNL     1      15.683  28.247  20.591  1.00  0.00     0.113 C 
ATOM      3  C   UNL     1      15.149  28.931  21.825  1.00  0.00     0.145 C 
ATOM      4  C   UNL     1      15.419  30.400  21.751  1.00  0.00     0.142 C 
ATOM      5  C   UNL     1      16.617  30.548  20.804  1.00  0.00     0.178 C 
ATOM      6  O   UNL     1      16.107  30.319  19.497  1.00  0.00    -0.332 OA
ENDROOT
BRANCH   1   7
ATOM      7  O   UNL     1      14.428  29.050  18.667  1.00  0.00    -0.338 OA
BRANCH   7   8
ATOM      8  C   UNL     1      13.828  30.224  18.396  1.00  0.00     0.199 C 
BRANCH   8   9
ATOM      9  C   UNL     1      13.752  30.363  16.868  1.00  0.00     0.179 C 
ATOM     10  C   UNL     1      12.211  31.084  15.318  1.00  0.00     0.282 C 
ATOM     11  O   UNL     1      12.441  30.299  16.438  1.00  0.00    -0.341 OA
ATOM     12  C   UNL     1      12.306  32.514  15.785  1.00  0.00     0.202 C 
ATOM     13  C   UNL     1      13.763  32.736  16.165  1.00  0.00     0.179 C 
ATOM     14  C   UNL     1      14.556  31.488  16.329  1.00  0.00     0.177 C 
BRANCH  10  15
ATOM     15  O   UNL     1      11.105  30.756  14.631  1.00  0.00    -0.341 OA
BRANCH  15  16
ATOM     16  C   UNL     1      11.071  29.601  13.937  1.00  0.00     0.184 C 
ATOM     17  C   UNL     1      12.348  29.460  13.128  1.00  0.00     0.178 C 
ATOM     18  O   UNL     1      12.180  29.741  11.806  1.00  0.00    -0.341 OA
ATOM     19  C   UNL     1      11.308  28.895  11.139  1.00  0.00     0.281 C 
ATOM     20  C   UNL     1       9.874  29.634  12.983  1.00  0.00     0.180 C 
ATOM     21  C   UNL     1      10.056  28.605  11.883  1.00  0.00     0.202 C 
BRANCH  17  22
ATOM     22  C   UNL     1      13.003  28.111  13.376  1.00  0.00     0.191 C 
BRANCH  22  23
ATOM     23  O   UNL     1      12.324  27.411  14.371  1.00  0.00    -0.394 OA
ATOM     24  H   UNL     1      12.364  27.843  15.255  1.00  0.00     0.210 HD
ENDBRANCH  22  23
ENDBRANCH  17  22
BRANCH  19  25
ATOM     25  O   UNL     1      11.937  27.688  10.799  1.00  0.00    -0.350 OA
BRANCH  25  26
ATOM     26  C   UNL     1      11.928  27.420   9.454  1.00  0.00     0.169 C 
BRANCH  26  27
ATOM     27  C   UNL     1      12.071  28.615   8.563  1.00  0.00     0.119 C 
BRANCH  27  28
ATOM     28  N   UNL     1      13.448  28.840   8.161  1.00  0.00    -0.092 NA
ATOM     29  N   UNL     1      14.278  29.314   8.963  1.00  0.00     0.001 N 
ATOM     30  N   UNL     1      14.951  29.728   9.914  1.00  0.00    -0.003 NA
ENDBRANCH  27  28
ENDBRANCH  26  27
ENDBRANCH  25  26
ENDBRANCH  19  25
BRANCH  20  31
ATOM     31  O   UNL     1       8.678  29.381  13.607  1.00  0.00    -0.387 OA
ATOM     32  H   UNL     1       8.750  28.872  14.455  1.00  0.00     0.211 HD
ENDBRANCH  20  31
BRANCH  21  33
ATOM     33  O   UNL     1       8.972  28.739  11.019  1.00  0.00    -0.385 OA
ATOM     34  H   UNL     1       8.620  29.673  11.027  1.00  0.00     0.211 HD
ENDBRANCH  21  33
ENDBRANCH  15  16
ENDBRANCH  10  15
BRANCH  12  35
ATOM     35  O   UNL     1      12.000  33.427  14.780  1.00  0.00    -0.385 OA
ATOM     36  H   UNL     1      12.515  34.266  14.984  1.00  0.00     0.211 HD
ENDBRANCH  12  35
BRANCH  13  37
ATOM     37  O   UNL     1      13.871  33.496  17.328  1.00  0.00    -0.387 OA
ATOM     38  H   UNL     1      14.217  34.411  17.167  1.00  0.00     0.211 HD
ENDBRANCH  13  37
BRANCH  14  39
ATOM     39  O   UNL     1      15.621  31.780  17.216  1.00  0.00    -0.387 OA
ATOM     40  H   UNL     1      15.495  31.317  18.076  1.00  0.00     0.211 HD
ENDBRANCH  14  39
ENDBRANCH   8   9
ENDBRANCH   7   8
ENDBRANCH   1   7
BRANCH   1  41
ATOM     41  C   UNL     1      16.651  28.400  18.412  1.00  0.00     0.364 C 
ATOM     42  O   UNL     1      16.975  27.220  18.585  1.00  0.00    -0.246 OA
BRANCH  41  43
ATOM     43  O   UNL     1      17.236  29.127  17.393  1.00  0.00    -0.477 OA
ATOM     44  H   UNL     1      18.219  29.313  17.311  1.00  0.00     0.296 HD
ENDBRANCH  41  43
ENDBRANCH   1  41
BRANCH   3  45
ATOM     45  O   UNL     1      13.796  28.609  21.919  1.00  0.00    -0.391 OA
ATOM     46  H   UNL     1      13.318  29.372  22.380  1.00  0.00     0.211 HD
ENDBRANCH   3  45
BRANCH   5  47
ATOM     47  C   UNL     1      17.197  31.904  20.738  1.00  0.00     0.176 C 
BRANCH  47  48
ATOM     48  O   UNL     1      16.400  32.637  19.784  1.00  0.00    -0.388 OA
ATOM     49  H   UNL     1      16.761  33.559  19.718  1.00  0.00     0.211 HD
ENDBRANCH  47  48
BRANCH  47  50
ATOM     50  C   UNL     1      18.586  32.046  20.148  1.00  0.00     0.165 C 
BRANCH  50  51
ATOM     51  O   UNL     1      18.367  31.623  18.781  1.00  0.00    -0.388 OA
ATOM     52  H   UNL     1      17.418  31.713  18.570  1.00  0.00     0.211 HD
ENDBRANCH  50  51
BRANCH  50  53
ATOM     53  C   UNL     1      19.527  30.988  20.671  1.00  0.00     0.154 C 
BRANCH  53  54
ATOM     54  N   UNL     1      20.075  30.093  19.699  1.00  0.00    -0.319 N 
ATOM     55  C   UNL     1      19.917  28.684  19.870  1.00  0.00     0.407 C 
ATOM     56  H   UNL     1      20.600  30.461  18.856  1.00  0.00     0.167 HD
ATOM     57  O   UNL     1      19.296  28.307  20.902  1.00  0.00    -0.225 OA
BRANCH  55  58
ATOM     58  O   UNL     1      20.413  27.760  18.958  1.00  0.00    -0.443 OA
BRANCH  58  59
ATOM     59  C   UNL     1      21.772  27.395  18.923  1.00  0.00     0.294 C 
BRANCH  59  60
ATOM     60  C   UNL     1      22.152  26.394  19.956  1.00  0.00     0.121 A 
ATOM     61  C   UNL     1      22.437  26.604  21.286  1.00  0.00     0.144 A 
ATOM     62  N   UNL     1      22.294  25.050  19.770  1.00  0.00    -0.131 NA
ATOM     63  N   UNL     1      22.736  25.427  21.861  1.00  0.00    -0.220 N 
ATOM     64  N   UNL     1      22.635  24.512  20.898  1.00  0.00    -0.062 NA
BRANCH  63  65
ATOM     65  C   UNL     1      23.104  25.161  23.228  1.00  0.00     0.072 A 
ATOM     66  C   UNL     1      22.092  24.802  24.084  1.00  0.00    -0.025 A 
ATOM     67  C   UNL     1      24.393  25.271  23.617  1.00  0.00    -0.025 A 
ATOM     68  C   UNL     1      20.670  24.691  23.610  1.00  0.00     0.047 C 
ATOM     69  C   UNL     1      22.424  24.545  25.399  1.00  0.00     0.009 A 
ATOM     70  C   UNL     1      24.681  25.002  24.960  1.00  0.00     0.009 A 
ATOM     71  C   UNL     1      25.514  25.655  22.720  1.00  0.00     0.047 C 
ATOM     72  C   UNL     1      23.711  24.638  25.863  1.00  0.00    -0.050 A 
ATOM     73  C   UNL     1      24.003  24.347  27.288  1.00  0.00     0.044 C 
ENDBRANCH  63  65
ENDBRANCH  59  60
ENDBRANCH  58  59
ENDBRANCH  55  58
ENDBRANCH  53  54
ENDBRANCH  50  53
ENDBRANCH  47  50
ENDBRANCH   5  47
BRANCH   4  74
ATOM     74  N   UNL     1      15.571  31.075  22.967  1.00  0.00    -0.348 N 
ATOM     75  C   UNL     1      16.320  30.560  24.063  1.00  0.00     0.217 C 
ATOM     76  H   UNL     1      15.146  32.011  23.098  1.00  0.00     0.163 HD
ATOM     77  C   UNL     1      16.465  31.309  25.349  1.00  0.00     0.114 C 
ATOM     78  O   UNL     1      16.861  29.451  23.917  1.00  0.00    -0.275 OA
ENDBRANCH   4  74
TORSDOF 30
