REMARK VINA RESULT:    -6.851      9.465     15.397
REMARK INTER + INTRA:         -22.087
REMARK INTER:                 -17.619
REMARK INTRA:                  -4.468
REMARK UNBOUND:                -4.822
REMARK SMILES CC(=O)N[C@@H]1[C@@H](O)C[C@](OC[C@H]2O[C@@H](O[C@H]3[C@H](O)[C@@H](O)[C@H](OCCN=[N+]=[N-])O[C@@H]3CO)[C@H](O)[C@@H](O)[C@H]2O)(C(=O)O)O[C@H]1C(O)[C@H](O)CNC(=O)OCc1cn(Cc2ccccc2Br)nn1
REMARK SMILES IDX 9 1 8 2 6 3 5 4 42 5 41 6 10 7 11 8 12 9 14 10 13 11 32 12
REMARK SMILES IDX 34 13 36 14 15 15 16 16 29 17 28 18 21 19 17 20 19 21 30 22
REMARK SMILES IDX 31 23 22 25 23 26 24 27 25 28 26 29 27 30 18 31 20 33 33 35
REMARK SMILES IDX 35 37 37 39 38 41 39 42 40 43 7 45 43 47 44 48 45 50 46 51
REMARK SMILES IDX 47 53 48 54 49 55 50 57 51 58 52 59 53 60 54 61 65 62 55 63
REMARK SMILES IDX 64 64 56 65 57 66 58 67 62 68 59 69 61 70 63 71 60 72 4 73
REMARK SMILES IDX 2 74 1 76 3 77
REMARK H PARENT 31 24 18 32 20 34 33 36 35 38 37 40 40 44 7 46 44 49 46 52
REMARK H PARENT 48 56 4 75
REMARK Flexibility Score: inf
ROOT
ATOM      1  C   UNL     1      17.743  29.545  19.195  1.00  0.00     0.272 C 
ATOM      2  C   UNL     1      17.732  30.789  18.398  1.00  0.00     0.113 C 
ATOM      3  C   UNL     1      16.967  30.623  17.134  1.00  0.00     0.145 C 
ATOM      4  C   UNL     1      15.569  30.175  17.454  1.00  0.00     0.142 C 
ATOM      5  C   UNL     1      15.471  29.273  18.623  1.00  0.00     0.178 C 
ATOM      6  O   UNL     1      16.343  29.434  19.642  1.00  0.00    -0.332 OA
ENDROOT
BRANCH   1   7
ATOM      7  O   UNL     1      18.437  29.592  20.347  1.00  0.00    -0.338 OA
BRANCH   7   8
ATOM      8  C   UNL     1      19.709  29.689  20.566  1.00  0.00     0.199 C 
BRANCH   8   9
ATOM      9  C   UNL     1      20.741  28.655  20.662  1.00  0.00     0.179 C 
ATOM     10  C   UNL     1      21.499  26.659  21.501  1.00  0.00     0.282 C 
ATOM     11  O   UNL     1      20.349  27.395  21.126  1.00  0.00    -0.341 OA
ATOM     12  C   UNL     1      22.114  26.163  20.222  1.00  0.00     0.202 C 
ATOM     13  C   UNL     1      22.293  27.265  19.236  1.00  0.00     0.179 C 
ATOM     14  C   UNL     1      21.840  28.633  19.664  1.00  0.00     0.177 C 
BRANCH  10  15
ATOM     15  O   UNL     1      21.070  25.660  22.322  1.00  0.00    -0.341 OA
BRANCH  15  16
ATOM     16  C   UNL     1      21.298  25.783  23.659  1.00  0.00     0.184 C 
ATOM     17  C   UNL     1      21.900  27.066  24.111  1.00  0.00     0.178 C 
ATOM     18  O   UNL     1      22.981  26.775  24.940  1.00  0.00    -0.341 OA
ATOM     19  C   UNL     1      23.935  26.126  24.116  1.00  0.00     0.281 C 
ATOM     20  C   UNL     1      22.057  24.603  24.246  1.00  0.00     0.180 C 
ATOM     21  C   UNL     1      23.535  24.689  23.918  1.00  0.00     0.202 C 
BRANCH  17  22
ATOM     22  C   UNL     1      20.930  27.897  24.949  1.00  0.00     0.191 C 
BRANCH  22  23
ATOM     23  O   UNL     1      19.956  28.478  24.136  1.00  0.00    -0.394 OA
ATOM     24  H   UNL     1      20.164  28.392  23.178  1.00  0.00     0.210 HD
ENDBRANCH  22  23
ENDBRANCH  17  22
BRANCH  19  25
ATOM     25  O   UNL     1      25.157  26.273  24.766  1.00  0.00    -0.350 OA
BRANCH  25  26
ATOM     26  C   UNL     1      25.002  26.809  26.045  1.00  0.00     0.169 C 
BRANCH  26  27
ATOM     27  C   UNL     1      25.385  25.732  27.046  1.00  0.00     0.119 C 
BRANCH  27  28
ATOM     28  N   UNL     1      24.685  25.999  28.277  1.00  0.00    -0.092 NA
ATOM     29  N   UNL     1      23.623  25.435  28.556  1.00  0.00     0.001 N 
ATOM     30  N   UNL     1      22.406  25.156  28.518  1.00  0.00    -0.003 NA
ENDBRANCH  27  28
ENDBRANCH  26  27
ENDBRANCH  25  26
ENDBRANCH  19  25
BRANCH  20  31
ATOM     31  O   UNL     1      21.969  24.600  25.640  1.00  0.00    -0.387 OA
ATOM     32  H   UNL     1      22.318  25.484  25.944  1.00  0.00     0.211 HD
ENDBRANCH  20  31
BRANCH  21  33
ATOM     33  O   UNL     1      23.845  24.182  22.682  1.00  0.00    -0.385 OA
ATOM     34  H   UNL     1      23.622  24.844  21.987  1.00  0.00     0.211 HD
ENDBRANCH  21  33
ENDBRANCH  15  16
ENDBRANCH  10  15
BRANCH  12  35
ATOM     35  O   UNL     1      23.392  25.624  20.447  1.00  0.00    -0.385 OA
ATOM     36  H   UNL     1      23.556  25.687  21.416  1.00  0.00     0.211 HD
ENDBRANCH  12  35
BRANCH  13  37
ATOM     37  O   UNL     1      21.611  26.933  18.056  1.00  0.00    -0.387 OA
ATOM     38  H   UNL     1      21.737  27.602  17.354  1.00  0.00     0.211 HD
ENDBRANCH  13  37
BRANCH  14  39
ATOM     39  O   UNL     1      21.538  29.332  18.505  1.00  0.00    -0.387 OA
ATOM     40  H   UNL     1      20.603  29.366  18.257  1.00  0.00     0.211 HD
ENDBRANCH  14  39
ENDBRANCH   8   9
ENDBRANCH   7   8
ENDBRANCH   1   7
BRANCH   1  41
ATOM     41  C   UNL     1      17.887  28.263  18.474  1.00  0.00     0.364 C 
ATOM     42  O   UNL     1      17.115  27.280  18.544  1.00  0.00    -0.246 OA
BRANCH  41  43
ATOM     43  O   UNL     1      18.976  28.095  17.635  1.00  0.00    -0.477 OA
ATOM     44  H   UNL     1      19.714  28.796  17.563  1.00  0.00     0.296 HD
ENDBRANCH  41  43
ENDBRANCH   1  41
BRANCH   3  45
ATOM     45  O   UNL     1      16.890  31.937  16.568  1.00  0.00    -0.391 OA
ATOM     46  H   UNL     1      16.165  32.447  16.981  1.00  0.00     0.211 HD
ENDBRANCH   3  45
BRANCH   5  47
ATOM     47  C   UNL     1      14.069  29.379  19.231  1.00  0.00     0.176 C 
BRANCH  47  48
ATOM     48  O   UNL     1      13.482  30.524  18.714  1.00  0.00    -0.388 OA
ATOM     49  H   UNL     1      14.085  31.286  18.667  1.00  0.00     0.211 HD
ENDBRANCH  47  48
BRANCH  47  50
ATOM     50  C   UNL     1      14.089  29.457  20.717  1.00  0.00     0.165 C 
BRANCH  50  51
ATOM     51  O   UNL     1      13.779  28.222  21.313  1.00  0.00    -0.388 OA
ATOM     52  H   UNL     1      13.203  28.361  22.108  1.00  0.00     0.211 HD
ENDBRANCH  50  51
BRANCH  50  53
ATOM     53  C   UNL     1      13.040  30.419  21.211  1.00  0.00     0.154 C 
BRANCH  53  54
ATOM     54  N   UNL     1      12.367  29.892  22.344  1.00  0.00    -0.319 N 
ATOM     55  C   UNL     1      11.936  30.665  23.443  1.00  0.00     0.407 C 
ATOM     56  H   UNL     1      12.178  28.847  22.360  1.00  0.00     0.167 HD
ATOM     57  O   UNL     1      12.126  31.906  23.486  1.00  0.00    -0.225 OA
BRANCH  55  58
ATOM     58  O   UNL     1      11.277  30.080  24.532  1.00  0.00    -0.443 OA
BRANCH  58  59
ATOM     59  C   UNL     1      11.307  28.697  24.758  1.00  0.00     0.294 C 
BRANCH  59  60
ATOM     60  C   UNL     1       9.971  28.064  24.836  1.00  0.00     0.120 A 
ATOM     61  C   UNL     1       8.768  28.784  24.910  1.00  0.00     0.138 A 
ATOM     62  N   UNL     1       9.618  26.775  24.855  1.00  0.00    -0.132 NA
ATOM     63  N   UNL     1       7.768  27.912  24.969  1.00  0.00    -0.248 N 
ATOM     64  N   UNL     1       8.308  26.689  24.934  1.00  0.00    -0.067 NA
BRANCH  63  65
ATOM     65  C   UNL     1       6.328  28.157  25.042  1.00  0.00     0.182 C 
BRANCH  65  66
ATOM     66  C   UNL     1       5.820  28.278  26.425  1.00  0.00    -0.012 A 
ATOM     67  C   UNL     1       5.356  27.104  27.042  1.00  0.00     0.007 A 
ATOM     68  C   UNL     1       5.750  29.452  27.123  1.00  0.00     0.023 A 
ATOM     69  C   UNL     1       4.853  27.175  28.304  1.00  0.00     0.000 A 
ATOM     70  C   UNL     1       5.233  29.509  28.408  1.00  0.00     0.016 A 
ATOM     71  Br  UNL     1       6.416  31.064  26.370  1.00  0.00    -0.050 Br
ATOM     72  C   UNL     1       4.784  28.355  28.994  1.00  0.00     0.001 A 
ENDBRANCH  65  66
ENDBRANCH  63  65
ENDBRANCH  59  60
ENDBRANCH  58  59
ENDBRANCH  55  58
ENDBRANCH  53  54
ENDBRANCH  50  53
ENDBRANCH  47  50
ENDBRANCH   5  47
BRANCH   4  73
ATOM     73  N   UNL     1      15.001  29.548  16.289  1.00  0.00    -0.348 N 
ATOM     74  C   UNL     1      13.991  30.155  15.483  1.00  0.00     0.217 C 
ATOM     75  H   UNL     1      15.301  28.602  15.972  1.00  0.00     0.163 HD
ATOM     76  C   UNL     1      13.444  29.443  14.286  1.00  0.00     0.114 C 
ATOM     77  O   UNL     1      13.586  31.280  15.803  1.00  0.00    -0.275 OA
ENDBRANCH   4  73
TORSDOF 31
