REMARK VINA RESULT:    -6.624     22.017     26.442
REMARK INTER + INTRA:         -23.059
REMARK INTER:                 -16.665
REMARK INTRA:                  -6.394
REMARK UNBOUND:                -6.367
REMARK SMILES CC(=O)N[C@@H]1[C@@H](O)C[C@](OC[C@H]2O[C@@H](O[C@H]3[C@H](O)[C@@H](O)[C@H](OCCN=[N+]=[N-])O[C@@H]3CO)[C@H](O)[C@@H](O)[C@H]2O)(C(=O)O)O[C@H]1C(O)[C@H](O)CNC(=O)OCc1cn(-c2ncn3c2c(=O)n(C(C)C)c2ccccc23)nn1
REMARK SMILES IDX 9 1 8 2 6 3 5 4 42 5 41 6 10 7 11 8 12 9 14 10 13 11 32 12
REMARK SMILES IDX 34 13 36 14 15 15 16 16 29 17 28 18 21 19 17 20 19 21 30 22
REMARK SMILES IDX 31 23 22 25 23 26 24 27 25 28 26 29 27 30 18 31 20 33 33 35
REMARK SMILES IDX 35 37 37 39 38 41 39 42 40 43 7 45 43 47 44 48 45 50 46 51
REMARK SMILES IDX 47 53 48 54 49 55 50 57 51 58 52 59 53 60 54 61 74 62 55 63
REMARK SMILES IDX 73 64 56 65 57 66 60 67 58 68 59 69 61 70 72 71 63 72 62 73
REMARK SMILES IDX 71 74 67 75 70 76 68 77 69 78 64 79 65 80 66 81 4 82 2 83
REMARK SMILES IDX 1 85 3 86
REMARK H PARENT 31 24 18 32 20 34 33 36 35 38 37 40 40 44 7 46 44 49 46 52
REMARK H PARENT 48 56 4 84
REMARK Flexibility Score: inf
ROOT
ATOM      1  C   UNL     1       1.019  23.555  32.992  1.00  0.00     0.272 C 
ATOM      2  C   UNL     1       1.036  23.217  34.458  1.00  0.00     0.113 C 
ATOM      3  C   UNL     1       1.253  21.785  34.715  1.00  0.00     0.145 C 
ATOM      4  C   UNL     1       2.337  21.153  33.890  1.00  0.00     0.142 C 
ATOM      5  C   UNL     1       2.545  21.806  32.571  1.00  0.00     0.178 C 
ATOM      6  O   UNL     1       2.265  23.103  32.453  1.00  0.00    -0.332 OA
ENDROOT
BRANCH   1   7
ATOM      7  O   UNL     1       1.169  24.912  32.913  1.00  0.00    -0.338 OA
BRANCH   7   8
ATOM      8  C   UNL     1       1.682  25.706  33.810  1.00  0.00     0.199 C 
BRANCH   8   9
ATOM      9  C   UNL     1       2.859  26.602  33.629  1.00  0.00     0.179 C 
ATOM     10  C   UNL     1       5.172  26.362  33.510  1.00  0.00     0.282 C 
ATOM     11  O   UNL     1       3.979  25.708  33.667  1.00  0.00    -0.341 OA
ATOM     12  C   UNL     1       5.296  27.021  32.148  1.00  0.00     0.202 C 
ATOM     13  C   UNL     1       4.090  27.899  31.865  1.00  0.00     0.179 C 
ATOM     14  C   UNL     1       2.847  27.117  32.189  1.00  0.00     0.177 C 
BRANCH  10  15
ATOM     15  O   UNL     1       6.176  25.406  33.612  1.00  0.00    -0.341 OA
BRANCH  15  16
ATOM     16  C   UNL     1       6.648  25.317  34.895  1.00  0.00     0.184 C 
ATOM     17  C   UNL     1       7.754  26.285  35.114  1.00  0.00     0.178 C 
ATOM     18  O   UNL     1       9.027  25.784  35.018  1.00  0.00    -0.341 OA
ATOM     19  C   UNL     1       9.183  24.674  34.230  1.00  0.00     0.281 C 
ATOM     20  C   UNL     1       7.026  23.904  35.287  1.00  0.00     0.180 C 
ATOM     21  C   UNL     1       8.311  23.518  34.654  1.00  0.00     0.202 C 
BRANCH  17  22
ATOM     22  C   UNL     1       7.586  26.993  36.442  1.00  0.00     0.191 C 
BRANCH  22  23
ATOM     23  O   UNL     1       8.415  26.292  37.349  1.00  0.00    -0.394 OA
ATOM     24  H   UNL     1       7.971  25.427  37.510  1.00  0.00     0.210 HD
ENDBRANCH  22  23
ENDBRANCH  17  22
BRANCH  19  25
ATOM     25  O   UNL     1      10.508  24.231  34.395  1.00  0.00    -0.350 OA
BRANCH  25  26
ATOM     26  C   UNL     1      10.964  24.298  35.683  1.00  0.00     0.169 C 
BRANCH  26  27
ATOM     27  C   UNL     1      11.864  23.185  36.117  1.00  0.00     0.119 C 
BRANCH  27  28
ATOM     28  N   UNL     1      11.009  22.232  36.842  1.00  0.00    -0.092 NA
ATOM     29  N   UNL     1      10.079  22.563  37.546  1.00  0.00     0.001 N 
ATOM     30  N   UNL     1       9.313  22.796  38.486  1.00  0.00    -0.003 NA
ENDBRANCH  27  28
ENDBRANCH  26  27
ENDBRANCH  25  26
ENDBRANCH  19  25
BRANCH  20  31
ATOM     31  O   UNL     1       7.037  23.813  36.684  1.00  0.00    -0.387 OA
ATOM     32  H   UNL     1       6.977  24.761  37.003  1.00  0.00     0.211 HD
ENDBRANCH  20  31
BRANCH  21  33
ATOM     33  O   UNL     1       8.005  22.767  33.504  1.00  0.00    -0.385 OA
ATOM     34  H   UNL     1       8.797  22.655  32.918  1.00  0.00     0.211 HD
ENDBRANCH  21  33
ENDBRANCH  15  16
ENDBRANCH  10  15
BRANCH  12  35
ATOM     35  O   UNL     1       6.394  27.876  32.198  1.00  0.00    -0.385 OA
ATOM     36  H   UNL     1       7.128  27.579  31.610  1.00  0.00     0.211 HD
ENDBRANCH  12  35
BRANCH  13  37
ATOM     37  O   UNL     1       4.073  28.112  30.474  1.00  0.00    -0.387 OA
ATOM     38  H   UNL     1       3.342  27.579  30.056  1.00  0.00     0.211 HD
ENDBRANCH  13  37
BRANCH  14  39
ATOM     39  O   UNL     1       2.868  25.985  31.333  1.00  0.00    -0.387 OA
ATOM     40  H   UNL     1       3.440  26.163  30.549  1.00  0.00     0.211 HD
ENDBRANCH  14  39
ENDBRANCH   8   9
ENDBRANCH   7   8
ENDBRANCH   1   7
BRANCH   1  41
ATOM     41  C   UNL     1      -0.040  22.914  32.226  1.00  0.00     0.364 C 
ATOM     42  O   UNL     1      -1.114  22.535  32.694  1.00  0.00    -0.246 OA
BRANCH  41  43
ATOM     43  O   UNL     1       0.121  22.684  30.846  1.00  0.00    -0.477 OA
ATOM     44  H   UNL     1       0.229  21.736  30.509  1.00  0.00     0.296 HD
ENDBRANCH  41  43
ENDBRANCH   1  41
BRANCH   3  45
ATOM     45  O   UNL     1       1.588  21.664  36.089  1.00  0.00    -0.391 OA
ATOM     46  H   UNL     1       1.717  22.550  36.496  1.00  0.00     0.211 HD
ENDBRANCH   3  45
BRANCH   5  47
ATOM     47  C   UNL     1       3.933  21.548  32.014  1.00  0.00     0.176 C 
BRANCH  47  48
ATOM     48  O   UNL     1       4.519  22.740  31.649  1.00  0.00    -0.388 OA
ATOM     49  H   UNL     1       4.589  23.391  32.392  1.00  0.00     0.211 HD
ENDBRANCH  47  48
BRANCH  47  50
ATOM     50  C   UNL     1       3.979  20.570  30.893  1.00  0.00     0.165 C 
BRANCH  50  51
ATOM     51  O   UNL     1       5.140  20.522  30.169  1.00  0.00    -0.388 OA
ATOM     52  H   UNL     1       5.629  19.671  30.238  1.00  0.00     0.211 HD
ENDBRANCH  50  51
BRANCH  50  53
ATOM     53  C   UNL     1       2.796  20.644  29.976  1.00  0.00     0.154 C 
BRANCH  53  54
ATOM     54  N   UNL     1       2.944  21.757  29.031  1.00  0.00    -0.319 N 
ATOM     55  C   UNL     1       2.149  21.885  27.880  1.00  0.00     0.407 C 
ATOM     56  H   UNL     1       3.680  22.503  29.215  1.00  0.00     0.167 HD
ATOM     57  O   UNL     1       1.270  21.031  27.599  1.00  0.00    -0.225 OA
BRANCH  55  58
ATOM     58  O   UNL     1       2.361  22.996  27.050  1.00  0.00    -0.443 OA
BRANCH  58  59
ATOM     59  C   UNL     1       2.009  24.282  27.477  1.00  0.00     0.294 C 
BRANCH  59  60
ATOM     60  C   UNL     1       3.205  25.200  27.585  1.00  0.00     0.121 A 
ATOM     61  C   UNL     1       3.918  25.735  26.536  1.00  0.00     0.146 A 
ATOM     62  N   UNL     1       3.792  25.671  28.697  1.00  0.00    -0.131 NA
ATOM     63  N   UNL     1       4.923  26.520  27.026  1.00  0.00    -0.200 N 
ATOM     64  N   UNL     1       4.808  26.451  28.339  1.00  0.00    -0.060 NA
BRANCH  63  65
ATOM     65  C   UNL     1       5.869  27.245  26.243  1.00  0.00     0.186 A 
ATOM     66  N   UNL     1       6.726  26.693  25.367  1.00  0.00    -0.216 NA
ATOM     67  C   UNL     1       6.138  28.591  26.197  1.00  0.00     0.158 A 
ATOM     68  C   UNL     1       7.488  27.652  24.807  1.00  0.00     0.207 A 
ATOM     69  N   UNL     1       7.135  28.853  25.315  1.00  0.00    -0.291 N 
ATOM     70  C   UNL     1       5.559  29.624  26.889  1.00  0.00     0.279 A 
ATOM     71  C   UNL     1       7.573  30.106  25.101  1.00  0.00     0.071 A 
ATOM     72  N   UNL     1       5.981  30.899  26.694  1.00  0.00    -0.302 N 
ATOM     73  O   UNL     1       4.623  29.408  27.720  1.00  0.00    -0.267 OA
ATOM     74  C   UNL     1       8.583  30.371  24.216  1.00  0.00     0.029 A 
ATOM     75  C   UNL     1       6.976  31.125  25.809  1.00  0.00     0.068 A 
ATOM     76  C   UNL     1       9.045  31.679  23.997  1.00  0.00     0.002 A 
ATOM     77  C   UNL     1       7.434  32.411  25.590  1.00  0.00     0.028 A 
ATOM     78  C   UNL     1       8.457  32.706  24.698  1.00  0.00     0.002 A 
BRANCH  72  79
ATOM     79  C   UNL     1       5.358  32.003  27.426  1.00  0.00     0.085 C 
ATOM     80  C   UNL     1       6.212  32.551  28.521  1.00  0.00     0.031 C 
ATOM     81  C   UNL     1       4.778  33.045  26.503  1.00  0.00     0.031 C 
ENDBRANCH  72  79
ENDBRANCH  63  65
ENDBRANCH  59  60
ENDBRANCH  58  59
ENDBRANCH  55  58
ENDBRANCH  53  54
ENDBRANCH  50  53
ENDBRANCH  47  50
ENDBRANCH   5  47
BRANCH   4  82
ATOM     82  N   UNL     1       2.059  19.737  33.778  1.00  0.00    -0.348 N 
ATOM     83  C   UNL     1       2.905  18.734  34.304  1.00  0.00     0.217 C 
ATOM     84  H   UNL     1       1.191  19.416  33.285  1.00  0.00     0.163 HD
ATOM     85  C   UNL     1       2.607  17.277  34.180  1.00  0.00     0.114 C 
ATOM     86  O   UNL     1       3.957  19.105  34.901  1.00  0.00    -0.275 OA
ENDBRANCH   4  82
TORSDOF 31
