REMARK VINA RESULT:    -6.003      5.222      6.849
REMARK INTER + INTRA:         -22.263
REMARK INTER:                 -15.140
REMARK INTRA:                  -7.123
REMARK UNBOUND:                -6.784
REMARK SMILES COc1ccc(Cn2cc(COC(=O)NC[C@@H](O)C(O)[C@@H]3O[C@@](OC[C@H]4O[C@@H](O[C@H]5[C@H](O)[C@@H](O)[C@H](OCCN=[N+]=[N-])O[C@@H]5CO)[C@H](O)[C@@H](O)[C@H]4O)(C(=O)O)C[C@H](O)[C@H]3NC(C)=O)nn2)cc1
REMARK SMILES IDX 23 1 55 2 56 3 58 4 21 5 22 6 24 7 25 8 26 9 28 10 27 11
REMARK SMILES IDX 46 12 48 13 50 14 29 15 30 16 43 17 42 18 35 19 31 20 33 21
REMARK SMILES IDX 44 22 45 23 36 25 37 26 38 27 39 28 40 29 41 30 32 31 34 33
REMARK SMILES IDX 47 35 49 37 51 39 52 41 53 42 54 43 57 45 19 47 20 48 17 50
REMARK SMILES IDX 18 51 16 53 15 54 13 55 14 57 12 58 11 59 10 60 9 61 63 62
REMARK SMILES IDX 8 63 64 64 7 65 6 66 5 67 65 68 4 69 66 70 3 71 2 72 1 73
REMARK SMILES IDX 59 74 60 75 61 77 62 78
REMARK H PARENT 45 24 32 32 34 34 47 36 49 38 51 40 54 44 57 46 20 49 18 52
REMARK H PARENT 15 56 59 76
REMARK Flexibility Score: inf
ROOT
ATOM      1  C   UNL     1      23.370  23.850  14.513  1.00  0.00     0.272 C 
ATOM      2  C   UNL     1      24.564  24.679  14.086  1.00  0.00     0.113 C 
ATOM      3  C   UNL     1      25.478  24.912  15.272  1.00  0.00     0.145 C 
ATOM      4  C   UNL     1      25.748  23.674  16.077  1.00  0.00     0.142 C 
ATOM      5  C   UNL     1      24.971  22.461  15.594  1.00  0.00     0.178 C 
ATOM      6  O   UNL     1      23.671  22.781  15.254  1.00  0.00    -0.332 OA
ENDROOT
BRANCH   1   7
ATOM      7  O   UNL     1      22.465  23.710  13.517  1.00  0.00    -0.338 OA
BRANCH   7   8
ATOM      8  C   UNL     1      22.744  23.159  12.331  1.00  0.00     0.199 C 
BRANCH   8   9
ATOM      9  C   UNL     1      21.843  21.992  11.988  1.00  0.00     0.179 C 
ATOM     10  C   UNL     1      20.799  21.127  10.159  1.00  0.00     0.282 C 
ATOM     11  O   UNL     1      22.033  21.633  10.624  1.00  0.00    -0.341 OA
ATOM     12  C   UNL     1      20.148  20.245  11.160  1.00  0.00     0.202 C 
ATOM     13  C   UNL     1      20.996  19.763  12.287  1.00  0.00     0.179 C 
ATOM     14  C   UNL     1      22.042  20.749  12.770  1.00  0.00     0.177 C 
BRANCH  10  15
ATOM     15  O   UNL     1      20.882  20.674   8.873  1.00  0.00    -0.341 OA
BRANCH  15  16
ATOM     16  C   UNL     1      21.329  19.382   8.695  1.00  0.00     0.184 C 
ATOM     17  C   UNL     1      22.620  19.254   7.922  1.00  0.00     0.178 C 
ATOM     18  O   UNL     1      22.673  18.038   7.242  1.00  0.00    -0.341 OA
ATOM     19  C   UNL     1      22.002  17.005   7.918  1.00  0.00     0.281 C 
ATOM     20  C   UNL     1      20.298  18.728   7.756  1.00  0.00     0.180 C 
ATOM     21  C   UNL     1      20.480  17.242   7.901  1.00  0.00     0.202 C 
BRANCH  17  22
ATOM     22  C   UNL     1      23.863  19.348   8.749  1.00  0.00     0.191 C 
BRANCH  22  23
ATOM     23  O   UNL     1      23.536  19.201  10.095  1.00  0.00    -0.394 OA
ATOM     24  H   UNL     1      23.282  20.106  10.436  1.00  0.00     0.210 HD
ENDBRANCH  22  23
ENDBRANCH  17  22
BRANCH  19  25
ATOM     25  O   UNL     1      22.444  16.775   9.181  1.00  0.00    -0.350 OA
BRANCH  25  26
ATOM     26  C   UNL     1      23.025  15.582   9.480  1.00  0.00     0.169 C 
BRANCH  26  27
ATOM     27  C   UNL     1      24.015  15.547  10.583  1.00  0.00     0.119 C 
BRANCH  27  28
ATOM     28  N   UNL     1      23.781  16.487  11.624  1.00  0.00    -0.092 NA
ATOM     29  N   UNL     1      24.671  17.099  12.232  1.00  0.00     0.001 N 
ATOM     30  N   UNL     1      25.398  18.051  12.595  1.00  0.00    -0.003 NA
ENDBRANCH  27  28
ENDBRANCH  26  27
ENDBRANCH  25  26
ENDBRANCH  19  25
BRANCH  20  31
ATOM     31  O   UNL     1      19.027  19.176   7.984  1.00  0.00    -0.387 OA
ATOM     32  H   UNL     1      18.436  18.459   8.382  1.00  0.00     0.211 HD
ENDBRANCH  20  31
BRANCH  21  33
ATOM     33  O   UNL     1      19.867  16.546   6.859  1.00  0.00    -0.385 OA
ATOM     34  H   UNL     1      19.837  15.581   7.089  1.00  0.00     0.211 HD
ENDBRANCH  21  33
ENDBRANCH  15  16
ENDBRANCH  10  15
BRANCH  12  35
ATOM     35  O   UNL     1      18.947  20.808  11.662  1.00  0.00    -0.385 OA
ATOM     36  H   UNL     1      18.323  20.066  11.927  1.00  0.00     0.211 HD
ENDBRANCH  12  35
BRANCH  13  37
ATOM     37  O   UNL     1      21.581  18.506  12.002  1.00  0.00    -0.387 OA
ATOM     38  H   UNL     1      21.302  17.874  12.713  1.00  0.00     0.211 HD
ENDBRANCH  13  37
BRANCH  14  39
ATOM     39  O   UNL     1      23.328  20.228  12.661  1.00  0.00    -0.387 OA
ATOM     40  H   UNL     1      23.549  19.616  13.404  1.00  0.00     0.211 HD
ENDBRANCH  14  39
ENDBRANCH   8   9
ENDBRANCH   7   8
ENDBRANCH   1   7
BRANCH   1  41
ATOM     41  C   UNL     1      22.591  24.869  15.410  1.00  0.00     0.364 C 
ATOM     42  O   UNL     1      22.272  25.984  14.943  1.00  0.00    -0.246 OA
BRANCH  41  43
ATOM     43  O   UNL     1      22.235  24.602  16.686  1.00  0.00    -0.477 OA
ATOM     44  H   UNL     1      21.349  24.678  17.121  1.00  0.00     0.296 HD
ENDBRANCH  41  43
ENDBRANCH   1  41
BRANCH   3  45
ATOM     45  O   UNL     1      26.690  25.370  14.676  1.00  0.00    -0.391 OA
ATOM     46  H   UNL     1      26.999  24.723  13.992  1.00  0.00     0.211 HD
ENDBRANCH   3  45
BRANCH   5  47
ATOM     47  C   UNL     1      25.805  21.764  14.591  1.00  0.00     0.176 C 
BRANCH  47  48
ATOM     48  O   UNL     1      25.636  20.349  14.588  1.00  0.00    -0.388 OA
ATOM     49  H   UNL     1      24.680  20.168  14.461  1.00  0.00     0.211 HD
ENDBRANCH  47  48
BRANCH  47  50
ATOM     50  C   UNL     1      27.326  21.785  14.921  1.00  0.00     0.165 C 
BRANCH  50  51
ATOM     51  O   UNL     1      28.179  21.979  13.909  1.00  0.00    -0.388 OA
ATOM     52  H   UNL     1      27.804  22.598  13.234  1.00  0.00     0.211 HD
ENDBRANCH  50  51
BRANCH  50  53
ATOM     53  C   UNL     1      27.624  20.462  15.660  1.00  0.00     0.154 C 
BRANCH  53  54
ATOM     54  N   UNL     1      27.614  20.606  17.079  1.00  0.00    -0.319 N 
ATOM     55  C   UNL     1      28.594  19.917  17.866  1.00  0.00     0.407 C 
ATOM     56  H   UNL     1      26.921  21.192  17.555  1.00  0.00     0.167 HD
ATOM     57  O   UNL     1      29.450  19.194  17.285  1.00  0.00    -0.225 OA
BRANCH  55  58
ATOM     58  O   UNL     1      28.559  20.074  19.240  1.00  0.00    -0.443 OA
BRANCH  58  59
ATOM     59  C   UNL     1      28.789  18.932  20.088  1.00  0.00     0.294 C 
BRANCH  59  60
ATOM     60  C   UNL     1      29.493  19.398  21.301  1.00  0.00     0.120 A 
ATOM     61  C   UNL     1      30.823  19.143  21.651  1.00  0.00     0.138 A 
ATOM     62  N   UNL     1      28.997  20.139  22.298  1.00  0.00    -0.132 NA
ATOM     63  N   UNL     1      31.044  19.739  22.829  1.00  0.00    -0.248 N 
ATOM     64  N   UNL     1      29.927  20.340  23.211  1.00  0.00    -0.067 NA
BRANCH  63  65
ATOM     65  C   UNL     1      32.284  19.729  23.564  1.00  0.00     0.181 C 
BRANCH  65  66
ATOM     66  C   UNL     1      32.089  18.991  24.831  1.00  0.00    -0.026 A 
ATOM     67  C   UNL     1      32.071  17.599  24.822  1.00  0.00     0.009 A 
ATOM     68  C   UNL     1      31.938  19.616  26.041  1.00  0.00     0.009 A 
ATOM     69  C   UNL     1      31.910  16.861  25.975  1.00  0.00     0.047 A 
ATOM     70  C   UNL     1      31.774  18.866  27.211  1.00  0.00     0.047 A 
ATOM     71  C   UNL     1      31.758  17.499  27.198  1.00  0.00     0.118 A 
BRANCH  71  72
ATOM     72  O   UNL     1      31.600  16.715  28.326  1.00  0.00    -0.497 OA
ATOM     73  C   UNL     1      32.116  17.015  29.589  1.00  0.00     0.278 C 
ENDBRANCH  71  72
ENDBRANCH  65  66
ENDBRANCH  63  65
ENDBRANCH  59  60
ENDBRANCH  58  59
ENDBRANCH  55  58
ENDBRANCH  53  54
ENDBRANCH  50  53
ENDBRANCH  47  50
ENDBRANCH   5  47
BRANCH   4  74
ATOM     74  N   UNL     1      25.658  23.841  17.511  1.00  0.00    -0.348 N 
ATOM     75  C   UNL     1      26.754  23.721  18.409  1.00  0.00     0.217 C 
ATOM     76  H   UNL     1      24.740  24.049  17.931  1.00  0.00     0.163 HD
ATOM     77  C   UNL     1      26.541  23.912  19.894  1.00  0.00     0.114 C 
ATOM     78  O   UNL     1      27.897  23.455  17.966  1.00  0.00    -0.275 OA
ENDBRANCH   4  74
TORSDOF 32
