REMARK VINA RESULT:    -4.873      5.298     11.477
REMARK INTER + INTRA:         -21.357
REMARK INTER:                 -15.052
REMARK INTRA:                  -6.305
REMARK UNBOUND:                -8.936
REMARK SMILES CC(=O)N[C@@H]1[C@@H](O)C[C@](OC[C@H]2O[C@@H](O[C@H]3[C@H](O)[C@@H](O)[C@H](OCCN=[N+]=[N-])O[C@@H]3CO)[C@H](O)[C@@H](O)[C@H]2O)(C(=O)O)O[C@H]1C(O)[C@H](O)CNC(=O)OCc1cn(-c2ccc(S(N)(=O)=O)cc2)nn1
REMARK SMILES IDX 9 1 8 2 6 3 5 4 42 5 41 6 10 7 11 8 12 9 14 10 13 11 32 12
REMARK SMILES IDX 34 13 36 14 15 15 16 16 29 17 28 18 21 19 17 20 19 21 30 22
REMARK SMILES IDX 31 23 22 25 23 26 24 27 25 28 26 29 27 30 18 31 20 33 33 35
REMARK SMILES IDX 35 37 37 39 38 41 39 42 40 43 7 45 43 47 44 48 45 50 46 51
REMARK SMILES IDX 47 53 48 54 49 55 50 57 51 58 52 59 53 60 54 61 67 62 55 63
REMARK SMILES IDX 66 64 56 65 57 66 65 67 58 68 64 69 59 70 60 71 62 72 63 73
REMARK SMILES IDX 61 74 4 77 2 78 1 80 3 81
REMARK H PARENT 31 24 18 32 20 34 33 36 35 38 37 40 40 44 7 46 44 49 46 52
REMARK H PARENT 48 56 61 75 61 76 4 79
REMARK Flexibility Score: inf
ROOT
ATOM      1  C   UNL     1      14.959  29.907  20.679  1.00  0.00     0.272 C 
ATOM      2  C   UNL     1      13.758  30.830  20.417  1.00  0.00     0.113 C 
ATOM      3  C   UNL     1      14.005  31.763  19.285  1.00  0.00     0.145 C 
ATOM      4  C   UNL     1      15.429  32.250  19.347  1.00  0.00     0.142 C 
ATOM      5  C   UNL     1      15.864  32.038  20.802  1.00  0.00     0.178 C 
ATOM      6  O   UNL     1      16.077  30.667  20.930  1.00  0.00    -0.332 OA
ENDROOT
BRANCH   1   7
ATOM      7  O   UNL     1      15.054  29.095  19.557  1.00  0.00    -0.338 OA
BRANCH   7   8
ATOM      8  C   UNL     1      16.320  28.667  19.271  1.00  0.00     0.199 C 
BRANCH   8   9
ATOM      9  C   UNL     1      16.372  28.355  17.765  1.00  0.00     0.179 C 
ATOM     10  C   UNL     1      15.950  29.518  15.779  1.00  0.00     0.282 C 
ATOM     11  O   UNL     1      15.601  29.287  17.146  1.00  0.00    -0.341 OA
ATOM     12  C   UNL     1      17.314  30.140  15.869  1.00  0.00     0.202 C 
ATOM     13  C   UNL     1      18.326  29.097  16.326  1.00  0.00     0.179 C 
ATOM     14  C   UNL     1      17.739  28.111  17.268  1.00  0.00     0.177 C 
BRANCH  10  15
ATOM     15  O   UNL     1      15.037  30.376  15.276  1.00  0.00    -0.341 OA
BRANCH  15  16
ATOM     16  C   UNL     1      14.343  29.910  14.128  1.00  0.00     0.184 C 
ATOM     17  C   UNL     1      14.295  30.995  13.153  1.00  0.00     0.178 C 
ATOM     18  O   UNL     1      13.117  31.161  12.453  1.00  0.00    -0.341 OA
ATOM     19  C   UNL     1      12.317  30.061  12.325  1.00  0.00     0.281 C 
ATOM     20  C   UNL     1      13.008  29.343  14.553  1.00  0.00     0.180 C 
ATOM     21  C   UNL     1      11.846  29.679  13.703  1.00  0.00     0.202 C 
BRANCH  17  22
ATOM     22  C   UNL     1      15.400  30.950  12.118  1.00  0.00     0.191 C 
BRANCH  22  23
ATOM     23  O   UNL     1      16.251  29.881  12.357  1.00  0.00    -0.394 OA
ATOM     24  H   UNL     1      15.898  29.034  11.985  1.00  0.00     0.210 HD
ENDBRANCH  22  23
ENDBRANCH  17  22
BRANCH  19  25
ATOM     25  O   UNL     1      12.850  29.002  11.631  1.00  0.00    -0.350 OA
BRANCH  25  26
ATOM     26  C   UNL     1      12.483  29.071  10.292  1.00  0.00     0.169 C 
BRANCH  26  27
ATOM     27  C   UNL     1      12.284  27.645   9.788  1.00  0.00     0.119 C 
BRANCH  27  28
ATOM     28  N   UNL     1      10.872  27.383   9.727  1.00  0.00    -0.092 NA
ATOM     29  N   UNL     1      10.118  27.581  10.706  1.00  0.00     0.001 N 
ATOM     30  N   UNL     1       9.470  27.199  11.695  1.00  0.00    -0.003 NA
ENDBRANCH  27  28
ENDBRANCH  26  27
ENDBRANCH  25  26
ENDBRANCH  19  25
BRANCH  20  31
ATOM     31  O   UNL     1      13.067  27.951  14.666  1.00  0.00    -0.387 OA
ATOM     32  H   UNL     1      12.831  27.692  15.586  1.00  0.00     0.211 HD
ENDBRANCH  20  31
BRANCH  21  33
ATOM     33  O   UNL     1      11.032  30.682  14.215  1.00  0.00    -0.385 OA
ATOM     34  H   UNL     1      10.092  30.379  14.000  1.00  0.00     0.211 HD
ENDBRANCH  21  33
ENDBRANCH  15  16
ENDBRANCH  10  15
BRANCH  12  35
ATOM     35  O   UNL     1      17.719  30.833  14.766  1.00  0.00    -0.385 OA
ATOM     36  H   UNL     1      18.149  30.302  14.069  1.00  0.00     0.211 HD
ENDBRANCH  12  35
BRANCH  13  37
ATOM     37  O   UNL     1      19.506  29.686  16.748  1.00  0.00    -0.387 OA
ATOM     38  H   UNL     1      20.098  29.112  17.275  1.00  0.00     0.211 HD
ENDBRANCH  13  37
BRANCH  14  39
ATOM     39  O   UNL     1      18.594  28.053  18.396  1.00  0.00    -0.387 OA
ATOM     40  H   UNL     1      19.053  28.943  18.415  1.00  0.00     0.211 HD
ENDBRANCH  14  39
ENDBRANCH   8   9
ENDBRANCH   7   8
ENDBRANCH   1   7
BRANCH   1  41
ATOM     41  C   UNL     1      14.535  29.097  21.882  1.00  0.00     0.364 C 
ATOM     42  O   UNL     1      15.207  29.113  22.942  1.00  0.00    -0.246 OA
BRANCH  41  43
ATOM     43  O   UNL     1      13.395  28.318  21.856  1.00  0.00    -0.477 OA
ATOM     44  H   UNL     1      13.351  27.562  21.190  1.00  0.00     0.296 HD
ENDBRANCH  41  43
ENDBRANCH   1  41
BRANCH   3  45
ATOM     45  O   UNL     1      13.695  31.111  18.094  1.00  0.00    -0.391 OA
ATOM     46  H   UNL     1      13.821  30.141  18.214  1.00  0.00     0.211 HD
ENDBRANCH   3  45
BRANCH   5  47
ATOM     47  C   UNL     1      17.150  32.764  21.091  1.00  0.00     0.176 C 
BRANCH  47  48
ATOM     48  O   UNL     1      16.990  34.100  21.393  1.00  0.00    -0.388 OA
ATOM     49  H   UNL     1      16.044  34.354  21.540  1.00  0.00     0.211 HD
ENDBRANCH  47  48
BRANCH  47  50
ATOM     50  C   UNL     1      17.904  32.075  22.205  1.00  0.00     0.165 C 
BRANCH  50  51
ATOM     51  O   UNL     1      18.126  32.972  23.271  1.00  0.00    -0.388 OA
ATOM     52  H   UNL     1      17.539  33.775  23.172  1.00  0.00     0.211 HD
ENDBRANCH  50  51
BRANCH  50  53
ATOM     53  C   UNL     1      19.219  31.510  21.732  1.00  0.00     0.154 C 
BRANCH  53  54
ATOM     54  N   UNL     1      19.249  30.068  21.816  1.00  0.00    -0.319 N 
ATOM     55  C   UNL     1      19.843  29.315  20.771  1.00  0.00     0.407 C 
ATOM     56  H   UNL     1      18.847  29.549  22.621  1.00  0.00     0.167 HD
ATOM     57  O   UNL     1      20.335  29.932  19.782  1.00  0.00    -0.225 OA
BRANCH  55  58
ATOM     58  O   UNL     1      19.926  27.933  20.759  1.00  0.00    -0.443 OA
BRANCH  58  59
ATOM     59  C   UNL     1      21.154  27.246  20.791  1.00  0.00     0.294 C 
BRANCH  59  60
ATOM     60  C   UNL     1      21.232  26.452  22.046  1.00  0.00     0.121 A 
ATOM     61  C   UNL     1      21.796  26.880  23.254  1.00  0.00     0.144 A 
ATOM     62  N   UNL     1      20.808  25.204  22.304  1.00  0.00    -0.131 NA
ATOM     63  N   UNL     1      21.688  25.886  24.170  1.00  0.00    -0.220 N 
ATOM     64  N   UNL     1      21.093  24.895  23.578  1.00  0.00    -0.062 NA
BRANCH  63  65
ATOM     65  C   UNL     1      22.144  25.921  25.527  1.00  0.00     0.066 A 
ATOM     66  C   UNL     1      22.863  24.878  26.065  1.00  0.00     0.030 A 
ATOM     67  C   UNL     1      21.880  27.003  26.337  1.00  0.00     0.030 A 
ATOM     68  C   UNL     1      23.308  24.917  27.385  1.00  0.00     0.024 A 
ATOM     69  C   UNL     1      22.320  27.053  27.658  1.00  0.00     0.024 A 
ATOM     70  C   UNL     1      23.041  26.004  28.194  1.00  0.00     0.082 A 
BRANCH  70  71
ATOM     71  S   UNL     1      23.619  26.023  29.859  1.00  0.00     0.238 S 
ATOM     72  O   UNL     1      24.854  26.879  29.993  1.00  0.00    -0.207 OA
ATOM     73  O   UNL     1      22.578  26.603  30.767  1.00  0.00    -0.207 OA
BRANCH  71  74
ATOM     74  N   UNL     1      23.986  24.416  30.405  1.00  0.00    -0.225 NA
ATOM     75  H   UNL     1      23.637  23.745  29.663  1.00  0.00     0.137 HD
ATOM     76  H   UNL     1      23.543  24.201  31.329  1.00  0.00     0.137 HD
ENDBRANCH  71  74
ENDBRANCH  70  71
ENDBRANCH  63  65
ENDBRANCH  59  60
ENDBRANCH  58  59
ENDBRANCH  55  58
ENDBRANCH  53  54
ENDBRANCH  50  53
ENDBRANCH  47  50
ENDBRANCH   5  47
BRANCH   4  77
ATOM     77  N   UNL     1      15.607  33.623  18.955  1.00  0.00    -0.348 N 
ATOM     78  C   UNL     1      15.720  33.964  17.591  1.00  0.00     0.217 C 
ATOM     79  H   UNL     1      15.651  34.379  19.663  1.00  0.00     0.163 HD
ATOM     80  C   UNL     1      15.903  35.391  17.226  1.00  0.00     0.114 C 
ATOM     81  O   UNL     1      15.674  33.114  16.671  1.00  0.00    -0.275 OA
ENDBRANCH   4  77
TORSDOF 32
