REMARK VINA RESULT:    -5.408     13.993     20.011
REMARK INTER + INTRA:         -23.249
REMARK INTER:                 -14.697
REMARK INTRA:                  -8.552
REMARK UNBOUND:                -8.356
REMARK SMILES CC(=O)N[C@@H]1[C@@H](O)C[C@](OC[C@H]2O[C@@H](O[C@H]3[C@H](O)[C@@H](O)[C@H](OCCN=[N+]=[N-])O[C@@H]3CO)[C@H](O)[C@@H](O)[C@H]2O)(C(=O)O)O[C@H]1C(O)[C@H](O)CNC(=O)OCc1cn([C@@H](CCC(=O)O)C(=O)O)nn1
REMARK SMILES IDX 43 1 42 2 9 3 8 4 41 5 6 6 5 7 10 8 11 9 12 10 14 11 13 12
REMARK SMILES IDX 32 13 34 14 36 15 15 16 16 17 29 18 28 19 21 20 17 21 19 22
REMARK SMILES IDX 30 23 31 24 22 26 23 27 24 28 25 29 26 30 27 31 18 32 20 34
REMARK SMILES IDX 33 36 35 38 37 40 38 42 39 43 40 44 7 46 4 48 2 49 1 51 3 52
REMARK SMILES IDX 44 53 45 55 46 56 47 58 48 59 49 60 50 62 51 63 52 64 53 65
REMARK SMILES IDX 54 66 66 67 55 68 65 69 56 70 57 71 58 72 59 73 60 74 61 75
REMARK SMILES IDX 62 77 63 78 64 79
REMARK H PARENT 31 25 18 33 20 35 33 37 35 39 37 41 40 45 7 47 4 50 44 54
REMARK H PARENT 46 57 48 61 61 76 64 80
REMARK Flexibility Score: inf
ROOT
ATOM      1  C   UNL     1       3.604  20.215  31.910  1.00  0.00     0.176 C 
ENDROOT
BRANCH   1   2
ATOM      2  C   UNL     1       2.456  20.561  32.860  1.00  0.00     0.178 C 
ATOM      3  C   UNL     1       1.209  22.508  33.299  1.00  0.00     0.272 C 
ATOM      4  C   UNL     1       1.591  22.583  34.723  1.00  0.00     0.113 C 
ATOM      5  O   UNL     1       2.324  21.934  32.653  1.00  0.00    -0.332 OA
ATOM      6  C   UNL     1       2.742  21.672  35.054  1.00  0.00     0.145 C 
ATOM      7  C   UNL     1       2.825  20.390  34.306  1.00  0.00     0.142 C 
BRANCH   3   8
ATOM      8  O   UNL     1       1.058  23.763  32.744  1.00  0.00    -0.338 OA
BRANCH   8   9
ATOM      9  C   UNL     1       1.175  24.898  33.382  1.00  0.00     0.199 C 
BRANCH   9  10
ATOM     10  C   UNL     1       2.405  25.761  33.346  1.00  0.00     0.179 C 
ATOM     11  C   UNL     1       4.664  25.271  33.661  1.00  0.00     0.282 C 
ATOM     12  O   UNL     1       3.393  25.309  34.172  1.00  0.00    -0.341 OA
ATOM     13  C   UNL     1       4.667  24.368  32.447  1.00  0.00     0.202 C 
ATOM     14  C   UNL     1       3.812  24.987  31.388  1.00  0.00     0.179 C 
ATOM     15  C   UNL     1       2.854  25.998  31.909  1.00  0.00     0.177 C 
BRANCH  11  16
ATOM     16  O   UNL     1       5.512  24.719  34.624  1.00  0.00    -0.341 OA
BRANCH  16  17
ATOM     17  C   UNL     1       6.361  25.608  35.233  1.00  0.00     0.184 C 
ATOM     18  C   UNL     1       7.289  26.281  34.226  1.00  0.00     0.178 C 
ATOM     19  O   UNL     1       8.609  25.971  34.546  1.00  0.00    -0.341 OA
ATOM     20  C   UNL     1       8.855  24.593  34.286  1.00  0.00     0.281 C 
ATOM     21  C   UNL     1       7.237  24.815  36.182  1.00  0.00     0.180 C 
ATOM     22  C   UNL     1       8.059  23.842  35.310  1.00  0.00     0.202 C 
BRANCH  18  23
ATOM     23  C   UNL     1       7.141  27.789  34.334  1.00  0.00     0.191 C 
BRANCH  23  24
ATOM     24  O   UNL     1       7.359  28.419  33.124  1.00  0.00    -0.394 OA
ATOM     25  H   UNL     1       6.521  28.785  32.738  1.00  0.00     0.210 HD
ENDBRANCH  23  24
ENDBRANCH  18  23
BRANCH  20  26
ATOM     26  O   UNL     1      10.207  24.416  34.322  1.00  0.00    -0.350 OA
BRANCH  26  27
ATOM     27  C   UNL     1      10.706  23.879  35.476  1.00  0.00     0.169 C 
BRANCH  27  28
ATOM     28  C   UNL     1      11.475  24.862  36.335  1.00  0.00     0.119 C 
BRANCH  28  29
ATOM     29  N   UNL     1      11.016  24.865  37.710  1.00  0.00    -0.092 NA
ATOM     30  N   UNL     1      11.600  24.299  38.628  1.00  0.00     0.001 N 
ATOM     31  N   UNL     1      12.338  23.868  39.488  1.00  0.00    -0.003 NA
ENDBRANCH  28  29
ENDBRANCH  27  28
ENDBRANCH  26  27
ENDBRANCH  20  26
BRANCH  21  32
ATOM     32  O   UNL     1       8.080  25.621  36.936  1.00  0.00    -0.387 OA
ATOM     33  H   UNL     1       8.343  26.465  36.452  1.00  0.00     0.211 HD
ENDBRANCH  21  32
BRANCH  22  34
ATOM     34  O   UNL     1       7.073  23.109  34.604  1.00  0.00    -0.385 OA
ATOM     35  H   UNL     1       6.840  23.633  33.796  1.00  0.00     0.211 HD
ENDBRANCH  22  34
ENDBRANCH  16  17
ENDBRANCH  11  16
BRANCH  13  36
ATOM     36  O   UNL     1       5.969  24.176  31.980  1.00  0.00    -0.385 OA
ATOM     37  H   UNL     1       6.100  24.860  31.250  1.00  0.00     0.211 HD
ENDBRANCH  13  36
BRANCH  14  38
ATOM     38  O   UNL     1       3.140  24.029  30.622  1.00  0.00    -0.387 OA
ATOM     39  H   UNL     1       2.163  24.253  30.608  1.00  0.00     0.211 HD
ENDBRANCH  14  38
BRANCH  15  40
ATOM     40  O   UNL     1       1.728  25.948  31.084  1.00  0.00    -0.387 OA
ATOM     41  H   UNL     1       1.154  26.735  31.223  1.00  0.00     0.211 HD
ENDBRANCH  15  40
ENDBRANCH   9  10
ENDBRANCH   8   9
ENDBRANCH   3   8
BRANCH   3  42
ATOM     42  C   UNL     1       0.030  21.731  32.939  1.00  0.00     0.364 C 
ATOM     43  O   UNL     1      -0.540  21.990  31.816  1.00  0.00    -0.246 OA
BRANCH  42  44
ATOM     44  O   UNL     1      -0.590  20.722  33.651  1.00  0.00    -0.477 OA
ATOM     45  H   UNL     1      -0.128  19.874  33.882  1.00  0.00     0.296 HD
ENDBRANCH  42  44
ENDBRANCH   3  42
BRANCH   6  46
ATOM     46  O   UNL     1       3.929  22.388  34.732  1.00  0.00    -0.391 OA
ATOM     47  H   UNL     1       3.802  22.934  33.915  1.00  0.00     0.211 HD
ENDBRANCH   6  46
BRANCH   7  48
ATOM     48  N   UNL     1       2.129  19.406  35.059  1.00  0.00    -0.348 N 
ATOM     49  C   UNL     1       2.740  18.553  36.011  1.00  0.00     0.217 C 
ATOM     50  H   UNL     1       1.104  19.275  34.961  1.00  0.00     0.163 HD
ATOM     51  C   UNL     1       1.941  17.528  36.771  1.00  0.00     0.114 C 
ATOM     52  O   UNL     1       3.945  18.633  36.238  1.00  0.00    -0.275 OA
ENDBRANCH   7  48
ENDBRANCH   1   2
BRANCH   1  53
ATOM     53  O   UNL     1       4.704  21.009  32.210  1.00  0.00    -0.388 OA
ATOM     54  H   UNL     1       5.519  20.444  32.288  1.00  0.00     0.211 HD
ENDBRANCH   1  53
BRANCH   1  55
ATOM     55  C   UNL     1       3.312  20.228  30.483  1.00  0.00     0.165 C 
BRANCH  55  56
ATOM     56  O   UNL     1       3.889  21.408  29.923  1.00  0.00    -0.388 OA
ATOM     57  H   UNL     1       3.148  21.987  29.625  1.00  0.00     0.211 HD
ENDBRANCH  55  56
BRANCH  55  58
ATOM     58  C   UNL     1       1.877  20.263  30.051  1.00  0.00     0.154 C 
BRANCH  58  59
ATOM     59  N   UNL     1       1.462  21.550  29.546  1.00  0.00    -0.319 N 
ATOM     60  C   UNL     1       1.570  21.936  28.177  1.00  0.00     0.407 C 
ATOM     61  H   UNL     1       1.073  22.245  30.203  1.00  0.00     0.167 HD
ATOM     62  O   UNL     1       2.036  21.164  27.340  1.00  0.00    -0.225 OA
BRANCH  60  63
ATOM     63  O   UNL     1       1.142  23.191  27.824  1.00  0.00    -0.443 OA
BRANCH  63  64
ATOM     64  C   UNL     1       1.622  23.893  26.714  1.00  0.00     0.294 C 
BRANCH  64  65
ATOM     65  C   UNL     1       2.476  25.018  27.168  1.00  0.00     0.120 A 
ATOM     66  C   UNL     1       3.688  25.450  26.670  1.00  0.00     0.139 A 
ATOM     67  N   UNL     1       2.205  25.841  28.216  1.00  0.00    -0.132 NA
ATOM     68  N   UNL     1       4.118  26.508  27.416  1.00  0.00    -0.238 N 
ATOM     69  N   UNL     1       3.184  26.711  28.346  1.00  0.00    -0.066 NA
BRANCH  68  70
ATOM     70  C   UNL     1       5.306  27.254  27.217  1.00  0.00     0.219 C 
BRANCH  70  71
ATOM     71  C   UNL     1       6.024  27.158  25.922  1.00  0.00     0.051 C 
BRANCH  71  72
ATOM     72  C   UNL     1       7.405  27.653  25.808  1.00  0.00     0.125 C 
BRANCH  72  73
ATOM     73  C   UNL     1       8.365  26.929  25.001  1.00  0.00     0.303 C 
ATOM     74  O   UNL     1       9.603  26.898  25.104  1.00  0.00    -0.252 OA
BRANCH  73  75
ATOM     75  O   UNL     1       7.880  26.122  23.923  1.00  0.00    -0.481 OA
ATOM     76  H   UNL     1       6.920  26.223  23.633  1.00  0.00     0.296 HD
ENDBRANCH  73  75
ENDBRANCH  72  73
ENDBRANCH  71  72
ENDBRANCH  70  71
BRANCH  70  77
ATOM     77  C   UNL     1       5.010  28.698  27.480  1.00  0.00     0.328 C 
ATOM     78  O   UNL     1       5.578  29.300  28.411  1.00  0.00    -0.250 OA
BRANCH  77  79
ATOM     79  O   UNL     1       4.109  29.410  26.710  1.00  0.00    -0.480 OA
ATOM     80  H   UNL     1       3.650  28.995  25.898  1.00  0.00     0.296 HD
ENDBRANCH  77  79
ENDBRANCH  70  77
ENDBRANCH  68  70
ENDBRANCH  64  65
ENDBRANCH  63  64
ENDBRANCH  60  63
ENDBRANCH  58  59
ENDBRANCH  55  58
ENDBRANCH   1  55
TORSDOF 36
