REMARK VINA RESULT:    -4.570      2.843      8.555
REMARK INTER + INTRA:         -20.345
REMARK INTER:                 -13.737
REMARK INTRA:                  -6.608
REMARK UNBOUND:                -8.028
REMARK SMILES CCN(CC)CCn1cc(COC(=O)NC[C@@H](O)C(O)[C@@H]2O[C@@](OC[C@H]3O[C@@H](O[C@H]4[C@H](O)[C@@H](O)[C@H](OCCN=[N+]=[N-])O[C@@H]4CO)[C@H](O)[C@@H](O)[C@H]3O)(C(=O)O)C[C@H](O)[C@H]2NC(C)=O)nn1
REMARK SMILES IDX 19 1 21 2 23 3 55 4 22 5 56 6 58 7 24 8 25 9 26 10 28 11
REMARK SMILES IDX 27 12 46 13 48 14 50 15 29 16 30 17 43 18 42 19 35 20 31 21
REMARK SMILES IDX 33 22 44 23 45 24 36 26 37 27 38 28 39 29 40 30 41 31 32 32
REMARK SMILES IDX 34 34 47 36 49 38 51 40 52 42 53 43 54 44 57 46 59 48 60 49
REMARK SMILES IDX 61 51 62 52 20 53 17 55 18 56 16 58 15 59 13 60 14 62 12 63
REMARK SMILES IDX 11 64 10 65 9 66 63 67 8 68 64 69 7 70 6 71 3 72 2 73 1 74
REMARK SMILES IDX 4 75 5 76
REMARK H PARENT 45 25 32 33 34 35 47 37 49 39 51 41 54 45 57 47 59 50 20 54
REMARK H PARENT 18 57 15 61
REMARK Flexibility Score: inf
ROOT
ATOM      1  C   UNL     1      22.328  30.747  20.971  1.00  0.00     0.176 C 
ENDROOT
BRANCH   1   2
ATOM      2  C   UNL     1      22.803  30.846  22.397  1.00  0.00     0.178 C 
ATOM      3  C   UNL     1      24.303  29.994  23.921  1.00  0.00     0.272 C 
ATOM      4  C   UNL     1      23.704  31.174  24.702  1.00  0.00     0.113 C 
ATOM      5  O   UNL     1      23.852  29.987  22.619  1.00  0.00    -0.332 OA
ATOM      6  C   UNL     1      22.210  31.186  24.712  1.00  0.00     0.145 C 
ATOM      7  C   UNL     1      21.736  30.509  23.416  1.00  0.00     0.142 C 
BRANCH   3   8
ATOM      8  O   UNL     1      24.006  28.860  24.638  1.00  0.00    -0.338 OA
BRANCH   8   9
ATOM      9  C   UNL     1      24.450  28.830  25.937  1.00  0.00     0.199 C 
BRANCH   9  10
ATOM     10  C   UNL     1      23.579  27.900  26.801  1.00  0.00     0.179 C 
ATOM     11  C   UNL     1      22.529  25.858  26.291  1.00  0.00     0.282 C 
ATOM     12  O   UNL     1      22.847  27.162  25.942  1.00  0.00    -0.341 OA
ATOM     13  C   UNL     1      22.493  25.656  27.753  1.00  0.00     0.202 C 
ATOM     14  C   UNL     1      23.756  26.064  28.461  1.00  0.00     0.179 C 
ATOM     15  C   UNL     1      24.517  27.055  27.608  1.00  0.00     0.177 C 
BRANCH  11  16
ATOM     16  O   UNL     1      23.395  25.071  25.545  1.00  0.00    -0.341 OA
BRANCH  16  17
ATOM     17  C   UNL     1      23.552  25.459  24.262  1.00  0.00     0.184 C 
ATOM     18  C   UNL     1      22.671  24.701  23.304  1.00  0.00     0.178 C 
ATOM     19  O   UNL     1      22.843  25.272  22.010  1.00  0.00    -0.341 OA
ATOM     20  C   UNL     1      24.003  24.761  21.471  1.00  0.00     0.281 C 
ATOM     21  C   UNL     1      24.981  25.304  23.751  1.00  0.00     0.180 C 
ATOM     22  C   UNL     1      25.065  24.553  22.460  1.00  0.00     0.202 C 
BRANCH  18  23
ATOM     23  C   UNL     1      21.234  24.616  23.671  1.00  0.00     0.191 C 
BRANCH  23  24
ATOM     24  O   UNL     1      20.482  24.880  22.532  1.00  0.00    -0.394 OA
ATOM     25  H   UNL     1      20.739  25.716  22.070  1.00  0.00     0.210 HD
ENDBRANCH  23  24
ENDBRANCH  18  23
BRANCH  20  26
ATOM     26  O   UNL     1      24.396  25.455  20.330  1.00  0.00    -0.350 OA
BRANCH  26  27
ATOM     27  C   UNL     1      25.692  25.876  20.331  1.00  0.00     0.169 C 
BRANCH  27  28
ATOM     28  C   UNL     1      25.825  27.385  20.252  1.00  0.00     0.119 C 
BRANCH  28  29
ATOM     29  N   UNL     1      26.954  27.855  21.031  1.00  0.00    -0.092 NA
ATOM     30  N   UNL     1      28.126  27.731  20.654  1.00  0.00     0.001 N 
ATOM     31  N   UNL     1      29.233  27.208  20.514  1.00  0.00    -0.003 NA
ENDBRANCH  28  29
ENDBRANCH  27  28
ENDBRANCH  26  27
ENDBRANCH  20  26
BRANCH  21  32
ATOM     32  O   UNL     1      25.523  26.564  23.585  1.00  0.00    -0.387 OA
ATOM     33  H   UNL     1      26.381  26.575  23.113  1.00  0.00     0.211 HD
ENDBRANCH  21  32
BRANCH  22  34
ATOM     34  O   UNL     1      25.231  23.164  22.687  1.00  0.00    -0.385 OA
ATOM     35  H   UNL     1      26.088  23.072  23.178  1.00  0.00     0.211 HD
ENDBRANCH  22  34
ENDBRANCH  16  17
ENDBRANCH  11  16
BRANCH  13  36
ATOM     36  O   UNL     1      21.451  26.470  28.288  1.00  0.00    -0.385 OA
ATOM     37  H   UNL     1      21.115  26.102  29.124  1.00  0.00     0.211 HD
ENDBRANCH  13  36
BRANCH  14  38
ATOM     38  O   UNL     1      24.554  25.001  28.851  1.00  0.00    -0.387 OA
ATOM     39  H   UNL     1      24.324  24.645  29.725  1.00  0.00     0.211 HD
ENDBRANCH  14  38
BRANCH  15  40
ATOM     40  O   UNL     1      25.328  26.335  26.741  1.00  0.00    -0.387 OA
ATOM     41  H   UNL     1      24.992  25.397  26.653  1.00  0.00     0.211 HD
ENDBRANCH  15  40
ENDBRANCH   9  10
ENDBRANCH   8   9
ENDBRANCH   3   8
BRANCH   3  42
ATOM     42  C   UNL     1      25.764  30.258  23.923  1.00  0.00     0.364 C 
ATOM     43  O   UNL     1      26.225  31.360  24.378  1.00  0.00    -0.246 OA
BRANCH  42  44
ATOM     44  O   UNL     1      26.719  29.380  23.454  1.00  0.00    -0.477 OA
ATOM     45  H   UNL     1      26.436  28.531  22.977  1.00  0.00     0.296 HD
ENDBRANCH  42  44
ENDBRANCH   3  42
BRANCH   6  46
ATOM     46  O   UNL     1      21.626  30.658  25.837  1.00  0.00    -0.391 OA
ATOM     47  H   UNL     1      22.188  30.917  26.611  1.00  0.00     0.211 HD
ENDBRANCH   6  46
BRANCH   7  48
ATOM     48  N   UNL     1      20.419  30.918  23.061  1.00  0.00    -0.348 N 
ATOM     49  C   UNL     1      19.315  30.085  23.469  1.00  0.00     0.217 C 
ATOM     50  H   UNL     1      20.170  31.773  22.533  1.00  0.00     0.163 HD
ATOM     51  C   UNL     1      17.915  30.447  23.133  1.00  0.00     0.114 C 
ATOM     52  O   UNL     1      19.499  29.024  24.122  1.00  0.00    -0.275 OA
ENDBRANCH   7  48
ENDBRANCH   1   2
BRANCH   1  53
ATOM     53  O   UNL     1      23.070  31.632  20.201  1.00  0.00    -0.388 OA
ATOM     54  H   UNL     1      22.875  31.464  19.226  1.00  0.00     0.211 HD
ENDBRANCH   1  53
BRANCH   1  55
ATOM     55  C   UNL     1      22.614  29.339  20.515  1.00  0.00     0.165 C 
BRANCH  55  56
ATOM     56  O   UNL     1      23.125  29.376  19.212  1.00  0.00    -0.388 OA
ATOM     57  H   UNL     1      23.914  28.783  19.176  1.00  0.00     0.211 HD
ENDBRANCH  55  56
BRANCH  55  58
ATOM     58  C   UNL     1      21.467  28.400  20.573  1.00  0.00     0.154 C 
BRANCH  58  59
ATOM     59  N   UNL     1      20.255  28.918  20.037  1.00  0.00    -0.319 N 
ATOM     60  C   UNL     1      19.878  28.576  18.694  1.00  0.00     0.407 C 
ATOM     61  H   UNL     1      19.646  29.534  20.577  1.00  0.00     0.167 HD
ATOM     62  O   UNL     1      20.599  27.840  17.992  1.00  0.00    -0.225 OA
BRANCH  60  63
ATOM     63  O   UNL     1      18.691  29.088  18.196  1.00  0.00    -0.443 OA
BRANCH  63  64
ATOM     64  C   UNL     1      17.597  28.182  17.975  1.00  0.00     0.294 C 
BRANCH  64  65
ATOM     65  C   UNL     1      16.658  28.341  19.094  1.00  0.00     0.120 A 
ATOM     66  C   UNL     1      15.520  29.152  19.041  1.00  0.00     0.138 A 
ATOM     67  N   UNL     1      16.652  27.809  20.313  1.00  0.00    -0.132 NA
ATOM     68  N   UNL     1      14.881  29.073  20.222  1.00  0.00    -0.251 N 
ATOM     69  N   UNL     1      15.581  28.261  20.968  1.00  0.00    -0.067 NA
BRANCH  68  70
ATOM     70  C   UNL     1      13.657  29.749  20.609  1.00  0.00     0.161 C 
BRANCH  70  71
ATOM     71  C   UNL     1      13.124  29.061  21.847  1.00  0.00     0.108 C 
BRANCH  71  72
ATOM     72  N   UNL     1      12.461  29.952  22.754  1.00  0.00    -0.302 NA
BRANCH  72  73
ATOM     73  C   UNL     1      12.494  31.316  22.301  1.00  0.00     0.081 C 
ATOM     74  C   UNL     1      11.111  31.925  22.505  1.00  0.00     0.021 C 
ENDBRANCH  72  73
BRANCH  72  75
ATOM     75  C   UNL     1      12.884  29.794  24.111  1.00  0.00     0.081 C 
ATOM     76  C   UNL     1      14.385  29.965  24.236  1.00  0.00     0.021 C 
ENDBRANCH  72  75
ENDBRANCH  71  72
ENDBRANCH  70  71
ENDBRANCH  68  70
ENDBRANCH  64  65
ENDBRANCH  63  64
ENDBRANCH  60  63
ENDBRANCH  58  59
ENDBRANCH  55  58
ENDBRANCH   1  55
TORSDOF 34
