REMARK VINA RESULT:    -8.737     12.904     18.394
REMARK INTER + INTRA:         -20.818
REMARK INTER:                 -15.330
REMARK INTRA:                  -5.488
REMARK UNBOUND:                 2.731
REMARK SMILES CC(=O)N[C@@H]1[C@@H](O)C[C@](OC[C@H]2O[C@@H](O[C@H]3[C@H](O)[C@@H](O)[C@H](OCCN=[N+]=[N-])O[C@@H]3CO)[C@H](O)[C@@H](O)[C@H]2O)(C(=O)O)O[C@H]1C(O)[C@H](O)CNC(=O)OCc1cn(C2CCc3ccccc3NC2=O)nn1
REMARK SMILES IDX 43 1 42 2 9 3 8 4 41 5 6 6 5 7 10 8 11 9 12 10 14 11 13 12
REMARK SMILES IDX 32 13 34 14 36 15 15 16 16 17 29 18 28 19 21 20 17 21 19 22
REMARK SMILES IDX 30 23 31 24 22 26 23 27 24 28 25 29 26 30 27 31 18 32 20 34
REMARK SMILES IDX 33 36 35 38 37 40 38 42 39 43 40 44 7 46 4 48 2 49 1 51 3 52
REMARK SMILES IDX 44 53 45 55 46 56 47 58 48 59 49 60 50 62 51 63 52 64 53 65
REMARK SMILES IDX 54 66 69 67 55 68 68 69 56 70 57 71 66 73 65 74 67 75 64 77
REMARK SMILES IDX 59 78 63 79 60 80 62 81 61 82 58 83
REMARK H PARENT 31 25 18 33 20 35 33 37 35 39 37 41 40 45 7 47 4 50 44 54
REMARK H PARENT 46 57 48 61 65 76
REMARK Flexibility Score: 90.00
ROOT
ATOM      1  C   UNL     1       6.948  25.446  36.419  1.00  0.00     0.176 C 
ENDROOT
BRANCH   1   2
ATOM      2  C   UNL     1       7.727  24.152  36.106  1.00  0.00     0.178 C 
ATOM      3  C   UNL     1       9.979  23.801  36.810  1.00  0.00     0.272 C 
ATOM      4  C   UNL     1      10.443  23.842  35.410  1.00  0.00     0.113 C 
ATOM      5  O   UNL     1       8.601  23.809  37.034  1.00  0.00    -0.332 OA
ATOM      6  C   UNL     1       9.585  24.698  34.541  1.00  0.00     0.145 C 
ATOM      7  C   UNL     1       8.158  24.186  34.665  1.00  0.00     0.142 C 
BRANCH   3   8
ATOM      8  O   UNL     1      10.473  24.756  37.627  1.00  0.00    -0.338 OA
BRANCH   8   9
ATOM      9  C   UNL     1      11.711  24.801  38.093  1.00  0.00     0.199 C 
BRANCH   9  10
ATOM     10  C   UNL     1      12.820  25.575  37.526  1.00  0.00     0.179 C 
ATOM     11  C   UNL     1      13.153  27.365  36.099  1.00  0.00     0.282 C 
ATOM     12  O   UNL     1      12.216  26.718  36.903  1.00  0.00    -0.341 OA
ATOM     13  C   UNL     1      14.571  27.046  36.364  1.00  0.00     0.202 C 
ATOM     14  C   UNL     1      14.945  26.687  37.761  1.00  0.00     0.179 C 
ATOM     15  C   UNL     1      13.737  26.243  38.548  1.00  0.00     0.177 C 
BRANCH  11  16
ATOM     16  O   UNL     1      12.860  28.745  36.103  1.00  0.00    -0.341 OA
BRANCH  16  17
ATOM     17  C   UNL     1      11.816  29.062  35.274  1.00  0.00     0.184 C 
ATOM     18  C   UNL     1      12.106  30.119  34.241  1.00  0.00     0.178 C 
ATOM     19  O   UNL     1      10.974  30.176  33.426  1.00  0.00    -0.341 OA
ATOM     20  C   UNL     1       9.936  30.863  34.040  1.00  0.00     0.281 C 
ATOM     21  C   UNL     1      10.612  29.549  36.066  1.00  0.00     0.180 C 
ATOM     22  C   UNL     1       9.994  30.791  35.537  1.00  0.00     0.202 C 
BRANCH  18  23
ATOM     23  C   UNL     1      13.265  29.731  33.344  1.00  0.00     0.191 C 
BRANCH  23  24
ATOM     24  O   UNL     1      12.963  28.621  32.558  1.00  0.00    -0.394 OA
ATOM     25  H   UNL     1      12.208  28.098  32.903  1.00  0.00     0.210 HD
ENDBRANCH  23  24
ENDBRANCH  18  23
BRANCH  20  26
ATOM     26  O   UNL     1       8.739  30.394  33.533  1.00  0.00    -0.350 OA
BRANCH  26  27
ATOM     27  C   UNL     1       7.728  31.333  33.644  1.00  0.00     0.169 C 
BRANCH  27  28
ATOM     28  C   UNL     1       6.387  30.779  34.004  1.00  0.00     0.119 C 
BRANCH  28  29
ATOM     29  N   UNL     1       5.743  30.277  32.801  1.00  0.00    -0.092 NA
ATOM     30  N   UNL     1       6.148  29.256  32.217  1.00  0.00     0.001 N 
ATOM     31  N   UNL     1       6.332  28.041  32.055  1.00  0.00    -0.003 NA
ENDBRANCH  28  29
ENDBRANCH  27  28
ENDBRANCH  26  27
ENDBRANCH  20  26
BRANCH  21  32
ATOM     32  O   UNL     1       9.678  28.520  36.260  1.00  0.00    -0.387 OA
ATOM     33  H   UNL     1       9.679  28.272  37.220  1.00  0.00     0.211 HD
ENDBRANCH  21  32
BRANCH  22  34
ATOM     34  O   UNL     1      10.615  31.961  36.033  1.00  0.00    -0.385 OA
ATOM     35  H   UNL     1      10.227  32.254  36.879  1.00  0.00     0.211 HD
ENDBRANCH  22  34
ENDBRANCH  16  17
ENDBRANCH  11  16
BRANCH  13  36
ATOM     36  O   UNL     1      15.034  26.120  35.425  1.00  0.00    -0.385 OA
ATOM     37  H   UNL     1      15.538  25.401  35.887  1.00  0.00     0.211 HD
ENDBRANCH  13  36
BRANCH  14  38
ATOM     38  O   UNL     1      15.668  27.686  38.410  1.00  0.00    -0.387 OA
ATOM     39  H   UNL     1      15.856  28.378  37.724  1.00  0.00     0.211 HD
ENDBRANCH  14  38
BRANCH  15  40
ATOM     40  O   UNL     1      13.075  27.375  39.085  1.00  0.00    -0.387 OA
ATOM     41  H   UNL     1      12.776  27.898  38.310  1.00  0.00     0.211 HD
ENDBRANCH  15  40
ENDBRANCH   9  10
ENDBRANCH   8   9
ENDBRANCH   3   8
BRANCH   3  42
ATOM     42  C   UNL     1      10.321  22.418  37.320  1.00  0.00     0.364 C 
ATOM     43  O   UNL     1       9.905  22.003  38.376  1.00  0.00    -0.246 OA
BRANCH  42  44
ATOM     44  O   UNL     1      11.145  21.586  36.554  1.00  0.00    -0.477 OA
ATOM     45  H   UNL     1      11.862  21.011  36.965  1.00  0.00     0.296 HD
ENDBRANCH  42  44
ENDBRANCH   3  42
BRANCH   6  46
ATOM     46  O   UNL     1       9.666  26.011  35.034  1.00  0.00    -0.391 OA
ATOM     47  H   UNL     1       9.117  26.640  34.538  1.00  0.00     0.211 HD
ENDBRANCH   6  46
BRANCH   7  48
ATOM     48  N   UNL     1       8.070  22.942  33.976  1.00  0.00    -0.348 N 
ATOM     49  C   UNL     1       6.936  22.635  33.173  1.00  0.00     0.217 C 
ATOM     50  H   UNL     1       8.831  22.226  34.045  1.00  0.00     0.163 HD
ATOM     51  C   UNL     1       6.798  21.350  32.436  1.00  0.00     0.114 C 
ATOM     52  O   UNL     1       6.039  23.483  33.096  1.00  0.00    -0.275 OA
ENDBRANCH   7  48
ENDBRANCH   1   2
BRANCH   1  53
ATOM     53  O   UNL     1       7.795  26.349  37.069  1.00  0.00    -0.388 OA
ATOM     54  H   UNL     1       8.734  26.061  37.087  1.00  0.00     0.211 HD
ENDBRANCH   1  53
BRANCH   1  55
ATOM     55  C   UNL     1       6.405  26.110  35.206  1.00  0.00     0.165 C 
BRANCH  55  56
ATOM     56  O   UNL     1       6.865  27.402  34.986  1.00  0.00    -0.388 OA
ATOM     57  H   UNL     1       7.762  27.334  34.562  1.00  0.00     0.211 HD
ENDBRANCH  55  56
BRANCH  55  58
ATOM     58  C   UNL     1       4.918  26.132  35.074  1.00  0.00     0.154 C 
BRANCH  58  59
ATOM     59  N   UNL     1       4.415  26.038  33.737  1.00  0.00    -0.319 N 
ATOM     60  C   UNL     1       3.441  26.904  33.189  1.00  0.00     0.407 C 
ATOM     61  H   UNL     1       4.789  25.283  33.126  1.00  0.00     0.167 HD
ATOM     62  O   UNL     1       2.947  27.836  33.869  1.00  0.00    -0.225 OA
BRANCH  60  63
ATOM     63  O   UNL     1       3.035  26.716  31.889  1.00  0.00    -0.443 OA
BRANCH  63  64
ATOM     64  C   UNL     1       3.846  26.203  30.891  1.00  0.00     0.294 C 
BRANCH  64  65
ATOM     65  C   UNL     1       3.726  26.993  29.664  1.00  0.00     0.120 A 
ATOM     66  C   UNL     1       4.139  26.623  28.408  1.00  0.00     0.139 A 
ATOM     67  N   UNL     1       3.199  28.232  29.511  1.00  0.00    -0.132 NA
ATOM     68  N   UNL     1       3.861  27.620  27.532  1.00  0.00    -0.240 N 
ATOM     69  N   UNL     1       3.293  28.577  28.237  1.00  0.00    -0.066 NA
BRANCH  68  70
ATOM     70  C   UNL     1       4.138  27.627  26.085  1.00  0.00     0.198 C 
BRANCH  70  71
ATOM     71  C   UNL     1       4.940  28.845  25.819  1.00  0.00     0.042 CG0
ATOM     72  G   UNL     1       5.717  28.879  24.549  1.00  0.00     0.000 G0
ENDBRANCH  70  71
BRANCH  70  73
ATOM     73  C   UNL     1       4.784  26.343  25.798  1.00  0.00     0.249 C 
ATOM     74  N   UNL     1       6.160  26.017  25.672  1.00  0.00    -0.324 N 
ATOM     75  O   UNL     1       3.989  25.378  25.638  1.00  0.00    -0.272 OA
ATOM     76  H   UNL     1       6.459  25.031  25.834  1.00  0.00     0.170 HD
BRANCH  74  77
ATOM     77  C   UNL     1       7.184  26.975  25.332  1.00  0.00     0.044 A 
ATOM     78  C   UNL     1       7.048  28.263  24.826  1.00  0.00    -0.024 A 
ATOM     79  C   UNL     1       8.446  26.474  25.566  1.00  0.00     0.026 A 
ATOM     80  C   UNL     1       8.141  29.052  24.554  1.00  0.00     0.006 A 
ATOM     81  C   UNL     1       9.562  27.245  25.302  1.00  0.00     0.002 A 
ATOM     82  C   UNL     1       9.392  28.537  24.794  1.00  0.00     0.000 A 
BRANCH  78  83
ATOM     83  C   UNL     1       5.729  28.895  24.539  1.00  0.00     0.040 CG0
ATOM     84  G   UNL     1       4.940  28.843  25.801  1.00  0.00     0.000 G0
ENDBRANCH  78  83
ENDBRANCH  74  77
ENDBRANCH  70  73
ENDBRANCH  68  70
ENDBRANCH  64  65
ENDBRANCH  63  64
ENDBRANCH  60  63
ENDBRANCH  58  59
ENDBRANCH  55  58
ENDBRANCH   1  55
TORSDOF 30
