REMARK VINA RESULT:    -6.167      8.136     10.974
REMARK INTER + INTRA:         -21.403
REMARK INTER:                 -15.791
REMARK INTRA:                  -5.612
REMARK UNBOUND:                -5.863
REMARK SMILES CC(=O)N[C@@H]1[C@@H](O)C[C@](OC[C@H]2O[C@@H](O[C@H]3[C@H](O)[C@@H](O)[C@H](OCCN=[N+]=[N-])O[C@@H]3CO)[C@H](O)[C@@H](O)[C@H]2O)(C(=O)O)O[C@H]1C(O)[C@H](O)CNC(=O)OCc1cn(-c2ncccc2C#N)nn1
REMARK SMILES IDX 9 1 8 2 6 3 5 4 42 5 41 6 10 7 11 8 12 9 14 10 13 11 32 12
REMARK SMILES IDX 34 13 36 14 15 15 16 16 29 17 28 18 21 19 17 20 19 21 30 22
REMARK SMILES IDX 31 23 22 25 23 26 24 27 25 28 26 29 27 30 18 31 20 33 33 35
REMARK SMILES IDX 35 37 37 39 38 41 39 42 40 43 7 45 43 47 44 48 45 50 46 51
REMARK SMILES IDX 47 53 48 54 49 55 50 57 51 58 52 59 53 60 54 61 65 62 55 63
REMARK SMILES IDX 64 64 56 65 57 66 61 67 58 68 60 69 59 70 62 71 63 72 4 73
REMARK SMILES IDX 2 74 1 76 3 77
REMARK H PARENT 31 24 18 32 20 34 33 36 35 38 37 40 40 44 7 46 44 49 46 52
REMARK H PARENT 48 56 4 75
REMARK Flexibility Score: inf
ROOT
ATOM      1  C   UNL     1      29.286  20.606  19.071  1.00  0.00     0.272 C 
ATOM      2  C   UNL     1      28.462  20.248  20.235  1.00  0.00     0.113 C 
ATOM      3  C   UNL     1      28.740  21.068  21.433  1.00  0.00     0.145 C 
ATOM      4  C   UNL     1      29.225  22.460  21.195  1.00  0.00     0.142 C 
ATOM      5  C   UNL     1      29.294  22.906  19.762  1.00  0.00     0.178 C 
ATOM      6  O   UNL     1      29.491  21.953  18.880  1.00  0.00    -0.332 OA
ENDROOT
BRANCH   1   7
ATOM      7  O   UNL     1      28.996  20.147  17.850  1.00  0.00    -0.338 OA
BRANCH   7   8
ATOM      8  C   UNL     1      28.682  18.995  17.343  1.00  0.00     0.199 C 
BRANCH   8   9
ATOM      9  C   UNL     1      28.335  19.228  15.868  1.00  0.00     0.179 C 
ATOM     10  C   UNL     1      27.203  20.559  14.424  1.00  0.00     0.282 C 
ATOM     11  O   UNL     1      27.215  20.005  15.756  1.00  0.00    -0.341 OA
ATOM     12  C   UNL     1      28.246  21.611  14.315  1.00  0.00     0.202 C 
ATOM     13  C   UNL     1      29.609  21.080  14.772  1.00  0.00     0.179 C 
ATOM     14  C   UNL     1      29.483  19.624  15.016  1.00  0.00     0.177 C 
BRANCH  10  15
ATOM     15  O   UNL     1      25.969  21.015  14.112  1.00  0.00    -0.341 OA
BRANCH  15  16
ATOM     16  C   UNL     1      25.004  20.060  13.957  1.00  0.00     0.184 C 
ATOM     17  C   UNL     1      24.912  19.644  12.460  1.00  0.00     0.178 C 
ATOM     18  O   UNL     1      23.702  20.118  11.956  1.00  0.00    -0.341 OA
ATOM     19  C   UNL     1      23.580  21.497  12.180  1.00  0.00     0.281 C 
ATOM     20  C   UNL     1      23.627  20.476  14.404  1.00  0.00     0.180 C 
ATOM     21  C   UNL     1      23.186  21.713  13.614  1.00  0.00     0.202 C 
BRANCH  17  22
ATOM     22  C   UNL     1      25.028  18.156  12.371  1.00  0.00     0.191 C 
BRANCH  22  23
ATOM     23  O   UNL     1      23.782  17.521  12.521  1.00  0.00    -0.394 OA
ATOM     24  H   UNL     1      23.872  16.619  12.910  1.00  0.00     0.210 HD
ENDBRANCH  22  23
ENDBRANCH  17  22
BRANCH  19  25
ATOM     25  O   UNL     1      22.640  21.960  11.288  1.00  0.00    -0.350 OA
BRANCH  25  26
ATOM     26  C   UNL     1      21.368  22.055  11.881  1.00  0.00     0.169 C 
BRANCH  26  27
ATOM     27  C   UNL     1      20.394  21.119  11.195  1.00  0.00     0.119 C 
BRANCH  27  28
ATOM     28  N   UNL     1      20.221  19.973  12.097  1.00  0.00    -0.092 NA
ATOM     29  N   UNL     1      19.282  19.190  11.797  1.00  0.00     0.001 N 
ATOM     30  N   UNL     1      18.194  18.594  11.785  1.00  0.00    -0.003 NA
ENDBRANCH  27  28
ENDBRANCH  26  27
ENDBRANCH  25  26
ENDBRANCH  19  25
BRANCH  20  31
ATOM     31  O   UNL     1      22.690  19.479  14.263  1.00  0.00    -0.387 OA
ATOM     32  H   UNL     1      22.338  19.315  13.373  1.00  0.00     0.211 HD
ENDBRANCH  20  31
BRANCH  21  33
ATOM     33  O   UNL     1      23.774  22.851  14.156  1.00  0.00    -0.385 OA
ATOM     34  H   UNL     1      24.542  23.088  13.568  1.00  0.00     0.211 HD
ENDBRANCH  21  33
ENDBRANCH  15  16
ENDBRANCH  10  15
BRANCH  12  35
ATOM     35  O   UNL     1      28.357  22.064  13.012  1.00  0.00    -0.385 OA
ATOM     36  H   UNL     1      28.047  23.029  13.004  1.00  0.00     0.211 HD
ENDBRANCH  12  35
BRANCH  13  37
ATOM     37  O   UNL     1      30.001  21.774  15.942  1.00  0.00    -0.387 OA
ATOM     38  H   UNL     1      30.796  22.346  15.747  1.00  0.00     0.211 HD
ENDBRANCH  13  37
BRANCH  14  39
ATOM     39  O   UNL     1      30.656  19.032  15.495  1.00  0.00    -0.387 OA
ATOM     40  H   UNL     1      31.430  19.261  14.888  1.00  0.00     0.211 HD
ENDBRANCH  14  39
ENDBRANCH   8   9
ENDBRANCH   7   8
ENDBRANCH   1   7
BRANCH   1  41
ATOM     41  C   UNL     1      30.674  20.046  19.377  1.00  0.00     0.364 C 
ATOM     42  O   UNL     1      30.890  19.045  20.039  1.00  0.00    -0.246 OA
BRANCH  41  43
ATOM     43  O   UNL     1      31.802  20.719  18.869  1.00  0.00    -0.477 OA
ATOM     44  H   UNL     1      32.420  20.305  18.187  1.00  0.00     0.296 HD
ENDBRANCH  41  43
ENDBRANCH   1  41
BRANCH   3  45
ATOM     45  O   UNL     1      27.639  21.051  22.310  1.00  0.00    -0.391 OA
ATOM     46  H   UNL     1      27.046  20.311  21.954  1.00  0.00     0.211 HD
ENDBRANCH   3  45
BRANCH   5  47
ATOM     47  C   UNL     1      28.098  23.834  19.406  1.00  0.00     0.176 C 
BRANCH  47  48
ATOM     48  O   UNL     1      27.523  24.217  20.655  1.00  0.00    -0.388 OA
ATOM     49  H   UNL     1      26.648  24.619  20.525  1.00  0.00     0.211 HD
ENDBRANCH  47  48
BRANCH  47  50
ATOM     50  C   UNL     1      27.039  23.245  18.627  1.00  0.00     0.165 C 
BRANCH  50  51
ATOM     51  O   UNL     1      27.394  22.676  17.379  1.00  0.00    -0.388 OA
ATOM     52  H   UNL     1      28.368  22.418  17.408  1.00  0.00     0.211 HD
ENDBRANCH  50  51
BRANCH  50  53
ATOM     53  C   UNL     1      25.920  24.172  18.277  1.00  0.00     0.154 C 
BRANCH  53  54
ATOM     54  N   UNL     1      24.886  24.425  19.200  1.00  0.00    -0.319 N 
ATOM     55  C   UNL     1      23.516  24.578  18.989  1.00  0.00     0.407 C 
ATOM     56  H   UNL     1      25.180  24.527  20.247  1.00  0.00     0.167 HD
ATOM     57  O   UNL     1      23.088  24.471  17.813  1.00  0.00    -0.225 OA
BRANCH  55  58
ATOM     58  O   UNL     1      22.665  24.835  20.082  1.00  0.00    -0.443 OA
BRANCH  58  59
ATOM     59  C   UNL     1      22.731  23.995  21.197  1.00  0.00     0.294 C 
BRANCH  59  60
ATOM     60  C   UNL     1      23.123  24.694  22.406  1.00  0.00     0.121 A 
ATOM     61  C   UNL     1      22.505  24.631  23.597  1.00  0.00     0.146 A 
ATOM     62  N   UNL     1      24.176  25.612  22.537  1.00  0.00    -0.131 NA
ATOM     63  N   UNL     1      23.096  25.446  24.461  1.00  0.00    -0.201 N 
ATOM     64  N   UNL     1      24.061  25.984  23.777  1.00  0.00    -0.060 NA
BRANCH  63  65
ATOM     65  C   UNL     1      22.851  25.681  25.831  1.00  0.00     0.173 A 
ATOM     66  N   UNL     1      23.602  24.950  26.696  1.00  0.00    -0.236 NA
ATOM     67  C   UNL     1      21.802  26.498  26.272  1.00  0.00     0.097 A 
ATOM     68  C   UNL     1      23.277  25.033  28.101  1.00  0.00     0.113 A 
ATOM     69  C   UNL     1      21.546  26.520  27.626  1.00  0.00     0.025 A 
ATOM     70  C   UNL     1      22.280  25.798  28.471  1.00  0.00     0.022 A 
BRANCH  67  71
ATOM     71  C   UNL     1      21.042  27.372  25.437  1.00  0.00     0.103 C 
ATOM     72  N   UNL     1      20.410  28.129  24.735  1.00  0.00    -0.192 NA
ENDBRANCH  67  71
ENDBRANCH  63  65
ENDBRANCH  59  60
ENDBRANCH  58  59
ENDBRANCH  55  58
ENDBRANCH  53  54
ENDBRANCH  50  53
ENDBRANCH  47  50
ENDBRANCH   5  47
BRANCH   4  73
ATOM     73  N   UNL     1      30.428  22.599  21.986  1.00  0.00    -0.348 N 
ATOM     74  C   UNL     1      30.656  22.158  23.292  1.00  0.00     0.217 C 
ATOM     75  H   UNL     1      31.266  23.119  21.535  1.00  0.00     0.163 HD
ATOM     76  C   UNL     1      32.010  22.351  23.948  1.00  0.00     0.114 C 
ATOM     77  O   UNL     1      29.811  21.585  24.015  1.00  0.00    -0.275 OA
ENDBRANCH   4  73
TORSDOF 31
