REMARK VINA RESULT:    -5.695      7.234     13.883
REMARK INTER + INTRA:         -21.162
REMARK INTER:                 -14.678
REMARK INTRA:                  -6.485
REMARK UNBOUND:                -7.145
REMARK SMILES CC(=O)N[C@@H]1[C@@H](O)C[C@](OC[C@H]2O[C@@H](O[C@H]3[C@H](O)[C@@H](O)[C@H](OCCN=[N+]=[N-])O[C@@H]3CO)[C@H](O)[C@@H](O)[C@H]2O)(C(=O)O)O[C@H]1C(O)[C@H](O)CNC(=O)OCc1cn(-c2ccccc2Br)nn1
REMARK SMILES IDX 9 1 8 2 6 3 5 4 42 5 41 6 10 7 11 8 12 9 14 10 13 11 32 12
REMARK SMILES IDX 34 13 36 14 15 15 16 16 29 17 28 18 21 19 17 20 19 21 30 22
REMARK SMILES IDX 31 23 22 25 23 26 24 27 25 28 26 29 27 30 18 31 20 33 33 35
REMARK SMILES IDX 35 37 37 39 38 41 39 42 40 43 7 45 43 47 44 48 45 50 46 51
REMARK SMILES IDX 47 53 48 54 49 55 50 57 51 58 52 59 53 60 54 61 64 62 55 63
REMARK SMILES IDX 63 64 56 65 57 66 61 67 58 68 60 69 62 70 59 71 4 72 2 73
REMARK SMILES IDX 1 75 3 76
REMARK H PARENT 31 24 18 32 20 34 33 36 35 38 37 40 40 44 7 46 44 49 46 52
REMARK H PARENT 48 56 4 74
REMARK Flexibility Score: inf
ROOT
ATOM      1  C   UNL     1      16.343  30.206  22.885  1.00  0.00     0.272 C 
ATOM      2  C   UNL     1      15.234  29.228  22.997  1.00  0.00     0.113 C 
ATOM      3  C   UNL     1      14.204  29.425  21.934  1.00  0.00     0.145 C 
ATOM      4  C   UNL     1      14.726  29.655  20.561  1.00  0.00     0.142 C 
ATOM      5  C   UNL     1      16.184  29.954  20.553  1.00  0.00     0.178 C 
ATOM      6  O   UNL     1      16.694  30.618  21.618  1.00  0.00    -0.332 OA
ENDROOT
BRANCH   1   7
ATOM      7  O   UNL     1      17.540  29.818  23.459  1.00  0.00    -0.338 OA
BRANCH   7   8
ATOM      8  C   UNL     1      18.547  30.722  23.482  1.00  0.00     0.199 C 
BRANCH   8   9
ATOM      9  C   UNL     1      19.738  30.052  24.212  1.00  0.00     0.179 C 
ATOM     10  C   UNL     1      20.842  28.022  24.169  1.00  0.00     0.282 C 
ATOM     11  O   UNL     1      19.659  28.711  24.187  1.00  0.00    -0.341 OA
ATOM     12  C   UNL     1      21.902  28.648  25.048  1.00  0.00     0.202 C 
ATOM     13  C   UNL     1      22.134  30.095  24.666  1.00  0.00     0.179 C 
ATOM     14  C   UNL     1      21.030  30.603  23.758  1.00  0.00     0.177 C 
BRANCH  10  15
ATOM     15  O   UNL     1      21.301  27.766  22.886  1.00  0.00    -0.341 OA
BRANCH  15  16
ATOM     16  C   UNL     1      22.140  26.680  22.785  1.00  0.00     0.184 C 
ATOM     17  C   UNL     1      23.238  26.837  21.761  1.00  0.00     0.178 C 
ATOM     18  O   UNL     1      24.201  25.888  22.070  1.00  0.00    -0.341 OA
ATOM     19  C   UNL     1      23.768  24.601  22.078  1.00  0.00     0.281 C 
ATOM     20  C   UNL     1      21.380  25.437  22.338  1.00  0.00     0.180 C 
ATOM     21  C   UNL     1      22.319  24.345  22.035  1.00  0.00     0.202 C 
BRANCH  17  22
ATOM     22  C   UNL     1      23.867  28.189  21.723  1.00  0.00     0.191 C 
BRANCH  22  23
ATOM     23  O   UNL     1      23.152  28.998  20.843  1.00  0.00    -0.394 OA
ATOM     24  H   UNL     1      23.762  29.587  20.366  1.00  0.00     0.210 HD
ENDBRANCH  22  23
ENDBRANCH  17  22
BRANCH  19  25
ATOM     25  O   UNL     1      24.288  24.016  23.256  1.00  0.00    -0.350 OA
BRANCH  25  26
ATOM     26  C   UNL     1      25.145  24.832  23.939  1.00  0.00     0.169 C 
BRANCH  26  27
ATOM     27  C   UNL     1      24.816  25.049  25.383  1.00  0.00     0.119 C 
BRANCH  27  28
ATOM     28  N   UNL     1      23.442  24.613  25.582  1.00  0.00    -0.092 NA
ATOM     29  N   UNL     1      23.030  24.381  26.709  1.00  0.00     0.001 N 
ATOM     30  N   UNL     1      22.575  24.212  27.833  1.00  0.00    -0.003 NA
ENDBRANCH  27  28
ENDBRANCH  26  27
ENDBRANCH  25  26
ENDBRANCH  19  25
BRANCH  20  31
ATOM     31  O   UNL     1      20.465  25.028  23.295  1.00  0.00    -0.387 OA
ATOM     32  H   UNL     1      20.303  25.703  23.994  1.00  0.00     0.211 HD
ENDBRANCH  20  31
BRANCH  21  33
ATOM     33  O   UNL     1      21.930  23.839  20.759  1.00  0.00    -0.385 OA
ATOM     34  H   UNL     1      21.213  24.389  20.367  1.00  0.00     0.211 HD
ENDBRANCH  21  33
ENDBRANCH  15  16
ENDBRANCH  10  15
BRANCH  12  35
ATOM     35  O   UNL     1      21.598  28.501  26.402  1.00  0.00    -0.385 OA
ATOM     36  H   UNL     1      22.025  27.696  26.784  1.00  0.00     0.211 HD
ENDBRANCH  12  35
BRANCH  13  37
ATOM     37  O   UNL     1      23.398  30.274  24.141  1.00  0.00    -0.387 OA
ATOM     38  H   UNL     1      23.358  30.743  23.283  1.00  0.00     0.211 HD
ENDBRANCH  13  37
BRANCH  14  39
ATOM     39  O   UNL     1      21.367  30.273  22.456  1.00  0.00    -0.387 OA
ATOM     40  H   UNL     1      22.322  30.422  22.255  1.00  0.00     0.211 HD
ENDBRANCH  14  39
ENDBRANCH   8   9
ENDBRANCH   7   8
ENDBRANCH   1   7
BRANCH   1  41
ATOM     41  C   UNL     1      15.839  31.476  23.548  1.00  0.00     0.364 C 
ATOM     42  O   UNL     1      15.767  32.492  22.824  1.00  0.00    -0.246 OA
BRANCH  41  43
ATOM     43  O   UNL     1      15.475  31.552  24.859  1.00  0.00    -0.477 OA
ATOM     44  H   UNL     1      14.663  32.124  25.141  1.00  0.00     0.296 HD
ENDBRANCH  41  43
ENDBRANCH   1  41
BRANCH   3  45
ATOM     45  O   UNL     1      13.328  28.316  21.963  1.00  0.00    -0.391 OA
ATOM     46  H   UNL     1      12.428  28.644  21.686  1.00  0.00     0.211 HD
ENDBRANCH   3  45
BRANCH   5  47
ATOM     47  C   UNL     1      17.002  28.747  20.098  1.00  0.00     0.176 C 
BRANCH  47  48
ATOM     48  O   UNL     1      18.164  28.574  20.808  1.00  0.00    -0.388 OA
ATOM     49  H   UNL     1      18.618  29.448  20.990  1.00  0.00     0.211 HD
ENDBRANCH  47  48
BRANCH  47  50
ATOM     50  C   UNL     1      17.374  28.860  18.610  1.00  0.00     0.165 C 
BRANCH  50  51
ATOM     51  O   UNL     1      17.785  27.621  18.188  1.00  0.00    -0.388 OA
ATOM     52  H   UNL     1      18.226  27.573  17.322  1.00  0.00     0.211 HD
ENDBRANCH  50  51
BRANCH  50  53
ATOM     53  C   UNL     1      18.441  29.888  18.418  1.00  0.00     0.154 C 
BRANCH  53  54
ATOM     54  N   UNL     1      19.737  29.389  18.732  1.00  0.00    -0.319 N 
ATOM     55  C   UNL     1      20.778  29.065  17.836  1.00  0.00     0.407 C 
ATOM     56  H   UNL     1      19.971  29.235  19.763  1.00  0.00     0.167 HD
ATOM     57  O   UNL     1      20.635  29.214  16.619  1.00  0.00    -0.225 OA
BRANCH  55  58
ATOM     58  O   UNL     1      21.992  28.569  18.309  1.00  0.00    -0.443 OA
BRANCH  58  59
ATOM     59  C   UNL     1      23.027  28.074  17.494  1.00  0.00     0.294 C 
BRANCH  59  60
ATOM     60  C   UNL     1      23.423  26.690  17.910  1.00  0.00     0.121 A 
ATOM     61  C   UNL     1      24.740  26.248  18.032  1.00  0.00     0.144 A 
ATOM     62  N   UNL     1      22.660  25.653  18.216  1.00  0.00    -0.131 NA
ATOM     63  N   UNL     1      24.695  24.962  18.409  1.00  0.00    -0.219 N 
ATOM     64  N   UNL     1      23.438  24.607  18.519  1.00  0.00    -0.062 NA
BRANCH  63  65
ATOM     65  C   UNL     1      25.805  24.114  18.648  1.00  0.00     0.081 A 
ATOM     66  C   UNL     1      26.351  23.976  19.905  1.00  0.00     0.029 A 
ATOM     67  C   UNL     1      26.363  23.405  17.619  1.00  0.00     0.043 A 
ATOM     68  C   UNL     1      27.441  23.132  20.102  1.00  0.00     0.002 A 
ATOM     69  C   UNL     1      27.440  22.572  17.806  1.00  0.00     0.018 A 
ATOM     70  Br  UNL     1      25.641  23.573  15.864  1.00  0.00    -0.048 Br
ATOM     71  C   UNL     1      27.993  22.424  19.056  1.00  0.00     0.001 A 
ENDBRANCH  63  65
ENDBRANCH  59  60
ENDBRANCH  58  59
ENDBRANCH  55  58
ENDBRANCH  53  54
ENDBRANCH  50  53
ENDBRANCH  47  50
ENDBRANCH   5  47
BRANCH   4  72
ATOM     72  N   UNL     1      14.001  30.676  19.839  1.00  0.00    -0.348 N 
ATOM     73  C   UNL     1      13.678  30.520  18.468  1.00  0.00     0.217 C 
ATOM     74  H   UNL     1      13.704  31.546  20.321  1.00  0.00     0.163 HD
ATOM     75  C   UNL     1      12.927  31.624  17.800  1.00  0.00     0.114 C 
ATOM     76  O   UNL     1      14.000  29.505  17.822  1.00  0.00    -0.275 OA
ENDBRANCH   4  72
TORSDOF 30
