REMARK VINA RESULT:    -5.897      9.471     13.528
REMARK INTER + INTRA:         -21.988
REMARK INTER:                 -13.658
REMARK INTRA:                  -8.330
REMARK UNBOUND:                -6.784
REMARK SMILES COc1ccc(Cn2cc(COC(=O)NC[C@@H](O)C(O)[C@@H]3O[C@@](OC[C@H]4O[C@@H](O[C@H]5[C@H](O)[C@@H](O)[C@H](OCCN=[N+]=[N-])O[C@@H]5CO)[C@H](O)[C@@H](O)[C@H]4O)(C(=O)O)C[C@H](O)[C@H]3NC(C)=O)nn2)cc1
REMARK SMILES IDX 23 1 55 2 56 3 58 4 21 5 22 6 24 7 25 8 26 9 28 10 27 11
REMARK SMILES IDX 46 12 48 13 50 14 29 15 30 16 43 17 42 18 35 19 31 20 33 21
REMARK SMILES IDX 44 22 45 23 36 25 37 26 38 27 39 28 40 29 41 30 32 31 34 33
REMARK SMILES IDX 47 35 49 37 51 39 52 41 53 42 54 43 57 45 19 47 20 48 17 50
REMARK SMILES IDX 18 51 16 53 15 54 13 55 14 57 12 58 11 59 10 60 9 61 63 62
REMARK SMILES IDX 8 63 64 64 7 65 6 66 5 67 65 68 4 69 66 70 3 71 2 72 1 73
REMARK SMILES IDX 59 74 60 75 61 77 62 78
REMARK H PARENT 45 24 32 32 34 34 47 36 49 38 51 40 54 44 57 46 20 49 18 52
REMARK H PARENT 15 56 59 76
REMARK Flexibility Score: inf
ROOT
ATOM      1  C   UNL     1      25.784  29.092  22.301  1.00  0.00     0.272 C 
ATOM      2  C   UNL     1      26.385  28.624  23.610  1.00  0.00     0.113 C 
ATOM      3  C   UNL     1      26.853  29.818  24.417  1.00  0.00     0.145 C 
ATOM      4  C   UNL     1      25.853  30.935  24.476  1.00  0.00     0.142 C 
ATOM      5  C   UNL     1      24.614  30.680  23.634  1.00  0.00     0.178 C 
ATOM      6  O   UNL     1      24.927  30.110  22.415  1.00  0.00    -0.332 OA
ENDROOT
BRANCH   1   7
ATOM      7  O   UNL     1      25.453  28.058  21.493  1.00  0.00    -0.338 OA
BRANCH   7   8
ATOM      8  C   UNL     1      25.360  26.790  21.908  1.00  0.00     0.199 C 
BRANCH   8   9
ATOM      9  C   UNL     1      23.955  26.234  21.819  1.00  0.00     0.179 C 
ATOM     10  C   UNL     1      22.452  25.181  23.167  1.00  0.00     0.282 C 
ATOM     11  O   UNL     1      23.350  26.270  23.107  1.00  0.00    -0.341 OA
ATOM     12  C   UNL     1      21.691  25.021  21.903  1.00  0.00     0.202 C 
ATOM     13  C   UNL     1      21.717  26.165  20.948  1.00  0.00     0.179 C 
ATOM     14  C   UNL     1      23.021  26.937  20.908  1.00  0.00     0.177 C 
BRANCH  10  15
ATOM     15  O   UNL     1      21.749  25.160  24.338  1.00  0.00    -0.341 OA
BRANCH  15  16
ATOM     16  C   UNL     1      22.335  25.768  25.428  1.00  0.00     0.184 C 
ATOM     17  C   UNL     1      22.654  24.844  26.579  1.00  0.00     0.178 C 
ATOM     18  O   UNL     1      22.613  25.530  27.792  1.00  0.00    -0.341 OA
ATOM     19  C   UNL     1      23.003  26.875  27.672  1.00  0.00     0.281 C 
ATOM     20  C   UNL     1      21.241  26.682  26.012  1.00  0.00     0.180 C 
ATOM     21  C   UNL     1      21.949  27.680  26.888  1.00  0.00     0.202 C 
BRANCH  17  22
ATOM     22  C   UNL     1      23.989  24.174  26.499  1.00  0.00     0.191 C 
BRANCH  22  23
ATOM     23  O   UNL     1      24.712  24.707  25.435  1.00  0.00    -0.394 OA
ATOM     24  H   UNL     1      25.221  25.492  25.789  1.00  0.00     0.210 HD
ENDBRANCH  22  23
ENDBRANCH  17  22
BRANCH  19  25
ATOM     25  O   UNL     1      24.243  27.060  27.151  1.00  0.00    -0.350 OA
BRANCH  25  26
ATOM     26  C   UNL     1      25.277  27.374  27.978  1.00  0.00     0.169 C 
BRANCH  26  27
ATOM     27  C   UNL     1      26.241  26.302  28.324  1.00  0.00     0.119 C 
BRANCH  27  28
ATOM     28  N   UNL     1      26.208  25.888  29.684  1.00  0.00    -0.092 NA
ATOM     29  N   UNL     1      25.175  25.606  30.308  1.00  0.00     0.001 N 
ATOM     30  N   UNL     1      24.310  24.909  30.886  1.00  0.00    -0.003 NA
ENDBRANCH  27  28
ENDBRANCH  26  27
ENDBRANCH  25  26
ENDBRANCH  19  25
BRANCH  20  31
ATOM     31  O   UNL     1      20.448  27.230  25.043  1.00  0.00    -0.387 OA
ATOM     32  H   UNL     1      19.931  26.527  24.532  1.00  0.00     0.211 HD
ENDBRANCH  20  31
BRANCH  21  33
ATOM     33  O   UNL     1      21.061  28.329  27.745  1.00  0.00    -0.385 OA
ATOM     34  H   UNL     1      21.470  28.388  28.648  1.00  0.00     0.211 HD
ENDBRANCH  21  33
ENDBRANCH  15  16
ENDBRANCH  10  15
BRANCH  12  35
ATOM     35  O   UNL     1      22.029  23.819  21.230  1.00  0.00    -0.385 OA
ATOM     36  H   UNL     1      21.202  23.256  21.130  1.00  0.00     0.211 HD
ENDBRANCH  12  35
BRANCH  13  37
ATOM     37  O   UNL     1      20.620  27.038  21.147  1.00  0.00    -0.387 OA
ATOM     38  H   UNL     1      20.981  27.918  21.428  1.00  0.00     0.211 HD
ENDBRANCH  13  37
BRANCH  14  39
ATOM     39  O   UNL     1      22.836  28.277  21.234  1.00  0.00    -0.387 OA
ATOM     40  H   UNL     1      23.536  28.857  20.846  1.00  0.00     0.211 HD
ENDBRANCH  14  39
ENDBRANCH   8   9
ENDBRANCH   7   8
ENDBRANCH   1   7
BRANCH   1  41
ATOM     41  C   UNL     1      27.054  29.599  21.541  1.00  0.00     0.364 C 
ATOM     42  O   UNL     1      28.042  28.844  21.418  1.00  0.00    -0.246 OA
BRANCH  41  43
ATOM     43  O   UNL     1      27.142  30.835  20.999  1.00  0.00    -0.477 OA
ATOM     44  H   UNL     1      27.938  31.409  20.869  1.00  0.00     0.296 HD
ENDBRANCH  41  43
ENDBRANCH   1  41
BRANCH   3  45
ATOM     45  O   UNL     1      27.053  29.282  25.724  1.00  0.00    -0.391 OA
ATOM     46  H   UNL     1      27.224  30.014  26.369  1.00  0.00     0.211 HD
ENDBRANCH   3  45
BRANCH   5  47
ATOM     47  C   UNL     1      23.622  29.996  24.491  1.00  0.00     0.176 C 
BRANCH  47  48
ATOM     48  O   UNL     1      23.005  28.873  23.869  1.00  0.00    -0.388 OA
ATOM     49  H   UNL     1      23.559  28.087  24.065  1.00  0.00     0.211 HD
ENDBRANCH  47  48
BRANCH  47  50
ATOM     50  C   UNL     1      22.329  30.828  24.736  1.00  0.00     0.165 C 
BRANCH  50  51
ATOM     51  O   UNL     1      21.222  30.167  25.088  1.00  0.00    -0.388 OA
ATOM     52  H   UNL     1      20.913  29.567  24.364  1.00  0.00     0.211 HD
ENDBRANCH  50  51
BRANCH  50  53
ATOM     53  C   UNL     1      22.104  31.658  23.453  1.00  0.00     0.154 C 
BRANCH  53  54
ATOM     54  N   UNL     1      21.797  30.852  22.317  1.00  0.00    -0.319 N 
ATOM     55  C   UNL     1      20.428  30.597  21.980  1.00  0.00     0.407 C 
ATOM     56  H   UNL     1      22.535  30.444  21.733  1.00  0.00     0.167 HD
ATOM     57  O   UNL     1      19.516  31.097  22.696  1.00  0.00    -0.225 OA
BRANCH  55  58
ATOM     58  O   UNL     1      20.161  29.810  20.875  1.00  0.00    -0.443 OA
BRANCH  58  59
ATOM     59  C   UNL     1      19.269  30.301  19.855  1.00  0.00     0.294 C 
BRANCH  59  60
ATOM     60  C   UNL     1      18.034  29.491  19.900  1.00  0.00     0.120 A 
ATOM     61  C   UNL     1      16.780  29.840  19.387  1.00  0.00     0.138 A 
ATOM     62  N   UNL     1      17.871  28.280  20.446  1.00  0.00    -0.132 NA
ATOM     63  N   UNL     1      15.946  28.828  19.655  1.00  0.00    -0.248 N 
ATOM     64  N   UNL     1      16.622  27.887  20.298  1.00  0.00    -0.067 NA
BRANCH  63  65
ATOM     65  C   UNL     1      14.549  28.768  19.308  1.00  0.00     0.181 C 
BRANCH  65  66
ATOM     66  C   UNL     1      13.769  29.532  20.306  1.00  0.00    -0.026 A 
ATOM     67  C   UNL     1      13.472  28.953  21.537  1.00  0.00     0.009 A 
ATOM     68  C   UNL     1      13.328  30.810  20.087  1.00  0.00     0.009 A 
ATOM     69  C   UNL     1      12.764  29.625  22.510  1.00  0.00     0.047 A 
ATOM     70  C   UNL     1      12.609  31.491  21.075  1.00  0.00     0.047 A 
ATOM     71  C   UNL     1      12.319  30.920  22.283  1.00  0.00     0.118 A 
BRANCH  71  72
ATOM     72  O   UNL     1      11.614  31.551  23.290  1.00  0.00    -0.497 OA
ATOM     73  C   UNL     1      11.483  32.936  23.430  1.00  0.00     0.278 C 
ENDBRANCH  71  72
ENDBRANCH  65  66
ENDBRANCH  63  65
ENDBRANCH  59  60
ENDBRANCH  58  59
ENDBRANCH  55  58
ENDBRANCH  53  54
ENDBRANCH  50  53
ENDBRANCH  47  50
ENDBRANCH   5  47
BRANCH   4  74
ATOM     74  N   UNL     1      26.395  32.258  24.257  1.00  0.00    -0.348 N 
ATOM     75  C   UNL     1      26.837  33.131  25.289  1.00  0.00     0.217 C 
ATOM     76  H   UNL     1      26.461  32.616  23.293  1.00  0.00     0.163 HD
ATOM     77  C   UNL     1      27.383  34.499  24.942  1.00  0.00     0.114 C 
ATOM     78  O   UNL     1      26.773  32.765  26.486  1.00  0.00    -0.275 OA
ENDBRANCH   4  74
TORSDOF 32
