REMARK VINA RESULT:    -4.644     13.844     18.859
REMARK INTER + INTRA:         -20.545
REMARK INTER:                 -14.600
REMARK INTRA:                  -5.945
REMARK UNBOUND:                -8.028
REMARK SMILES CCN(CC)CCn1cc(COC(=O)NC[C@@H](O)C(O)[C@@H]2O[C@@](OC[C@H]3O[C@@H](O[C@H]4[C@H](O)[C@@H](O)[C@H](OCCN=[N+]=[N-])O[C@@H]4CO)[C@H](O)[C@@H](O)[C@H]3O)(C(=O)O)C[C@H](O)[C@H]2NC(C)=O)nn1
REMARK SMILES IDX 19 1 21 2 23 3 55 4 22 5 56 6 58 7 24 8 25 9 26 10 28 11
REMARK SMILES IDX 27 12 46 13 48 14 50 15 29 16 30 17 43 18 42 19 35 20 31 21
REMARK SMILES IDX 33 22 44 23 45 24 36 26 37 27 38 28 39 29 40 30 41 31 32 32
REMARK SMILES IDX 34 34 47 36 49 38 51 40 52 42 53 43 54 44 57 46 59 48 60 49
REMARK SMILES IDX 61 51 62 52 20 53 17 55 18 56 16 58 15 59 13 60 14 62 12 63
REMARK SMILES IDX 11 64 10 65 9 66 63 67 8 68 64 69 7 70 6 71 3 72 2 73 1 74
REMARK SMILES IDX 4 75 5 76
REMARK H PARENT 45 25 32 33 34 35 47 37 49 39 51 41 54 45 57 47 59 50 20 54
REMARK H PARENT 18 57 15 61
REMARK Flexibility Score: inf
ROOT
ATOM      1  C   UNL     1       3.870  21.417  33.463  1.00  0.00     0.176 C 
ENDROOT
BRANCH   1   2
ATOM      2  C   UNL     1       2.392  21.347  33.183  1.00  0.00     0.178 C 
ATOM      3  C   UNL     1       0.822  21.204  31.506  1.00  0.00     0.272 C 
ATOM      4  C   UNL     1      -0.047  21.028  32.761  1.00  0.00     0.113 C 
ATOM      5  O   UNL     1       2.160  21.225  31.834  1.00  0.00    -0.332 OA
ATOM      6  C   UNL     1       0.177  22.083  33.795  1.00  0.00     0.145 C 
ATOM      7  C   UNL     1       1.628  22.566  33.652  1.00  0.00     0.142 C 
BRANCH   3   8
ATOM      8  O   UNL     1       0.369  22.336  30.872  1.00  0.00    -0.338 OA
BRANCH   8   9
ATOM      9  C   UNL     1       1.329  23.157  30.336  1.00  0.00     0.199 C 
BRANCH   9  10
ATOM     10  C   UNL     1       1.126  23.334  28.820  1.00  0.00     0.179 C 
ATOM     11  C   UNL     1       2.226  24.720  27.270  1.00  0.00     0.282 C 
ATOM     12  O   UNL     1       1.632  24.546  28.510  1.00  0.00    -0.341 OA
ATOM     13  C   UNL     1       1.698  23.789  26.253  1.00  0.00     0.202 C 
ATOM     14  C   UNL     1       1.784  22.340  26.644  1.00  0.00     0.179 C 
ATOM     15  C   UNL     1       1.879  22.225  28.150  1.00  0.00     0.177 C 
BRANCH  11  16
ATOM     16  O   UNL     1       3.590  24.702  27.525  1.00  0.00    -0.341 OA
BRANCH  16  17
ATOM     17  C   UNL     1       4.249  25.826  27.170  1.00  0.00     0.184 C 
ATOM     18  C   UNL     1       4.007  26.974  28.114  1.00  0.00     0.178 C 
ATOM     19  O   UNL     1       4.836  28.058  27.702  1.00  0.00    -0.341 OA
ATOM     20  C   UNL     1       4.215  28.690  26.647  1.00  0.00     0.281 C 
ATOM     21  C   UNL     1       3.888  26.327  25.776  1.00  0.00     0.180 C 
ATOM     22  C   UNL     1       3.503  27.772  25.753  1.00  0.00     0.202 C 
BRANCH  18  23
ATOM     23  C   UNL     1       4.183  26.677  29.559  1.00  0.00     0.191 C 
BRANCH  23  24
ATOM     24  O   UNL     1       5.445  26.121  29.732  1.00  0.00    -0.394 OA
ATOM     25  H   UNL     1       5.826  25.732  28.906  1.00  0.00     0.210 HD
ENDBRANCH  23  24
ENDBRANCH  18  23
BRANCH  20  26
ATOM     26  O   UNL     1       5.065  29.587  26.006  1.00  0.00    -0.350 OA
BRANCH  26  27
ATOM     27  C   UNL     1       6.392  29.307  26.125  1.00  0.00     0.169 C 
BRANCH  27  28
ATOM     28  C   UNL     1       7.092  29.171  24.785  1.00  0.00     0.119 C 
BRANCH  28  29
ATOM     29  N   UNL     1       8.226  28.272  24.873  1.00  0.00    -0.092 NA
ATOM     30  N   UNL     1       8.191  27.106  24.463  1.00  0.00     0.001 N 
ATOM     31  N   UNL     1       8.013  25.887  24.496  1.00  0.00    -0.003 NA
ENDBRANCH  28  29
ENDBRANCH  27  28
ENDBRANCH  26  27
ENDBRANCH  20  26
BRANCH  21  32
ATOM     32  O   UNL     1       4.975  26.128  24.947  1.00  0.00    -0.387 OA
ATOM     33  H   UNL     1       4.913  25.330  24.384  1.00  0.00     0.211 HD
ENDBRANCH  21  32
BRANCH  22  34
ATOM     34  O   UNL     1       2.106  27.931  25.930  1.00  0.00    -0.385 OA
ATOM     35  H   UNL     1       1.796  28.471  25.157  1.00  0.00     0.211 HD
ENDBRANCH  22  34
ENDBRANCH  16  17
ENDBRANCH  11  16
BRANCH  13  36
ATOM     36  O   UNL     1       0.313  24.074  26.068  1.00  0.00    -0.385 OA
ATOM     37  H   UNL     1       0.129  24.330  25.146  1.00  0.00     0.211 HD
ENDBRANCH  13  36
BRANCH  14  38
ATOM     38  O   UNL     1       2.800  21.643  26.010  1.00  0.00    -0.387 OA
ATOM     39  H   UNL     1       2.745  21.674  25.041  1.00  0.00     0.211 HD
ENDBRANCH  14  38
BRANCH  15  40
ATOM     40  O   UNL     1       3.219  22.319  28.500  1.00  0.00    -0.387 OA
ATOM     41  H   UNL     1       3.558  21.430  28.808  1.00  0.00     0.211 HD
ENDBRANCH  15  40
ENDBRANCH   9  10
ENDBRANCH   8   9
ENDBRANCH   3   8
BRANCH   3  42
ATOM     42  C   UNL     1       0.544  19.992  30.696  1.00  0.00     0.364 C 
ATOM     43  O   UNL     1      -0.312  20.025  29.748  1.00  0.00    -0.246 OA
BRANCH  42  44
ATOM     44  O   UNL     1       1.155  18.768  30.883  1.00  0.00    -0.477 OA
ATOM     45  H   UNL     1       0.720  18.070  31.478  1.00  0.00     0.296 HD
ENDBRANCH  42  44
ENDBRANCH   3  42
BRANCH   6  46
ATOM     46  O   UNL     1      -0.734  23.111  33.791  1.00  0.00    -0.391 OA
ATOM     47  H   UNL     1      -1.546  22.785  33.326  1.00  0.00     0.211 HD
ENDBRANCH   6  46
BRANCH   7  48
ATOM     48  N   UNL     1       2.110  23.147  34.859  1.00  0.00    -0.348 N 
ATOM     49  C   UNL     1       1.912  24.562  35.060  1.00  0.00     0.217 C 
ATOM     50  H   UNL     1       2.594  22.645  35.624  1.00  0.00     0.163 HD
ATOM     51  C   UNL     1       2.389  25.236  36.294  1.00  0.00     0.114 C 
ATOM     52  O   UNL     1       1.330  25.272  34.199  1.00  0.00    -0.275 OA
ENDBRANCH   7  48
ENDBRANCH   1   2
BRANCH   1  53
ATOM     53  O   UNL     1       4.332  20.129  33.697  1.00  0.00    -0.388 OA
ATOM     54  H   UNL     1       4.924  19.846  32.931  1.00  0.00     0.211 HD
ENDBRANCH   1  53
BRANCH   1  55
ATOM     55  C   UNL     1       4.524  21.954  32.216  1.00  0.00     0.165 C 
BRANCH  55  56
ATOM     56  O   UNL     1       4.876  20.883  31.386  1.00  0.00    -0.388 OA
ATOM     57  H   UNL     1       4.064  20.345  31.222  1.00  0.00     0.211 HD
ENDBRANCH  55  56
BRANCH  55  58
ATOM     58  C   UNL     1       5.707  22.823  32.435  1.00  0.00     0.154 C 
BRANCH  58  59
ATOM     59  N   UNL     1       5.490  24.197  32.140  1.00  0.00    -0.319 N 
ATOM     60  C   UNL     1       5.178  25.105  33.209  1.00  0.00     0.407 C 
ATOM     61  H   UNL     1       5.541  24.560  31.187  1.00  0.00     0.167 HD
ATOM     62  O   UNL     1       5.089  24.703  34.386  1.00  0.00    -0.225 OA
BRANCH  60  63
ATOM     63  O   UNL     1       4.976  26.439  32.899  1.00  0.00    -0.443 OA
BRANCH  63  64
ATOM     64  C   UNL     1       5.360  27.430  33.867  1.00  0.00     0.294 C 
BRANCH  64  65
ATOM     65  C   UNL     1       6.805  27.650  33.725  1.00  0.00     0.120 A 
ATOM     66  C   UNL     1       7.770  26.990  34.494  1.00  0.00     0.138 A 
ATOM     67  N   UNL     1       7.493  28.450  32.914  1.00  0.00    -0.132 NA
ATOM     68  N   UNL     1       8.988  27.415  34.115  1.00  0.00    -0.251 N 
ATOM     69  N   UNL     1       8.795  28.292  33.166  1.00  0.00    -0.067 NA
BRANCH  68  70
ATOM     70  C   UNL     1      10.272  26.998  34.644  1.00  0.00     0.161 C 
BRANCH  70  71
ATOM     71  C   UNL     1      10.348  25.491  34.532  1.00  0.00     0.108 C 
BRANCH  71  72
ATOM     72  N   UNL     1      10.315  24.822  35.800  1.00  0.00    -0.302 NA
BRANCH  72  73
ATOM     73  C   UNL     1      11.629  24.643  36.357  1.00  0.00     0.081 C 
ATOM     74  C   UNL     1      12.042  23.189  36.161  1.00  0.00     0.021 C 
ENDBRANCH  72  73
BRANCH  72  75
ATOM     75  C   UNL     1       9.535  23.623  35.786  1.00  0.00     0.081 C 
ATOM     76  C   UNL     1       8.686  23.543  34.534  1.00  0.00     0.021 C 
ENDBRANCH  72  75
ENDBRANCH  71  72
ENDBRANCH  70  71
ENDBRANCH  68  70
ENDBRANCH  64  65
ENDBRANCH  63  64
ENDBRANCH  60  63
ENDBRANCH  58  59
ENDBRANCH  55  58
ENDBRANCH   1  55
TORSDOF 34
