REMARK VINA RESULT:    -5.861      1.644      2.119
REMARK INTER + INTRA:         -22.264
REMARK INTER:                 -14.459
REMARK INTRA:                  -7.805
REMARK UNBOUND:                -7.496
REMARK SMILES CC(=O)N[C@@H]1[C@@H](O)C[C@](OC[C@H]2O[C@@H](O[C@H]3[C@H](O)[C@@H](O)[C@H](OCCN=[N+]=[N-])O[C@@H]3CO)[C@H](O)[C@@H](O)[C@H]2O)(C(=O)O)O[C@H]1C(O)[C@H](O)CNC(=O)OCc1cn(-c2ccccc2C(N)=O)nn1
REMARK SMILES IDX 9 1 8 2 6 3 5 4 42 5 41 6 10 7 11 8 12 9 14 10 13 11 32 12
REMARK SMILES IDX 34 13 36 14 15 15 16 16 29 17 28 18 21 19 17 20 19 21 30 22
REMARK SMILES IDX 31 23 22 25 23 26 24 27 25 28 26 29 27 30 18 31 20 33 33 35
REMARK SMILES IDX 35 37 37 39 38 41 39 42 40 43 7 45 43 47 44 48 45 50 46 51
REMARK SMILES IDX 47 53 48 54 49 55 50 57 51 58 52 59 53 60 54 61 66 62 55 63
REMARK SMILES IDX 65 64 56 65 61 66 57 67 60 68 58 69 59 70 62 71 64 72 63 73
REMARK SMILES IDX 4 76 2 77 1 79 3 80
REMARK H PARENT 31 24 18 32 20 34 33 36 35 38 37 40 40 44 7 46 44 49 46 52
REMARK H PARENT 48 56 63 74 63 75 4 78
REMARK Flexibility Score: inf
ROOT
ATOM      1  C   UNL     1      16.686  32.565  24.616  1.00  0.00     0.272 C 
ATOM      2  C   UNL     1      17.412  33.935  24.499  1.00  0.00     0.113 C 
ATOM      3  C   UNL     1      17.879  34.014  23.073  1.00  0.00     0.145 C 
ATOM      4  C   UNL     1      18.995  33.070  22.861  1.00  0.00     0.142 C 
ATOM      5  C   UNL     1      18.721  31.860  23.773  1.00  0.00     0.178 C 
ATOM      6  O   UNL     1      17.363  31.621  23.862  1.00  0.00    -0.332 OA
ENDROOT
BRANCH   1   7
ATOM      7  O   UNL     1      15.439  32.810  24.072  1.00  0.00    -0.338 OA
BRANCH   7   8
ATOM      8  C   UNL     1      14.419  32.868  24.975  1.00  0.00     0.199 C 
BRANCH   8   9
ATOM      9  C   UNL     1      13.255  31.966  24.607  1.00  0.00     0.179 C 
ATOM     10  C   UNL     1      12.350  30.974  22.701  1.00  0.00     0.282 C 
ATOM     11  O   UNL     1      13.394  31.708  23.245  1.00  0.00    -0.341 OA
ATOM     12  C   UNL     1      11.354  30.458  23.672  1.00  0.00     0.202 C 
ATOM     13  C   UNL     1      11.904  29.998  24.989  1.00  0.00     0.179 C 
ATOM     14  C   UNL     1      13.251  30.654  25.322  1.00  0.00     0.177 C 
BRANCH  10  15
ATOM     15  O   UNL     1      12.915  29.930  21.994  1.00  0.00    -0.341 OA
BRANCH  15  16
ATOM     16  C   UNL     1      14.073  30.284  21.322  1.00  0.00     0.184 C 
ATOM     17  C   UNL     1      13.709  30.586  19.884  1.00  0.00     0.178 C 
ATOM     18  O   UNL     1      13.910  29.535  19.057  1.00  0.00    -0.341 OA
ATOM     19  C   UNL     1      15.199  29.167  18.921  1.00  0.00     0.281 C 
ATOM     20  C   UNL     1      14.986  29.063  21.366  1.00  0.00     0.180 C 
ATOM     21  C   UNL     1      15.914  29.027  20.205  1.00  0.00     0.202 C 
BRANCH  17  22
ATOM     22  C   UNL     1      14.463  31.796  19.407  1.00  0.00     0.191 C 
BRANCH  22  23
ATOM     23  O   UNL     1      14.849  32.616  20.472  1.00  0.00    -0.394 OA
ATOM     24  H   UNL     1      14.656  33.556  20.174  1.00  0.00     0.210 HD
ENDBRANCH  22  23
ENDBRANCH  17  22
BRANCH  19  25
ATOM     25  O   UNL     1      15.910  29.921  17.976  1.00  0.00    -0.350 OA
BRANCH  25  26
ATOM     26  C   UNL     1      15.903  29.383  16.714  1.00  0.00     0.169 C 
BRANCH  26  27
ATOM     27  C   UNL     1      17.062  28.461  16.536  1.00  0.00     0.119 C 
BRANCH  27  28
ATOM     28  N   UNL     1      18.267  29.110  16.988  1.00  0.00    -0.092 NA
ATOM     29  N   UNL     1      18.889  28.737  17.991  1.00  0.00     0.001 N 
ATOM     30  N   UNL     1      19.437  28.079  18.879  1.00  0.00    -0.003 NA
ENDBRANCH  27  28
ENDBRANCH  26  27
ENDBRANCH  25  26
ENDBRANCH  19  25
BRANCH  20  31
ATOM     31  O   UNL     1      15.728  29.067  22.544  1.00  0.00    -0.387 OA
ATOM     32  H   UNL     1      16.366  29.847  22.553  1.00  0.00     0.211 HD
ENDBRANCH  20  31
BRANCH  21  33
ATOM     33  O   UNL     1      16.570  27.771  20.226  1.00  0.00    -0.385 OA
ATOM     34  H   UNL     1      17.338  27.837  20.864  1.00  0.00     0.211 HD
ENDBRANCH  21  33
ENDBRANCH  15  16
ENDBRANCH  10  15
BRANCH  12  35
ATOM     35  O   UNL     1      10.269  31.343  23.850  1.00  0.00    -0.385 OA
ATOM     36  H   UNL     1      10.513  31.938  24.593  1.00  0.00     0.211 HD
ENDBRANCH  12  35
BRANCH  13  37
ATOM     37  O   UNL     1      12.121  28.620  24.980  1.00  0.00    -0.387 OA
ATOM     38  H   UNL     1      11.838  28.196  25.847  1.00  0.00     0.211 HD
ENDBRANCH  13  37
BRANCH  14  39
ATOM     39  O   UNL     1      14.279  29.860  24.783  1.00  0.00    -0.387 OA
ATOM     40  H   UNL     1      14.813  30.310  24.109  1.00  0.00     0.211 HD
ENDBRANCH  14  39
ENDBRANCH   8   9
ENDBRANCH   7   8
ENDBRANCH   1   7
BRANCH   1  41
ATOM     41  C   UNL     1      16.652  32.154  26.021  1.00  0.00     0.364 C 
ATOM     42  O   UNL     1      16.789  33.019  26.954  1.00  0.00    -0.246 OA
BRANCH  41  43
ATOM     43  O   UNL     1      16.467  30.810  26.358  1.00  0.00    -0.477 OA
ATOM     44  H   UNL     1      15.921  30.254  25.705  1.00  0.00     0.296 HD
ENDBRANCH  41  43
ENDBRANCH   1  41
BRANCH   3  45
ATOM     45  O   UNL     1      16.799  33.542  22.283  1.00  0.00    -0.391 OA
ATOM     46  H   UNL     1      16.041  33.317  22.883  1.00  0.00     0.211 HD
ENDBRANCH   3  45
BRANCH   5  47
ATOM     47  C   UNL     1      19.547  30.683  23.341  1.00  0.00     0.176 C 
BRANCH  47  48
ATOM     48  O   UNL     1      18.969  29.548  23.943  1.00  0.00    -0.388 OA
ATOM     49  H   UNL     1      18.433  29.823  24.735  1.00  0.00     0.211 HD
ENDBRANCH  47  48
BRANCH  47  50
ATOM     50  C   UNL     1      19.412  30.436  21.836  1.00  0.00     0.165 C 
BRANCH  50  51
ATOM     51  O   UNL     1      18.785  29.193  21.643  1.00  0.00    -0.388 OA
ATOM     52  H   UNL     1      19.450  28.630  21.165  1.00  0.00     0.211 HD
ENDBRANCH  50  51
BRANCH  50  53
ATOM     53  C   UNL     1      20.731  30.427  21.142  1.00  0.00     0.154 C 
BRANCH  53  54
ATOM     54  N   UNL     1      21.320  29.115  21.146  1.00  0.00    -0.319 N 
ATOM     55  C   UNL     1      22.586  28.812  20.587  1.00  0.00     0.407 C 
ATOM     56  H   UNL     1      20.762  28.334  21.598  1.00  0.00     0.167 HD
ATOM     57  O   UNL     1      23.349  29.614  20.047  1.00  0.00    -0.225 OA
BRANCH  55  58
ATOM     58  O   UNL     1      23.053  27.476  20.634  1.00  0.00    -0.443 OA
BRANCH  58  59
ATOM     59  C   UNL     1      22.114  26.401  20.570  1.00  0.00     0.294 C 
BRANCH  59  60
ATOM     60  C   UNL     1      21.815  25.883  21.918  1.00  0.00     0.121 A 
ATOM     61  C   UNL     1      22.474  26.132  23.098  1.00  0.00     0.144 A 
ATOM     62  N   UNL     1      20.816  25.044  22.244  1.00  0.00    -0.131 NA
ATOM     63  N   UNL     1      21.876  25.454  24.102  1.00  0.00    -0.220 N 
ATOM     64  N   UNL     1      20.860  24.796  23.537  1.00  0.00    -0.062 NA
BRANCH  63  65
ATOM     65  C   UNL     1      22.216  25.409  25.476  1.00  0.00     0.079 A 
ATOM     66  C   UNL     1      21.858  26.463  26.277  1.00  0.00     0.065 A 
ATOM     67  C   UNL     1      22.896  24.334  26.012  1.00  0.00     0.029 A 
ATOM     68  C   UNL     1      22.168  26.473  27.634  1.00  0.00     0.016 A 
ATOM     69  C   UNL     1      23.216  24.326  27.372  1.00  0.00     0.002 A 
ATOM     70  C   UNL     1      22.848  25.393  28.160  1.00  0.00     0.001 A 
BRANCH  66  71
ATOM     71  C   UNL     1      21.146  27.588  25.707  1.00  0.00     0.250 C 
ATOM     72  O   UNL     1      19.984  27.407  25.265  1.00  0.00    -0.269 OA
ATOM     73  N   UNL     1      21.678  28.890  25.613  1.00  0.00    -0.366 N 
ATOM     74  H   UNL     1      21.195  29.677  26.073  1.00  0.00     0.159 HD
ATOM     75  H   UNL     1      22.547  29.051  25.084  1.00  0.00     0.159 HD
ENDBRANCH  66  71
ENDBRANCH  63  65
ENDBRANCH  59  60
ENDBRANCH  58  59
ENDBRANCH  55  58
ENDBRANCH  53  54
ENDBRANCH  50  53
ENDBRANCH  47  50
ENDBRANCH   5  47
BRANCH   4  76
ATOM     76  N   UNL     1      20.299  33.527  23.141  1.00  0.00    -0.348 N 
ATOM     77  C   UNL     1      21.188  33.999  22.142  1.00  0.00     0.217 C 
ATOM     78  H   UNL     1      20.635  33.521  24.133  1.00  0.00     0.163 HD
ATOM     79  C   UNL     1      22.560  34.485  22.397  1.00  0.00     0.114 C 
ATOM     80  O   UNL     1      20.712  33.978  20.962  1.00  0.00    -0.275 OA
ENDBRANCH   4  76
TORSDOF 31
