REMARK VINA RESULT:    -6.595      8.981     13.699
REMARK INTER + INTRA:         -21.971
REMARK INTER:                 -15.932
REMARK INTRA:                  -6.039
REMARK UNBOUND:                -5.351
REMARK SMILES CC(=O)N[C@@H]1[C@@H](O)C[C@](OC[C@H]2O[C@@H](O[C@H]3[C@H](O)[C@@H](O)[C@H](OCCN=[N+]=[N-])O[C@@H]3CO)[C@H](O)[C@@H](O)[C@H]2O)(C(=O)O)O[C@H]1C(O)[C@H](O)CNC(=O)OCc1cn(-c2ccc([N+](=O)[O-])cc2)nn1
REMARK SMILES IDX 9 1 8 2 6 3 5 4 42 5 41 6 10 7 11 8 12 9 14 10 13 11 32 12
REMARK SMILES IDX 34 13 36 14 15 15 16 16 29 17 28 18 21 19 17 20 19 21 30 22
REMARK SMILES IDX 31 23 22 25 23 26 24 27 25 28 26 29 27 30 18 31 20 33 33 35
REMARK SMILES IDX 35 37 37 39 38 41 39 42 40 43 7 45 43 47 44 48 45 50 46 51
REMARK SMILES IDX 47 53 48 54 49 55 50 57 51 58 52 59 53 60 54 61 66 62 55 63
REMARK SMILES IDX 65 64 56 65 57 66 64 67 58 68 63 69 59 70 60 71 61 72 62 73
REMARK SMILES IDX 4 74 2 75 1 77 3 78
REMARK H PARENT 31 24 18 32 20 34 33 36 35 38 37 40 40 44 7 46 44 49 46 52
REMARK H PARENT 48 56 4 76
REMARK Flexibility Score: inf
ROOT
ATOM      1  C   UNL     1      17.093  29.322  19.600  1.00  0.00     0.272 C 
ATOM      2  C   UNL     1      16.548  30.503  20.334  1.00  0.00     0.113 C 
ATOM      3  C   UNL     1      17.629  31.440  20.666  1.00  0.00     0.145 C 
ATOM      4  C   UNL     1      19.060  30.898  20.500  1.00  0.00     0.142 C 
ATOM      5  C   UNL     1      19.077  29.488  20.865  1.00  0.00     0.178 C 
ATOM      6  O   UNL     1      18.022  28.699  20.415  1.00  0.00    -0.332 OA
ENDROOT
BRANCH   1   7
ATOM      7  O   UNL     1      17.534  29.563  18.337  1.00  0.00    -0.338 OA
BRANCH   7   8
ATOM      8  C   UNL     1      17.343  28.581  17.419  1.00  0.00     0.199 C 
BRANCH   8   9
ATOM      9  C   UNL     1      17.603  29.073  16.001  1.00  0.00     0.179 C 
ATOM     10  C   UNL     1      15.781  30.371  15.316  1.00  0.00     0.282 C 
ATOM     11  O   UNL     1      16.462  29.196  15.252  1.00  0.00    -0.341 OA
ATOM     12  C   UNL     1      16.330  31.465  16.137  1.00  0.00     0.202 C 
ATOM     13  C   UNL     1      17.830  31.545  16.020  1.00  0.00     0.179 C 
ATOM     14  C   UNL     1      18.524  30.236  15.903  1.00  0.00     0.177 C 
BRANCH  10  15
ATOM     15  O   UNL     1      14.450  30.067  15.586  1.00  0.00    -0.341 OA
BRANCH  15  16
ATOM     16  C   UNL     1      13.562  30.212  14.574  1.00  0.00     0.184 C 
ATOM     17  C   UNL     1      12.319  30.991  14.944  1.00  0.00     0.178 C 
ATOM     18  O   UNL     1      11.463  31.011  13.824  1.00  0.00    -0.341 OA
ATOM     19  C   UNL     1      10.896  29.747  13.664  1.00  0.00     0.281 C 
ATOM     20  C   UNL     1      13.037  28.798  14.257  1.00  0.00     0.180 C 
ATOM     21  C   UNL     1      12.038  28.879  13.119  1.00  0.00     0.202 C 
BRANCH  17  22
ATOM     22  C   UNL     1      12.574  32.433  15.296  1.00  0.00     0.191 C 
BRANCH  22  23
ATOM     23  O   UNL     1      13.024  32.411  16.640  1.00  0.00    -0.394 OA
ATOM     24  H   UNL     1      13.824  31.828  16.728  1.00  0.00     0.210 HD
ENDBRANCH  22  23
ENDBRANCH  17  22
BRANCH  19  25
ATOM     25  O   UNL     1       9.897  29.784  12.727  1.00  0.00    -0.350 OA
BRANCH  25  26
ATOM     26  C   UNL     1       8.635  29.491  13.179  1.00  0.00     0.169 C 
BRANCH  26  27
ATOM     27  C   UNL     1       7.812  28.633  12.260  1.00  0.00     0.119 C 
BRANCH  27  28
ATOM     28  N   UNL     1       8.549  27.392  12.010  1.00  0.00    -0.092 NA
ATOM     29  N   UNL     1       9.117  27.235  10.939  1.00  0.00     0.001 N 
ATOM     30  N   UNL     1       9.859  27.207   9.971  1.00  0.00    -0.003 NA
ENDBRANCH  27  28
ENDBRANCH  26  27
ENDBRANCH  25  26
ENDBRANCH  19  25
BRANCH  20  31
ATOM     31  O   UNL     1      14.051  27.912  14.024  1.00  0.00    -0.387 OA
ATOM     32  H   UNL     1      14.653  28.139  13.288  1.00  0.00     0.211 HD
ENDBRANCH  20  31
BRANCH  21  33
ATOM     33  O   UNL     1      11.619  27.623  12.774  1.00  0.00    -0.385 OA
ATOM     34  H   UNL     1      11.118  27.673  11.925  1.00  0.00     0.211 HD
ENDBRANCH  21  33
ENDBRANCH  15  16
ENDBRANCH  10  15
BRANCH  12  35
ATOM     35  O   UNL     1      15.873  32.693  15.620  1.00  0.00    -0.385 OA
ATOM     36  H   UNL     1      14.948  32.874  15.874  1.00  0.00     0.211 HD
ENDBRANCH  12  35
BRANCH  13  37
ATOM     37  O   UNL     1      18.330  32.304  17.107  1.00  0.00    -0.387 OA
ATOM     38  H   UNL     1      19.095  31.825  17.465  1.00  0.00     0.211 HD
ENDBRANCH  13  37
BRANCH  14  39
ATOM     39  O   UNL     1      19.597  30.063  16.767  1.00  0.00    -0.387 OA
ATOM     40  H   UNL     1      20.358  30.586  16.395  1.00  0.00     0.211 HD
ENDBRANCH  14  39
ENDBRANCH   8   9
ENDBRANCH   7   8
ENDBRANCH   1   7
BRANCH   1  41
ATOM     41  C   UNL     1      15.992  28.285  19.525  1.00  0.00     0.364 C 
ATOM     42  O   UNL     1      14.815  28.634  19.310  1.00  0.00    -0.246 OA
BRANCH  41  43
ATOM     43  O   UNL     1      16.296  26.963  19.700  1.00  0.00    -0.477 OA
ATOM     44  H   UNL     1      16.798  26.387  19.030  1.00  0.00     0.296 HD
ENDBRANCH  41  43
ENDBRANCH   1  41
BRANCH   3  45
ATOM     45  O   UNL     1      17.561  32.587  19.877  1.00  0.00    -0.391 OA
ATOM     46  H   UNL     1      17.901  33.367  20.359  1.00  0.00     0.211 HD
ENDBRANCH   3  45
BRANCH   5  47
ATOM     47  C   UNL     1      20.258  28.638  20.692  1.00  0.00     0.176 C 
BRANCH  47  48
ATOM     48  O   UNL     1      20.176  27.345  21.218  1.00  0.00    -0.388 OA
ATOM     49  H   UNL     1      21.032  26.921  21.401  1.00  0.00     0.211 HD
ENDBRANCH  47  48
BRANCH  47  50
ATOM     50  C   UNL     1      20.905  28.489  19.354  1.00  0.00     0.165 C 
BRANCH  50  51
ATOM     51  O   UNL     1      20.247  27.731  18.434  1.00  0.00    -0.388 OA
ATOM     52  H   UNL     1      20.510  27.942  17.500  1.00  0.00     0.211 HD
ENDBRANCH  50  51
BRANCH  50  53
ATOM     53  C   UNL     1      22.400  28.334  19.431  1.00  0.00     0.154 C 
BRANCH  53  54
ATOM     54  N   UNL     1      22.855  27.166  20.137  1.00  0.00    -0.319 N 
ATOM     55  C   UNL     1      22.884  25.860  19.593  1.00  0.00     0.407 C 
ATOM     56  H   UNL     1      23.200  27.247  21.131  1.00  0.00     0.167 HD
ATOM     57  O   UNL     1      22.492  25.668  18.438  1.00  0.00    -0.225 OA
BRANCH  55  58
ATOM     58  O   UNL     1      23.345  24.767  20.329  1.00  0.00    -0.443 OA
BRANCH  58  59
ATOM     59  C   UNL     1      22.511  23.851  20.989  1.00  0.00     0.294 C 
BRANCH  59  60
ATOM     60  C   UNL     1      22.005  24.425  22.253  1.00  0.00     0.121 A 
ATOM     61  C   UNL     1      22.687  24.605  23.455  1.00  0.00     0.144 A 
ATOM     62  N   UNL     1      20.757  24.919  22.503  1.00  0.00    -0.131 NA
ATOM     63  N   UNL     1      21.867  25.178  24.356  1.00  0.00    -0.220 N 
ATOM     64  N   UNL     1      20.714  25.353  23.749  1.00  0.00    -0.062 NA
BRANCH  63  65
ATOM     65  C   UNL     1      22.181  25.543  25.704  1.00  0.00     0.067 A 
ATOM     66  C   UNL     1      22.073  26.822  26.194  1.00  0.00     0.035 A 
ATOM     67  C   UNL     1      22.630  24.567  26.583  1.00  0.00     0.035 A 
ATOM     68  C   UNL     1      22.402  27.125  27.515  1.00  0.00     0.088 A 
ATOM     69  C   UNL     1      22.956  24.863  27.890  1.00  0.00     0.088 A 
ATOM     70  C   UNL     1      22.849  26.145  28.383  1.00  0.00     0.269 A 
BRANCH  70  71
ATOM     71  N   UNL     1      23.185  26.467  29.728  1.00  0.00     0.062 N 
ATOM     72  O   UNL     1      23.476  25.626  30.593  1.00  0.00    -0.258 OA
ATOM     73  O   UNL     1      23.182  27.790  30.088  1.00  0.00    -0.258 OA
ENDBRANCH  70  71
ENDBRANCH  63  65
ENDBRANCH  59  60
ENDBRANCH  58  59
ENDBRANCH  55  58
ENDBRANCH  53  54
ENDBRANCH  50  53
ENDBRANCH  47  50
ENDBRANCH   5  47
BRANCH   4  74
ATOM     74  N   UNL     1      19.764  31.683  21.528  1.00  0.00    -0.348 N 
ATOM     75  C   UNL     1      21.090  32.120  21.370  1.00  0.00     0.217 C 
ATOM     76  H   UNL     1      19.239  31.919  22.388  1.00  0.00     0.163 HD
ATOM     77  C   UNL     1      21.713  32.908  22.476  1.00  0.00     0.114 C 
ATOM     78  O   UNL     1      21.758  31.878  20.353  1.00  0.00    -0.275 OA
ENDBRANCH   4  74
TORSDOF 31
