REMARK VINA RESULT:    -5.484      7.509     13.052
REMARK INTER + INTRA:         -20.643
REMARK INTER:                 -14.980
REMARK INTRA:                  -5.664
REMARK UNBOUND:                -7.145
REMARK SMILES CC(=O)N[C@@H]1[C@@H](O)C[C@](OC[C@H]2O[C@@H](O[C@H]3[C@H](O)[C@@H](O)[C@H](OCCN=[N+]=[N-])O[C@@H]3CO)[C@H](O)[C@@H](O)[C@H]2O)(C(=O)O)O[C@H]1C(O)[C@H](O)CNC(=O)OCc1cn(-c2ccccc2Br)nn1
REMARK SMILES IDX 9 1 8 2 6 3 5 4 42 5 41 6 10 7 11 8 12 9 14 10 13 11 32 12
REMARK SMILES IDX 34 13 36 14 15 15 16 16 29 17 28 18 21 19 17 20 19 21 30 22
REMARK SMILES IDX 31 23 22 25 23 26 24 27 25 28 26 29 27 30 18 31 20 33 33 35
REMARK SMILES IDX 35 37 37 39 38 41 39 42 40 43 7 45 43 47 44 48 45 50 46 51
REMARK SMILES IDX 47 53 48 54 49 55 50 57 51 58 52 59 53 60 54 61 64 62 55 63
REMARK SMILES IDX 63 64 56 65 57 66 61 67 58 68 60 69 62 70 59 71 4 72 2 73
REMARK SMILES IDX 1 75 3 76
REMARK H PARENT 31 24 18 32 20 34 33 36 35 38 37 40 40 44 7 46 44 49 46 52
REMARK H PARENT 48 56 4 74
REMARK Flexibility Score: inf
ROOT
ATOM      1  C   UNL     1      20.776  29.032  23.112  1.00  0.00     0.272 C 
ATOM      2  C   UNL     1      22.118  29.418  22.615  1.00  0.00     0.113 C 
ATOM      3  C   UNL     1      23.210  28.897  23.491  1.00  0.00     0.145 C 
ATOM      4  C   UNL     1      23.067  27.484  23.933  1.00  0.00     0.142 C 
ATOM      5  C   UNL     1      21.704  26.947  23.674  1.00  0.00     0.178 C 
ATOM      6  O   UNL     1      20.664  27.812  23.743  1.00  0.00    -0.332 OA
ENDROOT
BRANCH   1   7
ATOM      7  O   UNL     1      19.772  29.014  22.161  1.00  0.00    -0.338 OA
BRANCH   7   8
ATOM      8  C   UNL     1      20.123  29.234  20.872  1.00  0.00     0.199 C 
BRANCH   8   9
ATOM      9  C   UNL     1      18.944  28.749  19.993  1.00  0.00     0.179 C 
ATOM     10  C   UNL     1      16.637  28.685  20.116  1.00  0.00     0.282 C 
ATOM     11  O   UNL     1      17.848  28.476  20.720  1.00  0.00    -0.341 OA
ATOM     12  C   UNL     1      16.630  28.288  18.657  1.00  0.00     0.202 C 
ATOM     13  C   UNL     1      17.724  29.006  17.897  1.00  0.00     0.179 C 
ATOM     14  C   UNL     1      18.716  29.650  18.847  1.00  0.00     0.177 C 
BRANCH  10  15
ATOM     15  O   UNL     1      16.143  29.966  20.319  1.00  0.00    -0.341 OA
BRANCH  15  16
ATOM     16  C   UNL     1      15.854  30.266  21.630  1.00  0.00     0.184 C 
ATOM     17  C   UNL     1      14.392  30.527  21.900  1.00  0.00     0.178 C 
ATOM     18  O   UNL     1      14.217  30.396  23.269  1.00  0.00    -0.341 OA
ATOM     19  C   UNL     1      14.974  31.224  24.034  1.00  0.00     0.281 C 
ATOM     20  C   UNL     1      16.555  31.547  22.068  1.00  0.00     0.180 C 
ATOM     21  C   UNL     1      16.073  31.964  23.395  1.00  0.00     0.202 C 
BRANCH  17  22
ATOM     22  C   UNL     1      13.453  29.611  21.188  1.00  0.00     0.191 C 
BRANCH  22  23
ATOM     23  O   UNL     1      13.679  28.306  21.618  1.00  0.00    -0.394 OA
ATOM     24  H   UNL     1      14.160  27.810  20.932  1.00  0.00     0.210 HD
ENDBRANCH  22  23
ENDBRANCH  17  22
BRANCH  19  25
ATOM     25  O   UNL     1      15.518  30.422  25.065  1.00  0.00    -0.350 OA
BRANCH  25  26
ATOM     26  C   UNL     1      15.219  30.870  26.321  1.00  0.00     0.169 C 
BRANCH  26  27
ATOM     27  C   UNL     1      16.274  31.707  26.975  1.00  0.00     0.119 C 
BRANCH  27  28
ATOM     28  N   UNL     1      16.880  30.896  28.019  1.00  0.00    -0.092 NA
ATOM     29  N   UNL     1      16.213  30.532  28.977  1.00  0.00     0.001 N 
ATOM     30  N   UNL     1      15.548  30.098  29.909  1.00  0.00    -0.003 NA
ENDBRANCH  27  28
ENDBRANCH  26  27
ENDBRANCH  25  26
ENDBRANCH  19  25
BRANCH  20  31
ATOM     31  O   UNL     1      17.931  31.393  22.086  1.00  0.00    -0.387 OA
ATOM     32  H   UNL     1      18.379  31.780  21.298  1.00  0.00     0.211 HD
ENDBRANCH  20  31
BRANCH  21  33
ATOM     33  O   UNL     1      15.751  33.349  23.275  1.00  0.00    -0.385 OA
ATOM     34  H   UNL     1      16.027  33.845  24.080  1.00  0.00     0.211 HD
ENDBRANCH  21  33
ENDBRANCH  15  16
ENDBRANCH  10  15
BRANCH  12  35
ATOM     35  O   UNL     1      16.700  26.902  18.503  1.00  0.00    -0.385 OA
ATOM     36  H   UNL     1      17.610  26.562  18.685  1.00  0.00     0.211 HD
ENDBRANCH  12  35
BRANCH  13  37
ATOM     37  O   UNL     1      17.193  29.891  16.979  1.00  0.00    -0.387 OA
ATOM     38  H   UNL     1      16.706  30.611  17.429  1.00  0.00     0.211 HD
ENDBRANCH  13  37
BRANCH  14  39
ATOM     39  O   UNL     1      18.224  30.898  19.190  1.00  0.00    -0.387 OA
ATOM     40  H   UNL     1      17.702  31.320  18.465  1.00  0.00     0.211 HD
ENDBRANCH  14  39
ENDBRANCH   8   9
ENDBRANCH   7   8
ENDBRANCH   1   7
BRANCH   1  41
ATOM     41  C   UNL     1      20.437  30.032  24.203  1.00  0.00     0.364 C 
ATOM     42  O   UNL     1      20.410  31.236  23.868  1.00  0.00    -0.246 OA
BRANCH  41  43
ATOM     43  O   UNL     1      20.170  29.683  25.493  1.00  0.00    -0.477 OA
ATOM     44  H   UNL     1      20.808  29.970  26.252  1.00  0.00     0.296 HD
ENDBRANCH  41  43
ENDBRANCH   1  41
BRANCH   3  45
ATOM     45  O   UNL     1      24.440  29.095  22.822  1.00  0.00    -0.391 OA
ATOM     46  H   UNL     1      24.365  28.653  21.932  1.00  0.00     0.211 HD
ENDBRANCH   3  45
BRANCH   5  47
ATOM     47  C   UNL     1      21.688  26.019  22.460  1.00  0.00     0.176 C 
BRANCH  47  48
ATOM     48  O   UNL     1      20.452  25.904  21.876  1.00  0.00    -0.388 OA
ATOM     49  H   UNL     1      20.522  25.637  20.913  1.00  0.00     0.211 HD
ENDBRANCH  47  48
BRANCH  47  50
ATOM     50  C   UNL     1      22.163  24.606  22.837  1.00  0.00     0.165 C 
BRANCH  50  51
ATOM     51  O   UNL     1      22.286  24.559  24.202  1.00  0.00    -0.388 OA
ATOM     52  H   UNL     1      22.205  25.400  24.683  1.00  0.00     0.211 HD
ENDBRANCH  50  51
BRANCH  50  53
ATOM     53  C   UNL     1      23.456  24.294  22.158  1.00  0.00     0.154 C 
BRANCH  53  54
ATOM     54  N   UNL     1      23.641  25.053  20.968  1.00  0.00    -0.319 N 
ATOM     55  C   UNL     1      24.585  26.075  20.733  1.00  0.00     0.407 C 
ATOM     56  H   UNL     1      22.998  24.840  20.141  1.00  0.00     0.167 HD
ATOM     57  O   UNL     1      25.393  26.403  21.607  1.00  0.00    -0.225 OA
BRANCH  55  58
ATOM     58  O   UNL     1      24.625  26.736  19.506  1.00  0.00    -0.443 OA
BRANCH  58  59
ATOM     59  C   UNL     1      24.935  26.125  18.277  1.00  0.00     0.294 C 
BRANCH  59  60
ATOM     60  C   UNL     1      26.152  25.259  18.400  1.00  0.00     0.121 A 
ATOM     61  C   UNL     1      26.123  23.875  18.565  1.00  0.00     0.144 A 
ATOM     62  N   UNL     1      27.431  25.600  18.392  1.00  0.00    -0.131 NA
ATOM     63  N   UNL     1      27.395  23.458  18.648  1.00  0.00    -0.219 N 
ATOM     64  N   UNL     1      28.180  24.502  18.542  1.00  0.00    -0.062 NA
BRANCH  63  65
ATOM     65  C   UNL     1      27.834  22.122  18.822  1.00  0.00     0.081 A 
ATOM     66  C   UNL     1      27.965  21.259  17.757  1.00  0.00     0.029 A 
ATOM     67  C   UNL     1      28.144  21.657  20.072  1.00  0.00     0.043 A 
ATOM     68  C   UNL     1      28.401  19.953  17.967  1.00  0.00     0.002 A 
ATOM     69  C   UNL     1      28.574  20.370  20.286  1.00  0.00     0.018 A 
ATOM     70  Br  UNL     1      27.972  22.818  21.573  1.00  0.00    -0.048 Br
ATOM     71  C   UNL     1      28.709  19.499  19.231  1.00  0.00     0.001 A 
ENDBRANCH  63  65
ENDBRANCH  59  60
ENDBRANCH  58  59
ENDBRANCH  55  58
ENDBRANCH  53  54
ENDBRANCH  50  53
ENDBRANCH  47  50
ENDBRANCH   5  47
BRANCH   4  72
ATOM     72  N   UNL     1      23.432  27.281  25.317  1.00  0.00    -0.348 N 
ATOM     73  C   UNL     1      24.775  27.038  25.696  1.00  0.00     0.217 C 
ATOM     74  H   UNL     1      22.706  27.311  26.059  1.00  0.00     0.163 HD
ATOM     75  C   UNL     1      25.063  26.838  27.148  1.00  0.00     0.114 C 
ATOM     76  O   UNL     1      25.701  26.988  24.865  1.00  0.00    -0.275 OA
ENDBRANCH   4  72
TORSDOF 30
