REMARK VINA RESULT:    -6.582      4.907     10.064
REMARK INTER + INTRA:         -22.307
REMARK INTER:                 -11.777
REMARK INTRA:                 -10.531
REMARK UNBOUND:                -5.144
REMARK SMILES CC(=O)N[C@@H]1[C@@H](O)C[C@](OC[C@H]2O[C@@H](O[C@H]3[C@H](O)[C@@H](O)[C@H](OCCN=[N+]=[N-])O[C@@H]3CO)[C@H](O)[C@@H](O)[C@H]2O)(C(=O)O)O[C@H]1C(O)[C@H](O)CNC(=O)OCc1cn(-c2cccc(C=CC(=O)O)c2)nn1
REMARK SMILES IDX 43 1 42 2 9 3 8 4 41 5 6 6 5 7 10 8 11 9 12 10 14 11 13 12
REMARK SMILES IDX 32 13 34 14 36 15 15 16 16 17 29 18 28 19 21 20 17 21 19 22
REMARK SMILES IDX 30 23 31 24 22 26 23 27 24 28 25 29 26 30 27 31 18 32 20 34
REMARK SMILES IDX 33 36 35 38 37 40 38 42 39 43 40 44 7 46 4 48 2 49 1 51 3 52
REMARK SMILES IDX 44 53 45 55 46 56 47 58 48 59 49 60 50 62 51 63 52 64 53 65
REMARK SMILES IDX 54 66 68 67 55 68 67 69 56 70 66 71 57 72 60 73 58 74 59 75
REMARK SMILES IDX 61 76 62 77 63 78 64 79 65 80
REMARK H PARENT 31 25 18 33 20 35 33 37 35 39 37 41 40 45 7 47 4 50 44 54
REMARK H PARENT 46 57 48 61 65 81
REMARK Flexibility Score: inf
ROOT
ATOM      1  C   UNL     1      23.349  29.864  22.583  1.00  0.00     0.176 C 
ENDROOT
BRANCH   1   2
ATOM      2  C   UNL     1      22.149  30.196  23.446  1.00  0.00     0.178 C 
ATOM      3  C   UNL     1      21.508  29.957  25.703  1.00  0.00     0.272 C 
ATOM      4  C   UNL     1      20.243  30.638  24.991  1.00  0.00     0.113 C 
ATOM      5  O   UNL     1      22.407  29.692  24.691  1.00  0.00    -0.332 OA
ATOM      6  C   UNL     1      19.821  29.674  23.940  1.00  0.00     0.145 C 
ATOM      7  C   UNL     1      20.904  29.568  22.884  1.00  0.00     0.142 C 
BRANCH   3   8
ATOM      8  O   UNL     1      20.992  28.808  26.155  1.00  0.00    -0.338 OA
BRANCH   8   9
ATOM      9  C   UNL     1      21.263  28.218  27.305  1.00  0.00     0.199 C 
BRANCH   9  10
ATOM     10  C   UNL     1      21.840  26.818  27.305  1.00  0.00     0.179 C 
ATOM     11  C   UNL     1      22.379  25.429  25.467  1.00  0.00     0.282 C 
ATOM     12  O   UNL     1      21.480  26.219  26.156  1.00  0.00    -0.341 OA
ATOM     13  C   UNL     1      23.299  24.768  26.415  1.00  0.00     0.202 C 
ATOM     14  C   UNL     1      24.050  25.685  27.331  1.00  0.00     0.179 C 
ATOM     15  C   UNL     1      23.348  27.017  27.368  1.00  0.00     0.177 C 
BRANCH  11  16
ATOM     16  O   UNL     1      22.922  26.227  24.485  1.00  0.00    -0.341 OA
BRANCH  16  17
ATOM     17  C   UNL     1      23.020  25.678  23.253  1.00  0.00     0.184 C 
ATOM     18  C   UNL     1      24.374  25.905  22.656  1.00  0.00     0.178 C 
ATOM     19  O   UNL     1      24.461  24.980  21.587  1.00  0.00    -0.341 OA
ATOM     20  C   UNL     1      23.647  25.404  20.534  1.00  0.00     0.281 C 
ATOM     21  C   UNL     1      22.040  26.296  22.251  1.00  0.00     0.180 C 
ATOM     22  C   UNL     1      22.218  25.579  20.930  1.00  0.00     0.202 C 
BRANCH  18  23
ATOM     23  C   UNL     1      25.518  25.692  23.580  1.00  0.00     0.191 C 
BRANCH  23  24
ATOM     24  O   UNL     1      25.699  26.836  24.355  1.00  0.00    -0.394 OA
ATOM     25  H   UNL     1      25.405  27.651  23.841  1.00  0.00     0.210 HD
ENDBRANCH  23  24
ENDBRANCH  18  23
BRANCH  20  26
ATOM     26  O   UNL     1      23.722  24.437  19.537  1.00  0.00    -0.350 OA
BRANCH  26  27
ATOM     27  C   UNL     1      24.498  24.858  18.460  1.00  0.00     0.169 C 
BRANCH  27  28
ATOM     28  C   UNL     1      23.800  24.434  17.187  1.00  0.00     0.119 C 
BRANCH  28  29
ATOM     29  N   UNL     1      22.497  25.051  17.128  1.00  0.00    -0.092 NA
ATOM     30  N   UNL     1      22.181  25.765  16.160  1.00  0.00     0.001 N 
ATOM     31  N   UNL     1      21.999  26.766  15.449  1.00  0.00    -0.003 NA
ENDBRANCH  28  29
ENDBRANCH  27  28
ENDBRANCH  26  27
ENDBRANCH  20  26
BRANCH  21  32
ATOM     32  O   UNL     1      20.715  26.121  22.632  1.00  0.00    -0.387 OA
ATOM     33  H   UNL     1      20.752  25.708  23.531  1.00  0.00     0.211 HD
ENDBRANCH  21  32
BRANCH  22  34
ATOM     34  O   UNL     1      21.619  26.413  19.958  1.00  0.00    -0.385 OA
ATOM     35  H   UNL     1      21.470  25.942  19.108  1.00  0.00     0.211 HD
ENDBRANCH  22  34
ENDBRANCH  16  17
ENDBRANCH  11  16
BRANCH  13  36
ATOM     36  O   UNL     1      22.552  23.881  27.245  1.00  0.00    -0.385 OA
ATOM     37  H   UNL     1      21.614  23.831  26.908  1.00  0.00     0.211 HD
ENDBRANCH  13  36
BRANCH  14  38
ATOM     38  O   UNL     1      25.402  25.823  27.007  1.00  0.00    -0.387 OA
ATOM     39  H   UNL     1      25.925  25.018  27.252  1.00  0.00     0.211 HD
ENDBRANCH  14  38
BRANCH  15  40
ATOM     40  O   UNL     1      23.788  27.791  26.312  1.00  0.00    -0.387 OA
ATOM     41  H   UNL     1      23.072  27.925  25.616  1.00  0.00     0.211 HD
ENDBRANCH  15  40
ENDBRANCH   9  10
ENDBRANCH   8   9
ENDBRANCH   3   8
BRANCH   3  42
ATOM     42  C   UNL     1      22.021  30.971  26.609  1.00  0.00     0.364 C 
ATOM     43  O   UNL     1      21.415  31.913  27.151  1.00  0.00    -0.246 OA
BRANCH  42  44
ATOM     44  O   UNL     1      23.396  30.905  26.942  1.00  0.00    -0.477 OA
ATOM     45  H   UNL     1      23.945  30.134  26.533  1.00  0.00     0.296 HD
ENDBRANCH  42  44
ENDBRANCH   3  42
BRANCH   6  46
ATOM     46  O   UNL     1      19.711  28.403  24.597  1.00  0.00    -0.391 OA
ATOM     47  H   UNL     1      20.432  27.799  24.268  1.00  0.00     0.211 HD
ENDBRANCH   6  46
BRANCH   7  48
ATOM     48  N   UNL     1      20.528  29.986  21.582  1.00  0.00    -0.348 N 
ATOM     49  C   UNL     1      19.843  29.263  20.601  1.00  0.00     0.217 C 
ATOM     50  H   UNL     1      20.821  30.983  21.269  1.00  0.00     0.163 HD
ATOM     51  C   UNL     1      19.568  29.922  19.263  1.00  0.00     0.114 C 
ATOM     52  O   UNL     1      19.426  28.083  20.748  1.00  0.00    -0.275 OA
ENDBRANCH   7  48
ENDBRANCH   1   2
BRANCH   1  53
ATOM     53  O   UNL     1      23.301  30.612  21.421  1.00  0.00    -0.388 OA
ATOM     54  H   UNL     1      22.773  30.223  20.701  1.00  0.00     0.211 HD
ENDBRANCH   1  53
BRANCH   1  55
ATOM     55  C   UNL     1      24.664  30.235  23.271  1.00  0.00     0.165 C 
BRANCH  55  56
ATOM     56  O   UNL     1      24.967  29.444  24.344  1.00  0.00    -0.388 OA
ATOM     57  H   UNL     1      24.950  29.904  25.215  1.00  0.00     0.211 HD
ENDBRANCH  55  56
BRANCH  55  58
ATOM     58  C   UNL     1      24.700  31.689  23.619  1.00  0.00     0.154 C 
BRANCH  58  59
ATOM     59  N   UNL     1      25.146  31.910  24.948  1.00  0.00    -0.319 N 
ATOM     60  C   UNL     1      26.461  32.329  25.254  1.00  0.00     0.407 C 
ATOM     61  H   UNL     1      24.496  31.766  25.767  1.00  0.00     0.167 HD
ATOM     62  O   UNL     1      27.311  32.523  24.342  1.00  0.00    -0.225 OA
BRANCH  60  63
ATOM     63  O   UNL     1      26.889  32.549  26.561  1.00  0.00    -0.443 OA
BRANCH  63  64
ATOM     64  C   UNL     1      28.042  31.814  26.987  1.00  0.00     0.294 C 
BRANCH  64  65
ATOM     65  C   UNL     1      27.602  30.430  27.243  1.00  0.00     0.121 A 
ATOM     66  C   UNL     1      27.829  29.659  28.380  1.00  0.00     0.144 A 
ATOM     67  N   UNL     1      26.883  29.661  26.411  1.00  0.00    -0.131 NA
ATOM     68  N   UNL     1      27.237  28.457  28.192  1.00  0.00    -0.220 N 
ATOM     69  N   UNL     1      26.678  28.490  26.999  1.00  0.00    -0.062 NA
BRANCH  68  70
ATOM     70  C   UNL     1      27.253  27.414  29.153  1.00  0.00     0.067 A 
ATOM     71  C   UNL     1      26.227  27.327  30.095  1.00  0.00     0.036 A 
ATOM     72  C   UNL     1      28.244  26.492  29.180  1.00  0.00     0.028 A 
ATOM     73  C   UNL     1      26.197  26.345  31.035  1.00  0.00    -0.023 A 
ATOM     74  C   UNL     1      28.255  25.468  30.124  1.00  0.00     0.003 A 
ATOM     75  C   UNL     1      27.223  25.420  31.034  1.00  0.00     0.008 A 
BRANCH  73  76
ATOM     76  C   UNL     1      25.137  26.254  32.016  1.00  0.00     0.015 C 
ATOM     77  C   UNL     1      25.309  26.674  33.243  1.00  0.00     0.094 C 
BRANCH  77  78
ATOM     78  C   UNL     1      24.208  26.562  34.203  1.00  0.00     0.328 C 
ATOM     79  O   UNL     1      23.305  27.404  34.248  1.00  0.00    -0.247 OA
BRANCH  78  80
ATOM     80  O   UNL     1      24.159  25.492  35.093  1.00  0.00    -0.478 OA
ATOM     81  H   UNL     1      24.385  24.566  34.723  1.00  0.00     0.297 HD
ENDBRANCH  78  80
ENDBRANCH  77  78
ENDBRANCH  73  76
ENDBRANCH  68  70
ENDBRANCH  64  65
ENDBRANCH  63  64
ENDBRANCH  60  63
ENDBRANCH  58  59
ENDBRANCH  55  58
ENDBRANCH   1  55
TORSDOF 33
