REMARK VINA RESULT:    -5.671     16.484     20.499
REMARK INTER + INTRA:         -21.715
REMARK INTER:                 -14.384
REMARK INTRA:                  -7.331
REMARK UNBOUND:                -6.761
REMARK SMILES CC(=O)N[C@@H]1[C@@H](O)C[C@](OC[C@H]2O[C@@H](O[C@H]3[C@H](O)[C@@H](O)[C@H](OCCN=[N+]=[N-])O[C@@H]3CO)[C@H](O)[C@@H](O)[C@H]2O)(C(=O)O)O[C@H]1C(O)[C@H](O)CNC(=O)OCc1cn(CCNS(C)(=O)=O)nn1
REMARK SMILES IDX 43 1 42 2 9 3 8 4 41 5 6 6 5 7 10 8 11 9 12 10 14 11 13 12
REMARK SMILES IDX 32 13 34 14 36 15 15 16 16 17 29 18 28 19 21 20 17 21 19 22
REMARK SMILES IDX 30 23 31 24 22 26 23 27 24 28 25 29 26 30 27 31 18 32 20 34
REMARK SMILES IDX 33 36 35 38 37 40 38 42 39 43 40 44 7 46 4 48 2 49 1 51 3 52
REMARK SMILES IDX 44 53 45 55 46 56 47 58 48 59 49 60 50 62 51 63 52 64 53 65
REMARK SMILES IDX 54 66 64 67 55 68 63 69 56 70 57 71 58 72 59 74 61 75 62 76
REMARK SMILES IDX 60 77
REMARK H PARENT 31 25 18 33 20 35 33 37 35 39 37 41 40 45 7 47 4 50 44 54
REMARK H PARENT 46 57 48 61 58 73
REMARK Flexibility Score: inf
ROOT
ATOM      1  C   UNL     1       6.679  24.372  36.529  1.00  0.00     0.176 C 
ENDROOT
BRANCH   1   2
ATOM      2  C   UNL     1       8.046  23.746  36.197  1.00  0.00     0.178 C 
ATOM      3  C   UNL     1      10.283  24.102  36.789  1.00  0.00     0.272 C 
ATOM      4  C   UNL     1      10.727  24.441  35.423  1.00  0.00     0.113 C 
ATOM      5  O   UNL     1       8.938  24.384  36.990  1.00  0.00    -0.332 OA
ATOM      6  C   UNL     1       9.643  24.481  34.380  1.00  0.00     0.145 C 
ATOM      7  C   UNL     1       8.331  23.882  34.753  1.00  0.00     0.142 C 
BRANCH   3   8
ATOM      8  O   UNL     1      10.929  24.776  37.830  1.00  0.00    -0.338 OA
BRANCH   8   9
ATOM      9  C   UNL     1      12.097  25.397  37.421  1.00  0.00     0.199 C 
BRANCH   9  10
ATOM     10  C   UNL     1      13.092  25.409  38.529  1.00  0.00     0.179 C 
ATOM     11  C   UNL     1      14.056  24.205  40.244  1.00  0.00     0.282 C 
ATOM     12  O   UNL     1      13.298  24.148  39.063  1.00  0.00    -0.341 OA
ATOM     13  C   UNL     1      15.426  24.734  39.993  1.00  0.00     0.202 C 
ATOM     14  C   UNL     1      15.272  26.150  39.481  1.00  0.00     0.179 C 
ATOM     15  C   UNL     1      14.352  26.175  38.308  1.00  0.00     0.177 C 
BRANCH  11  16
ATOM     16  O   UNL     1      14.077  22.945  40.762  1.00  0.00    -0.341 OA
BRANCH  16  17
ATOM     17  C   UNL     1      13.538  22.786  41.992  1.00  0.00     0.184 C 
ATOM     18  C   UNL     1      13.156  21.445  42.479  1.00  0.00     0.178 C 
ATOM     19  O   UNL     1      12.152  21.595  43.438  1.00  0.00    -0.341 OA
ATOM     20  C   UNL     1      10.942  21.892  42.882  1.00  0.00     0.281 C 
ATOM     21  C   UNL     1      12.330  23.740  42.202  1.00  0.00     0.180 C 
ATOM     22  C   UNL     1      11.137  22.910  41.778  1.00  0.00     0.202 C 
BRANCH  18  23
ATOM     23  C   UNL     1      14.311  20.803  43.239  1.00  0.00     0.191 C 
BRANCH  23  24
ATOM     24  O   UNL     1      15.433  21.663  43.213  1.00  0.00    -0.394 OA
ATOM     25  H   UNL     1      15.494  22.206  44.029  1.00  0.00     0.210 HD
ENDBRANCH  23  24
ENDBRANCH  18  23
BRANCH  20  26
ATOM     26  O   UNL     1      10.032  22.357  43.843  1.00  0.00    -0.350 OA
BRANCH  26  27
ATOM     27  C   UNL     1       8.903  21.589  43.975  1.00  0.00     0.169 C 
BRANCH  27  28
ATOM     28  C   UNL     1       7.708  22.456  43.733  1.00  0.00     0.119 C 
BRANCH  28  29
ATOM     29  N   UNL     1       7.508  22.732  42.316  1.00  0.00    -0.092 NA
ATOM     30  N   UNL     1       7.521  21.729  41.581  1.00  0.00     0.001 N 
ATOM     31  N   UNL     1       7.548  20.966  40.623  1.00  0.00    -0.003 NA
ENDBRANCH  28  29
ENDBRANCH  27  28
ENDBRANCH  26  27
ENDBRANCH  20  26
BRANCH  21  32
ATOM     32  O   UNL     1      12.186  24.025  43.563  1.00  0.00    -0.387 OA
ATOM     33  H   UNL     1      12.858  23.500  44.073  1.00  0.00     0.211 HD
ENDBRANCH  21  32
BRANCH  22  34
ATOM     34  O   UNL     1      11.269  22.331  40.536  1.00  0.00    -0.385 OA
ATOM     35  H   UNL     1      10.588  22.623  39.877  1.00  0.00     0.211 HD
ENDBRANCH  22  34
ENDBRANCH  16  17
ENDBRANCH  11  16
BRANCH  13  36
ATOM     36  O   UNL     1      16.147  24.854  41.191  1.00  0.00    -0.385 OA
ATOM     37  H   UNL     1      16.755  25.637  41.181  1.00  0.00     0.211 HD
ENDBRANCH  13  36
BRANCH  14  38
ATOM     38  O   UNL     1      16.482  26.768  39.280  1.00  0.00    -0.387 OA
ATOM     39  H   UNL     1      17.245  26.257  39.697  1.00  0.00     0.211 HD
ENDBRANCH  14  38
BRANCH  15  40
ATOM     40  O   UNL     1      15.014  25.629  37.212  1.00  0.00    -0.387 OA
ATOM     41  H   UNL     1      14.934  26.183  36.394  1.00  0.00     0.211 HD
ENDBRANCH  15  40
ENDBRANCH   9  10
ENDBRANCH   8   9
ENDBRANCH   3   8
BRANCH   3  42
ATOM     42  C   UNL     1      10.515  22.668  37.086  1.00  0.00     0.364 C 
ATOM     43  O   UNL     1      10.021  22.106  38.119  1.00  0.00    -0.246 OA
BRANCH  42  44
ATOM     44  O   UNL     1      11.268  21.823  36.296  1.00  0.00    -0.477 OA
ATOM     45  H   UNL     1      11.447  20.850  36.529  1.00  0.00     0.296 HD
ENDBRANCH  42  44
ENDBRANCH   3  42
BRANCH   6  46
ATOM     46  O   UNL     1       9.451  25.770  33.906  1.00  0.00    -0.391 OA
ATOM     47  H   UNL     1       9.479  25.873  32.934  1.00  0.00     0.211 HD
ENDBRANCH   6  46
BRANCH   7  48
ATOM     48  N   UNL     1       8.240  22.563  34.105  1.00  0.00    -0.348 N 
ATOM     49  C   UNL     1       7.280  22.168  33.168  1.00  0.00     0.217 C 
ATOM     50  H   UNL     1       8.996  21.827  34.336  1.00  0.00     0.163 HD
ATOM     51  C   UNL     1       7.282  20.781  32.584  1.00  0.00     0.114 C 
ATOM     52  O   UNL     1       6.371  22.949  32.775  1.00  0.00    -0.275 OA
ENDBRANCH   7  48
ENDBRANCH   1   2
BRANCH   1  53
ATOM     53  O   UNL     1       5.709  23.788  35.696  1.00  0.00    -0.388 OA
ATOM     54  H   UNL     1       5.381  22.992  36.153  1.00  0.00     0.211 HD
ENDBRANCH   1  53
BRANCH   1  55
ATOM     55  C   UNL     1       6.315  24.091  37.940  1.00  0.00     0.165 C 
BRANCH  55  56
ATOM     56  O   UNL     1       7.154  23.246  38.624  1.00  0.00    -0.388 OA
ATOM     57  H   UNL     1       7.750  23.713  39.267  1.00  0.00     0.211 HD
ENDBRANCH  55  56
BRANCH  55  58
ATOM     58  C   UNL     1       4.878  23.750  38.184  1.00  0.00     0.154 C 
BRANCH  58  59
ATOM     59  N   UNL     1       4.614  22.346  38.013  1.00  0.00    -0.319 N 
ATOM     60  C   UNL     1       4.234  21.589  39.186  1.00  0.00     0.407 C 
ATOM     61  H   UNL     1       4.680  21.844  37.113  1.00  0.00     0.167 HD
ATOM     62  O   UNL     1       4.140  22.229  40.264  1.00  0.00    -0.225 OA
BRANCH  60  63
ATOM     63  O   UNL     1       3.993  20.242  39.107  1.00  0.00    -0.443 OA
BRANCH  63  64
ATOM     64  C   UNL     1       2.837  19.762  38.463  1.00  0.00     0.294 C 
BRANCH  64  65
ATOM     65  C   UNL     1       3.055  19.630  37.011  1.00  0.00     0.120 A 
ATOM     66  C   UNL     1       2.451  20.359  35.999  1.00  0.00     0.138 A 
ATOM     67  N   UNL     1       3.899  18.812  36.398  1.00  0.00    -0.132 NA
ATOM     68  N   UNL     1       2.937  19.972  34.819  1.00  0.00    -0.251 N 
ATOM     69  N   UNL     1       3.830  19.015  35.076  1.00  0.00    -0.067 NA
BRANCH  68  70
ATOM     70  C   UNL     1       2.557  20.486  33.514  1.00  0.00     0.162 C 
BRANCH  70  71
ATOM     71  C   UNL     1       2.230  21.975  33.622  1.00  0.00     0.122 C 
BRANCH  71  72
ATOM     72  N   UNL     1       3.429  22.763  33.596  1.00  0.00    -0.214 NA
ATOM     73  H   UNL     1       4.086  22.362  32.875  1.00  0.00     0.141 HD
BRANCH  72  74
ATOM     74  S   UNL     1       3.145  24.401  33.155  1.00  0.00     0.208 S 
ATOM     75  O   UNL     1       4.040  25.320  33.969  1.00  0.00    -0.213 OA
ATOM     76  O   UNL     1       3.539  24.521  31.695  1.00  0.00    -0.213 OA
ATOM     77  C   UNL     1       1.445  24.831  33.364  1.00  0.00     0.176 C 
ENDBRANCH  72  74
ENDBRANCH  71  72
ENDBRANCH  70  71
ENDBRANCH  68  70
ENDBRANCH  64  65
ENDBRANCH  63  64
ENDBRANCH  60  63
ENDBRANCH  58  59
ENDBRANCH  55  58
ENDBRANCH   1  55
TORSDOF 33
