REMARK VINA RESULT:    -5.505      7.813     12.243
REMARK INTER + INTRA:         -20.696
REMARK INTER:                 -14.790
REMARK INTRA:                  -5.906
REMARK UNBOUND:                -7.145
REMARK SMILES CC(=O)N[C@@H]1[C@@H](O)C[C@](OC[C@H]2O[C@@H](O[C@H]3[C@H](O)[C@@H](O)[C@H](OCCN=[N+]=[N-])O[C@@H]3CO)[C@H](O)[C@@H](O)[C@H]2O)(C(=O)O)O[C@H]1C(O)[C@H](O)CNC(=O)OCc1cn(-c2ccccc2Br)nn1
REMARK SMILES IDX 9 1 8 2 6 3 5 4 42 5 41 6 10 7 11 8 12 9 14 10 13 11 32 12
REMARK SMILES IDX 34 13 36 14 15 15 16 16 29 17 28 18 21 19 17 20 19 21 30 22
REMARK SMILES IDX 31 23 22 25 23 26 24 27 25 28 26 29 27 30 18 31 20 33 33 35
REMARK SMILES IDX 35 37 37 39 38 41 39 42 40 43 7 45 43 47 44 48 45 50 46 51
REMARK SMILES IDX 47 53 48 54 49 55 50 57 51 58 52 59 53 60 54 61 64 62 55 63
REMARK SMILES IDX 63 64 56 65 57 66 61 67 58 68 60 69 62 70 59 71 4 72 2 73
REMARK SMILES IDX 1 75 3 76
REMARK H PARENT 31 24 18 32 20 34 33 36 35 38 37 40 40 44 7 46 44 49 46 52
REMARK H PARENT 48 56 4 74
REMARK Flexibility Score: inf
ROOT
ATOM      1  C   UNL     1      20.393  28.443  19.161  1.00  0.00     0.272 C 
ATOM      2  C   UNL     1      21.287  29.428  18.509  1.00  0.00     0.113 C 
ATOM      3  C   UNL     1      22.595  29.554  19.221  1.00  0.00     0.145 C 
ATOM      4  C   UNL     1      23.234  28.275  19.631  1.00  0.00     0.142 C 
ATOM      5  C   UNL     1      22.300  27.120  19.532  1.00  0.00     0.178 C 
ATOM      6  O   UNL     1      20.986  27.353  19.762  1.00  0.00    -0.332 OA
ENDROOT
BRANCH   1   7
ATOM      7  O   UNL     1      19.420  27.891  18.346  1.00  0.00    -0.338 OA
BRANCH   7   8
ATOM      8  C   UNL     1      19.394  28.278  17.050  1.00  0.00     0.199 C 
BRANCH   8   9
ATOM      9  C   UNL     1      17.965  28.801  16.763  1.00  0.00     0.179 C 
ATOM     10  C   UNL     1      16.048  29.274  17.964  1.00  0.00     0.282 C 
ATOM     11  O   UNL     1      17.087  28.421  17.705  1.00  0.00    -0.341 OA
ATOM     12  C   UNL     1      15.501  29.931  16.716  1.00  0.00     0.202 C 
ATOM     13  C   UNL     1      16.596  30.654  15.962  1.00  0.00     0.179 C 
ATOM     14  C   UNL     1      17.966  30.248  16.468  1.00  0.00     0.177 C 
BRANCH  10  15
ATOM     15  O   UNL     1      16.336  30.192  18.963  1.00  0.00    -0.341 OA
BRANCH  15  16
ATOM     16  C   UNL     1      15.503  30.129  20.055  1.00  0.00     0.184 C 
ATOM     17  C   UNL     1      15.306  31.447  20.764  1.00  0.00     0.178 C 
ATOM     18  O   UNL     1      14.164  31.309  21.538  1.00  0.00    -0.341 OA
ATOM     19  C   UNL     1      14.197  30.304  22.451  1.00  0.00     0.281 C 
ATOM     20  C   UNL     1      16.070  29.204  21.126  1.00  0.00     0.180 C 
ATOM     21  C   UNL     1      15.278  29.309  22.363  1.00  0.00     0.202 C 
BRANCH  17  22
ATOM     22  C   UNL     1      15.155  32.625  19.860  1.00  0.00     0.191 C 
BRANCH  22  23
ATOM     23  O   UNL     1      16.362  32.849  19.201  1.00  0.00    -0.394 OA
ATOM     24  H   UNL     1      16.930  32.063  19.276  1.00  0.00     0.210 HD
ENDBRANCH  22  23
ENDBRANCH  17  22
BRANCH  19  25
ATOM     25  O   UNL     1      12.960  29.628  22.340  1.00  0.00    -0.350 OA
BRANCH  25  26
ATOM     26  C   UNL     1      11.988  30.128  23.160  1.00  0.00     0.169 C 
BRANCH  26  27
ATOM     27  C   UNL     1      11.725  29.338  24.404  1.00  0.00     0.119 C 
BRANCH  27  28
ATOM     28  N   UNL     1      10.313  28.986  24.399  1.00  0.00    -0.092 NA
ATOM     29  N   UNL     1       9.950  27.902  24.830  1.00  0.00     0.001 N 
ATOM     30  N   UNL     1       9.557  26.851  25.322  1.00  0.00    -0.003 NA
ENDBRANCH  27  28
ENDBRANCH  26  27
ENDBRANCH  25  26
ENDBRANCH  19  25
BRANCH  20  31
ATOM     31  O   UNL     1      16.108  27.889  20.695  1.00  0.00    -0.387 OA
ATOM     32  H   UNL     1      16.029  27.795  19.717  1.00  0.00     0.211 HD
ENDBRANCH  20  31
BRANCH  21  33
ATOM     33  O   UNL     1      16.223  29.491  23.416  1.00  0.00    -0.385 OA
ATOM     34  H   UNL     1      17.036  29.939  23.085  1.00  0.00     0.211 HD
ENDBRANCH  21  33
ENDBRANCH  15  16
ENDBRANCH  10  15
BRANCH  12  35
ATOM     35  O   UNL     1      14.820  29.016  15.912  1.00  0.00    -0.385 OA
ATOM     36  H   UNL     1      14.184  29.468  15.306  1.00  0.00     0.211 HD
ENDBRANCH  12  35
BRANCH  13  37
ATOM     37  O   UNL     1      16.391  32.020  15.976  1.00  0.00    -0.387 OA
ATOM     38  H   UNL     1      16.473  32.376  16.884  1.00  0.00     0.211 HD
ENDBRANCH  13  37
BRANCH  14  39
ATOM     39  O   UNL     1      18.273  31.052  17.553  1.00  0.00    -0.387 OA
ATOM     40  H   UNL     1      17.972  30.670  18.414  1.00  0.00     0.211 HD
ENDBRANCH  14  39
ENDBRANCH   8   9
ENDBRANCH   7   8
ENDBRANCH   1   7
BRANCH   1  41
ATOM     41  C   UNL     1      19.742  29.179  20.318  1.00  0.00     0.364 C 
ATOM     42  O   UNL     1      19.244  30.296  20.059  1.00  0.00    -0.246 OA
BRANCH  41  43
ATOM     43  O   UNL     1      19.681  28.689  21.588  1.00  0.00    -0.477 OA
ATOM     44  H   UNL     1      18.798  28.733  22.121  1.00  0.00     0.296 HD
ENDBRANCH  41  43
ENDBRANCH   1  41
BRANCH   3  45
ATOM     45  O   UNL     1      23.465  30.314  18.406  1.00  0.00    -0.391 OA
ATOM     46  H   UNL     1      22.982  31.151  18.160  1.00  0.00     0.211 HD
ENDBRANCH   3  45
BRANCH   5  47
ATOM     47  C   UNL     1      22.596  26.264  18.301  1.00  0.00     0.176 C 
BRANCH  47  48
ATOM     48  O   UNL     1      22.330  24.931  18.484  1.00  0.00    -0.388 OA
ATOM     49  H   UNL     1      22.911  24.534  19.198  1.00  0.00     0.211 HD
ENDBRANCH  47  48
BRANCH  47  50
ATOM     50  C   UNL     1      24.068  26.395  17.876  1.00  0.00     0.165 C 
BRANCH  50  51
ATOM     51  O   UNL     1      24.094  26.999  16.645  1.00  0.00    -0.388 OA
ATOM     52  H   UNL     1      23.340  26.832  16.054  1.00  0.00     0.211 HD
ENDBRANCH  50  51
BRANCH  50  53
ATOM     53  C   UNL     1      24.720  25.052  17.843  1.00  0.00     0.154 C 
BRANCH  53  54
ATOM     54  N   UNL     1      25.021  24.563  19.145  1.00  0.00    -0.319 N 
ATOM     55  C   UNL     1      26.237  24.011  19.601  1.00  0.00     0.407 C 
ATOM     56  H   UNL     1      24.249  24.610  19.883  1.00  0.00     0.167 HD
ATOM     57  O   UNL     1      27.210  23.916  18.847  1.00  0.00    -0.225 OA
BRANCH  55  58
ATOM     58  O   UNL     1      26.364  23.562  20.915  1.00  0.00    -0.443 OA
BRANCH  58  59
ATOM     59  C   UNL     1      26.495  24.399  22.039  1.00  0.00     0.294 C 
BRANCH  59  60
ATOM     60  C   UNL     1      25.198  24.504  22.783  1.00  0.00     0.121 A 
ATOM     61  C   UNL     1      25.084  24.880  24.122  1.00  0.00     0.144 A 
ATOM     62  N   UNL     1      23.965  24.267  22.364  1.00  0.00    -0.131 NA
ATOM     63  N   UNL     1      23.780  24.847  24.434  1.00  0.00    -0.219 N 
ATOM     64  N   UNL     1      23.110  24.478  23.371  1.00  0.00    -0.062 NA
BRANCH  63  65
ATOM     65  C   UNL     1      23.208  25.153  25.693  1.00  0.00     0.081 A 
ATOM     66  C   UNL     1      23.302  24.287  26.760  1.00  0.00     0.029 A 
ATOM     67  C   UNL     1      22.540  26.334  25.876  1.00  0.00     0.043 A 
ATOM     68  C   UNL     1      22.727  24.623  27.983  1.00  0.00     0.002 A 
ATOM     69  C   UNL     1      21.970  26.671  27.081  1.00  0.00     0.018 A 
ATOM     70  Br  UNL     1      22.383  27.557  24.424  1.00  0.00    -0.048 Br
ATOM     71  C   UNL     1      22.058  25.816  28.153  1.00  0.00     0.001 A 
ENDBRANCH  63  65
ENDBRANCH  59  60
ENDBRANCH  58  59
ENDBRANCH  55  58
ENDBRANCH  53  54
ENDBRANCH  50  53
ENDBRANCH  47  50
ENDBRANCH   5  47
BRANCH   4  72
ATOM     72  N   UNL     1      23.824  28.331  20.950  1.00  0.00    -0.348 N 
ATOM     73  C   UNL     1      25.164  27.932  21.174  1.00  0.00     0.217 C 
ATOM     74  H   UNL     1      23.267  28.668  21.758  1.00  0.00     0.163 HD
ATOM     75  C   UNL     1      25.694  28.021  22.568  1.00  0.00     0.114 C 
ATOM     76  O   UNL     1      25.896  27.516  20.255  1.00  0.00    -0.275 OA
ENDBRANCH   4  72
TORSDOF 30
