REMARK VINA RESULT:    -5.863      2.880     10.697
REMARK INTER + INTRA:         -25.281
REMARK INTER:                 -14.398
REMARK INTRA:                 -10.883
REMARK UNBOUND:                -8.963
REMARK SMILES CC(=O)N[C@@H]1[C@@H](O)C[C@](OC[C@H]2O[C@@H](O[C@H]3[C@H](O)[C@@H](O)[C@H](OCCN=[N+]=[N-])O[C@@H]3CO)[C@H](O)[C@@H](O)[C@H]2O)(C(=O)O)O[C@H]1C(O)[C@H](O)CNC(=O)OCc1cn(C[C@@H](C(=O)O)C(c2ccccc2)c2ccccc2)nn1
REMARK SMILES IDX 43 1 42 2 9 3 8 4 41 5 6 6 5 7 10 8 11 9 12 10 14 11 13 12
REMARK SMILES IDX 32 13 34 14 36 15 15 16 16 17 29 18 28 19 21 20 17 21 19 22
REMARK SMILES IDX 30 23 31 24 22 26 23 27 24 28 25 29 26 30 27 31 18 32 20 34
REMARK SMILES IDX 33 36 35 38 37 40 38 42 39 43 40 44 7 46 4 48 2 49 1 51 3 52
REMARK SMILES IDX 44 53 45 55 46 56 47 58 48 59 49 60 50 62 51 63 52 64 53 65
REMARK SMILES IDX 54 66 75 67 55 68 74 69 56 70 57 71 58 72 59 73 60 74 61 76
REMARK SMILES IDX 62 77 63 78 67 79 64 80 66 81 65 82 68 83 69 84 73 85 70 86
REMARK SMILES IDX 72 87 71 88
REMARK H PARENT 31 25 18 33 20 35 33 37 35 39 37 41 40 45 7 47 4 50 44 54
REMARK H PARENT 46 57 48 61 60 75
REMARK Flexibility Score: inf
ROOT
ATOM      1  C   UNL     1      20.226  31.004  24.009  1.00  0.00     0.176 C 
ENDROOT
BRANCH   1   2
ATOM      2  C   UNL     1      20.664  30.231  22.746  1.00  0.00     0.178 C 
ATOM      3  C   UNL     1      20.437  29.884  20.473  1.00  0.00     0.272 C 
ATOM      4  C   UNL     1      21.655  28.989  20.878  1.00  0.00     0.113 C 
ATOM      5  O   UNL     1      19.970  30.529  21.632  1.00  0.00    -0.332 OA
ATOM      6  C   UNL     1      21.312  28.043  21.976  1.00  0.00     0.145 C 
ATOM      7  C   UNL     1      20.697  28.770  23.129  1.00  0.00     0.142 C 
BRANCH   3   8
ATOM      8  O   UNL     1      19.593  29.142  19.836  1.00  0.00    -0.338 OA
BRANCH   8   9
ATOM      9  C   UNL     1      19.451  28.521  18.732  1.00  0.00     0.199 C 
BRANCH   9  10
ATOM     10  C   UNL     1      18.241  28.601  17.839  1.00  0.00     0.179 C 
ATOM     11  C   UNL     1      15.951  29.070  18.244  1.00  0.00     0.282 C 
ATOM     12  O   UNL     1      17.099  28.455  18.566  1.00  0.00    -0.341 OA
ATOM     13  C   UNL     1      15.845  29.836  16.983  1.00  0.00     0.202 C 
ATOM     14  C   UNL     1      17.134  30.041  16.241  1.00  0.00     0.179 C 
ATOM     15  C   UNL     1      18.219  30.038  17.270  1.00  0.00     0.177 C 
BRANCH  11  16
ATOM     16  O   UNL     1      15.729  30.006  19.297  1.00  0.00    -0.341 OA
BRANCH  16  17
ATOM     17  C   UNL     1      14.656  29.695  20.085  1.00  0.00     0.184 C 
ATOM     18  C   UNL     1      14.038  30.971  20.583  1.00  0.00     0.178 C 
ATOM     19  O   UNL     1      14.644  31.444  21.741  1.00  0.00    -0.341 OA
ATOM     20  C   UNL     1      15.985  31.052  21.871  1.00  0.00     0.281 C 
ATOM     21  C   UNL     1      15.048  28.871  21.303  1.00  0.00     0.180 C 
ATOM     22  C   UNL     1      16.126  29.585  22.093  1.00  0.00     0.202 C 
BRANCH  18  23
ATOM     23  C   UNL     1      12.554  30.896  20.804  1.00  0.00     0.191 C 
BRANCH  23  24
ATOM     24  O   UNL     1      12.188  31.119  22.116  1.00  0.00    -0.394 OA
ATOM     25  H   UNL     1      13.020  31.400  22.604  1.00  0.00     0.210 HD
ENDBRANCH  23  24
ENDBRANCH  18  23
BRANCH  20  26
ATOM     26  O   UNL     1      16.520  31.707  22.957  1.00  0.00    -0.350 OA
BRANCH  26  27
ATOM     27  C   UNL     1      15.645  32.252  23.844  1.00  0.00     0.169 C 
BRANCH  27  28
ATOM     28  C   UNL     1      15.569  31.549  25.160  1.00  0.00     0.119 C 
BRANCH  28  29
ATOM     29  N   UNL     1      14.142  31.542  25.538  1.00  0.00    -0.092 NA
ATOM     30  N   UNL     1      13.483  30.557  25.196  1.00  0.00     0.001 N 
ATOM     31  N   UNL     1      12.782  29.656  24.741  1.00  0.00    -0.003 NA
ENDBRANCH  28  29
ENDBRANCH  27  28
ENDBRANCH  26  27
ENDBRANCH  20  26
BRANCH  21  32
ATOM     32  O   UNL     1      13.922  28.783  22.117  1.00  0.00    -0.387 OA
ATOM     33  H   UNL     1      14.120  28.940  23.068  1.00  0.00     0.211 HD
ENDBRANCH  21  32
BRANCH  22  34
ATOM     34  O   UNL     1      17.382  29.174  21.667  1.00  0.00    -0.385 OA
ATOM     35  H   UNL     1      17.985  29.982  21.721  1.00  0.00     0.211 HD
ENDBRANCH  22  34
ENDBRANCH  16  17
ENDBRANCH  11  16
BRANCH  13  36
ATOM     36  O   UNL     1      14.983  29.169  16.078  1.00  0.00    -0.385 OA
ATOM     37  H   UNL     1      14.044  29.487  16.199  1.00  0.00     0.211 HD
ENDBRANCH  13  36
BRANCH  14  38
ATOM     38  O   UNL     1      17.104  31.240  15.557  1.00  0.00    -0.387 OA
ATOM     39  H   UNL     1      17.160  31.986  16.210  1.00  0.00     0.211 HD
ENDBRANCH  14  38
BRANCH  15  40
ATOM     40  O   UNL     1      17.902  30.956  18.261  1.00  0.00    -0.387 OA
ATOM     41  H   UNL     1      16.967  31.223  18.140  1.00  0.00     0.211 HD
ENDBRANCH  15  40
ENDBRANCH   9  10
ENDBRANCH   8   9
ENDBRANCH   3   8
BRANCH   3  42
ATOM     42  C   UNL     1      21.087  30.951  19.686  1.00  0.00     0.364 C 
ATOM     43  O   UNL     1      20.672  32.124  19.580  1.00  0.00    -0.246 OA
BRANCH  42  44
ATOM     44  O   UNL     1      22.276  30.662  18.982  1.00  0.00    -0.477 OA
ATOM     45  H   UNL     1      22.847  29.923  19.334  1.00  0.00     0.296 HD
ENDBRANCH  42  44
ENDBRANCH   3  42
BRANCH   6  46
ATOM     46  O   UNL     1      20.487  26.997  21.540  1.00  0.00    -0.391 OA
ATOM     47  H   UNL     1      20.990  26.315  21.036  1.00  0.00     0.211 HD
ENDBRANCH   6  46
BRANCH   7  48
ATOM     48  N   UNL     1      21.547  28.630  24.289  1.00  0.00    -0.348 N 
ATOM     49  C   UNL     1      21.177  27.800  25.377  1.00  0.00     0.217 C 
ATOM     50  H   UNL     1      22.462  29.162  24.313  1.00  0.00     0.163 HD
ATOM     51  C   UNL     1      22.058  27.650  26.587  1.00  0.00     0.114 C 
ATOM     52  O   UNL     1      20.080  27.192  25.293  1.00  0.00    -0.275 OA
ENDBRANCH   7  48
ENDBRANCH   1   2
BRANCH   1  53
ATOM     53  O   UNL     1      18.867  30.962  24.162  1.00  0.00    -0.388 OA
ATOM     54  H   UNL     1      18.548  31.284  25.036  1.00  0.00     0.211 HD
ENDBRANCH   1  53
BRANCH   1  55
ATOM     55  C   UNL     1      20.696  32.405  23.952  1.00  0.00     0.165 C 
BRANCH  55  56
ATOM     56  O   UNL     1      20.736  32.928  22.643  1.00  0.00    -0.388 OA
ATOM     57  H   UNL     1      21.601  32.576  22.264  1.00  0.00     0.211 HD
ENDBRANCH  55  56
BRANCH  55  58
ATOM     58  C   UNL     1      21.917  32.826  24.680  1.00  0.00     0.154 C 
BRANCH  58  59
ATOM     59  N   UNL     1      23.162  32.488  24.097  1.00  0.00    -0.319 N 
ATOM     60  C   UNL     1      23.940  31.344  24.375  1.00  0.00     0.407 C 
ATOM     61  H   UNL     1      23.567  33.177  23.350  1.00  0.00     0.167 HD
ATOM     62  O   UNL     1      23.620  30.499  25.229  1.00  0.00    -0.225 OA
BRANCH  60  63
ATOM     63  O   UNL     1      25.104  31.163  23.659  1.00  0.00    -0.443 OA
BRANCH  63  64
ATOM     64  C   UNL     1      25.218  31.523  22.327  1.00  0.00     0.294 C 
BRANCH  64  65
ATOM     65  C   UNL     1      25.196  30.398  21.380  1.00  0.00     0.120 A 
ATOM     66  C   UNL     1      25.465  29.068  21.596  1.00  0.00     0.138 A 
ATOM     67  N   UNL     1      24.922  30.481  20.041  1.00  0.00    -0.132 NA
ATOM     68  N   UNL     1      25.357  28.400  20.442  1.00  0.00    -0.251 N 
ATOM     69  N   UNL     1      25.028  29.282  19.517  1.00  0.00    -0.067 NA
BRANCH  68  70
ATOM     70  C   UNL     1      25.555  26.958  20.197  1.00  0.00     0.162 C 
BRANCH  70  71
ATOM     71  C   UNL     1      24.298  26.214  20.508  1.00  0.00     0.132 C 
BRANCH  71  72
ATOM     72  C   UNL     1      23.354  26.258  19.351  1.00  0.00     0.309 C 
ATOM     73  O   UNL     1      22.204  25.791  19.398  1.00  0.00    -0.252 OA
BRANCH  72  74
ATOM     74  O   UNL     1      23.762  26.844  18.165  1.00  0.00    -0.481 OA
ATOM     75  H   UNL     1      24.366  27.670  18.193  1.00  0.00     0.296 HD
ENDBRANCH  72  74
ENDBRANCH  71  72
BRANCH  71  76
ATOM     76  C   UNL     1      24.414  24.860  21.102  1.00  0.00     0.065 C 
BRANCH  76  77
ATOM     77  C   UNL     1      25.614  24.080  20.796  1.00  0.00    -0.040 A 
ATOM     78  C   UNL     1      26.370  23.484  21.816  1.00  0.00     0.004 A 
ATOM     79  C   UNL     1      26.097  23.876  19.501  1.00  0.00     0.004 A 
ATOM     80  C   UNL     1      27.492  22.756  21.580  1.00  0.00     0.000 A 
ATOM     81  C   UNL     1      27.234  23.138  19.272  1.00  0.00     0.000 A 
ATOM     82  C   UNL     1      27.945  22.570  20.310  1.00  0.00     0.000 A 
ENDBRANCH  76  77
BRANCH  76  83
ATOM     83  C   UNL     1      23.967  24.790  22.519  1.00  0.00    -0.040 A 
ATOM     84  C   UNL     1      22.615  24.627  22.736  1.00  0.00     0.004 A 
ATOM     85  C   UNL     1      24.834  24.868  23.575  1.00  0.00     0.004 A 
ATOM     86  C   UNL     1      22.115  24.540  24.004  1.00  0.00     0.000 A 
ATOM     87  C   UNL     1      24.311  24.777  24.862  1.00  0.00     0.000 A 
ATOM     88  C   UNL     1      22.962  24.615  25.085  1.00  0.00     0.000 A 
ENDBRANCH  76  83
ENDBRANCH  71  76
ENDBRANCH  70  71
ENDBRANCH  68  70
ENDBRANCH  64  65
ENDBRANCH  63  64
ENDBRANCH  60  63
ENDBRANCH  58  59
ENDBRANCH  55  58
ENDBRANCH   1  55
TORSDOF 36
