REMARK VINA RESULT:    -5.939      5.346     10.510
REMARK INTER + INTRA:         -22.007
REMARK INTER:                 -15.722
REMARK INTRA:                  -6.285
REMARK UNBOUND:                -7.387
REMARK SMILES CC(=O)N[C@@H]1[C@@H](O)C[C@](OC[C@H]2O[C@@H](O[C@H]3[C@H](O)[C@@H](O)[C@H](OCCN=[N+]=[N-])O[C@@H]3CO)[C@H](O)[C@@H](O)[C@H]2O)(C(=O)O)O[C@H]1C(O)[C@H](O)CNC(=O)OCc1cn(C23CC4CC(CC(C4)C2)C3)nn1
REMARK SMILES IDX 9 1 8 2 6 3 5 4 42 5 41 6 10 7 11 8 12 9 14 10 13 11 32 12
REMARK SMILES IDX 34 13 36 14 15 15 16 16 29 17 28 18 21 19 17 20 19 21 30 22
REMARK SMILES IDX 31 23 22 25 23 26 24 27 25 28 26 29 27 30 18 31 20 33 33 35
REMARK SMILES IDX 35 37 37 39 38 41 39 42 40 43 7 45 43 47 44 48 45 50 46 51
REMARK SMILES IDX 47 53 48 54 49 55 50 57 51 58 52 59 53 60 54 61 67 62 55 63
REMARK SMILES IDX 66 64 56 65 65 66 64 67 57 68 60 69 62 70 58 71 59 72 61 73
REMARK SMILES IDX 63 74 4 75 2 76 1 78 3 79
REMARK H PARENT 31 24 18 32 20 34 33 36 35 38 37 40 40 44 7 46 44 49 46 52
REMARK H PARENT 48 56 4 77
REMARK Flexibility Score: inf
ROOT
ATOM      1  C   UNL     1      13.210  31.338  16.123  1.00  0.00     0.272 C 
ATOM      2  C   UNL     1      11.867  30.935  15.619  1.00  0.00     0.113 C 
ATOM      3  C   UNL     1      11.842  29.457  15.282  1.00  0.00     0.145 C 
ATOM      4  C   UNL     1      12.647  29.334  13.980  1.00  0.00     0.142 C 
ATOM      5  C   UNL     1      13.886  30.149  14.198  1.00  0.00     0.178 C 
ATOM      6  O   UNL     1      14.169  30.457  15.505  1.00  0.00    -0.332 OA
ENDROOT
BRANCH   1   7
ATOM      7  O   UNL     1      13.448  31.212  17.421  1.00  0.00    -0.338 OA
BRANCH   7   8
ATOM      8  C   UNL     1      14.333  31.802  18.182  1.00  0.00     0.199 C 
BRANCH   8   9
ATOM      9  C   UNL     1      15.295  31.076  19.062  1.00  0.00     0.179 C 
ATOM     10  C   UNL     1      15.635  29.321  20.424  1.00  0.00     0.282 C 
ATOM     11  O   UNL     1      14.646  29.911  19.610  1.00  0.00    -0.341 OA
ATOM     12  C   UNL     1      16.392  28.396  19.529  1.00  0.00     0.202 C 
ATOM     13  C   UNL     1      16.501  29.064  18.171  1.00  0.00     0.179 C 
ATOM     14  C   UNL     1      16.509  30.569  18.291  1.00  0.00     0.177 C 
BRANCH  10  15
ATOM     15  O   UNL     1      15.068  28.715  21.539  1.00  0.00    -0.341 OA
BRANCH  15  16
ATOM     16  C   UNL     1      15.076  29.588  22.587  1.00  0.00     0.184 C 
ATOM     17  C   UNL     1      13.930  30.525  22.707  1.00  0.00     0.178 C 
ATOM     18  O   UNL     1      13.941  30.986  24.043  1.00  0.00    -0.341 OA
ATOM     19  C   UNL     1      15.027  31.865  24.262  1.00  0.00     0.281 C 
ATOM     20  C   UNL     1      16.323  30.478  22.585  1.00  0.00     0.180 C 
ATOM     21  C   UNL     1      16.326  31.253  23.857  1.00  0.00     0.202 C 
BRANCH  17  22
ATOM     22  C   UNL     1      12.596  30.006  22.321  1.00  0.00     0.191 C 
BRANCH  22  23
ATOM     23  O   UNL     1      12.135  29.199  23.374  1.00  0.00    -0.394 OA
ATOM     24  H   UNL     1      11.742  28.352  23.039  1.00  0.00     0.210 HD
ENDBRANCH  22  23
ENDBRANCH  17  22
BRANCH  19  25
ATOM     25  O   UNL     1      15.042  32.074  25.622  1.00  0.00    -0.350 OA
BRANCH  25  26
ATOM     26  C   UNL     1      14.913  30.990  26.409  1.00  0.00     0.169 C 
BRANCH  26  27
ATOM     27  C   UNL     1      14.755  31.333  27.856  1.00  0.00     0.119 C 
BRANCH  27  28
ATOM     28  N   UNL     1      15.776  30.649  28.659  1.00  0.00    -0.092 NA
ATOM     29  N   UNL     1      16.943  30.970  28.479  1.00  0.00     0.001 N 
ATOM     30  N   UNL     1      18.173  30.971  28.258  1.00  0.00    -0.003 NA
ENDBRANCH  27  28
ENDBRANCH  26  27
ENDBRANCH  25  26
ENDBRANCH  19  25
BRANCH  20  31
ATOM     31  O   UNL     1      17.489  29.717  22.522  1.00  0.00    -0.387 OA
ATOM     32  H   UNL     1      18.060  30.068  21.803  1.00  0.00     0.211 HD
ENDBRANCH  20  31
BRANCH  21  33
ATOM     33  O   UNL     1      17.279  32.261  23.719  1.00  0.00    -0.385 OA
ATOM     34  H   UNL     1      17.943  32.020  23.045  1.00  0.00     0.211 HD
ENDBRANCH  21  33
ENDBRANCH  15  16
ENDBRANCH  10  15
BRANCH  12  35
ATOM     35  O   UNL     1      17.613  27.980  19.999  1.00  0.00    -0.385 OA
ATOM     36  H   UNL     1      17.613  27.003  20.137  1.00  0.00     0.211 HD
ENDBRANCH  12  35
BRANCH  13  37
ATOM     37  O   UNL     1      15.526  28.630  17.283  1.00  0.00    -0.387 OA
ATOM     38  H   UNL     1      15.973  28.124  16.531  1.00  0.00     0.211 HD
ENDBRANCH  13  37
BRANCH  14  39
ATOM     39  O   UNL     1      16.444  31.099  17.009  1.00  0.00    -0.387 OA
ATOM     40  H   UNL     1      15.606  30.837  16.545  1.00  0.00     0.211 HD
ENDBRANCH  14  39
ENDBRANCH   8   9
ENDBRANCH   7   8
ENDBRANCH   1   7
BRANCH   1  41
ATOM     41  C   UNL     1      13.587  32.644  15.558  1.00  0.00     0.364 C 
ATOM     42  O   UNL     1      14.725  33.131  15.528  1.00  0.00    -0.246 OA
BRANCH  41  43
ATOM     43  O   UNL     1      12.508  33.394  15.004  1.00  0.00    -0.477 OA
ATOM     44  H   UNL     1      11.583  33.196  15.321  1.00  0.00     0.296 HD
ENDBRANCH  41  43
ENDBRANCH   1  41
BRANCH   3  45
ATOM     45  O   UNL     1      12.531  28.749  16.258  1.00  0.00    -0.391 OA
ATOM     46  H   UNL     1      12.331  29.180  17.128  1.00  0.00     0.211 HD
ENDBRANCH   3  45
BRANCH   5  47
ATOM     47  C   UNL     1      15.164  29.351  13.733  1.00  0.00     0.176 C 
BRANCH  47  48
ATOM     48  O   UNL     1      14.945  28.113  14.373  1.00  0.00    -0.388 OA
ATOM     49  H   UNL     1      15.841  27.701  14.451  1.00  0.00     0.211 HD
ENDBRANCH  47  48
BRANCH  47  50
ATOM     50  C   UNL     1      16.373  29.981  14.261  1.00  0.00     0.165 C 
BRANCH  50  51
ATOM     51  O   UNL     1      16.647  31.271  13.774  1.00  0.00    -0.388 OA
ATOM     52  H   UNL     1      16.306  31.946  14.434  1.00  0.00     0.211 HD
ENDBRANCH  50  51
BRANCH  50  53
ATOM     53  C   UNL     1      17.627  29.193  14.250  1.00  0.00     0.154 C 
BRANCH  53  54
ATOM     54  N   UNL     1      18.050  28.723  15.518  1.00  0.00    -0.319 N 
ATOM     55  C   UNL     1      19.357  28.468  15.955  1.00  0.00     0.407 C 
ATOM     56  H   UNL     1      17.243  28.539  16.237  1.00  0.00     0.167 HD
ATOM     57  O   UNL     1      20.329  28.630  15.200  1.00  0.00    -0.225 OA
BRANCH  55  58
ATOM     58  O   UNL     1      19.550  28.020  17.284  1.00  0.00    -0.443 OA
BRANCH  58  59
ATOM     59  C   UNL     1      20.517  28.676  18.064  1.00  0.00     0.294 C 
BRANCH  59  60
ATOM     60  C   UNL     1      21.175  27.707  18.955  1.00  0.00     0.120 A 
ATOM     61  C   UNL     1      21.128  27.727  20.325  1.00  0.00     0.138 A 
ATOM     62  N   UNL     1      21.928  26.644  18.618  1.00  0.00    -0.132 NA
ATOM     63  N   UNL     1      21.842  26.690  20.768  1.00  0.00    -0.246 N 
ATOM     64  N   UNL     1      22.315  26.053  19.714  1.00  0.00    -0.066 NA
BRANCH  63  65
ATOM     65  C   UNL     1      22.018  26.386  22.175  1.00  0.00     0.065 C 
ATOM     66  C   UNL     1      23.459  26.066  22.420  1.00  0.00     0.034 C 
ATOM     67  C   UNL     1      21.510  27.535  23.022  1.00  0.00     0.034 C 
ATOM     68  C   UNL     1      21.194  25.164  22.540  1.00  0.00     0.034 C 
ATOM     69  C   UNL     1      23.695  25.776  23.881  1.00  0.00    -0.008 C 
ATOM     70  C   UNL     1      21.813  27.256  24.464  1.00  0.00    -0.008 C 
ATOM     71  C   UNL     1      21.410  24.896  24.010  1.00  0.00    -0.008 C 
ATOM     72  C   UNL     1      22.855  24.589  24.283  1.00  0.00     0.007 C 
ATOM     73  C   UNL     1      23.274  26.996  24.667  1.00  0.00     0.007 C 
ATOM     74  C   UNL     1      20.991  26.045  24.884  1.00  0.00     0.007 C 
ENDBRANCH  63  65
ENDBRANCH  59  60
ENDBRANCH  58  59
ENDBRANCH  55  58
ENDBRANCH  53  54
ENDBRANCH  50  53
ENDBRANCH  47  50
ENDBRANCH   5  47
BRANCH   4  75
ATOM     75  N   UNL     1      11.843  29.918  12.901  1.00  0.00    -0.348 N 
ATOM     76  C   UNL     1      11.610  29.211  11.689  1.00  0.00     0.217 C 
ATOM     77  H   UNL     1      11.430  30.878  13.012  1.00  0.00     0.163 HD
ATOM     78  C   UNL     1      10.787  29.833  10.589  1.00  0.00     0.114 C 
ATOM     79  O   UNL     1      12.104  28.070  11.565  1.00  0.00    -0.275 OA
ENDBRANCH   4  75
TORSDOF 30
