REMARK VINA RESULT:    -6.779     17.708     22.506
REMARK INTER + INTRA:         -25.671
REMARK INTER:                 -20.217
REMARK INTRA:                  -5.454
REMARK UNBOUND:                -7.995
REMARK SMILES CC(=O)N[C@@H]1[C@@H](O)C[C@](OC[C@H]2O[C@@H](O[C@H]3[C@H](O)[C@@H](O)[C@H](OCCN=[N+]=[N-])O[C@@H]3CO)[C@H](O)[C@@H](O)[C@H]2O)(C(=O)O)O[C@H]1C(O)[C@H](O)CNC(=O)OCc1cn(-c2ccc(-c3c4ccc(=O)cc-4oc4cc(O)ccc34)c(C(=O)[O-])c2)nn1
REMARK SMILES IDX 9 1 8 2 6 3 5 4 42 5 41 6 10 7 11 8 12 9 14 10 13 11 32 12
REMARK SMILES IDX 34 13 36 14 15 15 16 16 29 17 28 18 21 19 17 20 19 21 30 22
REMARK SMILES IDX 31 23 22 25 23 26 24 27 25 28 26 29 27 30 18 31 20 33 33 35
REMARK SMILES IDX 35 37 37 39 38 41 39 42 40 43 7 45 43 47 44 48 45 50 46 51
REMARK SMILES IDX 47 53 48 54 49 55 50 57 51 58 52 59 53 60 54 61 82 62 55 63
REMARK SMILES IDX 81 64 56 65 80 66 57 67 76 68 58 69 59 70 77 71 78 72 79 73
REMARK SMILES IDX 60 74 75 75 61 76 74 77 69 78 67 79 62 80 73 81 70 82 68 83
REMARK SMILES IDX 66 84 63 85 71 86 64 87 65 88 72 89 4 91 2 92 1 94 3 95
REMARK H PARENT 31 24 18 32 20 34 33 36 35 38 37 40 40 44 7 46 44 49 46 52
REMARK H PARENT 48 56 72 90 4 93
REMARK Flexibility Score: inf
ROOT
ATOM      1  C   UNL     1       4.698  23.255  33.283  1.00  0.00     0.272 C 
ATOM      2  C   UNL     1       3.418  23.390  34.070  1.00  0.00     0.113 C 
ATOM      3  C   UNL     1       2.810  22.067  34.444  1.00  0.00     0.145 C 
ATOM      4  C   UNL     1       3.448  21.004  33.587  1.00  0.00     0.142 C 
ATOM      5  C   UNL     1       3.503  21.555  32.187  1.00  0.00     0.178 C 
ATOM      6  O   UNL     1       4.495  22.501  32.101  1.00  0.00    -0.332 OA
ENDROOT
BRANCH   1   7
ATOM      7  O   UNL     1       5.770  22.751  33.963  1.00  0.00    -0.338 OA
BRANCH   7   8
ATOM      8  C   UNL     1       6.942  22.805  33.295  1.00  0.00     0.199 C 
BRANCH   8   9
ATOM      9  C   UNL     1       8.109  23.180  34.222  1.00  0.00     0.179 C 
ATOM     10  C   UNL     1       9.928  24.589  34.366  1.00  0.00     0.282 C 
ATOM     11  O   UNL     1       9.095  23.839  33.584  1.00  0.00    -0.341 OA
ATOM     12  C   UNL     1      10.086  24.120  35.759  1.00  0.00     0.202 C 
ATOM     13  C   UNL     1       8.767  23.870  36.450  1.00  0.00     0.179 C 
ATOM     14  C   UNL     1       7.634  23.887  35.437  1.00  0.00     0.177 C 
BRANCH  10  15
ATOM     15  O   UNL     1       9.554  25.920  34.189  1.00  0.00    -0.341 OA
BRANCH  15  16
ATOM     16  C   UNL     1      10.500  26.812  34.574  1.00  0.00     0.184 C 
ATOM     17  C   UNL     1      10.279  28.178  34.002  1.00  0.00     0.178 C 
ATOM     18  O   UNL     1      10.989  29.134  34.743  1.00  0.00    -0.341 OA
ATOM     19  C   UNL     1      12.269  28.686  35.047  1.00  0.00     0.281 C 
ATOM     20  C   UNL     1      11.915  26.426  34.105  1.00  0.00     0.180 C 
ATOM     21  C   UNL     1      12.769  27.676  34.079  1.00  0.00     0.202 C 
BRANCH  17  22
ATOM     22  C   UNL     1       8.824  28.533  34.045  1.00  0.00     0.191 C 
BRANCH  22  23
ATOM     23  O   UNL     1       8.196  27.991  32.922  1.00  0.00    -0.394 OA
ATOM     24  H   UNL     1       8.644  28.370  32.134  1.00  0.00     0.210 HD
ENDBRANCH  22  23
ENDBRANCH  17  22
BRANCH  19  25
ATOM     25  O   UNL     1      12.347  28.237  36.348  1.00  0.00    -0.350 OA
BRANCH  25  26
ATOM     26  C   UNL     1      11.619  28.994  37.258  1.00  0.00     0.169 C 
BRANCH  26  27
ATOM     27  C   UNL     1      10.733  28.020  38.014  1.00  0.00     0.119 C 
BRANCH  27  28
ATOM     28  N   UNL     1       9.397  28.526  38.177  1.00  0.00    -0.092 NA
ATOM     29  N   UNL     1       8.485  28.021  37.510  1.00  0.00     0.001 N 
ATOM     30  N   UNL     1       7.421  27.515  37.152  1.00  0.00    -0.003 NA
ENDBRANCH  27  28
ENDBRANCH  26  27
ENDBRANCH  25  26
ENDBRANCH  19  25
BRANCH  20  31
ATOM     31  O   UNL     1      12.434  25.583  35.084  1.00  0.00    -0.387 OA
ATOM     32  H   UNL     1      12.340  24.628  34.877  1.00  0.00     0.211 HD
ENDBRANCH  20  31
BRANCH  21  33
ATOM     33  O   UNL     1      12.935  28.195  32.794  1.00  0.00    -0.385 OA
ATOM     34  H   UNL     1      13.853  27.898  32.507  1.00  0.00     0.211 HD
ENDBRANCH  21  33
ENDBRANCH  15  16
ENDBRANCH  10  15
BRANCH  12  35
ATOM     35  O   UNL     1      10.867  22.936  35.798  1.00  0.00    -0.385 OA
ATOM     36  H   UNL     1      11.472  22.933  34.997  1.00  0.00     0.211 HD
ENDBRANCH  12  35
BRANCH  13  37
ATOM     37  O   UNL     1       8.552  24.735  37.511  1.00  0.00    -0.387 OA
ATOM     38  H   UNL     1       8.139  24.220  38.242  1.00  0.00     0.211 HD
ENDBRANCH  13  37
BRANCH  14  39
ATOM     39  O   UNL     1       7.268  25.210  35.235  1.00  0.00    -0.387 OA
ATOM     40  H   UNL     1       7.684  25.474  34.362  1.00  0.00     0.211 HD
ENDBRANCH  14  39
ENDBRANCH   8   9
ENDBRANCH   7   8
ENDBRANCH   1   7
BRANCH   1  41
ATOM     41  C   UNL     1       4.959  24.648  32.739  1.00  0.00     0.364 C 
ATOM     42  O   UNL     1       5.104  25.652  33.460  1.00  0.00    -0.246 OA
BRANCH  41  43
ATOM     43  O   UNL     1       5.046  24.849  31.365  1.00  0.00    -0.477 OA
ATOM     44  H   UNL     1       5.923  25.098  30.930  1.00  0.00     0.296 HD
ENDBRANCH  41  43
ENDBRANCH   1  41
BRANCH   3  45
ATOM     45  O   UNL     1       2.953  21.864  35.803  1.00  0.00    -0.391 OA
ATOM     46  H   UNL     1       2.332  22.480  36.264  1.00  0.00     0.211 HD
ENDBRANCH   3  45
BRANCH   5  47
ATOM     47  C   UNL     1       3.881  20.454  31.190  1.00  0.00     0.176 C 
BRANCH  47  48
ATOM     48  O   UNL     1       5.250  20.619  30.870  1.00  0.00    -0.388 OA
ATOM     49  H   UNL     1       5.840  20.289  31.567  1.00  0.00     0.211 HD
ENDBRANCH  47  48
BRANCH  47  50
ATOM     50  C   UNL     1       3.139  20.619  29.905  1.00  0.00     0.165 C 
BRANCH  50  51
ATOM     51  O   UNL     1       3.610  21.743  29.224  1.00  0.00    -0.388 OA
ATOM     52  H   UNL     1       4.600  21.748  29.273  1.00  0.00     0.211 HD
ENDBRANCH  50  51
BRANCH  50  53
ATOM     53  C   UNL     1       1.655  20.640  30.014  1.00  0.00     0.154 C 
BRANCH  53  54
ATOM     54  N   UNL     1       1.059  21.654  29.173  1.00  0.00    -0.319 N 
ATOM     55  C   UNL     1       0.395  21.391  27.952  1.00  0.00     0.407 C 
ATOM     56  H   UNL     1       1.093  22.684  29.443  1.00  0.00     0.167 HD
ATOM     57  O   UNL     1       0.292  20.220  27.539  1.00  0.00    -0.225 OA
BRANCH  55  58
ATOM     58  O   UNL     1      -0.164  22.393  27.169  1.00  0.00    -0.443 OA
BRANCH  58  59
ATOM     59  C   UNL     1      -0.064  23.779  27.516  1.00  0.00     0.294 C 
BRANCH  59  60
ATOM     60  C   UNL     1       1.274  24.220  27.048  1.00  0.00     0.121 A 
ATOM     61  C   UNL     1       1.611  25.448  26.551  1.00  0.00     0.144 A 
ATOM     62  N   UNL     1       2.422  23.483  27.026  1.00  0.00    -0.131 NA
ATOM     63  N   UNL     1       2.924  25.454  26.238  1.00  0.00    -0.220 N 
ATOM     64  N   UNL     1       3.386  24.242  26.539  1.00  0.00    -0.062 NA
BRANCH  63  65
ATOM     65  C   UNL     1       3.643  26.551  25.697  1.00  0.00     0.067 A 
ATOM     66  C   UNL     1       5.009  26.525  25.542  1.00  0.00     0.039 A 
ATOM     67  C   UNL     1       2.949  27.672  25.315  1.00  0.00     0.029 A 
ATOM     68  C   UNL     1       5.659  27.613  25.008  1.00  0.00     0.007 A 
ATOM     69  C   UNL     1       3.603  28.761  24.780  1.00  0.00     0.012 A 
ATOM     70  C   UNL     1       4.968  28.758  24.615  1.00  0.00    -0.008 A 
BRANCH  68  71
ATOM     71  C   UNL     1       7.112  27.619  24.828  1.00  0.00     0.072 C 
ATOM     72  O   UNL     1       7.648  27.306  23.738  1.00  0.00    -0.545 OA
ATOM     73  O   UNL     1       7.918  27.977  25.881  1.00  0.00    -0.545 OA
ENDBRANCH  68  71
BRANCH  70  74
ATOM     74  C   UNL     1       5.666  29.899  24.051  1.00  0.00     0.004 A 
ATOM     75  C   UNL     1       6.161  30.860  24.897  1.00  0.00     0.026 A 
ATOM     76  C   UNL     1       5.845  30.050  22.699  1.00  0.00     0.026 A 
ATOM     77  C   UNL     1       6.028  30.791  26.264  1.00  0.00     0.016 A 
ATOM     78  C   UNL     1       6.823  31.948  24.340  1.00  0.00     0.139 A 
ATOM     79  C   UNL     1       6.558  31.226  22.155  1.00  0.00     0.139 A 
ATOM     80  C   UNL     1       5.379  29.131  21.793  1.00  0.00     0.016 A 
ATOM     81  C   UNL     1       6.530  31.765  27.107  1.00  0.00     0.047 A 
ATOM     82  C   UNL     1       7.320  32.911  25.183  1.00  0.00     0.093 A 
ATOM     83  O   UNL     1       6.991  32.086  23.039  1.00  0.00    -0.456 OA
ATOM     84  C   UNL     1       6.734  31.373  20.803  1.00  0.00     0.099 A 
ATOM     85  C   UNL     1       5.565  29.293  20.432  1.00  0.00     0.053 A 
ATOM     86  C   UNL     1       7.189  32.847  26.564  1.00  0.00     0.119 A 
ATOM     87  C   UNL     1       6.236  30.407  19.960  1.00  0.00     0.182 A 
ATOM     88  O   UNL     1       6.373  30.497  18.710  1.00  0.00    -0.290 OA
BRANCH  86  89
ATOM     89  O   UNL     1       7.690  33.819  27.416  1.00  0.00    -0.508 OA
ATOM     90  H   UNL     1       8.701  33.855  27.519  1.00  0.00     0.293 HD
ENDBRANCH  86  89
ENDBRANCH  70  74
ENDBRANCH  63  65
ENDBRANCH  59  60
ENDBRANCH  58  59
ENDBRANCH  55  58
ENDBRANCH  53  54
ENDBRANCH  50  53
ENDBRANCH  47  50
ENDBRANCH   5  47
BRANCH   4  91
ATOM     91  N   UNL     1       2.742  19.742  33.649  1.00  0.00    -0.348 N 
ATOM     92  C   UNL     1       3.136  18.795  34.616  1.00  0.00     0.217 C 
ATOM     93  H   UNL     1       1.954  19.496  33.012  1.00  0.00     0.163 HD
ATOM     94  C   UNL     1       2.485  17.471  34.769  1.00  0.00     0.114 C 
ATOM     95  O   UNL     1       4.096  19.036  35.427  1.00  0.00    -0.275 OA
ENDBRANCH   4  91
TORSDOF 33
