REMARK VINA RESULT:    -6.775      8.805     14.132
REMARK INTER + INTRA:         -21.893
REMARK INTER:                 -15.226
REMARK INTRA:                  -6.668
REMARK UNBOUND:                -4.822
REMARK SMILES CC(=O)N[C@@H]1[C@@H](O)C[C@](OC[C@H]2O[C@@H](O[C@H]3[C@H](O)[C@@H](O)[C@H](OCCN=[N+]=[N-])O[C@@H]3CO)[C@H](O)[C@@H](O)[C@H]2O)(C(=O)O)O[C@H]1C(O)[C@H](O)CNC(=O)OCc1cn(Cc2ccccc2Br)nn1
REMARK SMILES IDX 9 1 8 2 6 3 5 4 42 5 41 6 10 7 11 8 12 9 14 10 13 11 32 12
REMARK SMILES IDX 34 13 36 14 15 15 16 16 29 17 28 18 21 19 17 20 19 21 30 22
REMARK SMILES IDX 31 23 22 25 23 26 24 27 25 28 26 29 27 30 18 31 20 33 33 35
REMARK SMILES IDX 35 37 37 39 38 41 39 42 40 43 7 45 43 47 44 48 45 50 46 51
REMARK SMILES IDX 47 53 48 54 49 55 50 57 51 58 52 59 53 60 54 61 65 62 55 63
REMARK SMILES IDX 64 64 56 65 57 66 58 67 62 68 59 69 61 70 63 71 60 72 4 73
REMARK SMILES IDX 2 74 1 76 3 77
REMARK H PARENT 31 24 18 32 20 34 33 36 35 38 37 40 40 44 7 46 44 49 46 52
REMARK H PARENT 48 56 4 75
REMARK Flexibility Score: inf
ROOT
ATOM      1  C   UNL     1      14.727  29.906  22.057  1.00  0.00     0.272 C 
ATOM      2  C   UNL     1      13.641  30.605  22.773  1.00  0.00     0.113 C 
ATOM      3  C   UNL     1      14.175  31.556  23.784  1.00  0.00     0.145 C 
ATOM      4  C   UNL     1      15.093  32.535  23.108  1.00  0.00     0.142 C 
ATOM      5  C   UNL     1      15.878  31.963  21.991  1.00  0.00     0.178 C 
ATOM      6  O   UNL     1      15.326  30.981  21.246  1.00  0.00    -0.332 OA
ENDROOT
BRANCH   1   7
ATOM      7  O   UNL     1      14.338  29.001  21.139  1.00  0.00    -0.338 OA
BRANCH   7   8
ATOM      8  C   UNL     1      14.273  29.079  19.849  1.00  0.00     0.199 C 
BRANCH   8   9
ATOM      9  C   UNL     1      15.307  28.894  18.829  1.00  0.00     0.179 C 
ATOM     10  C   UNL     1      16.473  29.649  17.004  1.00  0.00     0.282 C 
ATOM     11  O   UNL     1      15.779  30.037  18.175  1.00  0.00    -0.341 OA
ATOM     12  C   UNL     1      17.824  29.169  17.456  1.00  0.00     0.202 C 
ATOM     13  C   UNL     1      17.710  28.168  18.553  1.00  0.00     0.179 C 
ATOM     14  C   UNL     1      16.320  27.823  19.010  1.00  0.00     0.177 C 
BRANCH  10  15
ATOM     15  O   UNL     1      16.527  30.750  16.202  1.00  0.00    -0.341 OA
BRANCH  15  16
ATOM     16  C   UNL     1      15.919  30.690  14.985  1.00  0.00     0.184 C 
ATOM     17  C   UNL     1      15.429  29.352  14.556  1.00  0.00     0.178 C 
ATOM     18  O   UNL     1      15.879  29.116  13.259  1.00  0.00    -0.341 OA
ATOM     19  C   UNL     1      17.292  29.041  13.350  1.00  0.00     0.281 C 
ATOM     20  C   UNL     1      16.736  31.337  13.877  1.00  0.00     0.180 C 
ATOM     21  C   UNL     1      17.866  30.429  13.433  1.00  0.00     0.202 C 
BRANCH  17  22
ATOM     22  C   UNL     1      13.904  29.286  14.498  1.00  0.00     0.191 C 
BRANCH  22  23
ATOM     23  O   UNL     1      13.477  27.963  14.374  1.00  0.00    -0.394 OA
ATOM     24  H   UNL     1      13.741  27.560  13.516  1.00  0.00     0.210 HD
ENDBRANCH  22  23
ENDBRANCH  17  22
BRANCH  19  25
ATOM     25  O   UNL     1      17.706  28.340  12.220  1.00  0.00    -0.350 OA
BRANCH  25  26
ATOM     26  C   UNL     1      17.633  29.125  11.069  1.00  0.00     0.169 C 
BRANCH  26  27
ATOM     27  C   UNL     1      18.730  28.665  10.125  1.00  0.00     0.119 C 
BRANCH  27  28
ATOM     28  N   UNL     1      19.999  28.909  10.763  1.00  0.00    -0.092 NA
ATOM     29  N   UNL     1      20.482  30.043  10.835  1.00  0.00     0.001 N 
ATOM     30  N   UNL     1      21.040  31.097  10.467  1.00  0.00    -0.003 NA
ENDBRANCH  27  28
ENDBRANCH  26  27
ENDBRANCH  25  26
ENDBRANCH  19  25
BRANCH  20  31
ATOM     31  O   UNL     1      15.949  31.560  12.745  1.00  0.00    -0.387 OA
ATOM     32  H   UNL     1      15.001  31.471  13.042  1.00  0.00     0.211 HD
ENDBRANCH  20  31
BRANCH  21  33
ATOM     33  O   UNL     1      18.984  30.532  14.220  1.00  0.00    -0.385 OA
ATOM     34  H   UNL     1      18.919  29.897  14.971  1.00  0.00     0.211 HD
ENDBRANCH  21  33
ENDBRANCH  15  16
ENDBRANCH  10  15
BRANCH  12  35
ATOM     35  O   UNL     1      18.514  28.534  16.412  1.00  0.00    -0.385 OA
ATOM     36  H   UNL     1      18.014  27.712  16.204  1.00  0.00     0.211 HD
ENDBRANCH  12  35
BRANCH  13  37
ATOM     37  O   UNL     1      18.429  28.628  19.665  1.00  0.00    -0.387 OA
ATOM     38  H   UNL     1      18.001  28.387  20.511  1.00  0.00     0.211 HD
ENDBRANCH  13  37
BRANCH  14  39
ATOM     39  O   UNL     1      16.429  27.393  20.324  1.00  0.00    -0.387 OA
ATOM     40  H   UNL     1      15.624  27.037  20.727  1.00  0.00     0.211 HD
ENDBRANCH  14  39
ENDBRANCH   8   9
ENDBRANCH   7   8
ENDBRANCH   1   7
BRANCH   1  41
ATOM     41  C   UNL     1      15.908  29.480  22.836  1.00  0.00     0.364 C 
ATOM     42  O   UNL     1      15.926  29.168  24.049  1.00  0.00    -0.246 OA
BRANCH  41  43
ATOM     43  O   UNL     1      17.135  29.415  22.197  1.00  0.00    -0.477 OA
ATOM     44  H   UNL     1      17.889  30.070  22.410  1.00  0.00     0.296 HD
ENDBRANCH  41  43
ENDBRANCH   1  41
BRANCH   3  45
ATOM     45  O   UNL     1      13.032  32.279  24.257  1.00  0.00    -0.391 OA
ATOM     46  H   UNL     1      12.263  31.684  24.351  1.00  0.00     0.211 HD
ENDBRANCH   3  45
BRANCH   5  47
ATOM     47  C   UNL     1      16.266  33.080  21.019  1.00  0.00     0.176 C 
BRANCH  47  48
ATOM     48  O   UNL     1      15.272  33.150  20.054  1.00  0.00    -0.388 OA
ATOM     49  H   UNL     1      14.773  32.322  19.945  1.00  0.00     0.211 HD
ENDBRANCH  47  48
BRANCH  47  50
ATOM     50  C   UNL     1      17.580  32.841  20.361  1.00  0.00     0.165 C 
BRANCH  50  51
ATOM     51  O   UNL     1      17.719  31.510  19.931  1.00  0.00    -0.388 OA
ATOM     52  H   UNL     1      17.857  31.480  18.950  1.00  0.00     0.211 HD
ENDBRANCH  50  51
BRANCH  50  53
ATOM     53  C   UNL     1      18.709  33.071  21.332  1.00  0.00     0.154 C 
BRANCH  53  54
ATOM     54  N   UNL     1      19.279  31.838  21.744  1.00  0.00    -0.319 N 
ATOM     55  C   UNL     1      19.372  31.415  23.086  1.00  0.00     0.407 C 
ATOM     56  H   UNL     1      19.660  31.197  20.987  1.00  0.00     0.167 HD
ATOM     57  O   UNL     1      18.940  32.125  24.029  1.00  0.00    -0.225 OA
BRANCH  55  58
ATOM     58  O   UNL     1      19.951  30.185  23.425  1.00  0.00    -0.443 OA
BRANCH  58  59
ATOM     59  C   UNL     1      21.119  29.722  22.803  1.00  0.00     0.294 C 
BRANCH  59  60
ATOM     60  C   UNL     1      21.073  28.296  22.406  1.00  0.00     0.120 A 
ATOM     61  C   UNL     1      21.573  27.249  23.195  1.00  0.00     0.138 A 
ATOM     62  N   UNL     1      20.590  27.715  21.304  1.00  0.00    -0.132 NA
ATOM     63  N   UNL     1      21.371  26.109  22.543  1.00  0.00    -0.248 N 
ATOM     64  N   UNL     1      20.770  26.415  21.389  1.00  0.00    -0.067 NA
BRANCH  63  65
ATOM     65  C   UNL     1      21.699  24.741  22.945  1.00  0.00     0.182 C 
BRANCH  65  66
ATOM     66  C   UNL     1      22.587  24.669  24.124  1.00  0.00    -0.012 A 
ATOM     67  C   UNL     1      21.976  24.691  25.389  1.00  0.00     0.007 A 
ATOM     68  C   UNL     1      23.953  24.610  24.061  1.00  0.00     0.023 A 
ATOM     69  C   UNL     1      22.758  24.656  26.502  1.00  0.00     0.000 A 
ATOM     70  C   UNL     1      24.736  24.577  25.204  1.00  0.00     0.016 A 
ATOM     71  Br  UNL     1      24.839  24.517  22.383  1.00  0.00    -0.050 Br
ATOM     72  C   UNL     1      24.124  24.600  26.429  1.00  0.00     0.001 A 
ENDBRANCH  65  66
ENDBRANCH  63  65
ENDBRANCH  59  60
ENDBRANCH  58  59
ENDBRANCH  55  58
ENDBRANCH  53  54
ENDBRANCH  50  53
ENDBRANCH  47  50
ENDBRANCH   5  47
BRANCH   4  73
ATOM     73  N   UNL     1      15.972  33.109  24.094  1.00  0.00    -0.348 N 
ATOM     74  C   UNL     1      15.708  34.345  24.757  1.00  0.00     0.217 C 
ATOM     75  H   UNL     1      16.861  32.645  24.377  1.00  0.00     0.163 HD
ATOM     76  C   UNL     1      16.667  34.884  25.772  1.00  0.00     0.114 C 
ATOM     77  O   UNL     1      14.668  34.953  24.469  1.00  0.00    -0.275 OA
ENDBRANCH   4  73
TORSDOF 31
