REMARK VINA RESULT:    -6.481      5.159     12.075
REMARK INTER + INTRA:         -20.970
REMARK INTER:                 -15.613
REMARK INTRA:                  -5.357
REMARK UNBOUND:                -5.017
REMARK SMILES CC(=O)N[C@@H]1[C@@H](O)C[C@](OC[C@H]2O[C@@H](O[C@H]3[C@H](O)[C@@H](O)[C@H](OCCN=[N+]=[N-])O[C@@H]3CO)[C@H](O)[C@@H](O)[C@H]2O)(C(=O)O)O[C@H]1C(O)[C@H](O)CNC(=O)OCc1cn(C2CCCCC2)nn1
REMARK SMILES IDX 9 1 8 2 6 3 5 4 42 5 41 6 10 7 11 8 12 9 14 10 13 11 32 12
REMARK SMILES IDX 34 13 36 14 15 15 16 16 29 17 28 18 21 19 17 20 19 21 30 22
REMARK SMILES IDX 31 23 22 25 23 26 24 27 25 28 26 29 27 30 18 31 20 33 33 35
REMARK SMILES IDX 35 37 37 39 38 41 39 42 40 43 7 45 43 47 44 48 45 50 46 51
REMARK SMILES IDX 47 53 48 54 49 55 50 57 51 58 52 59 53 60 54 61 63 62 55 63
REMARK SMILES IDX 62 64 56 65 57 66 61 67 58 68 60 69 59 70 4 71 2 72 1 74
REMARK SMILES IDX 3 75
REMARK H PARENT 31 24 18 32 20 34 33 36 35 38 37 40 40 44 7 46 44 49 46 52
REMARK H PARENT 48 56 4 73
REMARK Flexibility Score: inf
ROOT
ATOM      1  C   UNL     1      22.572  25.846  23.261  1.00  0.00     0.272 C 
ATOM      2  C   UNL     1      23.227  24.439  23.526  1.00  0.00     0.113 C 
ATOM      3  C   UNL     1      24.716  24.591  23.589  1.00  0.00     0.145 C 
ATOM      4  C   UNL     1      25.247  25.240  22.339  1.00  0.00     0.142 C 
ATOM      5  C   UNL     1      24.367  26.314  21.803  1.00  0.00     0.178 C 
ATOM      6  O   UNL     1      23.108  26.428  22.175  1.00  0.00    -0.332 OA
ENDROOT
BRANCH   1   7
ATOM      7  O   UNL     1      22.802  26.500  24.390  1.00  0.00    -0.338 OA
BRANCH   7   8
ATOM      8  C   UNL     1      22.123  26.749  25.459  1.00  0.00     0.199 C 
BRANCH   8   9
ATOM      9  C   UNL     1      22.278  25.941  26.737  1.00  0.00     0.179 C 
ATOM     10  C   UNL     1      24.057  26.245  28.234  1.00  0.00     0.282 C 
ATOM     11  O   UNL     1      23.576  25.695  27.051  1.00  0.00    -0.341 OA
ATOM     12  C   UNL     1      23.178  25.851  29.360  1.00  0.00     0.202 C 
ATOM     13  C   UNL     1      21.712  26.104  29.109  1.00  0.00     0.179 C 
ATOM     14  C   UNL     1      21.532  26.754  27.790  1.00  0.00     0.177 C 
BRANCH  10  15
ATOM     15  O   UNL     1      24.305  27.548  28.007  1.00  0.00    -0.341 OA
BRANCH  15  16
ATOM     16  C   UNL     1      25.565  28.038  28.117  1.00  0.00     0.184 C 
ATOM     17  C   UNL     1      25.475  29.426  28.717  1.00  0.00     0.178 C 
ATOM     18  O   UNL     1      26.703  29.901  29.135  1.00  0.00    -0.341 OA
ATOM     19  C   UNL     1      27.776  29.370  28.470  1.00  0.00     0.281 C 
ATOM     20  C   UNL     1      26.269  28.231  26.791  1.00  0.00     0.180 C 
ATOM     21  C   UNL     1      27.480  29.100  27.041  1.00  0.00     0.202 C 
BRANCH  17  22
ATOM     22  C   UNL     1      24.405  29.562  29.762  1.00  0.00     0.191 C 
BRANCH  22  23
ATOM     23  O   UNL     1      24.711  28.676  30.795  1.00  0.00    -0.394 OA
ATOM     24  H   UNL     1      25.680  28.509  30.868  1.00  0.00     0.210 HD
ENDBRANCH  22  23
ENDBRANCH  17  22
BRANCH  19  25
ATOM     25  O   UNL     1      28.297  28.332  29.195  1.00  0.00    -0.350 OA
BRANCH  25  26
ATOM     26  C   UNL     1      29.216  27.555  28.508  1.00  0.00     0.169 C 
BRANCH  26  27
ATOM     27  C   UNL     1      29.504  26.230  29.160  1.00  0.00     0.119 C 
BRANCH  27  28
ATOM     28  N   UNL     1      28.240  25.595  29.474  1.00  0.00    -0.092 NA
ATOM     29  N   UNL     1      27.960  25.500  30.676  1.00  0.00     0.001 N 
ATOM     30  N   UNL     1      27.815  24.886  31.749  1.00  0.00    -0.003 NA
ENDBRANCH  27  28
ENDBRANCH  26  27
ENDBRANCH  25  26
ENDBRANCH  19  25
BRANCH  20  31
ATOM     31  O   UNL     1      26.688  27.059  26.210  1.00  0.00    -0.387 OA
ATOM     32  H   UNL     1      26.173  26.817  25.402  1.00  0.00     0.211 HD
ENDBRANCH  20  31
BRANCH  21  33
ATOM     33  O   UNL     1      27.191  30.350  26.440  1.00  0.00    -0.385 OA
ATOM     34  H   UNL     1      27.355  30.312  25.466  1.00  0.00     0.211 HD
ENDBRANCH  21  33
ENDBRANCH  15  16
ENDBRANCH  10  15
BRANCH  12  35
ATOM     35  O   UNL     1      23.312  24.443  29.486  1.00  0.00    -0.385 OA
ATOM     36  H   UNL     1      23.070  24.137  30.388  1.00  0.00     0.211 HD
ENDBRANCH  12  35
BRANCH  13  37
ATOM     37  O   UNL     1      21.157  26.911  30.122  1.00  0.00    -0.387 OA
ATOM     38  H   UNL     1      21.487  26.600  30.980  1.00  0.00     0.211 HD
ENDBRANCH  13  37
BRANCH  14  39
ATOM     39  O   UNL     1      21.773  28.098  27.722  1.00  0.00    -0.387 OA
ATOM     40  H   UNL     1      20.922  28.554  27.522  1.00  0.00     0.211 HD
ENDBRANCH  14  39
ENDBRANCH   8   9
ENDBRANCH   7   8
ENDBRANCH   1   7
BRANCH   1  41
ATOM     41  C   UNL     1      21.152  25.483  22.919  1.00  0.00     0.364 C 
ATOM     42  O   UNL     1      20.544  25.894  21.937  1.00  0.00    -0.246 OA
BRANCH  41  43
ATOM     43  O   UNL     1      20.439  24.609  23.763  1.00  0.00    -0.477 OA
ATOM     44  H   UNL     1      20.883  24.211  24.575  1.00  0.00     0.296 HD
ENDBRANCH  41  43
ENDBRANCH   1  41
BRANCH   3  45
ATOM     45  O   UNL     1      25.113  25.262  24.739  1.00  0.00    -0.391 OA
ATOM     46  H   UNL     1      24.384  25.157  25.416  1.00  0.00     0.211 HD
ENDBRANCH   3  45
BRANCH   5  47
ATOM     47  C   UNL     1      25.034  27.705  22.029  1.00  0.00     0.176 C 
BRANCH  47  48
ATOM     48  O   UNL     1      26.363  27.641  21.568  1.00  0.00    -0.388 OA
ATOM     49  H   UNL     1      26.951  28.235  22.076  1.00  0.00     0.211 HD
ENDBRANCH  47  48
BRANCH  47  50
ATOM     50  C   UNL     1      24.265  28.800  21.374  1.00  0.00     0.165 C 
BRANCH  50  51
ATOM     51  O   UNL     1      23.281  29.211  22.304  1.00  0.00    -0.388 OA
ATOM     52  H   UNL     1      22.591  28.530  22.424  1.00  0.00     0.211 HD
ENDBRANCH  50  51
BRANCH  50  53
ATOM     53  C   UNL     1      23.547  28.462  20.121  1.00  0.00     0.154 C 
BRANCH  53  54
ATOM     54  N   UNL     1      22.111  28.544  20.179  1.00  0.00    -0.319 N 
ATOM     55  C   UNL     1      21.255  27.894  19.249  1.00  0.00     0.407 C 
ATOM     56  H   UNL     1      21.670  29.098  20.934  1.00  0.00     0.167 HD
ATOM     57  O   UNL     1      21.745  27.206  18.319  1.00  0.00    -0.225 OA
BRANCH  55  58
ATOM     58  O   UNL     1      19.894  27.989  19.327  1.00  0.00    -0.443 OA
BRANCH  58  59
ATOM     59  C   UNL     1      19.125  29.166  19.254  1.00  0.00     0.294 C 
BRANCH  59  60
ATOM     60  C   UNL     1      17.806  28.915  19.874  1.00  0.00     0.120 A 
ATOM     61  C   UNL     1      17.086  29.887  20.507  1.00  0.00     0.138 A 
ATOM     62  N   UNL     1      17.096  27.784  19.949  1.00  0.00    -0.132 NA
ATOM     63  N   UNL     1      15.938  29.336  20.963  1.00  0.00    -0.249 N 
ATOM     64  N   UNL     1      15.972  28.053  20.608  1.00  0.00    -0.067 NA
BRANCH  63  65
ATOM     65  C   UNL     1      14.893  30.022  21.696  1.00  0.00     0.109 C 
ATOM     66  C   UNL     1      13.709  29.060  21.726  1.00  0.00     0.027 C 
ATOM     67  C   UNL     1      14.470  31.275  20.963  1.00  0.00     0.027 C 
ATOM     68  C   UNL     1      12.590  29.677  22.565  1.00  0.00     0.002 C 
ATOM     69  C   UNL     1      12.972  31.343  20.743  1.00  0.00     0.002 C 
ATOM     70  C   UNL     1      12.240  31.021  22.011  1.00  0.00     0.000 C 
ENDBRANCH  63  65
ENDBRANCH  59  60
ENDBRANCH  58  59
ENDBRANCH  55  58
ENDBRANCH  53  54
ENDBRANCH  50  53
ENDBRANCH  47  50
ENDBRANCH   5  47
BRANCH   4  71
ATOM     71  N   UNL     1      25.650  24.266  21.358  1.00  0.00    -0.348 N 
ATOM     72  C   UNL     1      26.892  24.258  20.704  1.00  0.00     0.217 C 
ATOM     73  H   UNL     1      24.994  23.470  21.070  1.00  0.00     0.163 HD
ATOM     74  C   UNL     1      27.253  23.200  19.699  1.00  0.00     0.114 C 
ATOM     75  O   UNL     1      27.744  25.119  20.925  1.00  0.00    -0.275 OA
ENDBRANCH   4  71
TORSDOF 30
