REMARK VINA RESULT:    -5.767     18.212     22.934
REMARK INTER + INTRA:         -22.028
REMARK INTER:                 -13.251
REMARK INTRA:                  -8.777
REMARK UNBOUND:                -7.496
REMARK SMILES CC(=O)N[C@@H]1[C@@H](O)C[C@](OC[C@H]2O[C@@H](O[C@H]3[C@H](O)[C@@H](O)[C@H](OCCN=[N+]=[N-])O[C@@H]3CO)[C@H](O)[C@@H](O)[C@H]2O)(C(=O)O)O[C@H]1C(O)[C@H](O)CNC(=O)OCc1cn(-c2ccccc2C(N)=O)nn1
REMARK SMILES IDX 9 1 8 2 6 3 5 4 42 5 41 6 10 7 11 8 12 9 14 10 13 11 32 12
REMARK SMILES IDX 34 13 36 14 15 15 16 16 29 17 28 18 21 19 17 20 19 21 30 22
REMARK SMILES IDX 31 23 22 25 23 26 24 27 25 28 26 29 27 30 18 31 20 33 33 35
REMARK SMILES IDX 35 37 37 39 38 41 39 42 40 43 7 45 43 47 44 48 45 50 46 51
REMARK SMILES IDX 47 53 48 54 49 55 50 57 51 58 52 59 53 60 54 61 66 62 55 63
REMARK SMILES IDX 65 64 56 65 61 66 57 67 60 68 58 69 59 70 62 71 64 72 63 73
REMARK SMILES IDX 4 76 2 77 1 79 3 80
REMARK H PARENT 31 24 18 32 20 34 33 36 35 38 37 40 40 44 7 46 44 49 46 52
REMARK H PARENT 48 56 63 74 63 75 4 78
REMARK Flexibility Score: inf
ROOT
ATOM      1  C   UNL     1       3.911  21.428  32.222  1.00  0.00     0.272 C 
ATOM      2  C   UNL     1       3.535  20.665  30.919  1.00  0.00     0.113 C 
ATOM      3  C   UNL     1       2.100  20.259  31.099  1.00  0.00     0.145 C 
ATOM      4  C   UNL     1       2.011  19.182  32.107  1.00  0.00     0.142 C 
ATOM      5  C   UNL     1       3.125  19.453  33.134  1.00  0.00     0.178 C 
ATOM      6  O   UNL     1       3.304  20.813  33.304  1.00  0.00    -0.332 OA
ENDROOT
BRANCH   1   7
ATOM      7  O   UNL     1       3.381  22.689  32.025  1.00  0.00    -0.338 OA
BRANCH   7   8
ATOM      8  C   UNL     1       3.055  23.360  33.166  1.00  0.00     0.199 C 
BRANCH   8   9
ATOM      9  C   UNL     1       3.597  24.778  33.189  1.00  0.00     0.179 C 
ATOM     10  C   UNL     1       5.046  26.073  34.476  1.00  0.00     0.282 C 
ATOM     11  O   UNL     1       4.518  24.814  34.233  1.00  0.00    -0.341 OA
ATOM     12  C   UNL     1       4.672  27.125  33.500  1.00  0.00     0.202 C 
ATOM     13  C   UNL     1       4.575  26.685  32.069  1.00  0.00     0.179 C 
ATOM     14  C   UNL     1       4.309  25.178  31.938  1.00  0.00     0.177 C 
BRANCH  10  15
ATOM     15  O   UNL     1       6.420  25.931  34.525  1.00  0.00    -0.341 OA
BRANCH  15  16
ATOM     16  C   UNL     1       6.831  24.758  35.134  1.00  0.00     0.184 C 
ATOM     17  C   UNL     1       7.022  25.035  36.609  1.00  0.00     0.178 C 
ATOM     18  O   UNL     1       8.308  25.299  36.935  1.00  0.00    -0.341 OA
ATOM     19  C   UNL     1       9.154  24.266  36.758  1.00  0.00     0.281 C 
ATOM     20  C   UNL     1       8.175  24.397  34.509  1.00  0.00     0.180 C 
ATOM     21  C   UNL     1       9.022  23.609  35.443  1.00  0.00     0.202 C 
BRANCH  17  22
ATOM     22  C   UNL     1       6.488  23.887  37.421  1.00  0.00     0.191 C 
BRANCH  22  23
ATOM     23  O   UNL     1       5.319  23.360  36.862  1.00  0.00    -0.394 OA
ATOM     24  H   UNL     1       4.692  23.214  37.634  1.00  0.00     0.210 HD
ENDBRANCH  22  23
ENDBRANCH  17  22
BRANCH  19  25
ATOM     25  O   UNL     1       9.174  23.357  37.826  1.00  0.00    -0.350 OA
BRANCH  25  26
ATOM     26  C   UNL     1       9.700  23.869  38.985  1.00  0.00     0.169 C 
BRANCH  26  27
ATOM     27  C   UNL     1       9.207  23.098  40.164  1.00  0.00     0.119 C 
BRANCH  27  28
ATOM     28  N   UNL     1       9.203  21.691  39.852  1.00  0.00    -0.092 NA
ATOM     29  N   UNL     1       9.841  20.860  40.510  1.00  0.00     0.001 N 
ATOM     30  N   UNL     1      10.378  20.208  41.410  1.00  0.00    -0.003 NA
ENDBRANCH  27  28
ENDBRANCH  26  27
ENDBRANCH  25  26
ENDBRANCH  19  25
BRANCH  20  31
ATOM     31  O   UNL     1       7.976  23.664  33.343  1.00  0.00    -0.387 OA
ATOM     32  H   UNL     1       8.558  22.841  33.344  1.00  0.00     0.211 HD
ENDBRANCH  20  31
BRANCH  21  33
ATOM     33  O   UNL     1      10.308  23.500  34.858  1.00  0.00    -0.385 OA
ATOM     34  H   UNL     1      10.238  22.879  34.076  1.00  0.00     0.211 HD
ENDBRANCH  21  33
ENDBRANCH  15  16
ENDBRANCH  10  15
BRANCH  12  35
ATOM     35  O   UNL     1       3.520  27.839  33.895  1.00  0.00    -0.385 OA
ATOM     36  H   UNL     1       3.667  28.774  33.631  1.00  0.00     0.211 HD
ENDBRANCH  12  35
BRANCH  13  37
ATOM     37  O   UNL     1       5.767  26.942  31.391  1.00  0.00    -0.387 OA
ATOM     38  H   UNL     1       5.868  27.920  31.180  1.00  0.00     0.211 HD
ENDBRANCH  13  37
BRANCH  14  39
ATOM     39  O   UNL     1       5.546  24.508  31.907  1.00  0.00    -0.387 OA
ATOM     40  H   UNL     1       5.684  23.901  32.651  1.00  0.00     0.211 HD
ENDBRANCH  14  39
ENDBRANCH   8   9
ENDBRANCH   7   8
ENDBRANCH   1   7
BRANCH   1  41
ATOM     41  C   UNL     1       5.366  21.413  32.387  1.00  0.00     0.364 C 
ATOM     42  O   UNL     1       5.902  21.853  33.462  1.00  0.00    -0.246 OA
BRANCH  41  43
ATOM     43  O   UNL     1       6.186  20.917  31.369  1.00  0.00    -0.477 OA
ATOM     44  H   UNL     1       6.035  21.305  30.442  1.00  0.00     0.296 HD
ENDBRANCH  41  43
ENDBRANCH   1  41
BRANCH   3  45
ATOM     45  O   UNL     1       1.444  21.386  31.656  1.00  0.00    -0.391 OA
ATOM     46  H   UNL     1       2.114  22.102  31.805  1.00  0.00     0.211 HD
ENDBRANCH   3  45
BRANCH   5  47
ATOM     47  C   UNL     1       2.869  18.683  34.397  1.00  0.00     0.176 C 
BRANCH  47  48
ATOM     48  O   UNL     1       3.889  19.045  35.299  1.00  0.00    -0.388 OA
ATOM     49  H   UNL     1       3.560  19.761  35.908  1.00  0.00     0.211 HD
ENDBRANCH  47  48
BRANCH  47  50
ATOM     50  C   UNL     1       1.573  19.143  35.072  1.00  0.00     0.165 C 
BRANCH  50  51
ATOM     51  O   UNL     1       1.882  20.172  35.976  1.00  0.00    -0.388 OA
ATOM     52  H   UNL     1       2.426  20.825  35.461  1.00  0.00     0.211 HD
ENDBRANCH  50  51
BRANCH  50  53
ATOM     53  C   UNL     1       0.895  18.038  35.808  1.00  0.00     0.154 C 
BRANCH  53  54
ATOM     54  N   UNL     1       1.293  18.003  37.189  1.00  0.00    -0.319 N 
ATOM     55  C   UNL     1       2.116  16.996  37.753  1.00  0.00     0.407 C 
ATOM     56  H   UNL     1       0.942  18.784  37.815  1.00  0.00     0.167 HD
ATOM     57  O   UNL     1       2.608  16.042  37.148  1.00  0.00    -0.225 OA
BRANCH  55  58
ATOM     58  O   UNL     1       2.424  17.057  39.133  1.00  0.00    -0.443 OA
BRANCH  58  59
ATOM     59  C   UNL     1       3.670  17.619  39.551  1.00  0.00     0.294 C 
BRANCH  59  60
ATOM     60  C   UNL     1       3.738  19.053  39.219  1.00  0.00     0.121 A 
ATOM     61  C   UNL     1       3.488  20.134  40.030  1.00  0.00     0.144 A 
ATOM     62  N   UNL     1       4.064  19.578  38.024  1.00  0.00    -0.131 NA
ATOM     63  N   UNL     1       3.662  21.276  39.328  1.00  0.00    -0.220 N 
ATOM     64  N   UNL     1       4.016  20.892  38.098  1.00  0.00    -0.062 NA
BRANCH  63  65
ATOM     65  C   UNL     1       3.509  22.618  39.753  1.00  0.00     0.079 A 
ATOM     66  C   UNL     1       2.624  23.424  39.084  1.00  0.00     0.065 A 
ATOM     67  C   UNL     1       4.231  23.120  40.818  1.00  0.00     0.029 A 
ATOM     68  C   UNL     1       2.435  24.751  39.458  1.00  0.00     0.016 A 
ATOM     69  C   UNL     1       4.054  24.450  41.208  1.00  0.00     0.002 A 
ATOM     70  C   UNL     1       3.162  25.243  40.522  1.00  0.00     0.001 A 
BRANCH  66  71
ATOM     71  C   UNL     1       1.871  22.890  37.968  1.00  0.00     0.250 C 
ATOM     72  O   UNL     1       0.816  22.249  38.201  1.00  0.00    -0.269 OA
ATOM     73  N   UNL     1       2.250  23.043  36.618  1.00  0.00    -0.366 N 
ATOM     74  H   UNL     1       1.614  23.513  35.956  1.00  0.00     0.159 HD
ATOM     75  H   UNL     1       3.161  22.684  36.298  1.00  0.00     0.159 HD
ENDBRANCH  66  71
ENDBRANCH  63  65
ENDBRANCH  59  60
ENDBRANCH  58  59
ENDBRANCH  55  58
ENDBRANCH  53  54
ENDBRANCH  50  53
ENDBRANCH  47  50
ENDBRANCH   5  47
BRANCH   4  76
ATOM     76  N   UNL     1       2.160  17.854  31.658  1.00  0.00    -0.348 N 
ATOM     77  C   UNL     1       1.154  16.866  31.809  1.00  0.00     0.217 C 
ATOM     78  H   UNL     1       3.054  17.576  31.189  1.00  0.00     0.163 HD
ATOM     79  C   UNL     1       1.274  15.464  31.352  1.00  0.00     0.114 C 
ATOM     80  O   UNL     1       0.096  17.275  32.386  1.00  0.00    -0.275 OA
ENDBRANCH   4  76
TORSDOF 31
