REMARK VINA RESULT:    -5.617      2.580      8.025
REMARK INTER + INTRA:         -22.304
REMARK INTER:                 -11.451
REMARK INTRA:                 -10.853
REMARK UNBOUND:                -8.149
REMARK SMILES CC(=O)N[C@@H]1[C@@H](O)C[C@](OC[C@H]2O[C@@H](O[C@H]3[C@H](O)[C@@H](O)[C@H](OCCN=[N+]=[N-])O[C@@H]3CO)[C@H](O)[C@@H](O)[C@H]2O)(C(=O)O)O[C@H]1C(O)[C@H](O)CNC(=O)OCc1cn(Cc2ccc3c(c2)OCO3)nn1
REMARK SMILES IDX 9 1 8 2 6 3 5 4 42 5 41 6 10 7 11 8 12 9 14 10 13 11 32 12
REMARK SMILES IDX 34 13 36 14 15 15 16 16 29 17 28 18 21 19 17 20 19 21 30 22
REMARK SMILES IDX 31 23 22 25 23 26 24 27 25 28 26 29 27 30 18 31 20 33 33 35
REMARK SMILES IDX 35 37 37 39 38 41 39 42 40 43 7 45 43 47 44 48 45 50 46 51
REMARK SMILES IDX 47 53 48 54 49 55 50 57 51 58 52 59 53 60 54 61 67 62 55 63
REMARK SMILES IDX 66 64 56 65 57 66 58 67 62 68 59 69 61 70 60 71 63 72 65 73
REMARK SMILES IDX 64 74 4 75 2 76 1 78 3 79
REMARK H PARENT 31 24 18 32 20 34 33 36 35 38 37 40 40 44 7 46 44 49 46 52
REMARK H PARENT 48 56 4 77
REMARK Flexibility Score: inf
ROOT
ATOM      1  C   UNL     1      20.149  30.915  22.741  1.00  0.00     0.272 C 
ATOM      2  C   UNL     1      18.640  30.770  22.751  1.00  0.00     0.113 C 
ATOM      3  C   UNL     1      18.185  30.203  21.440  1.00  0.00     0.145 C 
ATOM      4  C   UNL     1      18.578  31.246  20.360  1.00  0.00     0.142 C 
ATOM      5  C   UNL     1      20.034  31.505  20.506  1.00  0.00     0.178 C 
ATOM      6  O   UNL     1      20.662  30.732  21.480  1.00  0.00    -0.332 OA
ENDROOT
BRANCH   1   7
ATOM      7  O   UNL     1      20.734  30.037  23.668  1.00  0.00    -0.338 OA
BRANCH   7   8
ATOM      8  C   UNL     1      20.160  29.967  24.892  1.00  0.00     0.199 C 
BRANCH   8   9
ATOM      9  C   UNL     1      20.950  28.963  25.746  1.00  0.00     0.179 C 
ATOM     10  C   UNL     1      21.970  26.902  25.672  1.00  0.00     0.282 C 
ATOM     11  O   UNL     1      21.078  27.784  25.062  1.00  0.00    -0.341 OA
ATOM     12  C   UNL     1      23.373  27.509  25.590  1.00  0.00     0.202 C 
ATOM     13  C   UNL     1      23.389  28.995  25.587  1.00  0.00     0.179 C 
ATOM     14  C   UNL     1      22.200  29.552  26.293  1.00  0.00     0.177 C 
BRANCH  10  15
ATOM     15  O   UNL     1      21.999  25.754  24.986  1.00  0.00    -0.341 OA
BRANCH  15  16
ATOM     16  C   UNL     1      22.385  25.717  23.681  1.00  0.00     0.184 C 
ATOM     17  C   UNL     1      21.254  25.567  22.702  1.00  0.00     0.178 C 
ATOM     18  O   UNL     1      21.283  24.393  22.025  1.00  0.00    -0.341 OA
ATOM     19  C   UNL     1      22.425  24.167  21.230  1.00  0.00     0.281 C 
ATOM     20  C   UNL     1      23.389  24.609  23.496  1.00  0.00     0.180 C 
ATOM     21  C   UNL     1      23.679  24.482  22.014  1.00  0.00     0.202 C 
BRANCH  17  22
ATOM     22  C   UNL     1      21.285  26.724  21.734  1.00  0.00     0.191 C 
BRANCH  22  23
ATOM     23  O   UNL     1      21.961  27.832  22.311  1.00  0.00    -0.394 OA
ATOM     24  H   UNL     1      22.775  27.562  22.794  1.00  0.00     0.210 HD
ENDBRANCH  22  23
ENDBRANCH  17  22
BRANCH  19  25
ATOM     25  O   UNL     1      22.330  24.792  20.028  1.00  0.00    -0.350 OA
BRANCH  25  26
ATOM     26  C   UNL     1      23.165  24.577  19.014  1.00  0.00     0.169 C 
BRANCH  26  27
ATOM     27  C   UNL     1      23.521  25.760  18.171  1.00  0.00     0.119 C 
BRANCH  27  28
ATOM     28  N   UNL     1      24.633  26.529  18.603  1.00  0.00    -0.092 NA
ATOM     29  N   UNL     1      24.705  27.097  19.690  1.00  0.00     0.001 N 
ATOM     30  N   UNL     1      24.447  27.905  20.599  1.00  0.00    -0.003 NA
ENDBRANCH  27  28
ENDBRANCH  26  27
ENDBRANCH  25  26
ENDBRANCH  19  25
BRANCH  20  31
ATOM     31  O   UNL     1      24.562  24.978  24.150  1.00  0.00    -0.387 OA
ATOM     32  H   UNL     1      24.758  24.377  24.915  1.00  0.00     0.211 HD
ENDBRANCH  20  31
BRANCH  21  33
ATOM     33  O   UNL     1      24.604  23.449  21.889  1.00  0.00    -0.385 OA
ATOM     34  H   UNL     1      24.471  22.972  21.027  1.00  0.00     0.211 HD
ENDBRANCH  21  33
ENDBRANCH  15  16
ENDBRANCH  10  15
BRANCH  12  35
ATOM     35  O   UNL     1      24.176  27.004  26.612  1.00  0.00    -0.385 OA
ATOM     36  H   UNL     1      24.675  27.717  27.043  1.00  0.00     0.211 HD
ENDBRANCH  12  35
BRANCH  13  37
ATOM     37  O   UNL     1      23.552  29.547  24.327  1.00  0.00    -0.387 OA
ATOM     38  H   UNL     1      24.203  28.996  23.820  1.00  0.00     0.211 HD
ENDBRANCH  13  37
BRANCH  14  39
ATOM     39  O   UNL     1      22.223  30.945  26.134  1.00  0.00    -0.387 OA
ATOM     40  H   UNL     1      21.654  31.176  25.374  1.00  0.00     0.211 HD
ENDBRANCH  14  39
ENDBRANCH   8   9
ENDBRANCH   7   8
ENDBRANCH   1   7
BRANCH   1  41
ATOM     41  C   UNL     1      20.507  32.259  23.230  1.00  0.00     0.364 C 
ATOM     42  O   UNL     1      19.690  33.182  23.340  1.00  0.00    -0.246 OA
BRANCH  41  43
ATOM     43  O   UNL     1      21.819  32.565  23.604  1.00  0.00    -0.477 OA
ATOM     44  H   UNL     1      22.424  33.115  22.970  1.00  0.00     0.296 HD
ENDBRANCH  41  43
ENDBRANCH   1  41
BRANCH   3  45
ATOM     45  O   UNL     1      18.760  29.031  21.046  1.00  0.00    -0.391 OA
ATOM     46  H   UNL     1      18.243  28.532  20.365  1.00  0.00     0.211 HD
ENDBRANCH   3  45
BRANCH   5  47
ATOM     47  C   UNL     1      20.780  31.101  19.210  1.00  0.00     0.176 C 
BRANCH  47  48
ATOM     48  O   UNL     1      21.264  32.174  18.524  1.00  0.00    -0.388 OA
ATOM     49  H   UNL     1      22.067  31.915  18.013  1.00  0.00     0.211 HD
ENDBRANCH  47  48
BRANCH  47  50
ATOM     50  C   UNL     1      21.720  29.985  19.340  1.00  0.00     0.165 C 
BRANCH  50  51
ATOM     51  O   UNL     1      23.067  30.347  19.474  1.00  0.00    -0.388 OA
ATOM     52  H   UNL     1      23.621  29.555  19.697  1.00  0.00     0.211 HD
ENDBRANCH  50  51
BRANCH  50  53
ATOM     53  C   UNL     1      21.648  28.912  18.288  1.00  0.00     0.154 C 
BRANCH  53  54
ATOM     54  N   UNL     1      20.237  28.506  18.172  1.00  0.00    -0.319 N 
ATOM     55  C   UNL     1      19.593  28.381  16.908  1.00  0.00     0.407 C 
ATOM     56  H   UNL     1      19.721  28.314  19.037  1.00  0.00     0.167 HD
ATOM     57  O   UNL     1      20.285  28.631  15.885  1.00  0.00    -0.225 OA
BRANCH  55  58
ATOM     58  O   UNL     1      18.279  28.005  16.768  1.00  0.00    -0.443 OA
BRANCH  58  59
ATOM     59  C   UNL     1      17.233  28.919  17.002  1.00  0.00     0.294 C 
BRANCH  59  60
ATOM     60  C   UNL     1      16.597  28.586  18.297  1.00  0.00     0.120 A 
ATOM     61  C   UNL     1      15.471  29.162  18.875  1.00  0.00     0.138 A 
ATOM     62  N   UNL     1      16.994  27.654  19.187  1.00  0.00    -0.132 NA
ATOM     63  N   UNL     1      15.235  28.570  20.061  1.00  0.00    -0.248 N 
ATOM     64  N   UNL     1      16.168  27.667  20.224  1.00  0.00    -0.067 NA
BRANCH  63  65
ATOM     65  C   UNL     1      14.159  28.885  20.952  1.00  0.00     0.181 C 
BRANCH  65  66
ATOM     66  C   UNL     1      14.542  29.761  22.084  1.00  0.00    -0.023 A 
ATOM     67  C   UNL     1      14.872  29.220  23.287  1.00  0.00     0.010 A 
ATOM     68  C   UNL     1      14.563  31.151  21.920  1.00  0.00     0.056 A 
ATOM     69  C   UNL     1      15.221  30.050  24.322  1.00  0.00     0.051 A 
ATOM     70  C   UNL     1      14.908  31.990  22.943  1.00  0.00     0.166 A 
ATOM     71  C   UNL     1      15.238  31.408  24.154  1.00  0.00     0.165 A 
ATOM     72  O   UNL     1      15.029  33.355  23.119  1.00  0.00    -0.454 OA
ATOM     73  O   UNL     1      15.560  32.418  25.070  1.00  0.00    -0.454 OA
ATOM     74  C   UNL     1      15.781  33.585  24.308  1.00  0.00     0.468 C 
ENDBRANCH  65  66
ENDBRANCH  63  65
ENDBRANCH  59  60
ENDBRANCH  58  59
ENDBRANCH  55  58
ENDBRANCH  53  54
ENDBRANCH  50  53
ENDBRANCH  47  50
ENDBRANCH   5  47
BRANCH   4  75
ATOM     75  N   UNL     1      17.714  32.363  20.615  1.00  0.00    -0.348 N 
ATOM     76  C   UNL     1      16.886  32.838  19.543  1.00  0.00     0.217 C 
ATOM     77  H   UNL     1      17.608  32.885  21.504  1.00  0.00     0.163 HD
ATOM     78  C   UNL     1      15.974  34.009  19.781  1.00  0.00     0.114 C 
ATOM     79  O   UNL     1      16.922  32.282  18.420  1.00  0.00    -0.275 OA
ENDBRANCH   4  75
TORSDOF 31
