REMARK VINA RESULT:    -5.536      2.725      8.835
REMARK INTER + INTRA:         -21.139
REMARK INTER:                 -12.735
REMARK INTRA:                  -8.404
REMARK UNBOUND:                -6.864
REMARK SMILES CC(=O)N[C@@H]1[C@@H](O)C[C@](OC[C@H]2O[C@@H](O[C@H]3[C@H](O)[C@@H](O)[C@H](OCCN=[N+]=[N-])O[C@@H]3CO)[C@H](O)[C@@H](O)[C@H]2O)(C(=O)O)O[C@H]1C(O)[C@H](O)CNC(=O)OCc1cn(CCC2OCCO2)nn1
REMARK SMILES IDX 9 1 8 2 6 3 5 4 42 5 41 6 10 7 11 8 12 9 14 10 13 11 32 12
REMARK SMILES IDX 34 13 36 14 15 15 16 16 29 17 28 18 21 19 17 20 19 21 30 22
REMARK SMILES IDX 31 23 22 25 23 26 24 27 25 28 26 29 27 30 18 31 20 33 33 35
REMARK SMILES IDX 35 37 37 39 38 41 39 42 40 43 7 45 43 47 44 48 45 50 46 51
REMARK SMILES IDX 47 53 48 54 49 55 50 57 51 58 52 59 53 60 54 61 64 62 55 63
REMARK SMILES IDX 63 64 56 65 57 66 58 67 59 68 62 69 60 70 61 71 4 72 2 73
REMARK SMILES IDX 1 75 3 76
REMARK H PARENT 31 24 18 32 20 34 33 36 35 38 37 40 40 44 7 46 44 49 46 52
REMARK H PARENT 48 56 4 74
REMARK Flexibility Score: inf
ROOT
ATOM      1  C   UNL     1      14.217  30.462  21.765  1.00  0.00     0.272 C 
ATOM      2  C   UNL     1      12.841  29.912  22.290  1.00  0.00     0.113 C 
ATOM      3  C   UNL     1      12.867  29.715  23.746  1.00  0.00     0.145 C 
ATOM      4  C   UNL     1      13.185  31.028  24.434  1.00  0.00     0.142 C 
ATOM      5  C   UNL     1      13.894  31.983  23.535  1.00  0.00     0.178 C 
ATOM      6  O   UNL     1      14.689  31.466  22.574  1.00  0.00    -0.332 OA
ENDROOT
BRANCH   1   7
ATOM      7  O   UNL     1      13.896  30.939  20.562  1.00  0.00    -0.338 OA
BRANCH   7   8
ATOM      8  C   UNL     1      14.628  31.624  19.714  1.00  0.00     0.199 C 
BRANCH   8   9
ATOM      9  C   UNL     1      14.538  31.415  18.236  1.00  0.00     0.179 C 
ATOM     10  C   UNL     1      15.795  30.592  16.441  1.00  0.00     0.282 C 
ATOM     11  O   UNL     1      15.778  31.132  17.710  1.00  0.00    -0.341 OA
ATOM     12  C   UNL     1      14.516  30.659  15.690  1.00  0.00     0.202 C 
ATOM     13  C   UNL     1      13.316  30.235  16.491  1.00  0.00     0.179 C 
ATOM     14  C   UNL     1      13.686  30.157  17.934  1.00  0.00     0.177 C 
BRANCH  10  15
ATOM     15  O   UNL     1      16.389  29.332  16.509  1.00  0.00    -0.341 OA
BRANCH  15  16
ATOM     16  C   UNL     1      17.748  29.370  16.787  1.00  0.00     0.184 C 
ATOM     17  C   UNL     1      18.621  28.881  15.672  1.00  0.00     0.178 C 
ATOM     18  O   UNL     1      19.950  29.056  16.062  1.00  0.00    -0.341 OA
ATOM     19  C   UNL     1      20.329  28.234  17.114  1.00  0.00     0.281 C 
ATOM     20  C   UNL     1      18.045  28.411  17.974  1.00  0.00     0.180 C 
ATOM     21  C   UNL     1      19.505  28.675  18.320  1.00  0.00     0.202 C 
BRANCH  17  22
ATOM     22  C   UNL     1      18.433  29.771  14.456  1.00  0.00     0.191 C 
BRANCH  22  23
ATOM     23  O   UNL     1      19.226  29.184  13.440  1.00  0.00    -0.394 OA
ATOM     24  H   UNL     1      20.046  28.775  13.791  1.00  0.00     0.210 HD
ENDBRANCH  22  23
ENDBRANCH  17  22
BRANCH  19  25
ATOM     25  O   UNL     1      21.665  28.397  17.344  1.00  0.00    -0.350 OA
BRANCH  25  26
ATOM     26  C   UNL     1      22.507  27.645  16.575  1.00  0.00     0.169 C 
BRANCH  26  27
ATOM     27  C   UNL     1      22.764  26.247  17.092  1.00  0.00     0.119 C 
BRANCH  27  28
ATOM     28  N   UNL     1      22.511  26.187  18.520  1.00  0.00    -0.092 NA
ATOM     29  N   UNL     1      23.047  25.367  19.260  1.00  0.00     0.001 N 
ATOM     30  N   UNL     1      23.656  24.695  20.089  1.00  0.00    -0.003 NA
ENDBRANCH  27  28
ENDBRANCH  26  27
ENDBRANCH  25  26
ENDBRANCH  19  25
BRANCH  20  31
ATOM     31  O   UNL     1      17.236  28.757  19.028  1.00  0.00    -0.387 OA
ATOM     32  H   UNL     1      17.582  28.319  19.853  1.00  0.00     0.211 HD
ENDBRANCH  20  31
BRANCH  21  33
ATOM     33  O   UNL     1      19.800  27.940  19.449  1.00  0.00    -0.385 OA
ATOM     34  H   UNL     1      20.738  28.128  19.705  1.00  0.00     0.211 HD
ENDBRANCH  21  33
ENDBRANCH  15  16
ENDBRANCH  10  15
BRANCH  12  35
ATOM     35  O   UNL     1      14.344  31.971  15.181  1.00  0.00    -0.385 OA
ATOM     36  H   UNL     1      14.329  32.556  15.984  1.00  0.00     0.211 HD
ENDBRANCH  12  35
BRANCH  13  37
ATOM     37  O   UNL     1      12.758  29.051  16.009  1.00  0.00    -0.387 OA
ATOM     38  H   UNL     1      13.455  28.587  15.475  1.00  0.00     0.211 HD
ENDBRANCH  13  37
BRANCH  14  39
ATOM     39  O   UNL     1      14.416  29.037  18.273  1.00  0.00    -0.387 OA
ATOM     40  H   UNL     1      13.893  28.197  18.265  1.00  0.00     0.211 HD
ENDBRANCH  14  39
ENDBRANCH   8   9
ENDBRANCH   7   8
ENDBRANCH   1   7
BRANCH   1  41
ATOM     41  C   UNL     1      15.107  29.310  21.912  1.00  0.00     0.364 C 
ATOM     42  O   UNL     1      15.006  28.323  21.074  1.00  0.00    -0.246 OA
BRANCH  41  43
ATOM     43  O   UNL     1      16.091  29.103  22.852  1.00  0.00    -0.477 OA
ATOM     44  H   UNL     1      16.836  29.777  22.958  1.00  0.00     0.296 HD
ENDBRANCH  41  43
ENDBRANCH   1  41
BRANCH   3  45
ATOM     45  O   UNL     1      11.559  29.286  24.115  1.00  0.00    -0.391 OA
ATOM     46  H   UNL     1      11.108  30.094  24.511  1.00  0.00     0.211 HD
ENDBRANCH   3  45
BRANCH   5  47
ATOM     47  C   UNL     1      12.951  33.052  23.071  1.00  0.00     0.176 C 
BRANCH  47  48
ATOM     48  O   UNL     1      11.808  33.163  23.876  1.00  0.00    -0.388 OA
ATOM     49  H   UNL     1      10.985  32.914  23.362  1.00  0.00     0.211 HD
ENDBRANCH  47  48
BRANCH  47  50
ATOM     50  C   UNL     1      13.622  34.446  23.230  1.00  0.00     0.165 C 
BRANCH  50  51
ATOM     51  O   UNL     1      12.676  35.334  23.684  1.00  0.00    -0.388 OA
ATOM     52  H   UNL     1      11.947  34.921  24.182  1.00  0.00     0.211 HD
ENDBRANCH  50  51
BRANCH  50  53
ATOM     53  C   UNL     1      14.315  34.769  21.969  1.00  0.00     0.154 C 
BRANCH  53  54
ATOM     54  N   UNL     1      15.637  34.227  21.921  1.00  0.00    -0.319 N 
ATOM     55  C   UNL     1      16.478  34.284  20.811  1.00  0.00     0.407 C 
ATOM     56  H   UNL     1      15.985  33.757  22.794  1.00  0.00     0.167 HD
ATOM     57  O   UNL     1      16.114  34.818  19.751  1.00  0.00    -0.225 OA
BRANCH  55  58
ATOM     58  O   UNL     1      17.776  33.752  20.803  1.00  0.00    -0.443 OA
BRANCH  58  59
ATOM     59  C   UNL     1      18.397  33.326  22.002  1.00  0.00     0.294 C 
BRANCH  59  60
ATOM     60  C   UNL     1      18.696  31.875  22.008  1.00  0.00     0.120 A 
ATOM     61  C   UNL     1      19.670  31.262  22.803  1.00  0.00     0.138 A 
ATOM     62  N   UNL     1      18.149  30.872  21.304  1.00  0.00    -0.132 NA
ATOM     63  N   UNL     1      19.671  29.925  22.550  1.00  0.00    -0.252 N 
ATOM     64  N   UNL     1      18.745  29.721  21.643  1.00  0.00    -0.067 NA
BRANCH  63  65
ATOM     65  C   UNL     1      20.570  28.999  23.225  1.00  0.00     0.151 C 
BRANCH  65  66
ATOM     66  C   UNL     1      21.659  28.526  22.273  1.00  0.00     0.086 C 
BRANCH  66  67
ATOM     67  C   UNL     1      21.836  27.036  22.338  1.00  0.00     0.251 C 
ATOM     68  O   UNL     1      22.016  26.650  23.667  1.00  0.00    -0.350 OA
ATOM     69  O   UNL     1      20.737  26.329  21.892  1.00  0.00    -0.350 OA
ATOM     70  C   UNL     1      21.746  25.287  23.678  1.00  0.00     0.192 C 
ATOM     71  C   UNL     1      21.070  25.030  22.342  1.00  0.00     0.192 C 
ENDBRANCH  66  67
ENDBRANCH  65  66
ENDBRANCH  63  65
ENDBRANCH  59  60
ENDBRANCH  58  59
ENDBRANCH  55  58
ENDBRANCH  53  54
ENDBRANCH  50  53
ENDBRANCH  47  50
ENDBRANCH   5  47
BRANCH   4  72
ATOM     72  N   UNL     1      13.892  30.792  25.691  1.00  0.00    -0.348 N 
ATOM     73  C   UNL     1      13.746  31.600  26.822  1.00  0.00     0.217 C 
ATOM     74  H   UNL     1      14.545  29.955  25.711  1.00  0.00     0.163 HD
ATOM     75  C   UNL     1      14.508  31.291  28.076  1.00  0.00     0.114 C 
ATOM     76  O   UNL     1      12.958  32.581  26.743  1.00  0.00    -0.275 OA
ENDBRANCH   4  72
TORSDOF 32
