REMARK VINA RESULT:    -5.359      9.033     13.866
REMARK INTER + INTRA:         -23.689
REMARK INTER:                 -15.742
REMARK INTRA:                  -7.946
REMARK UNBOUND:                -9.245
REMARK SMILES CC(=O)N[C@@H]1[C@@H](O)C[C@](OC[C@H]2O[C@@H](O[C@H]3[C@H](O)[C@@H](O)[C@H](OCCN=[N+]=[N-])O[C@@H]3CO)[C@H](O)[C@@H](O)[C@H]2O)(C(=O)O)O[C@H]1C(O)[C@H](O)CNC(=O)OCc1cn([C@@H](C)C(=O)OCc2ccccc2)nn1
REMARK SMILES IDX 43 1 42 2 9 3 8 4 41 5 6 6 5 7 10 8 11 9 12 10 14 11 13 12
REMARK SMILES IDX 32 13 34 14 36 15 15 16 16 17 29 18 28 19 21 20 17 21 19 22
REMARK SMILES IDX 30 23 31 24 22 26 23 27 24 28 25 29 26 30 27 31 18 32 20 34
REMARK SMILES IDX 33 36 35 38 37 40 38 42 39 43 40 44 7 46 4 48 2 49 1 51 3 52
REMARK SMILES IDX 44 53 45 55 46 56 47 58 48 59 49 60 50 62 51 63 52 64 53 65
REMARK SMILES IDX 54 66 69 67 55 68 68 69 56 70 57 71 58 72 59 73 60 74 61 75
REMARK SMILES IDX 62 76 63 77 67 78 64 79 66 80 65 81
REMARK H PARENT 31 25 18 33 20 35 33 37 35 39 37 41 40 45 7 47 4 50 44 54
REMARK H PARENT 46 57 48 61
REMARK Flexibility Score: inf
ROOT
ATOM      1  C   UNL     1      16.091  32.326  19.559  1.00  0.00     0.176 C 
ENDROOT
BRANCH   1   2
ATOM      2  C   UNL     1      15.495  31.201  20.310  1.00  0.00     0.178 C 
ATOM      3  C   UNL     1      16.225  29.336  19.112  1.00  0.00     0.272 C 
ATOM      4  C   UNL     1      14.823  29.071  18.720  1.00  0.00     0.113 C 
ATOM      5  O   UNL     1      16.232  30.049  20.364  1.00  0.00    -0.332 OA
ATOM      6  C   UNL     1      13.969  30.314  18.630  1.00  0.00     0.145 C 
ATOM      7  C   UNL     1      14.043  31.023  19.948  1.00  0.00     0.142 C 
BRANCH   3   8
ATOM      8  O   UNL     1      17.041  30.001  18.335  1.00  0.00    -0.338 OA
BRANCH   8   9
ATOM      9  C   UNL     1      17.953  29.641  17.480  1.00  0.00     0.199 C 
BRANCH   9  10
ATOM     10  C   UNL     1      17.739  29.642  15.992  1.00  0.00     0.179 C 
ATOM     11  C   UNL     1      16.002  29.322  14.476  1.00  0.00     0.282 C 
ATOM     12  O   UNL     1      16.571  28.999  15.706  1.00  0.00    -0.341 OA
ATOM     13  C   UNL     1      16.991  29.867  13.510  1.00  0.00     0.202 C 
ATOM     14  C   UNL     1      17.581  31.157  14.010  1.00  0.00     0.179 C 
ATOM     15  C   UNL     1      17.710  31.101  15.490  1.00  0.00     0.177 C 
BRANCH  11  16
ATOM     16  O   UNL     1      14.897  30.086  14.734  1.00  0.00    -0.341 OA
BRANCH  16  17
ATOM     17  C   UNL     1      13.859  29.940  13.863  1.00  0.00     0.184 C 
ATOM     18  C   UNL     1      12.804  30.974  14.165  1.00  0.00     0.178 C 
ATOM     19  O   UNL     1      11.668  30.740  13.382  1.00  0.00    -0.341 OA
ATOM     20  C   UNL     1      10.942  29.751  14.092  1.00  0.00     0.281 C 
ATOM     21  C   UNL     1      13.188  28.581  13.965  1.00  0.00     0.180 C 
ATOM     22  C   UNL     1      11.807  28.602  14.505  1.00  0.00     0.202 C 
BRANCH  18  23
ATOM     23  C   UNL     1      13.276  32.393  14.054  1.00  0.00     0.191 C 
BRANCH  23  24
ATOM     24  O   UNL     1      14.100  32.628  15.159  1.00  0.00    -0.394 OA
ATOM     25  H   UNL     1      14.829  31.969  15.244  1.00  0.00     0.210 HD
ENDBRANCH  23  24
ENDBRANCH  18  23
BRANCH  20  26
ATOM     26  O   UNL     1       9.865  29.409  13.337  1.00  0.00    -0.350 OA
BRANCH  26  27
ATOM     27  C   UNL     1       9.731  29.940  12.097  1.00  0.00     0.169 C 
BRANCH  27  28
ATOM     28  C   UNL     1       9.647  29.007  10.943  1.00  0.00     0.119 C 
BRANCH  28  29
ATOM     29  N   UNL     1      10.626  29.137   9.924  1.00  0.00    -0.092 NA
ATOM     30  N   UNL     1      11.757  29.550  10.149  1.00  0.00     0.001 N 
ATOM     31  N   UNL     1      12.963  29.796  10.337  1.00  0.00    -0.003 NA
ENDBRANCH  28  29
ENDBRANCH  27  28
ENDBRANCH  26  27
ENDBRANCH  20  26
BRANCH  21  32
ATOM     32  O   UNL     1      13.179  27.924  12.730  1.00  0.00    -0.387 OA
ATOM     33  H   UNL     1      12.453  28.224  12.139  1.00  0.00     0.211 HD
ENDBRANCH  21  32
BRANCH  22  34
ATOM     34  O   UNL     1      11.849  28.422  15.892  1.00  0.00    -0.385 OA
ATOM     35  H   UNL     1      11.990  29.322  16.290  1.00  0.00     0.211 HD
ENDBRANCH  22  34
ENDBRANCH  16  17
ENDBRANCH  11  16
BRANCH  13  36
ATOM     36  O   UNL     1      18.000  28.894  13.315  1.00  0.00    -0.385 OA
ATOM     37  H   UNL     1      18.116  28.854  12.317  1.00  0.00     0.211 HD
ENDBRANCH  13  36
BRANCH  14  38
ATOM     38  O   UNL     1      16.805  32.205  13.558  1.00  0.00    -0.387 OA
ATOM     39  H   UNL     1      17.270  33.082  13.635  1.00  0.00     0.211 HD
ENDBRANCH  14  38
BRANCH  15  40
ATOM     40  O   UNL     1      16.735  31.843  16.142  1.00  0.00    -0.387 OA
ATOM     41  H   UNL     1      16.180  31.226  16.712  1.00  0.00     0.211 HD
ENDBRANCH  15  40
ENDBRANCH   9  10
ENDBRANCH   8   9
ENDBRANCH   3   8
BRANCH   3  42
ATOM     42  C   UNL     1      16.815  28.025  19.595  1.00  0.00     0.364 C 
ATOM     43  O   UNL     1      16.323  26.935  19.272  1.00  0.00    -0.246 OA
BRANCH  42  44
ATOM     44  O   UNL     1      17.936  28.012  20.422  1.00  0.00    -0.477 OA
ATOM     45  H   UNL     1      18.770  28.566  20.253  1.00  0.00     0.296 HD
ENDBRANCH  42  44
ENDBRANCH   3  42
BRANCH   6  46
ATOM     46  O   UNL     1      14.314  31.132  17.558  1.00  0.00    -0.391 OA
ATOM     47  H   UNL     1      13.486  31.578  17.265  1.00  0.00     0.211 HD
ENDBRANCH   6  46
BRANCH   7  48
ATOM     48  N   UNL     1      13.338  30.228  20.945  1.00  0.00    -0.348 N 
ATOM     49  C   UNL     1      12.721  30.904  22.043  1.00  0.00     0.217 C 
ATOM     50  H   UNL     1      13.258  29.192  20.907  1.00  0.00     0.163 HD
ATOM     51  C   UNL     1      11.999  30.089  23.066  1.00  0.00     0.114 C 
ATOM     52  O   UNL     1      12.790  32.160  22.136  1.00  0.00    -0.275 OA
ENDBRANCH   7  48
ENDBRANCH   1   2
BRANCH   1  53
ATOM     53  O   UNL     1      15.223  33.441  19.653  1.00  0.00    -0.388 OA
ATOM     54  H   UNL     1      15.273  33.989  18.822  1.00  0.00     0.211 HD
ENDBRANCH   1  53
BRANCH   1  55
ATOM     55  C   UNL     1      17.406  32.843  20.164  1.00  0.00     0.165 C 
BRANCH  55  56
ATOM     56  O   UNL     1      18.488  32.530  19.403  1.00  0.00    -0.388 OA
ATOM     57  H   UNL     1      18.248  31.901  18.682  1.00  0.00     0.211 HD
ENDBRANCH  55  56
BRANCH  55  58
ATOM     58  C   UNL     1      17.501  32.492  21.613  1.00  0.00     0.154 C 
BRANCH  58  59
ATOM     59  N   UNL     1      18.806  31.982  21.931  1.00  0.00    -0.319 N 
ATOM     60  C   UNL     1      19.093  30.705  22.466  1.00  0.00     0.407 C 
ATOM     61  H   UNL     1      19.673  32.587  21.765  1.00  0.00     0.167 HD
ATOM     62  O   UNL     1      18.193  29.904  22.726  1.00  0.00    -0.225 OA
BRANCH  60  63
ATOM     63  O   UNL     1      20.416  30.307  22.718  1.00  0.00    -0.443 OA
BRANCH  63  64
ATOM     64  C   UNL     1      20.813  28.960  22.664  1.00  0.00     0.294 C 
BRANCH  64  65
ATOM     65  C   UNL     1      21.063  28.509  24.053  1.00  0.00     0.120 A 
ATOM     66  C   UNL     1      22.238  28.568  24.768  1.00  0.00     0.139 A 
ATOM     67  N   UNL     1      20.155  27.947  24.858  1.00  0.00    -0.132 NA
ATOM     68  N   UNL     1      22.017  28.035  26.002  1.00  0.00    -0.238 N 
ATOM     69  N   UNL     1      20.749  27.669  26.028  1.00  0.00    -0.066 NA
BRANCH  68  70
ATOM     70  C   UNL     1      23.058  27.939  26.995  1.00  0.00     0.215 C 
ATOM     71  C   UNL     1      22.489  27.587  28.357  1.00  0.00     0.046 C 
BRANCH  70  72
ATOM     72  C   UNL     1      24.074  26.901  26.593  1.00  0.00     0.331 C 
ATOM     73  O   UNL     1      25.145  27.272  26.086  1.00  0.00    -0.250 OA
BRANCH  72  74
ATOM     74  O   UNL     1      23.838  25.559  26.778  1.00  0.00    -0.459 OA
BRANCH  74  75
ATOM     75  C   UNL     1      24.118  24.552  25.837  1.00  0.00     0.268 C 
BRANCH  75  76
ATOM     76  C   UNL     1      23.219  24.569  24.665  1.00  0.00    -0.011 A 
ATOM     77  C   UNL     1      23.689  24.572  23.377  1.00  0.00     0.007 A 
ATOM     78  C   UNL     1      21.858  24.585  24.845  1.00  0.00     0.007 A 
ATOM     79  C   UNL     1      22.855  24.590  22.283  1.00  0.00     0.000 A 
ATOM     80  C   UNL     1      20.985  24.604  23.781  1.00  0.00     0.000 A 
ATOM     81  C   UNL     1      21.499  24.607  22.490  1.00  0.00     0.000 A 
ENDBRANCH  75  76
ENDBRANCH  74  75
ENDBRANCH  72  74
ENDBRANCH  70  72
ENDBRANCH  68  70
ENDBRANCH  64  65
ENDBRANCH  63  64
ENDBRANCH  60  63
ENDBRANCH  58  59
ENDBRANCH  55  58
ENDBRANCH   1  55
TORSDOF 34
