REMARK VINA RESULT:    -4.784     14.602     19.286
REMARK INTER + INTRA:         -20.395
REMARK INTER:                 -11.055
REMARK INTRA:                  -9.339
REMARK UNBOUND:                -8.339
REMARK SMILES CC(=O)N[C@@H]1[C@@H](O)C[C@](OC[C@H]2O[C@@H](O[C@H]3[C@H](O)[C@@H](O)[C@H](OCCN=[N+]=[N-])O[C@@H]3CO)[C@H](O)[C@@H](O)[C@H]2O)(C(=O)O)O[C@H]1C(O)[C@H](O)CNC(=O)OCc1cn(Cc2ccccc2)nn1
REMARK SMILES IDX 9 1 8 2 6 3 5 4 42 5 41 6 10 7 11 8 12 9 14 10 13 11 32 12
REMARK SMILES IDX 34 13 36 14 15 15 16 16 29 17 28 18 21 19 17 20 19 21 30 22
REMARK SMILES IDX 31 23 22 25 23 26 24 27 25 28 26 29 27 30 18 31 20 33 33 35
REMARK SMILES IDX 35 37 37 39 38 41 39 42 40 43 7 45 43 47 44 48 45 50 46 51
REMARK SMILES IDX 47 53 48 54 49 55 50 57 51 58 52 59 53 60 54 61 64 62 55 63
REMARK SMILES IDX 63 64 56 65 57 66 58 67 62 68 59 69 61 70 60 71 4 72 2 73
REMARK SMILES IDX 1 75 3 76
REMARK H PARENT 31 24 18 32 20 34 33 36 35 38 37 40 40 44 7 46 44 49 46 52
REMARK H PARENT 48 56 4 74
REMARK Flexibility Score: inf
ROOT
ATOM      1  C   UNL     1      33.302  18.005  30.437  1.00  0.00     0.272 C 
ATOM      2  C   UNL     1      32.116  17.284  29.911  1.00  0.00     0.113 C 
ATOM      3  C   UNL     1      31.696  17.893  28.629  1.00  0.00     0.145 C 
ATOM      4  C   UNL     1      32.490  19.151  28.241  1.00  0.00     0.142 C 
ATOM      5  C   UNL     1      32.714  20.020  29.404  1.00  0.00     0.178 C 
ATOM      6  O   UNL     1      32.915  19.345  30.623  1.00  0.00    -0.332 OA
ENDROOT
BRANCH   1   7
ATOM      7  O   UNL     1      34.455  17.912  29.686  1.00  0.00    -0.338 OA
BRANCH   7   8
ATOM      8  C   UNL     1      34.990  16.639  29.789  1.00  0.00     0.199 C 
BRANCH   8   9
ATOM      9  C   UNL     1      35.496  16.118  28.463  1.00  0.00     0.179 C 
ATOM     10  C   UNL     1      34.898  16.134  26.207  1.00  0.00     0.282 C 
ATOM     11  O   UNL     1      34.491  15.971  27.533  1.00  0.00    -0.341 OA
ATOM     12  C   UNL     1      36.232  15.547  25.930  1.00  0.00     0.202 C 
ATOM     13  C   UNL     1      37.284  16.226  26.749  1.00  0.00     0.179 C 
ATOM     14  C   UNL     1      36.664  16.913  27.943  1.00  0.00     0.177 C 
BRANCH  10  15
ATOM     15  O   UNL     1      34.857  17.466  25.830  1.00  0.00    -0.341 OA
BRANCH  15  16
ATOM     16  C   UNL     1      34.521  17.661  24.496  1.00  0.00     0.184 C 
ATOM     17  C   UNL     1      34.932  19.014  24.047  1.00  0.00     0.178 C 
ATOM     18  O   UNL     1      34.516  19.154  22.706  1.00  0.00    -0.341 OA
ATOM     19  C   UNL     1      33.132  19.412  22.777  1.00  0.00     0.281 C 
ATOM     20  C   UNL     1      32.985  17.598  24.467  1.00  0.00     0.180 C 
ATOM     21  C   UNL     1      32.409  18.142  23.202  1.00  0.00     0.202 C 
BRANCH  17  22
ATOM     22  C   UNL     1      36.441  19.222  24.131  1.00  0.00     0.191 C 
BRANCH  22  23
ATOM     23  O   UNL     1      36.701  19.792  25.396  1.00  0.00    -0.394 OA
ATOM     24  H   UNL     1      35.904  20.298  25.681  1.00  0.00     0.210 HD
ENDBRANCH  22  23
ENDBRANCH  17  22
BRANCH  19  25
ATOM     25  O   UNL     1      32.686  19.820  21.546  1.00  0.00    -0.350 OA
BRANCH  25  26
ATOM     26  C   UNL     1      33.021  18.884  20.588  1.00  0.00     0.169 C 
BRANCH  26  27
ATOM     27  C   UNL     1      32.192  18.929  19.340  1.00  0.00     0.119 C 
BRANCH  27  28
ATOM     28  N   UNL     1      30.874  19.447  19.738  1.00  0.00    -0.092 NA
ATOM     29  N   UNL     1      30.078  18.633  20.203  1.00  0.00     0.001 N 
ATOM     30  N   UNL     1      29.140  18.130  20.837  1.00  0.00    -0.003 NA
ENDBRANCH  27  28
ENDBRANCH  26  27
ENDBRANCH  25  26
ENDBRANCH  19  25
BRANCH  20  31
ATOM     31  O   UNL     1      32.686  16.222  24.541  1.00  0.00    -0.387 OA
ATOM     32  H   UNL     1      32.096  16.010  25.313  1.00  0.00     0.211 HD
ENDBRANCH  20  31
BRANCH  21  33
ATOM     33  O   UNL     1      31.071  18.474  23.409  1.00  0.00    -0.385 OA
ATOM     34  H   UNL     1      30.669  18.948  22.632  1.00  0.00     0.211 HD
ENDBRANCH  21  33
ENDBRANCH  15  16
ENDBRANCH  10  15
BRANCH  12  35
ATOM     35  O   UNL     1      36.251  14.154  26.114  1.00  0.00    -0.385 OA
ATOM     36  H   UNL     1      35.589  13.964  26.825  1.00  0.00     0.211 HD
ENDBRANCH  12  35
BRANCH  13  37
ATOM     37  O   UNL     1      37.950  17.148  25.951  1.00  0.00    -0.387 OA
ATOM     38  H   UNL     1      38.855  17.368  26.301  1.00  0.00     0.211 HD
ENDBRANCH  13  37
BRANCH  14  39
ATOM     39  O   UNL     1      36.426  18.248  27.759  1.00  0.00    -0.387 OA
ATOM     40  H   UNL     1      36.053  18.745  28.514  1.00  0.00     0.211 HD
ENDBRANCH  14  39
ENDBRANCH   8   9
ENDBRANCH   7   8
ENDBRANCH   1   7
BRANCH   1  41
ATOM     41  C   UNL     1      33.651  17.578  31.836  1.00  0.00     0.364 C 
ATOM     42  O   UNL     1      34.405  18.278  32.514  1.00  0.00    -0.246 OA
BRANCH  41  43
ATOM     43  O   UNL     1      33.126  16.414  32.350  1.00  0.00    -0.477 OA
ATOM     44  H   UNL     1      32.137  16.315  32.586  1.00  0.00     0.296 HD
ENDBRANCH  41  43
ENDBRANCH   1  41
BRANCH   3  45
ATOM     45  O   UNL     1      31.796  17.031  27.521  1.00  0.00    -0.391 OA
ATOM     46  H   UNL     1      31.192  16.275  27.566  1.00  0.00     0.211 HD
ENDBRANCH   3  45
BRANCH   5  47
ATOM     47  C   UNL     1      33.754  21.060  29.356  1.00  0.00     0.176 C 
BRANCH  47  48
ATOM     48  O   UNL     1      34.833  20.787  28.545  1.00  0.00    -0.388 OA
ATOM     49  H   UNL     1      35.115  21.526  27.963  1.00  0.00     0.211 HD
ENDBRANCH  47  48
BRANCH  47  50
ATOM     50  C   UNL     1      33.327  22.485  29.151  1.00  0.00     0.165 C 
BRANCH  50  51
ATOM     51  O   UNL     1      32.093  22.624  28.594  1.00  0.00    -0.388 OA
ATOM     52  H   UNL     1      32.070  22.540  27.621  1.00  0.00     0.211 HD
ENDBRANCH  50  51
BRANCH  50  53
ATOM     53  C   UNL     1      34.432  23.350  28.621  1.00  0.00     0.154 C 
BRANCH  53  54
ATOM     54  N   UNL     1      34.291  23.719  27.237  1.00  0.00    -0.319 N 
ATOM     55  C   UNL     1      35.155  23.279  26.182  1.00  0.00     0.407 C 
ATOM     56  H   UNL     1      33.512  24.361  26.900  1.00  0.00     0.167 HD
ATOM     57  O   UNL     1      36.116  22.522  26.451  1.00  0.00    -0.225 OA
BRANCH  55  58
ATOM     58  O   UNL     1      34.957  23.672  24.872  1.00  0.00    -0.443 OA
BRANCH  58  59
ATOM     59  C   UNL     1      35.016  22.712  23.845  1.00  0.00     0.294 C 
BRANCH  59  60
ATOM     60  C   UNL     1      34.066  23.029  22.758  1.00  0.00     0.120 A 
ATOM     61  C   UNL     1      32.853  23.704  22.951  1.00  0.00     0.138 A 
ATOM     62  N   UNL     1      34.117  22.781  21.444  1.00  0.00    -0.132 NA
ATOM     63  N   UNL     1      32.242  23.828  21.763  1.00  0.00    -0.248 N 
ATOM     64  N   UNL     1      33.008  23.272  20.871  1.00  0.00    -0.067 NA
BRANCH  63  65
ATOM     65  C   UNL     1      30.968  24.474  21.544  1.00  0.00     0.181 C 
BRANCH  65  66
ATOM     66  C   UNL     1      29.939  23.446  21.248  1.00  0.00    -0.026 A 
ATOM     67  C   UNL     1      29.412  22.632  22.235  1.00  0.00     0.005 A 
ATOM     68  C   UNL     1      29.497  23.304  19.942  1.00  0.00     0.005 A 
ATOM     69  C   UNL     1      28.454  21.687  21.909  1.00  0.00     0.000 A 
ATOM     70  C   UNL     1      28.540  22.357  19.629  1.00  0.00     0.000 A 
ATOM     71  C   UNL     1      28.024  21.554  20.612  1.00  0.00     0.000 A 
ENDBRANCH  65  66
ENDBRANCH  63  65
ENDBRANCH  59  60
ENDBRANCH  58  59
ENDBRANCH  55  58
ENDBRANCH  53  54
ENDBRANCH  50  53
ENDBRANCH  47  50
ENDBRANCH   5  47
BRANCH   4  72
ATOM     72  N   UNL     1      31.549  19.792  27.300  1.00  0.00    -0.348 N 
ATOM     73  C   UNL     1      31.967  20.622  26.235  1.00  0.00     0.217 C 
ATOM     74  H   UNL     1      30.526  19.633  27.423  1.00  0.00     0.163 HD
ATOM     75  C   UNL     1      30.991  21.262  25.302  1.00  0.00     0.114 C 
ATOM     76  O   UNL     1      33.196  20.818  26.076  1.00  0.00    -0.275 OA
ENDBRANCH   4  72
TORSDOF 31
