REMARK VINA RESULT:    -4.710      3.708      5.870
REMARK INTER + INTRA:         -21.924
REMARK INTER:                 -14.655
REMARK INTRA:                  -7.269
REMARK UNBOUND:                -8.679
REMARK SMILES CCOC(CCn1cc(COC(=O)NC[C@@H](O)C(O)[C@@H]2O[C@@](OC[C@H]3O[C@@H](O[C@H]4[C@H](O)[C@@H](O)[C@H](OCCN=[N+]=[N-])O[C@@H]4CO)[C@H](O)[C@@H](O)[C@H]3O)(C(=O)O)C[C@H](O)[C@H]2NC(C)=O)nn1)OCC
REMARK SMILES IDX 18 1 20 2 22 3 54 4 21 5 55 6 57 7 23 8 24 9 25 10 27 11
REMARK SMILES IDX 26 12 45 13 47 14 49 15 28 16 29 17 42 18 41 19 34 20 30 21
REMARK SMILES IDX 32 22 43 23 44 24 35 26 36 27 37 28 38 29 39 30 40 31 31 32
REMARK SMILES IDX 33 34 46 36 48 38 50 40 51 42 52 43 53 44 56 46 58 48 59 49
REMARK SMILES IDX 60 51 61 52 19 53 16 55 17 56 15 58 14 59 12 60 13 62 11 63
REMARK SMILES IDX 10 64 9 65 8 66 62 67 7 68 63 69 6 70 5 71 4 72 3 73 2 74
REMARK SMILES IDX 1 75 64 76 65 77 66 78
REMARK H PARENT 44 25 31 33 33 35 46 37 48 39 50 41 53 45 56 47 58 50 19 54
REMARK H PARENT 17 57 14 61
REMARK Flexibility Score: inf
ROOT
ATOM      1  C   UNL     1      16.934  30.384  22.679  1.00  0.00     0.176 C 
ENDROOT
BRANCH   1   2
ATOM      2  C   UNL     1      16.648  29.548  21.467  1.00  0.00     0.178 C 
ATOM      3  C   UNL     1      17.304  29.109  19.293  1.00  0.00     0.272 C 
ATOM      4  C   UNL     1      16.264  28.061  19.477  1.00  0.00     0.113 C 
ATOM      5  O   UNL     1      17.481  29.932  20.428  1.00  0.00    -0.332 OA
ATOM      6  C   UNL     1      14.987  28.505  20.101  1.00  0.00     0.145 C 
ATOM      7  C   UNL     1      15.229  29.771  20.934  1.00  0.00     0.142 C 
BRANCH   3   8
ATOM      8  O   UNL     1      17.234  29.902  18.219  1.00  0.00    -0.338 OA
BRANCH   8   9
ATOM      9  C   UNL     1      17.543  31.209  18.274  1.00  0.00     0.199 C 
BRANCH   9  10
ATOM     10  C   UNL     1      16.345  32.071  17.944  1.00  0.00     0.179 C 
ATOM     11  C   UNL     1      14.188  32.134  17.321  1.00  0.00     0.282 C 
ATOM     12  O   UNL     1      15.132  31.429  18.116  1.00  0.00    -0.341 OA
ATOM     13  C   UNL     1      13.930  33.443  17.968  1.00  0.00     0.202 C 
ATOM     14  C   UNL     1      15.228  34.199  18.125  1.00  0.00     0.179 C 
ATOM     15  C   UNL     1      16.346  33.384  18.720  1.00  0.00     0.177 C 
BRANCH  11  16
ATOM     16  O   UNL     1      13.061  31.325  17.141  1.00  0.00    -0.341 OA
BRANCH  16  17
ATOM     17  C   UNL     1      13.048  30.861  15.864  1.00  0.00     0.184 C 
ATOM     18  C   UNL     1      11.761  30.806  15.136  1.00  0.00     0.178 C 
ATOM     19  O   UNL     1      12.043  30.684  13.768  1.00  0.00    -0.341 OA
ATOM     20  C   UNL     1      12.616  29.432  13.498  1.00  0.00     0.281 C 
ATOM     21  C   UNL     1      13.579  29.393  15.811  1.00  0.00     0.180 C 
ATOM     22  C   UNL     1      13.864  29.182  14.318  1.00  0.00     0.202 C 
BRANCH  18  23
ATOM     23  C   UNL     1      10.960  32.057  15.338  1.00  0.00     0.191 C 
BRANCH  23  24
ATOM     24  O   UNL     1      11.704  33.210  15.085  1.00  0.00    -0.394 OA
ATOM     25  H   UNL     1      11.985  33.286  14.156  1.00  0.00     0.210 HD
ENDBRANCH  23  24
ENDBRANCH  18  23
BRANCH  20  26
ATOM     26  O   UNL     1      12.978  29.444  12.163  1.00  0.00    -0.350 OA
BRANCH  26  27
ATOM     27  C   UNL     1      12.320  28.578  11.343  1.00  0.00     0.169 C 
BRANCH  27  28
ATOM     28  C   UNL     1      11.249  29.299  10.569  1.00  0.00     0.119 C 
BRANCH  28  29
ATOM     29  N   UNL     1       9.974  29.160  11.269  1.00  0.00    -0.092 NA
ATOM     30  N   UNL     1       9.669  27.986  11.564  1.00  0.00     0.001 N 
ATOM     31  N   UNL     1       9.015  26.941  11.599  1.00  0.00    -0.003 NA
ENDBRANCH  28  29
ENDBRANCH  27  28
ENDBRANCH  26  27
ENDBRANCH  20  26
BRANCH  21  32
ATOM     32  O   UNL     1      14.725  29.252  16.548  1.00  0.00    -0.387 OA
ATOM     33  H   UNL     1      14.567  29.292  17.523  1.00  0.00     0.211 HD
ENDBRANCH  21  32
BRANCH  22  34
ATOM     34  O   UNL     1      14.317  27.913  14.073  1.00  0.00    -0.385 OA
ATOM     35  H   UNL     1      15.241  28.002  13.683  1.00  0.00     0.211 HD
ENDBRANCH  22  34
ENDBRANCH  16  17
ENDBRANCH  11  16
BRANCH  13  36
ATOM     36  O   UNL     1      13.110  34.257  17.171  1.00  0.00    -0.385 OA
ATOM     37  H   UNL     1      13.490  35.156  17.058  1.00  0.00     0.211 HD
ENDBRANCH  13  36
BRANCH  14  38
ATOM     38  O   UNL     1      15.048  35.412  18.781  1.00  0.00    -0.387 OA
ATOM     39  H   UNL     1      15.434  35.387  19.698  1.00  0.00     0.211 HD
ENDBRANCH  14  38
BRANCH  15  40
ATOM     40  O   UNL     1      16.155  33.121  20.068  1.00  0.00    -0.387 OA
ATOM     41  H   UNL     1      16.974  32.761  20.477  1.00  0.00     0.211 HD
ENDBRANCH  15  40
ENDBRANCH   9  10
ENDBRANCH   8   9
ENDBRANCH   3   8
BRANCH   3  42
ATOM     42  C   UNL     1      18.613  28.388  19.197  1.00  0.00     0.364 C 
ATOM     43  O   UNL     1      19.293  28.127  20.208  1.00  0.00    -0.246 OA
BRANCH  42  44
ATOM     44  O   UNL     1      19.126  27.978  17.971  1.00  0.00    -0.477 OA
ATOM     45  H   UNL     1      18.585  28.172  17.135  1.00  0.00     0.296 HD
ENDBRANCH  42  44
ENDBRANCH   3  42
BRANCH   6  46
ATOM     46  O   UNL     1      13.945  28.685  19.226  1.00  0.00    -0.391 OA
ATOM     47  H   UNL     1      13.249  29.312  19.545  1.00  0.00     0.211 HD
ENDBRANCH   6  46
BRANCH   7  48
ATOM     48  N   UNL     1      14.256  29.940  21.963  1.00  0.00    -0.348 N 
ATOM     49  C   UNL     1      13.077  30.678  21.659  1.00  0.00     0.217 C 
ATOM     50  H   UNL     1      14.361  29.551  22.920  1.00  0.00     0.163 HD
ATOM     51  C   UNL     1      12.044  30.872  22.710  1.00  0.00     0.114 C 
ATOM     52  O   UNL     1      12.887  31.177  20.499  1.00  0.00    -0.275 OA
ENDBRANCH   7  48
ENDBRANCH   1   2
BRANCH   1  53
ATOM     53  O   UNL     1      16.900  29.512  23.783  1.00  0.00    -0.388 OA
ATOM     54  H   UNL     1      16.135  29.745  24.386  1.00  0.00     0.211 HD
ENDBRANCH   1  53
BRANCH   1  55
ATOM     55  C   UNL     1      18.358  30.891  22.568  1.00  0.00     0.165 C 
BRANCH  55  56
ATOM     56  O   UNL     1      19.255  29.864  22.618  1.00  0.00    -0.388 OA
ATOM     57  H   UNL     1      19.626  29.681  23.517  1.00  0.00     0.211 HD
ENDBRANCH  55  56
BRANCH  55  58
ATOM     58  C   UNL     1      18.641  31.897  23.649  1.00  0.00     0.154 C 
BRANCH  58  59
ATOM     59  N   UNL     1      19.440  31.426  24.743  1.00  0.00    -0.319 N 
ATOM     60  C   UNL     1      18.943  31.008  25.988  1.00  0.00     0.407 C 
ATOM     61  H   UNL     1      20.491  31.404  24.567  1.00  0.00     0.167 HD
ATOM     62  O   UNL     1      17.733  30.997  26.268  1.00  0.00    -0.225 OA
BRANCH  60  63
ATOM     63  O   UNL     1      19.827  30.571  27.000  1.00  0.00    -0.443 OA
BRANCH  63  64
ATOM     64  C   UNL     1      21.153  30.163  26.633  1.00  0.00     0.294 C 
BRANCH  64  65
ATOM     65  C   UNL     1      21.082  28.794  26.061  1.00  0.00     0.120 A 
ATOM     66  C   UNL     1      21.889  27.721  26.355  1.00  0.00     0.138 A 
ATOM     67  N   UNL     1      20.211  28.373  25.141  1.00  0.00    -0.132 NA
ATOM     68  N   UNL     1      21.466  26.691  25.593  1.00  0.00    -0.252 N 
ATOM     69  N   UNL     1      20.447  27.120  24.870  1.00  0.00    -0.067 NA
BRANCH  68  70
ATOM     70  C   UNL     1      22.054  25.384  25.608  1.00  0.00     0.151 C 
BRANCH  70  71
ATOM     71  C   UNL     1      21.699  24.520  24.433  1.00  0.00     0.086 C 
BRANCH  71  72
ATOM     72  C   UNL     1      22.688  24.788  23.299  1.00  0.00     0.251 C 
BRANCH  72  73
ATOM     73  O   UNL     1      22.155  24.204  22.165  1.00  0.00    -0.353 OA
BRANCH  73  74
ATOM     74  C   UNL     1      22.068  25.094  21.103  1.00  0.00     0.160 C 
ATOM     75  C   UNL     1      23.026  24.725  19.988  1.00  0.00     0.035 C 
ENDBRANCH  73  74
ENDBRANCH  72  73
BRANCH  72  76
ATOM     76  O   UNL     1      23.958  24.417  23.624  1.00  0.00    -0.353 OA
BRANCH  76  77
ATOM     77  C   UNL     1      24.975  25.246  23.234  1.00  0.00     0.160 C 
ATOM     78  C   UNL     1      25.367  26.132  24.393  1.00  0.00     0.035 C 
ENDBRANCH  76  77
ENDBRANCH  72  76
ENDBRANCH  71  72
ENDBRANCH  70  71
ENDBRANCH  68  70
ENDBRANCH  64  65
ENDBRANCH  63  64
ENDBRANCH  60  63
ENDBRANCH  58  59
ENDBRANCH  55  58
ENDBRANCH   1  55
TORSDOF 36
