REMARK VINA RESULT:    -5.538      2.279      3.500
REMARK INTER + INTRA:         -21.231
REMARK INTER:                 -13.507
REMARK INTRA:                  -7.724
REMARK UNBOUND:                -7.600
REMARK SMILES CC(=O)N[C@@H]1[C@@H](O)C[C@](OC[C@H]2O[C@@H](O[C@H]3[C@H](O)[C@@H](O)[C@H](OCCN=[N+]=[N-])O[C@@H]3CO)[C@H](O)[C@@H](O)[C@H]2O)(C(=O)O)O[C@H]1C(O)[C@H](O)CNC(=O)OCc1cn(-c2ccc(Cl)cc2)nn1
REMARK SMILES IDX 9 1 8 2 6 3 5 4 42 5 41 6 10 7 11 8 12 9 14 10 13 11 32 12
REMARK SMILES IDX 34 13 36 14 15 15 16 16 29 17 28 18 21 19 17 20 19 21 30 22
REMARK SMILES IDX 31 23 22 25 23 26 24 27 25 28 26 29 27 30 18 31 20 33 33 35
REMARK SMILES IDX 35 37 37 39 38 41 39 42 40 43 7 45 43 47 44 48 45 50 46 51
REMARK SMILES IDX 47 53 48 54 49 55 50 57 51 58 52 59 53 60 54 61 64 62 55 63
REMARK SMILES IDX 63 64 56 65 57 66 62 67 58 68 61 69 59 70 60 71 4 72 2 73
REMARK SMILES IDX 1 75 3 76
REMARK H PARENT 31 24 18 32 20 34 33 36 35 38 37 40 40 44 7 46 44 49 46 52
REMARK H PARENT 48 56 4 74
REMARK Flexibility Score: inf
ROOT
ATOM      1  C   UNL     1      23.519  25.370  21.635  1.00  0.00     0.272 C 
ATOM      2  C   UNL     1      24.421  24.226  21.421  1.00  0.00     0.113 C 
ATOM      3  C   UNL     1      25.421  24.274  20.339  1.00  0.00     0.145 C 
ATOM      4  C   UNL     1      25.464  25.655  19.723  1.00  0.00     0.142 C 
ATOM      5  C   UNL     1      23.982  26.030  19.506  1.00  0.00     0.178 C 
ATOM      6  O   UNL     1      23.637  26.466  20.821  1.00  0.00    -0.332 OA
ENDROOT
BRANCH   1   7
ATOM      7  O   UNL     1      23.694  25.791  22.983  1.00  0.00    -0.338 OA
BRANCH   7   8
ATOM      8  C   UNL     1      24.511  26.881  23.111  1.00  0.00     0.199 C 
BRANCH   8   9
ATOM      9  C   UNL     1      23.773  28.079  23.702  1.00  0.00     0.179 C 
ATOM     10  C   UNL     1      21.522  28.324  24.339  1.00  0.00     0.282 C 
ATOM     11  O   UNL     1      22.466  28.110  23.334  1.00  0.00    -0.341 OA
ATOM     12  C   UNL     1      21.652  27.244  25.329  1.00  0.00     0.202 C 
ATOM     13  C   UNL     1      23.044  27.286  25.945  1.00  0.00     0.179 C 
ATOM     14  C   UNL     1      23.982  28.177  25.196  1.00  0.00     0.177 C 
BRANCH  10  15
ATOM     15  O   UNL     1      20.321  28.405  23.638  1.00  0.00    -0.341 OA
BRANCH  15  16
ATOM     16  C   UNL     1      19.617  29.527  23.744  1.00  0.00     0.184 C 
ATOM     17  C   UNL     1      19.484  30.291  22.476  1.00  0.00     0.178 C 
ATOM     18  O   UNL     1      18.496  31.265  22.575  1.00  0.00    -0.341 OA
ATOM     19  C   UNL     1      18.683  32.197  23.545  1.00  0.00     0.281 C 
ATOM     20  C   UNL     1      20.166  30.534  24.776  1.00  0.00     0.180 C 
ATOM     21  C   UNL     1      19.897  31.935  24.359  1.00  0.00     0.202 C 
BRANCH  17  22
ATOM     22  C   UNL     1      19.252  29.500  21.227  1.00  0.00     0.191 C 
BRANCH  22  23
ATOM     23  O   UNL     1      20.144  28.436  21.100  1.00  0.00    -0.394 OA
ATOM     24  H   UNL     1      19.653  27.588  21.203  1.00  0.00     0.210 HD
ENDBRANCH  22  23
ENDBRANCH  17  22
BRANCH  19  25
ATOM     25  O   UNL     1      17.584  32.223  24.412  1.00  0.00    -0.350 OA
BRANCH  25  26
ATOM     26  C   UNL     1      17.682  33.256  25.331  1.00  0.00     0.169 C 
BRANCH  26  27
ATOM     27  C   UNL     1      17.079  32.940  26.665  1.00  0.00     0.119 C 
BRANCH  27  28
ATOM     28  N   UNL     1      16.882  31.493  26.712  1.00  0.00    -0.092 NA
ATOM     29  N   UNL     1      16.451  31.049  27.791  1.00  0.00     0.001 N 
ATOM     30  N   UNL     1      15.705  30.621  28.698  1.00  0.00    -0.003 NA
ENDBRANCH  27  28
ENDBRANCH  26  27
ENDBRANCH  25  26
ENDBRANCH  19  25
BRANCH  20  31
ATOM     31  O   UNL     1      19.514  30.268  25.968  1.00  0.00    -0.387 OA
ATOM     32  H   UNL     1      20.214  30.335  26.692  1.00  0.00     0.211 HD
ENDBRANCH  20  31
BRANCH  21  33
ATOM     33  O   UNL     1      21.014  32.538  23.745  1.00  0.00    -0.385 OA
ATOM     34  H   UNL     1      21.742  31.883  23.836  1.00  0.00     0.211 HD
ENDBRANCH  21  33
ENDBRANCH  15  16
ENDBRANCH  10  15
BRANCH  12  35
ATOM     35  O   UNL     1      20.723  27.268  26.372  1.00  0.00    -0.385 OA
ATOM     36  H   UNL     1      19.871  27.735  26.091  1.00  0.00     0.211 HD
ENDBRANCH  12  35
BRANCH  13  37
ATOM     37  O   UNL     1      23.500  25.976  26.072  1.00  0.00    -0.387 OA
ATOM     38  H   UNL     1      24.404  25.826  25.756  1.00  0.00     0.211 HD
ENDBRANCH  13  37
BRANCH  14  39
ATOM     39  O   UNL     1      25.315  27.746  25.410  1.00  0.00    -0.387 OA
ATOM     40  H   UNL     1      25.307  27.217  26.228  1.00  0.00     0.211 HD
ENDBRANCH  14  39
ENDBRANCH   8   9
ENDBRANCH   7   8
ENDBRANCH   1   7
BRANCH   1  41
ATOM     41  C   UNL     1      22.096  24.879  21.563  1.00  0.00     0.364 C 
ATOM     42  O   UNL     1      21.819  23.701  21.247  1.00  0.00    -0.246 OA
BRANCH  41  43
ATOM     43  O   UNL     1      21.073  25.747  21.854  1.00  0.00    -0.477 OA
ATOM     44  H   UNL     1      21.173  26.559  22.459  1.00  0.00     0.296 HD
ENDBRANCH  41  43
ENDBRANCH   1  41
BRANCH   3  45
ATOM     45  O   UNL     1      26.703  24.010  20.822  1.00  0.00    -0.391 OA
ATOM     46  H   UNL     1      27.109  23.331  20.250  1.00  0.00     0.211 HD
ENDBRANCH   3  45
BRANCH   5  47
ATOM     47  C   UNL     1      23.798  27.169  18.570  1.00  0.00     0.176 C 
BRANCH  47  48
ATOM     48  O   UNL     1      23.891  26.677  17.276  1.00  0.00    -0.388 OA
ATOM     49  H   UNL     1      23.156  26.958  16.678  1.00  0.00     0.211 HD
ENDBRANCH  47  48
BRANCH  47  50
ATOM     50  C   UNL     1      22.645  28.066  18.727  1.00  0.00     0.165 C 
BRANCH  50  51
ATOM     51  O   UNL     1      21.538  27.190  19.030  1.00  0.00    -0.388 OA
ATOM     52  H   UNL     1      21.795  26.255  18.848  1.00  0.00     0.211 HD
ENDBRANCH  50  51
BRANCH  50  53
ATOM     53  C   UNL     1      22.191  28.704  17.423  1.00  0.00     0.154 C 
BRANCH  53  54
ATOM     54  N   UNL     1      21.040  29.554  17.550  1.00  0.00    -0.319 N 
ATOM     55  C   UNL     1      19.775  29.058  17.144  1.00  0.00     0.407 C 
ATOM     56  H   UNL     1      21.084  30.531  17.927  1.00  0.00     0.167 HD
ATOM     57  O   UNL     1      19.635  27.894  16.660  1.00  0.00    -0.225 OA
BRANCH  55  58
ATOM     58  O   UNL     1      18.638  29.833  17.265  1.00  0.00    -0.443 OA
BRANCH  58  59
ATOM     59  C   UNL     1      17.326  29.293  17.084  1.00  0.00     0.294 C 
BRANCH  59  60
ATOM     60  C   UNL     1      16.808  28.755  18.376  1.00  0.00     0.121 A 
ATOM     61  C   UNL     1      16.031  29.462  19.282  1.00  0.00     0.144 A 
ATOM     62  N   UNL     1      16.987  27.532  18.892  1.00  0.00    -0.131 NA
ATOM     63  N   UNL     1      15.764  28.651  20.314  1.00  0.00    -0.220 N 
ATOM     64  N   UNL     1      16.344  27.514  20.057  1.00  0.00    -0.062 NA
BRANCH  63  65
ATOM     65  C   UNL     1      14.980  29.063  21.436  1.00  0.00     0.066 A 
ATOM     66  C   UNL     1      13.609  29.057  21.387  1.00  0.00     0.030 A 
ATOM     67  C   UNL     1      15.586  29.474  22.591  1.00  0.00     0.030 A 
ATOM     68  C   UNL     1      12.815  29.454  22.466  1.00  0.00     0.023 A 
ATOM     69  C   UNL     1      14.822  29.873  23.678  1.00  0.00     0.023 A 
ATOM     70  C   UNL     1      13.428  29.865  23.619  1.00  0.00     0.041 A 
ATOM     71  Cl  UNL     1      12.468  30.376  25.010  1.00  0.00    -0.084 Cl
ENDBRANCH  63  65
ENDBRANCH  59  60
ENDBRANCH  58  59
ENDBRANCH  55  58
ENDBRANCH  53  54
ENDBRANCH  50  53
ENDBRANCH  47  50
ENDBRANCH   5  47
BRANCH   4  72
ATOM     72  N   UNL     1      26.260  25.681  18.554  1.00  0.00    -0.348 N 
ATOM     73  C   UNL     1      27.593  26.222  18.612  1.00  0.00     0.217 C 
ATOM     74  H   UNL     1      25.970  25.323  17.630  1.00  0.00     0.163 HD
ATOM     75  C   UNL     1      28.458  26.264  17.399  1.00  0.00     0.114 C 
ATOM     76  O   UNL     1      28.011  26.659  19.715  1.00  0.00    -0.275 OA
ENDBRANCH   4  72
TORSDOF 30
