REMARK VINA RESULT:    -5.406     11.045     14.900
REMARK INTER + INTRA:         -21.540
REMARK INTER:                 -12.635
REMARK INTRA:                  -8.905
REMARK UNBOUND:                -7.602
REMARK SMILES CC(=O)N[C@@H]1[C@@H](O)C[C@](OC[C@H]2O[C@@H](O[C@H]3[C@H](O)[C@@H](O)[C@H](OCCN=[N+]=[N-])O[C@@H]3CO)[C@H](O)[C@@H](O)[C@H]2O)(C(=O)O)O[C@H]1C(O)[C@H](O)CNC(=O)OCc1cn(CC(=O)Nc2ncccn2)nn1
REMARK SMILES IDX 9 1 8 2 6 3 5 4 42 5 41 6 10 7 11 8 12 9 14 10 13 11 32 12
REMARK SMILES IDX 34 13 36 14 15 15 16 16 29 17 28 18 21 19 17 20 19 21 30 22
REMARK SMILES IDX 31 23 22 25 23 26 24 27 25 28 26 29 27 30 18 31 20 33 33 35
REMARK SMILES IDX 35 37 37 39 38 41 39 42 40 43 7 45 43 47 44 48 45 50 46 51
REMARK SMILES IDX 47 53 48 54 49 55 50 57 51 58 52 59 53 60 54 61 67 62 55 63
REMARK SMILES IDX 66 64 56 65 57 66 58 67 59 68 60 70 61 71 65 72 62 73 64 74
REMARK SMILES IDX 63 75 4 76 2 77 1 79 3 80
REMARK H PARENT 31 24 18 32 20 34 33 36 35 38 37 40 40 44 7 46 44 49 46 52
REMARK H PARENT 48 56 59 69 4 78
REMARK Flexibility Score: inf
ROOT
ATOM      1  C   UNL     1      28.867  20.032  19.720  1.00  0.00     0.272 C 
ATOM      2  C   UNL     1      28.157  21.047  20.599  1.00  0.00     0.113 C 
ATOM      3  C   UNL     1      28.831  21.175  21.905  1.00  0.00     0.145 C 
ATOM      4  C   UNL     1      30.347  21.281  21.855  1.00  0.00     0.142 C 
ATOM      5  C   UNL     1      30.942  20.635  20.687  1.00  0.00     0.178 C 
ATOM      6  O   UNL     1      30.135  20.709  19.560  1.00  0.00    -0.332 OA
ENDROOT
BRANCH   1   7
ATOM      7  O   UNL     1      28.299  20.030  18.520  1.00  0.00    -0.338 OA
BRANCH   7   8
ATOM      8  C   UNL     1      28.325  19.379  17.429  1.00  0.00     0.199 C 
BRANCH   8   9
ATOM      9  C   UNL     1      28.476  19.901  16.039  1.00  0.00     0.179 C 
ATOM     10  C   UNL     1      27.269  21.237  14.551  1.00  0.00     0.282 C 
ATOM     11  O   UNL     1      27.224  20.597  15.750  1.00  0.00    -0.341 OA
ATOM     12  C   UNL     1      28.061  22.576  14.707  1.00  0.00     0.202 C 
ATOM     13  C   UNL     1      28.838  22.342  15.987  1.00  0.00     0.179 C 
ATOM     14  C   UNL     1      29.492  20.954  15.796  1.00  0.00     0.177 C 
BRANCH  10  15
ATOM     15  O   UNL     1      25.970  21.580  14.154  1.00  0.00    -0.341 OA
BRANCH  15  16
ATOM     16  C   UNL     1      25.116  20.486  14.108  1.00  0.00     0.184 C 
ATOM     17  C   UNL     1      25.188  19.902  12.691  1.00  0.00     0.178 C 
ATOM     18  O   UNL     1      23.921  19.757  12.145  1.00  0.00    -0.341 OA
ATOM     19  C   UNL     1      23.289  21.000  11.995  1.00  0.00     0.281 C 
ATOM     20  C   UNL     1      23.738  20.890  14.475  1.00  0.00     0.180 C 
ATOM     21  C   UNL     1      22.885  21.441  13.372  1.00  0.00     0.202 C 
BRANCH  17  22
ATOM     22  C   UNL     1      25.811  18.518  12.740  1.00  0.00     0.191 C 
BRANCH  22  23
ATOM     23  O   UNL     1      25.272  17.764  13.784  1.00  0.00    -0.394 OA
ATOM     24  H   UNL     1      25.064  18.324  14.581  1.00  0.00     0.210 HD
ENDBRANCH  22  23
ENDBRANCH  17  22
BRANCH  19  25
ATOM     25  O   UNL     1      22.177  20.764  11.209  1.00  0.00    -0.350 OA
BRANCH  25  26
ATOM     26  C   UNL     1      21.358  19.763  11.687  1.00  0.00     0.169 C 
BRANCH  26  27
ATOM     27  C   UNL     1      19.940  20.208  11.975  1.00  0.00     0.119 C 
BRANCH  27  28
ATOM     28  N   UNL     1      19.031  19.078  12.079  1.00  0.00    -0.092 NA
ATOM     29  N   UNL     1      18.619  18.478  11.082  1.00  0.00     0.001 N 
ATOM     30  N   UNL     1      18.217  18.100   9.987  1.00  0.00    -0.003 NA
ENDBRANCH  27  28
ENDBRANCH  26  27
ENDBRANCH  25  26
ENDBRANCH  19  25
BRANCH  20  31
ATOM     31  O   UNL     1      23.040  19.748  14.959  1.00  0.00    -0.387 OA
ATOM     32  H   UNL     1      23.536  18.922  14.688  1.00  0.00     0.211 HD
ENDBRANCH  20  31
BRANCH  21  33
ATOM     33  O   UNL     1      22.908  22.830  13.442  1.00  0.00    -0.385 OA
ATOM     34  H   UNL     1      23.461  23.190  12.708  1.00  0.00     0.211 HD
ENDBRANCH  21  33
ENDBRANCH  15  16
ENDBRANCH  10  15
BRANCH  12  35
ATOM     35  O   UNL     1      29.017  22.625  13.685  1.00  0.00    -0.385 OA
ATOM     36  H   UNL     1      29.134  21.688  13.371  1.00  0.00     0.211 HD
ENDBRANCH  12  35
BRANCH  13  37
ATOM     37  O   UNL     1      28.074  22.421  17.120  1.00  0.00    -0.387 OA
ATOM     38  H   UNL     1      27.573  23.256  17.204  1.00  0.00     0.211 HD
ENDBRANCH  13  37
BRANCH  14  39
ATOM     39  O   UNL     1      30.665  20.950  16.463  1.00  0.00    -0.387 OA
ATOM     40  H   UNL     1      30.814  20.111  16.963  1.00  0.00     0.211 HD
ENDBRANCH  14  39
ENDBRANCH   8   9
ENDBRANCH   7   8
ENDBRANCH   1   7
BRANCH   1  41
ATOM     41  C   UNL     1      29.113  18.736  20.314  1.00  0.00     0.364 C 
ATOM     42  O   UNL     1      28.313  18.279  21.200  1.00  0.00    -0.246 OA
BRANCH  41  43
ATOM     43  O   UNL     1      30.170  17.908  20.019  1.00  0.00    -0.477 OA
ATOM     44  H   UNL     1      30.211  17.262  19.267  1.00  0.00     0.296 HD
ENDBRANCH  41  43
ENDBRANCH   1  41
BRANCH   3  45
ATOM     45  O   UNL     1      28.302  22.334  22.528  1.00  0.00    -0.391 OA
ATOM     46  H   UNL     1      28.548  22.314  23.502  1.00  0.00     0.211 HD
ENDBRANCH   3  45
BRANCH   5  47
ATOM     47  C   UNL     1      32.284  21.253  20.214  1.00  0.00     0.176 C 
BRANCH  47  48
ATOM     48  O   UNL     1      32.646  22.391  20.827  1.00  0.00    -0.388 OA
ATOM     49  H   UNL     1      32.152  22.603  21.668  1.00  0.00     0.211 HD
ENDBRANCH  47  48
BRANCH  47  50
ATOM     50  C   UNL     1      33.280  20.318  19.729  1.00  0.00     0.165 C 
BRANCH  50  51
ATOM     51  O   UNL     1      32.804  19.994  18.346  1.00  0.00    -0.388 OA
ATOM     52  H   UNL     1      31.982  20.488  18.195  1.00  0.00     0.211 HD
ENDBRANCH  50  51
BRANCH  50  53
ATOM     53  C   UNL     1      33.648  19.051  20.327  1.00  0.00     0.154 C 
BRANCH  53  54
ATOM     54  N   UNL     1      33.197  17.778  20.007  1.00  0.00    -0.319 N 
ATOM     55  C   UNL     1      33.821  16.549  19.710  1.00  0.00     0.407 C 
ATOM     56  H   UNL     1      32.081  17.709  19.976  1.00  0.00     0.167 HD
ATOM     57  O   UNL     1      35.061  16.446  19.686  1.00  0.00    -0.225 OA
BRANCH  55  58
ATOM     58  O   UNL     1      33.089  15.420  19.442  1.00  0.00    -0.443 OA
BRANCH  58  59
ATOM     59  C   UNL     1      32.215  15.164  18.437  1.00  0.00     0.294 C 
BRANCH  59  60
ATOM     60  C   UNL     1      32.082  16.259  17.449  1.00  0.00     0.120 A 
ATOM     61  C   UNL     1      32.708  16.331  16.198  1.00  0.00     0.138 A 
ATOM     62  N   UNL     1      31.407  17.440  17.533  1.00  0.00    -0.132 NA
ATOM     63  N   UNL     1      32.414  17.488  15.595  1.00  0.00    -0.243 N 
ATOM     64  N   UNL     1      31.624  18.130  16.437  1.00  0.00    -0.067 NA
BRANCH  63  65
ATOM     65  C   UNL     1      32.835  17.991  14.302  1.00  0.00     0.246 C 
BRANCH  65  66
ATOM     66  C   UNL     1      32.873  19.502  14.391  1.00  0.00     0.248 C 
ATOM     67  O   UNL     1      32.142  20.226  13.672  1.00  0.00    -0.272 OA
ATOM     68  N   UNL     1      33.750  20.134  15.306  1.00  0.00    -0.293 N 
ATOM     69  H   UNL     1      34.338  19.480  15.882  1.00  0.00     0.173 HD
BRANCH  68  70
ATOM     70  C   UNL     1      33.885  21.524  15.509  1.00  0.00     0.229 A 
ATOM     71  N   UNL     1      33.213  22.228  16.437  1.00  0.00    -0.221 NA
ATOM     72  N   UNL     1      34.741  22.198  14.714  1.00  0.00    -0.221 NA
ATOM     73  C   UNL     1      33.365  23.576  16.594  1.00  0.00     0.117 A 
ATOM     74  C   UNL     1      34.929  23.513  14.825  1.00  0.00     0.117 A 
ATOM     75  C   UNL     1      34.247  24.236  15.766  1.00  0.00     0.040 A 
ENDBRANCH  68  70
ENDBRANCH  65  66
ENDBRANCH  63  65
ENDBRANCH  59  60
ENDBRANCH  58  59
ENDBRANCH  55  58
ENDBRANCH  53  54
ENDBRANCH  50  53
ENDBRANCH  47  50
ENDBRANCH   5  47
BRANCH   4  76
ATOM     76  N   UNL     1      30.809  20.873  23.148  1.00  0.00    -0.348 N 
ATOM     77  C   UNL     1      31.464  21.803  24.040  1.00  0.00     0.217 C 
ATOM     78  H   UNL     1      30.692  19.886  23.499  1.00  0.00     0.163 HD
ATOM     79  C   UNL     1      31.910  21.317  25.362  1.00  0.00     0.114 C 
ATOM     80  O   UNL     1      31.643  22.987  23.688  1.00  0.00    -0.275 OA
ENDBRANCH   4  76
TORSDOF 32
