REMARK VINA RESULT:    -5.509     11.565     15.795
REMARK INTER + INTRA:         -20.704
REMARK INTER:                 -16.364
REMARK INTRA:                  -4.340
REMARK UNBOUND:                -7.145
REMARK SMILES CC(=O)N[C@@H]1[C@@H](O)C[C@](OC[C@H]2O[C@@H](O[C@H]3[C@H](O)[C@@H](O)[C@H](OCCN=[N+]=[N-])O[C@@H]3CO)[C@H](O)[C@@H](O)[C@H]2O)(C(=O)O)O[C@H]1C(O)[C@H](O)CNC(=O)OCc1cn(-c2ccccc2Br)nn1
REMARK SMILES IDX 9 1 8 2 6 3 5 4 42 5 41 6 10 7 11 8 12 9 14 10 13 11 32 12
REMARK SMILES IDX 34 13 36 14 15 15 16 16 29 17 28 18 21 19 17 20 19 21 30 22
REMARK SMILES IDX 31 23 22 25 23 26 24 27 25 28 26 29 27 30 18 31 20 33 33 35
REMARK SMILES IDX 35 37 37 39 38 41 39 42 40 43 7 45 43 47 44 48 45 50 46 51
REMARK SMILES IDX 47 53 48 54 49 55 50 57 51 58 52 59 53 60 54 61 64 62 55 63
REMARK SMILES IDX 63 64 56 65 57 66 61 67 58 68 60 69 62 70 59 71 4 72 2 73
REMARK SMILES IDX 1 75 3 76
REMARK H PARENT 31 24 18 32 20 34 33 36 35 38 37 40 40 44 7 46 44 49 46 52
REMARK H PARENT 48 56 4 74
REMARK Flexibility Score: inf
ROOT
ATOM      1  C   UNL     1      12.450  29.932  23.627  1.00  0.00     0.272 C 
ATOM      2  C   UNL     1      12.288  31.404  23.573  1.00  0.00     0.113 C 
ATOM      3  C   UNL     1      12.603  32.050  24.882  1.00  0.00     0.145 C 
ATOM      4  C   UNL     1      13.828  31.560  25.568  1.00  0.00     0.142 C 
ATOM      5  C   UNL     1      14.344  30.298  24.971  1.00  0.00     0.178 C 
ATOM      6  O   UNL     1      13.440  29.436  24.449  1.00  0.00    -0.332 OA
ENDROOT
BRANCH   1   7
ATOM      7  O   UNL     1      12.678  29.312  22.411  1.00  0.00    -0.338 OA
BRANCH   7   8
ATOM      8  C   UNL     1      13.127  30.079  21.391  1.00  0.00     0.199 C 
BRANCH   8   9
ATOM      9  C   UNL     1      14.326  29.331  20.757  1.00  0.00     0.179 C 
ATOM     10  C   UNL     1      15.085  28.809  18.638  1.00  0.00     0.282 C 
ATOM     11  O   UNL     1      14.046  28.873  19.527  1.00  0.00    -0.341 OA
ATOM     12  C   UNL     1      16.380  28.360  19.278  1.00  0.00     0.202 C 
ATOM     13  C   UNL     1      16.744  29.253  20.445  1.00  0.00     0.179 C 
ATOM     14  C   UNL     1      15.569  30.121  20.854  1.00  0.00     0.177 C 
BRANCH  10  15
ATOM     15  O   UNL     1      15.237  29.971  17.895  1.00  0.00    -0.341 OA
BRANCH  15  16
ATOM     16  C   UNL     1      14.209  30.225  17.017  1.00  0.00     0.184 C 
ATOM     17  C   UNL     1      14.608  30.171  15.563  1.00  0.00     0.178 C 
ATOM     18  O   UNL     1      13.433  30.031  14.839  1.00  0.00    -0.341 OA
ATOM     19  C   UNL     1      12.516  31.015  15.022  1.00  0.00     0.281 C 
ATOM     20  C   UNL     1      13.661  31.635  17.207  1.00  0.00     0.180 C 
ATOM     21  C   UNL     1      12.712  31.963  16.131  1.00  0.00     0.202 C 
BRANCH  17  22
ATOM     22  C   UNL     1      15.543  29.062  15.213  1.00  0.00     0.191 C 
BRANCH  22  23
ATOM     23  O   UNL     1      14.868  28.129  14.430  1.00  0.00    -0.394 OA
ATOM     24  H   UNL     1      15.214  27.237  14.607  1.00  0.00     0.210 HD
ENDBRANCH  22  23
ENDBRANCH  17  22
BRANCH  19  25
ATOM     25  O   UNL     1      11.271  30.368  15.205  1.00  0.00    -0.350 OA
BRANCH  25  26
ATOM     26  C   UNL     1      10.195  31.187  15.008  1.00  0.00     0.169 C 
BRANCH  26  27
ATOM     27  C   UNL     1       8.901  30.702  15.582  1.00  0.00     0.119 C 
BRANCH  27  28
ATOM     28  N   UNL     1       7.999  30.461  14.466  1.00  0.00    -0.092 NA
ATOM     29  N   UNL     1       8.274  29.614  13.629  1.00  0.00     0.001 N 
ATOM     30  N   UNL     1       8.493  28.723  12.818  1.00  0.00    -0.003 NA
ENDBRANCH  27  28
ENDBRANCH  26  27
ENDBRANCH  25  26
ENDBRANCH  19  25
BRANCH  20  31
ATOM     31  O   UNL     1      13.050  31.781  18.442  1.00  0.00    -0.387 OA
ATOM     32  H   UNL     1      13.183  32.673  18.841  1.00  0.00     0.211 HD
ENDBRANCH  20  31
BRANCH  21  33
ATOM     33  O   UNL     1      13.106  33.244  15.641  1.00  0.00    -0.385 OA
ATOM     34  H   UNL     1      13.906  33.570  16.115  1.00  0.00     0.211 HD
ENDBRANCH  21  33
ENDBRANCH  15  16
ENDBRANCH  10  15
BRANCH  12  35
ATOM     35  O   UNL     1      16.334  27.012  19.638  1.00  0.00    -0.385 OA
ATOM     36  H   UNL     1      15.936  26.889  20.534  1.00  0.00     0.211 HD
ENDBRANCH  12  35
BRANCH  13  37
ATOM     37  O   UNL     1      17.891  29.975  20.180  1.00  0.00    -0.387 OA
ATOM     38  H   UNL     1      18.011  30.692  20.835  1.00  0.00     0.211 HD
ENDBRANCH  13  37
BRANCH  14  39
ATOM     39  O   UNL     1      15.587  31.257  20.063  1.00  0.00    -0.387 OA
ATOM     40  H   UNL     1      14.996  31.973  20.402  1.00  0.00     0.211 HD
ENDBRANCH  14  39
ENDBRANCH   8   9
ENDBRANCH   7   8
ENDBRANCH   1   7
BRANCH   1  41
ATOM     41  C   UNL     1      11.170  29.400  24.247  1.00  0.00     0.364 C 
ATOM     42  O   UNL     1      10.154  30.117  24.130  1.00  0.00    -0.246 OA
BRANCH  41  43
ATOM     43  O   UNL     1      11.087  28.210  24.906  1.00  0.00    -0.477 OA
ATOM     44  H   UNL     1      10.246  27.979  25.458  1.00  0.00     0.296 HD
ENDBRANCH  41  43
ENDBRANCH   1  41
BRANCH   3  45
ATOM     45  O   UNL     1      12.664  33.448  24.677  1.00  0.00    -0.391 OA
ATOM     46  H   UNL     1      13.455  33.785  25.179  1.00  0.00     0.211 HD
ENDBRANCH   3  45
BRANCH   5  47
ATOM     47  C   UNL     1      15.570  30.553  24.094  1.00  0.00     0.176 C 
BRANCH  47  48
ATOM     48  O   UNL     1      16.537  29.586  24.213  1.00  0.00    -0.388 OA
ATOM     49  H   UNL     1      17.380  29.849  23.740  1.00  0.00     0.211 HD
ENDBRANCH  47  48
BRANCH  47  50
ATOM     50  C   UNL     1      16.216  31.907  24.428  1.00  0.00     0.165 C 
BRANCH  50  51
ATOM     51  O   UNL     1      16.693  32.440  23.257  1.00  0.00    -0.388 OA
ATOM     52  H   UNL     1      16.336  33.304  22.987  1.00  0.00     0.211 HD
ENDBRANCH  50  51
BRANCH  50  53
ATOM     53  C   UNL     1      17.306  31.729  25.433  1.00  0.00     0.154 C 
BRANCH  53  54
ATOM     54  N   UNL     1      18.590  31.623  24.829  1.00  0.00    -0.319 N 
ATOM     55  C   UNL     1      19.848  31.627  25.467  1.00  0.00     0.407 C 
ATOM     56  H   UNL     1      18.630  31.529  23.765  1.00  0.00     0.167 HD
ATOM     57  O   UNL     1      19.934  31.716  26.696  1.00  0.00    -0.225 OA
BRANCH  55  58
ATOM     58  O   UNL     1      21.023  31.530  24.722  1.00  0.00    -0.443 OA
BRANCH  58  59
ATOM     59  C   UNL     1      21.330  30.472  23.846  1.00  0.00     0.294 C 
BRANCH  59  60
ATOM     60  C   UNL     1      21.055  29.146  24.489  1.00  0.00     0.121 A 
ATOM     61  C   UNL     1      21.899  28.525  25.411  1.00  0.00     0.144 A 
ATOM     62  N   UNL     1      20.030  28.326  24.323  1.00  0.00    -0.131 NA
ATOM     63  N   UNL     1      21.329  27.360  25.749  1.00  0.00    -0.219 N 
ATOM     64  N   UNL     1      20.202  27.244  25.091  1.00  0.00    -0.062 NA
BRANCH  63  65
ATOM     65  C   UNL     1      21.844  26.402  26.658  1.00  0.00     0.081 A 
ATOM     66  C   UNL     1      21.821  26.613  28.019  1.00  0.00     0.029 A 
ATOM     67  C   UNL     1      22.381  25.232  26.194  1.00  0.00     0.043 A 
ATOM     68  C   UNL     1      22.335  25.648  28.882  1.00  0.00     0.002 A 
ATOM     69  C   UNL     1      22.891  24.276  27.040  1.00  0.00     0.018 A 
ATOM     70  Br  UNL     1      22.436  24.905  24.317  1.00  0.00    -0.048 Br
ATOM     71  C   UNL     1      22.873  24.474  28.400  1.00  0.00     0.001 A 
ENDBRANCH  63  65
ENDBRANCH  59  60
ENDBRANCH  58  59
ENDBRANCH  55  58
ENDBRANCH  53  54
ENDBRANCH  50  53
ENDBRANCH  47  50
ENDBRANCH   5  47
BRANCH   4  72
ATOM     72  N   UNL     1      13.659  31.407  26.996  1.00  0.00    -0.348 N 
ATOM     73  C   UNL     1      14.203  32.346  27.906  1.00  0.00     0.217 C 
ATOM     74  H   UNL     1      13.131  30.598  27.375  1.00  0.00     0.163 HD
ATOM     75  C   UNL     1      13.981  32.109  29.364  1.00  0.00     0.114 C 
ATOM     76  O   UNL     1      14.848  33.341  27.528  1.00  0.00    -0.275 OA
ENDBRANCH   4  72
TORSDOF 30
