REMARK VINA RESULT:    -6.881     21.039     26.183
REMARK INTER + INTRA:         -22.475
REMARK INTER:                 -17.402
REMARK INTRA:                  -5.073
REMARK UNBOUND:                -5.539
REMARK SMILES CC(=O)N[C@@H]1[C@@H](O)C[C@](OC[C@H]2O[C@@H](O[C@H]3[C@H](O)[C@@H](O)[C@H](OCCN=[N+]=[N-])O[C@@H]3CO)[C@H](O)[C@@H](O)[C@H]2O)(C(=O)O)O[C@H]1C(O)[C@H](O)CNC(=O)OCc1cn(-c2c3ccccc3nc3ccccc23)nn1
REMARK SMILES IDX 9 1 8 2 6 3 5 4 42 5 41 6 10 7 11 8 12 9 14 10 13 11 32 12
REMARK SMILES IDX 34 13 36 14 15 15 16 16 29 17 28 18 21 19 17 20 19 21 30 22
REMARK SMILES IDX 31 23 22 25 23 26 24 27 25 28 26 29 27 30 18 31 20 33 33 35
REMARK SMILES IDX 35 37 37 39 38 41 39 42 40 43 7 45 43 47 44 48 45 50 46 51
REMARK SMILES IDX 47 53 48 54 49 55 50 57 51 58 52 59 53 60 54 61 71 62 55 63
REMARK SMILES IDX 70 64 56 65 57 66 69 67 58 68 62 69 64 70 68 71 59 72 61 73
REMARK SMILES IDX 63 74 65 75 67 76 60 77 66 78 4 79 2 80 1 82 3 83
REMARK H PARENT 31 24 18 32 20 34 33 36 35 38 37 40 40 44 7 46 44 49 46 52
REMARK H PARENT 48 56 4 81
REMARK Flexibility Score: inf
ROOT
ATOM      1  C   UNL     1      22.733  22.701  12.520  1.00  0.00     0.272 C 
ATOM      2  C   UNL     1      21.232  22.751  13.093  1.00  0.00     0.113 C 
ATOM      3  C   UNL     1      20.467  21.919  12.130  1.00  0.00     0.145 C 
ATOM      4  C   UNL     1      21.009  20.520  11.926  1.00  0.00     0.142 C 
ATOM      5  C   UNL     1      22.456  20.387  12.163  1.00  0.00     0.178 C 
ATOM      6  O   UNL     1      23.098  21.438  12.725  1.00  0.00    -0.332 OA
ENDROOT
BRANCH   1   7
ATOM      7  O   UNL     1      23.348  23.523  13.467  1.00  0.00    -0.338 OA
BRANCH   7   8
ATOM      8  C   UNL     1      22.623  23.847  14.563  1.00  0.00     0.199 C 
BRANCH   8   9
ATOM      9  C   UNL     1      22.682  25.267  14.976  1.00  0.00     0.179 C 
ATOM     10  C   UNL     1      22.496  26.775  16.747  1.00  0.00     0.282 C 
ATOM     11  O   UNL     1      22.389  25.440  16.300  1.00  0.00    -0.341 OA
ATOM     12  C   UNL     1      22.686  27.762  15.673  1.00  0.00     0.202 C 
ATOM     13  C   UNL     1      23.832  27.396  14.758  1.00  0.00     0.179 C 
ATOM     14  C   UNL     1      24.021  25.921  14.627  1.00  0.00     0.177 C 
BRANCH  10  15
ATOM     15  O   UNL     1      23.453  26.856  17.749  1.00  0.00    -0.341 OA
BRANCH  15  16
ATOM     16  C   UNL     1      23.187  25.977  18.825  1.00  0.00     0.184 C 
ATOM     17  C   UNL     1      22.915  26.753  20.050  1.00  0.00     0.178 C 
ATOM     18  O   UNL     1      23.100  26.010  21.246  1.00  0.00    -0.341 OA
ATOM     19  C   UNL     1      24.450  25.687  21.305  1.00  0.00     0.281 C 
ATOM     20  C   UNL     1      24.479  25.154  18.949  1.00  0.00     0.180 C 
ATOM     21  C   UNL     1      24.618  24.528  20.309  1.00  0.00     0.202 C 
BRANCH  17  22
ATOM     22  C   UNL     1      21.482  27.260  20.087  1.00  0.00     0.191 C 
BRANCH  22  23
ATOM     23  O   UNL     1      20.786  26.855  21.196  1.00  0.00    -0.394 OA
ATOM     24  H   UNL     1      20.585  27.647  21.758  1.00  0.00     0.210 HD
ENDBRANCH  22  23
ENDBRANCH  17  22
BRANCH  19  25
ATOM     25  O   UNL     1      24.743  25.323  22.595  1.00  0.00    -0.350 OA
BRANCH  25  26
ATOM     26  C   UNL     1      23.840  24.428  23.161  1.00  0.00     0.169 C 
BRANCH  26  27
ATOM     27  C   UNL     1      23.687  24.637  24.652  1.00  0.00     0.119 C 
BRANCH  27  28
ATOM     28  N   UNL     1      22.257  24.593  24.944  1.00  0.00    -0.092 NA
ATOM     29  N   UNL     1      21.506  25.490  24.545  1.00  0.00     0.001 N 
ATOM     30  N   UNL     1      20.702  26.320  24.116  1.00  0.00    -0.003 NA
ENDBRANCH  27  28
ENDBRANCH  26  27
ENDBRANCH  25  26
ENDBRANCH  19  25
BRANCH  20  31
ATOM     31  O   UNL     1      24.547  24.227  17.921  1.00  0.00    -0.387 OA
ATOM     32  H   UNL     1      24.258  24.594  17.049  1.00  0.00     0.211 HD
ENDBRANCH  20  31
BRANCH  21  33
ATOM     33  O   UNL     1      25.862  23.950  20.424  1.00  0.00    -0.385 OA
ATOM     34  H   UNL     1      25.738  23.077  20.904  1.00  0.00     0.211 HD
ENDBRANCH  21  33
ENDBRANCH  15  16
ENDBRANCH  10  15
BRANCH  12  35
ATOM     35  O   UNL     1      21.491  27.973  14.968  1.00  0.00    -0.385 OA
ATOM     36  H   UNL     1      20.949  28.590  15.545  1.00  0.00     0.211 HD
ENDBRANCH  12  35
BRANCH  13  37
ATOM     37  O   UNL     1      24.989  28.022  15.260  1.00  0.00    -0.387 OA
ATOM     38  H   UNL     1      25.490  27.293  15.749  1.00  0.00     0.211 HD
ENDBRANCH  13  37
BRANCH  14  39
ATOM     39  O   UNL     1      25.061  25.428  15.388  1.00  0.00    -0.387 OA
ATOM     40  H   UNL     1      24.809  24.635  15.925  1.00  0.00     0.211 HD
ENDBRANCH  14  39
ENDBRANCH   8   9
ENDBRANCH   7   8
ENDBRANCH   1   7
BRANCH   1  41
ATOM     41  C   UNL     1      22.599  23.294  11.231  1.00  0.00     0.364 C 
ATOM     42  O   UNL     1      22.105  24.460  11.094  1.00  0.00    -0.246 OA
BRANCH  41  43
ATOM     43  O   UNL     1      22.972  22.713  10.014  1.00  0.00    -0.477 OA
ATOM     44  H   UNL     1      23.262  21.744  10.007  1.00  0.00     0.296 HD
ENDBRANCH  41  43
ENDBRANCH   1  41
BRANCH   3  45
ATOM     45  O   UNL     1      19.139  21.859  12.618  1.00  0.00    -0.391 OA
ATOM     46  H   UNL     1      18.682  22.717  12.415  1.00  0.00     0.211 HD
ENDBRANCH   3  45
BRANCH   5  47
ATOM     47  C   UNL     1      22.775  19.186  13.095  1.00  0.00     0.176 C 
BRANCH  47  48
ATOM     48  O   UNL     1      21.625  18.629  13.571  1.00  0.00    -0.388 OA
ATOM     49  H   UNL     1      21.023  19.274  14.059  1.00  0.00     0.211 HD
ENDBRANCH  47  48
BRANCH  47  50
ATOM     50  C   UNL     1      23.843  18.323  12.598  1.00  0.00     0.165 C 
BRANCH  50  51
ATOM     51  O   UNL     1      23.462  17.112  12.016  1.00  0.00    -0.388 OA
ATOM     52  H   UNL     1      23.015  16.516  12.668  1.00  0.00     0.211 HD
ENDBRANCH  50  51
BRANCH  50  53
ATOM     53  C   UNL     1      25.117  18.251  13.347  1.00  0.00     0.154 C 
BRANCH  53  54
ATOM     54  N   UNL     1      26.069  19.293  13.239  1.00  0.00    -0.319 N 
ATOM     55  C   UNL     1      26.075  20.480  14.001  1.00  0.00     0.407 C 
ATOM     56  H   UNL     1      26.869  19.174  12.510  1.00  0.00     0.167 HD
ATOM     57  O   UNL     1      25.225  20.780  14.853  1.00  0.00    -0.225 OA
BRANCH  55  58
ATOM     58  O   UNL     1      27.096  21.436  13.829  1.00  0.00    -0.443 OA
BRANCH  58  59
ATOM     59  C   UNL     1      27.316  22.499  14.740  1.00  0.00     0.294 C 
BRANCH  59  60
ATOM     60  C   UNL     1      28.305  22.071  15.771  1.00  0.00     0.121 A 
ATOM     61  C   UNL     1      28.264  20.961  16.587  1.00  0.00     0.144 A 
ATOM     62  N   UNL     1      29.434  22.710  16.109  1.00  0.00    -0.131 NA
ATOM     63  N   UNL     1      29.348  20.938  17.396  1.00  0.00    -0.219 N 
ATOM     64  N   UNL     1      30.042  22.019  17.081  1.00  0.00    -0.062 NA
BRANCH  63  65
ATOM     65  C   UNL     1      29.658  19.942  18.387  1.00  0.00     0.085 A 
ATOM     66  C   UNL     1      30.456  18.857  18.055  1.00  0.00     0.027 A 
ATOM     67  C   UNL     1      29.184  20.020  19.676  1.00  0.00     0.027 A 
ATOM     68  C   UNL     1      30.962  18.723  16.780  1.00  0.00     0.012 A 
ATOM     69  C   UNL     1      30.781  17.865  18.976  1.00  0.00     0.073 A 
ATOM     70  C   UNL     1      29.529  19.018  20.556  1.00  0.00     0.073 A 
ATOM     71  C   UNL     1      28.396  21.060  20.072  1.00  0.00     0.012 A 
ATOM     72  C   UNL     1      31.756  17.646  16.450  1.00  0.00     0.001 A 
ATOM     73  C   UNL     1      31.575  16.790  18.641  1.00  0.00     0.029 A 
ATOM     74  N   UNL     1      30.303  17.970  20.222  1.00  0.00    -0.248 NA
ATOM     75  C   UNL     1      29.073  19.062  21.857  1.00  0.00     0.029 A 
ATOM     76  C   UNL     1      27.951  21.079  21.388  1.00  0.00     0.001 A 
ATOM     77  C   UNL     1      32.081  16.654  17.371  1.00  0.00     0.002 A 
ATOM     78  C   UNL     1      28.272  20.098  22.302  1.00  0.00     0.002 A 
ENDBRANCH  63  65
ENDBRANCH  59  60
ENDBRANCH  58  59
ENDBRANCH  55  58
ENDBRANCH  53  54
ENDBRANCH  50  53
ENDBRANCH  47  50
ENDBRANCH   5  47
BRANCH   4  79
ATOM     79  N   UNL     1      20.576  20.032  10.637  1.00  0.00    -0.348 N 
ATOM     80  C   UNL     1      19.624  18.985  10.450  1.00  0.00     0.217 C 
ATOM     81  H   UNL     1      20.961  20.439   9.753  1.00  0.00     0.163 HD
ATOM     82  C   UNL     1      19.260  18.563   9.055  1.00  0.00     0.114 C 
ATOM     83  O   UNL     1      19.132  18.461  11.461  1.00  0.00    -0.275 OA
ENDBRANCH   4  79
TORSDOF 30
