REMARK VINA RESULT:    -7.985     15.832     19.870
REMARK INTER + INTRA:         -19.380
REMARK INTER:                 -14.155
REMARK INTRA:                  -5.224
REMARK UNBOUND:                 3.076
REMARK SMILES CC(=O)N[C@@H]1[C@@H](O)C[C@](OC[C@H]2O[C@@H](O[C@H]3[C@H](O)[C@@H](O)[C@H](OCCN=[N+]=[N-])O[C@@H]3CO)[C@H](O)[C@@H](O)[C@H]2O)(C(=O)O)O[C@H]1C(O)[C@H](O)CNC(=O)OCc1cn(C2CC(O)C=C[C@@H](O)C2)nn1
REMARK SMILES IDX 43 1 42 2 9 3 8 4 41 5 6 6 5 7 10 8 11 9 12 10 14 11 13 12
REMARK SMILES IDX 32 13 34 14 36 15 15 16 16 17 29 18 28 19 21 20 17 21 19 22
REMARK SMILES IDX 30 23 31 24 22 26 23 27 24 28 25 29 26 30 27 31 18 32 20 34
REMARK SMILES IDX 33 36 35 38 37 40 38 42 39 43 40 44 7 46 4 48 2 49 1 51 3 52
REMARK SMILES IDX 44 53 45 55 46 56 47 58 48 59 49 60 50 62 51 63 52 64 53 65
REMARK SMILES IDX 54 66 66 67 55 68 65 69 56 70 57 71 58 72 59 74 64 76 62 77
REMARK SMILES IDX 61 78 60 79 63 81
REMARK H PARENT 31 25 18 33 20 35 33 37 35 39 37 41 40 45 7 47 4 50 44 54
REMARK H PARENT 46 57 48 61 59 75 63 82
REMARK Flexibility Score: 90.00
ROOT
ATOM      1  C   UNL     1       3.836  23.892  32.433  1.00  0.00     0.176 C 
ENDROOT
BRANCH   1   2
ATOM      2  C   UNL     1       2.978  22.643  32.330  1.00  0.00     0.178 C 
ATOM      3  C   UNL     1       2.009  21.383  30.596  1.00  0.00     0.272 C 
ATOM      4  C   UNL     1       1.064  20.733  31.539  1.00  0.00     0.113 C 
ATOM      5  O   UNL     1       2.625  22.521  30.956  1.00  0.00    -0.332 OA
ATOM      6  C   UNL     1       1.228  21.130  32.961  1.00  0.00     0.145 C 
ATOM      7  C   UNL     1       1.704  22.613  33.057  1.00  0.00     0.142 C 
BRANCH   3   8
ATOM      8  O   UNL     1       1.358  21.515  29.352  1.00  0.00    -0.338 OA
BRANCH   8   9
ATOM      9  C   UNL     1       0.364  22.449  29.320  1.00  0.00     0.199 C 
BRANCH   9  10
ATOM     10  C   UNL     1       0.624  23.487  28.228  1.00  0.00     0.179 C 
ATOM     11  C   UNL     1       2.520  24.657  27.618  1.00  0.00     0.282 C 
ATOM     12  O   UNL     1       1.646  24.282  28.640  1.00  0.00    -0.341 OA
ATOM     13  C   UNL     1       3.176  23.359  27.187  1.00  0.00     0.202 C 
ATOM     14  C   UNL     1       2.127  22.601  26.406  1.00  0.00     0.179 C 
ATOM     15  C   UNL     1       0.734  22.868  26.878  1.00  0.00     0.177 C 
BRANCH  11  16
ATOM     16  O   UNL     1       3.401  25.593  28.103  1.00  0.00    -0.341 OA
BRANCH  16  17
ATOM     17  C   UNL     1       3.606  26.588  27.143  1.00  0.00     0.184 C 
ATOM     18  C   UNL     1       5.063  26.972  27.094  1.00  0.00     0.178 C 
ATOM     19  O   UNL     1       5.483  27.762  28.133  1.00  0.00    -0.341 OA
ATOM     20  C   UNL     1       4.458  28.194  28.971  1.00  0.00     0.281 C 
ATOM     21  C   UNL     1       2.702  27.775  27.332  1.00  0.00     0.180 C 
ATOM     22  C   UNL     1       3.361  28.856  28.145  1.00  0.00     0.202 C 
BRANCH  18  23
ATOM     23  C   UNL     1       5.401  27.636  25.766  1.00  0.00     0.191 C 
BRANCH  23  24
ATOM     24  O   UNL     1       4.814  26.989  24.694  1.00  0.00    -0.394 OA
ATOM     25  H   UNL     1       5.376  26.298  24.310  1.00  0.00     0.210 HD
ENDBRANCH  23  24
ENDBRANCH  18  23
BRANCH  20  26
ATOM     26  O   UNL     1       5.032  29.119  29.837  1.00  0.00    -0.350 OA
BRANCH  26  27
ATOM     27  C   UNL     1       5.430  28.458  30.993  1.00  0.00     0.169 C 
BRANCH  27  28
ATOM     28  C   UNL     1       4.273  28.299  31.964  1.00  0.00     0.119 C 
BRANCH  28  29
ATOM     29  N   UNL     1       4.443  27.114  32.779  1.00  0.00    -0.092 NA
ATOM     30  N   UNL     1       4.247  27.194  34.003  1.00  0.00     0.001 N 
ATOM     31  N   UNL     1       4.123  27.430  35.213  1.00  0.00    -0.003 NA
ENDBRANCH  28  29
ENDBRANCH  27  28
ENDBRANCH  26  27
ENDBRANCH  20  26
BRANCH  21  32
ATOM     32  O   UNL     1       2.310  28.286  26.095  1.00  0.00    -0.387 OA
ATOM     33  H   UNL     1       2.700  29.177  25.923  1.00  0.00     0.211 HD
ENDBRANCH  21  32
BRANCH  22  34
ATOM     34  O   UNL     1       2.448  29.471  28.995  1.00  0.00    -0.385 OA
ATOM     35  H   UNL     1       1.991  30.223  28.536  1.00  0.00     0.211 HD
ENDBRANCH  22  34
ENDBRANCH  16  17
ENDBRANCH  11  16
BRANCH  13  36
ATOM     36  O   UNL     1       4.308  23.521  26.433  1.00  0.00    -0.385 OA
ATOM     37  H   UNL     1       4.160  23.680  25.488  1.00  0.00     0.211 HD
ENDBRANCH  13  36
BRANCH  14  38
ATOM     38  O   UNL     1       2.474  21.252  26.475  1.00  0.00    -0.387 OA
ATOM     39  H   UNL     1       1.848  20.753  27.069  1.00  0.00     0.211 HD
ENDBRANCH  14  38
BRANCH  15  40
ATOM     40  O   UNL     1       0.001  21.664  26.917  1.00  0.00    -0.387 OA
ATOM     41  H   UNL     1      -0.228  21.321  26.041  1.00  0.00     0.211 HD
ENDBRANCH  15  40
ENDBRANCH   9  10
ENDBRANCH   8   9
ENDBRANCH   3   8
BRANCH   3  42
ATOM     42  C   UNL     1       3.105  20.369  30.350  1.00  0.00     0.364 C 
ATOM     43  O   UNL     1       2.967  19.146  30.620  1.00  0.00    -0.246 OA
BRANCH  42  44
ATOM     44  O   UNL     1       4.293  20.829  29.807  1.00  0.00    -0.477 OA
ATOM     45  H   UNL     1       4.852  20.243  29.187  1.00  0.00     0.296 HD
ENDBRANCH  42  44
ENDBRANCH   3  42
BRANCH   6  46
ATOM     46  O   UNL     1       0.068  20.961  33.676  1.00  0.00    -0.391 OA
ATOM     47  H   UNL     1       0.148  21.385  34.557  1.00  0.00     0.211 HD
ENDBRANCH   6  46
BRANCH   7  48
ATOM     48  N   UNL     1       1.609  23.031  34.401  1.00  0.00    -0.348 N 
ATOM     49  C   UNL     1       0.516  23.830  34.825  1.00  0.00     0.217 C 
ATOM     50  H   UNL     1       2.311  22.741  35.106  1.00  0.00     0.163 HD
ATOM     51  C   UNL     1       0.394  24.282  36.236  1.00  0.00     0.114 C 
ATOM     52  O   UNL     1      -0.365  24.163  33.997  1.00  0.00    -0.275 OA
ENDBRANCH   7  48
ENDBRANCH   1   2
BRANCH   1  53
ATOM     53  O   UNL     1       3.685  24.426  31.078  1.00  0.00    -0.388 OA
ATOM     54  H   UNL     1       4.023  23.720  30.444  1.00  0.00     0.211 HD
ENDBRANCH   1  53
BRANCH   1  55
ATOM     55  C   UNL     1       5.313  23.624  32.478  1.00  0.00     0.165 C 
BRANCH  55  56
ATOM     56  O   UNL     1       5.620  22.333  32.120  1.00  0.00    -0.388 OA
ATOM     57  H   UNL     1       5.063  21.975  31.393  1.00  0.00     0.211 HD
ENDBRANCH  55  56
BRANCH  55  58
ATOM     58  C   UNL     1       5.856  23.822  33.889  1.00  0.00     0.154 C 
BRANCH  58  59
ATOM     59  N   UNL     1       7.161  24.399  33.937  1.00  0.00    -0.319 N 
ATOM     60  C   UNL     1       8.352  23.623  33.926  1.00  0.00     0.407 C 
ATOM     61  H   UNL     1       7.267  25.457  33.985  1.00  0.00     0.167 HD
ATOM     62  O   UNL     1       8.213  22.367  33.872  1.00  0.00    -0.225 OA
BRANCH  60  63
ATOM     63  O   UNL     1       9.583  24.235  33.972  1.00  0.00    -0.443 OA
BRANCH  63  64
ATOM     64  C   UNL     1       9.976  24.990  35.115  1.00  0.00     0.294 C 
BRANCH  64  65
ATOM     65  C   UNL     1      10.027  24.068  36.271  1.00  0.00     0.120 A 
ATOM     66  C   UNL     1       9.371  24.170  37.470  1.00  0.00     0.138 A 
ATOM     67  N   UNL     1      10.758  22.941  36.336  1.00  0.00    -0.132 NA
ATOM     68  N   UNL     1       9.729  23.100  38.224  1.00  0.00    -0.249 N 
ATOM     69  N   UNL     1      10.567  22.378  37.510  1.00  0.00    -0.067 NA
BRANCH  68  70
ATOM     70  C   UNL     1       9.273  22.800  39.589  1.00  0.00     0.115 C 
BRANCH  70  71
ATOM     71  C   UNL     1       7.812  23.086  39.675  1.00  0.00     0.063 C 
BRANCH  71  72
ATOM     72  C   UNL     1       7.455  23.411  41.129  1.00  0.00     0.139 CG0
ATOM     73  G   UNL     1       7.496  22.172  41.922  1.00  0.00     0.000 G0
BRANCH  72  74
ATOM     74  O   UNL     1       6.198  24.010  41.186  1.00  0.00    -0.389 OA
ATOM     75  H   UNL     1       5.719  23.638  41.981  1.00  0.00     0.211 HD
ENDBRANCH  72  74
ENDBRANCH  71  72
ENDBRANCH  70  71
BRANCH  70  76
ATOM     76  C   UNL     1       9.567  21.362  39.881  1.00  0.00     0.063 C 
BRANCH  76  77
ATOM     77  C   UNL     1       9.768  21.256  41.397  1.00  0.00     0.139 C 
BRANCH  77  78
ATOM     78  C   UNL     1       8.444  21.239  42.075  1.00  0.00     0.002 C 
ATOM     79  C   UNL     1       7.491  22.153  41.951  1.00  0.00     0.002 CG0
ATOM     80  G   UNL     1       7.469  23.385  41.147  1.00  0.00     0.000 G0
ENDBRANCH  77  78
BRANCH  77  81
ATOM     81  O   UNL     1      10.526  20.146  41.737  1.00  0.00    -0.389 OA
ATOM     82  H   UNL     1      10.578  19.562  40.929  1.00  0.00     0.211 HD
ENDBRANCH  77  81
ENDBRANCH  76  77
ENDBRANCH  70  76
ENDBRANCH  68  70
ENDBRANCH  64  65
ENDBRANCH  63  64
ENDBRANCH  60  63
ENDBRANCH  58  59
ENDBRANCH  55  58
ENDBRANCH   1  55
TORSDOF 32
