REMARK VINA RESULT:    -6.556      4.215     11.541
REMARK INTER + INTRA:         -24.781
REMARK INTER:                 -15.481
REMARK INTRA:                  -9.299
REMARK UNBOUND:                -7.494
REMARK SMILES CC(=O)N[C@@H]1[C@@H](O)C[C@](OC[C@H]2O[C@@H](O[C@H]3[C@H](O)[C@@H](O)[C@H](OCCN=[N+]=[N-])O[C@@H]3CO)[C@H](O)[C@@H](O)[C@H]2O)(C(=O)O)O[C@H]1C(O)[C@H](O)CNC(=O)OCc1cn(C(C)CC(=O)c2ccccc2)nn1
REMARK SMILES IDX 43 1 42 2 9 3 8 4 41 5 6 6 5 7 10 8 11 9 12 10 14 11 13 12
REMARK SMILES IDX 32 13 34 14 36 15 15 16 16 17 29 18 28 19 21 20 17 21 19 22
REMARK SMILES IDX 30 23 31 24 22 26 23 27 24 28 25 29 26 30 27 31 18 32 20 34
REMARK SMILES IDX 33 36 35 38 37 40 38 42 39 43 40 44 7 46 4 48 2 49 1 51 3 52
REMARK SMILES IDX 44 53 45 55 46 56 47 58 48 59 49 60 50 62 51 63 52 64 53 65
REMARK SMILES IDX 54 66 68 67 55 68 67 69 56 70 57 71 58 72 59 73 60 74 61 75
REMARK SMILES IDX 62 76 66 77 63 78 65 79 64 80
REMARK H PARENT 31 25 18 33 20 35 33 37 35 39 37 41 40 45 7 47 4 50 44 54
REMARK H PARENT 46 57 48 61
REMARK Flexibility Score: inf
ROOT
ATOM      1  C   UNL     1      15.136  32.804  19.961  1.00  0.00     0.176 C 
ENDROOT
BRANCH   1   2
ATOM      2  C   UNL     1      14.593  32.403  21.261  1.00  0.00     0.178 C 
ATOM      3  C   UNL     1      15.224  30.303  22.133  1.00  0.00     0.272 C 
ATOM      4  C   UNL     1      13.923  30.093  22.830  1.00  0.00     0.113 C 
ATOM      5  O   UNL     1      15.387  31.737  22.110  1.00  0.00    -0.332 OA
ATOM      6  C   UNL     1      12.907  31.151  22.444  1.00  0.00     0.145 C 
ATOM      7  C   UNL     1      13.208  31.734  21.115  1.00  0.00     0.142 C 
BRANCH   3   8
ATOM      8  O   UNL     1      15.452  29.874  20.927  1.00  0.00    -0.338 OA
BRANCH   8   9
ATOM      9  C   UNL     1      15.061  28.946  20.127  1.00  0.00     0.199 C 
BRANCH   9  10
ATOM     10  C   UNL     1      15.786  28.375  18.952  1.00  0.00     0.179 C 
ATOM     11  C   UNL     1      16.259  29.095  16.747  1.00  0.00     0.282 C 
ATOM     12  O   UNL     1      15.529  29.126  17.875  1.00  0.00    -0.341 OA
ATOM     13  C   UNL     1      17.714  29.270  17.030  1.00  0.00     0.202 C 
ATOM     14  C   UNL     1      18.178  28.513  18.190  1.00  0.00     0.179 C 
ATOM     15  C   UNL     1      17.186  27.947  19.149  1.00  0.00     0.177 C 
BRANCH  11  16
ATOM     16  O   UNL     1      15.769  30.175  15.963  1.00  0.00    -0.341 OA
BRANCH  16  17
ATOM     17  C   UNL     1      15.359  29.700  14.741  1.00  0.00     0.184 C 
ATOM     18  C   UNL     1      14.962  30.818  13.822  1.00  0.00     0.178 C 
ATOM     19  O   UNL     1      13.845  31.495  14.285  1.00  0.00    -0.341 OA
ATOM     20  C   UNL     1      12.736  30.755  14.555  1.00  0.00     0.281 C 
ATOM     21  C   UNL     1      14.144  28.775  14.961  1.00  0.00     0.180 C 
ATOM     22  C   UNL     1      12.951  29.544  15.396  1.00  0.00     0.202 C 
BRANCH  18  23
ATOM     23  C   UNL     1      14.774  30.331  12.399  1.00  0.00     0.191 C 
BRANCH  23  24
ATOM     24  O   UNL     1      15.777  29.457  11.998  1.00  0.00    -0.394 OA
ATOM     25  H   UNL     1      15.386  28.552  11.869  1.00  0.00     0.210 HD
ENDBRANCH  23  24
ENDBRANCH  18  23
BRANCH  20  26
ATOM     26  O   UNL     1      11.953  30.464  13.466  1.00  0.00    -0.350 OA
BRANCH  26  27
ATOM     27  C   UNL     1      10.879  29.654  13.714  1.00  0.00     0.169 C 
BRANCH  27  28
ATOM     28  C   UNL     1       9.976  29.497  12.520  1.00  0.00     0.119 C 
BRANCH  28  29
ATOM     29  N   UNL     1       8.680  29.035  12.982  1.00  0.00    -0.092 NA
ATOM     30  N   UNL     1       8.006  29.756  13.713  1.00  0.00     0.001 N 
ATOM     31  N   UNL     1       7.262  30.564  14.273  1.00  0.00    -0.003 NA
ENDBRANCH  28  29
ENDBRANCH  27  28
ENDBRANCH  26  27
ENDBRANCH  20  26
BRANCH  21  32
ATOM     32  O   UNL     1      13.918  27.985  13.841  1.00  0.00    -0.387 OA
ATOM     33  H   UNL     1      13.970  27.020  14.040  1.00  0.00     0.211 HD
ENDBRANCH  21  32
BRANCH  22  34
ATOM     34  O   UNL     1      12.969  29.822  16.764  1.00  0.00    -0.385 OA
ATOM     35  H   UNL     1      13.895  30.115  16.963  1.00  0.00     0.211 HD
ENDBRANCH  22  34
ENDBRANCH  16  17
ENDBRANCH  11  16
BRANCH  13  36
ATOM     36  O   UNL     1      18.475  28.863  15.895  1.00  0.00    -0.385 OA
ATOM     37  H   UNL     1      17.800  28.712  15.182  1.00  0.00     0.211 HD
ENDBRANCH  13  36
BRANCH  14  38
ATOM     38  O   UNL     1      19.107  29.330  18.896  1.00  0.00    -0.387 OA
ATOM     39  H   UNL     1      19.474  28.863  19.682  1.00  0.00     0.211 HD
ENDBRANCH  14  38
BRANCH  15  40
ATOM     40  O   UNL     1      17.690  28.097  20.425  1.00  0.00    -0.387 OA
ATOM     41  H   UNL     1      17.698  28.975  20.814  1.00  0.00     0.211 HD
ENDBRANCH  15  40
ENDBRANCH   9  10
ENDBRANCH   8   9
ENDBRANCH   3   8
BRANCH   3  42
ATOM     42  C   UNL     1      16.324  29.887  23.109  1.00  0.00     0.364 C 
ATOM     43  O   UNL     1      16.042  29.678  24.295  1.00  0.00    -0.246 OA
BRANCH  42  44
ATOM     44  O   UNL     1      17.625  29.741  22.683  1.00  0.00    -0.477 OA
ATOM     45  H   UNL     1      17.862  28.882  22.200  1.00  0.00     0.296 HD
ENDBRANCH  42  44
ENDBRANCH   3  42
BRANCH   6  46
ATOM     46  O   UNL     1      11.608  30.671  22.554  1.00  0.00    -0.391 OA
ATOM     47  H   UNL     1      11.000  31.465  22.725  1.00  0.00     0.211 HD
ENDBRANCH   6  46
BRANCH   7  48
ATOM     48  N   UNL     1      12.269  32.808  20.806  1.00  0.00    -0.348 N 
ATOM     49  C   UNL     1      11.669  32.971  19.527  1.00  0.00     0.217 C 
ATOM     50  H   UNL     1      12.024  33.485  21.550  1.00  0.00     0.163 HD
ATOM     51  C   UNL     1      10.730  34.051  19.221  1.00  0.00     0.114 C 
ATOM     52  O   UNL     1      11.966  32.138  18.602  1.00  0.00    -0.275 OA
ENDBRANCH   7  48
ENDBRANCH   1   2
BRANCH   1  53
ATOM     53  O   UNL     1      15.024  31.817  18.953  1.00  0.00    -0.388 OA
ATOM     54  H   UNL     1      14.523  32.252  18.197  1.00  0.00     0.211 HD
ENDBRANCH   1  53
BRANCH   1  55
ATOM     55  C   UNL     1      16.572  33.279  19.917  1.00  0.00     0.165 C 
BRANCH  55  56
ATOM     56  O   UNL     1      16.788  34.378  19.150  1.00  0.00    -0.388 OA
ATOM     57  H   UNL     1      16.778  34.129  18.196  1.00  0.00     0.211 HD
ENDBRANCH  55  56
BRANCH  55  58
ATOM     58  C   UNL     1      17.398  32.099  19.385  1.00  0.00     0.154 C 
BRANCH  58  59
ATOM     59  N   UNL     1      18.157  31.490  20.454  1.00  0.00    -0.319 N 
ATOM     60  C   UNL     1      19.347  31.998  21.021  1.00  0.00     0.407 C 
ATOM     61  H   UNL     1      17.819  30.577  20.892  1.00  0.00     0.167 HD
ATOM     62  O   UNL     1      19.822  33.087  20.645  1.00  0.00    -0.225 OA
BRANCH  60  63
ATOM     63  O   UNL     1      20.040  31.292  22.025  1.00  0.00    -0.443 OA
BRANCH  63  64
ATOM     64  C   UNL     1      21.372  30.819  21.732  1.00  0.00     0.294 C 
BRANCH  64  65
ATOM     65  C   UNL     1      21.164  29.358  21.415  1.00  0.00     0.120 A 
ATOM     66  C   UNL     1      22.092  28.599  20.677  1.00  0.00     0.138 A 
ATOM     67  N   UNL     1      20.163  28.539  21.671  1.00  0.00    -0.132 NA
ATOM     68  N   UNL     1      21.605  27.359  20.517  1.00  0.00    -0.249 N 
ATOM     69  N   UNL     1      20.444  27.338  21.123  1.00  0.00    -0.067 NA
BRANCH  68  70
ATOM     70  C   UNL     1      22.298  26.305  19.773  1.00  0.00     0.114 C 
ATOM     71  C   UNL     1      22.731  26.853  18.449  1.00  0.00     0.034 C 
BRANCH  70  72
ATOM     72  C   UNL     1      23.376  25.692  20.605  1.00  0.00     0.108 C 
BRANCH  72  73
ATOM     73  C   UNL     1      22.786  24.539  21.337  1.00  0.00     0.164 C 
ATOM     74  O   UNL     1      22.258  23.599  20.739  1.00  0.00    -0.294 OA
BRANCH  73  75
ATOM     75  C   UNL     1      22.859  24.563  22.806  1.00  0.00     0.018 A 
ATOM     76  C   UNL     1      24.025  24.535  23.479  1.00  0.00     0.012 A 
ATOM     77  C   UNL     1      21.638  24.625  23.497  1.00  0.00     0.012 A 
ATOM     78  C   UNL     1      24.032  24.569  24.884  1.00  0.00     0.001 A 
ATOM     79  C   UNL     1      21.667  24.657  24.862  1.00  0.00     0.001 A 
ATOM     80  C   UNL     1      22.840  24.631  25.568  1.00  0.00     0.000 A 
ENDBRANCH  73  75
ENDBRANCH  72  73
ENDBRANCH  70  72
ENDBRANCH  68  70
ENDBRANCH  64  65
ENDBRANCH  63  64
ENDBRANCH  60  63
ENDBRANCH  58  59
ENDBRANCH  55  58
ENDBRANCH   1  55
TORSDOF 33
