REMARK VINA RESULT:    -6.739      8.213     12.525
REMARK INTER + INTRA:         -21.803
REMARK INTER:                 -15.317
REMARK INTRA:                  -6.486
REMARK UNBOUND:                -4.822
REMARK SMILES CC(=O)N[C@@H]1[C@@H](O)C[C@](OC[C@H]2O[C@@H](O[C@H]3[C@H](O)[C@@H](O)[C@H](OCCN=[N+]=[N-])O[C@@H]3CO)[C@H](O)[C@@H](O)[C@H]2O)(C(=O)O)O[C@H]1C(O)[C@H](O)CNC(=O)OCc1cn(Cc2ccccc2Br)nn1
REMARK SMILES IDX 9 1 8 2 6 3 5 4 42 5 41 6 10 7 11 8 12 9 14 10 13 11 32 12
REMARK SMILES IDX 34 13 36 14 15 15 16 16 29 17 28 18 21 19 17 20 19 21 30 22
REMARK SMILES IDX 31 23 22 25 23 26 24 27 25 28 26 29 27 30 18 31 20 33 33 35
REMARK SMILES IDX 35 37 37 39 38 41 39 42 40 43 7 45 43 47 44 48 45 50 46 51
REMARK SMILES IDX 47 53 48 54 49 55 50 57 51 58 52 59 53 60 54 61 65 62 55 63
REMARK SMILES IDX 64 64 56 65 57 66 58 67 62 68 59 69 61 70 63 71 60 72 4 73
REMARK SMILES IDX 2 74 1 76 3 77
REMARK H PARENT 31 24 18 32 20 34 33 36 35 38 37 40 40 44 7 46 44 49 46 52
REMARK H PARENT 48 56 4 75
REMARK Flexibility Score: inf
ROOT
ATOM      1  C   UNL     1      14.664  29.277  19.956  1.00  0.00     0.272 C 
ATOM      2  C   UNL     1      13.875  29.138  21.198  1.00  0.00     0.113 C 
ATOM      3  C   UNL     1      14.735  29.230  22.407  1.00  0.00     0.145 C 
ATOM      4  C   UNL     1      15.484  30.533  22.387  1.00  0.00     0.142 C 
ATOM      5  C   UNL     1      15.879  30.986  21.034  1.00  0.00     0.178 C 
ATOM      6  O   UNL     1      15.075  30.692  19.990  1.00  0.00    -0.332 OA
ENDROOT
BRANCH   1   7
ATOM      7  O   UNL     1      13.972  29.178  18.806  1.00  0.00    -0.338 OA
BRANCH   7   8
ATOM      8  C   UNL     1      13.993  29.912  17.740  1.00  0.00     0.199 C 
BRANCH   8   9
ATOM      9  C   UNL     1      14.814  29.813  16.532  1.00  0.00     0.179 C 
ATOM     10  C   UNL     1      16.779  29.254  15.490  1.00  0.00     0.282 C 
ATOM     11  O   UNL     1      15.915  28.951  16.569  1.00  0.00    -0.341 OA
ATOM     12  C   UNL     1      16.153  28.643  14.267  1.00  0.00     0.202 C 
ATOM     13  C   UNL     1      14.721  29.031  14.132  1.00  0.00     0.179 C 
ATOM     14  C   UNL     1      14.162  29.927  15.202  1.00  0.00     0.177 C 
BRANCH  10  15
ATOM     15  O   UNL     1      17.993  28.721  15.803  1.00  0.00    -0.341 OA
BRANCH  15  16
ATOM     16  C   UNL     1      19.076  29.548  15.815  1.00  0.00     0.184 C 
ATOM     17  C   UNL     1      20.260  29.097  15.035  1.00  0.00     0.178 C 
ATOM     18  O   UNL     1      21.386  29.206  15.847  1.00  0.00    -0.341 OA
ATOM     19  C   UNL     1      21.193  28.276  16.900  1.00  0.00     0.281 C 
ATOM     20  C   UNL     1      19.491  29.968  17.217  1.00  0.00     0.180 C 
ATOM     21  C   UNL     1      20.247  28.856  17.917  1.00  0.00     0.202 C 
BRANCH  17  22
ATOM     22  C   UNL     1      20.523  29.982  13.818  1.00  0.00     0.191 C 
BRANCH  22  23
ATOM     23  O   UNL     1      19.327  30.503  13.325  1.00  0.00    -0.394 OA
ATOM     24  H   UNL     1      18.768  30.900  14.032  1.00  0.00     0.210 HD
ENDBRANCH  22  23
ENDBRANCH  17  22
BRANCH  19  25
ATOM     25  O   UNL     1      22.462  28.018  17.413  1.00  0.00    -0.350 OA
BRANCH  25  26
ATOM     26  C   UNL     1      22.735  28.799  18.536  1.00  0.00     0.169 C 
BRANCH  26  27
ATOM     27  C   UNL     1      23.768  28.062  19.371  1.00  0.00     0.119 C 
BRANCH  27  28
ATOM     28  N   UNL     1      24.289  28.983  20.350  1.00  0.00    -0.092 NA
ATOM     29  N   UNL     1      24.811  28.591  21.397  1.00  0.00     0.001 N 
ATOM     30  N   UNL     1      24.900  28.112  22.547  1.00  0.00    -0.003 NA
ENDBRANCH  27  28
ENDBRANCH  26  27
ENDBRANCH  25  26
ENDBRANCH  19  25
BRANCH  20  31
ATOM     31  O   UNL     1      20.360  31.059  17.171  1.00  0.00    -0.387 OA
ATOM     32  H   UNL     1      20.644  31.151  16.219  1.00  0.00     0.211 HD
ENDBRANCH  20  31
BRANCH  21  33
ATOM     33  O   UNL     1      19.425  27.934  18.513  1.00  0.00    -0.385 OA
ATOM     34  H   UNL     1      18.987  27.386  17.821  1.00  0.00     0.211 HD
ENDBRANCH  21  33
ENDBRANCH  15  16
ENDBRANCH  10  15
BRANCH  12  35
ATOM     35  O   UNL     1      16.792  29.081  13.095  1.00  0.00    -0.385 OA
ATOM     36  H   UNL     1      16.231  28.786  12.343  1.00  0.00     0.211 HD
ENDBRANCH  12  35
BRANCH  13  37
ATOM     37  O   UNL     1      13.938  27.868  14.089  1.00  0.00    -0.387 OA
ATOM     38  H   UNL     1      13.265  27.901  13.381  1.00  0.00     0.211 HD
ENDBRANCH  13  37
BRANCH  14  39
ATOM     39  O   UNL     1      12.796  29.692  15.243  1.00  0.00    -0.387 OA
ATOM     40  H   UNL     1      12.377  29.449  14.405  1.00  0.00     0.211 HD
ENDBRANCH  14  39
ENDBRANCH   8   9
ENDBRANCH   7   8
ENDBRANCH   1   7
BRANCH   1  41
ATOM     41  C   UNL     1      15.988  28.623  19.902  1.00  0.00     0.364 C 
ATOM     42  O   UNL     1      16.307  27.542  20.448  1.00  0.00    -0.246 OA
BRANCH  41  43
ATOM     43  O   UNL     1      17.004  29.242  19.193  1.00  0.00    -0.477 OA
ATOM     44  H   UNL     1      16.842  29.668  18.280  1.00  0.00     0.296 HD
ENDBRANCH  41  43
ENDBRANCH   1  41
BRANCH   3  45
ATOM     45  O   UNL     1      13.824  29.263  23.512  1.00  0.00    -0.391 OA
ATOM     46  H   UNL     1      13.966  30.067  24.051  1.00  0.00     0.211 HD
ENDBRANCH   3  45
BRANCH   5  47
ATOM     47  C   UNL     1      16.045  32.509  21.038  1.00  0.00     0.176 C 
BRANCH  47  48
ATOM     48  O   UNL     1      15.392  32.997  19.916  1.00  0.00    -0.388 OA
ATOM     49  H   UNL     1      14.540  32.562  19.739  1.00  0.00     0.211 HD
ENDBRANCH  47  48
BRANCH  47  50
ATOM     50  C   UNL     1      17.471  32.933  21.006  1.00  0.00     0.165 C 
BRANCH  50  51
ATOM     51  O   UNL     1      17.604  34.322  20.839  1.00  0.00    -0.388 OA
ATOM     52  H   UNL     1      18.005  34.728  21.649  1.00  0.00     0.211 HD
ENDBRANCH  50  51
BRANCH  50  53
ATOM     53  C   UNL     1      18.182  32.315  19.830  1.00  0.00     0.154 C 
BRANCH  53  54
ATOM     54  N   UNL     1      19.480  31.872  20.200  1.00  0.00    -0.319 N 
ATOM     55  C   UNL     1      19.738  30.698  20.936  1.00  0.00     0.407 C 
ATOM     56  H   UNL     1      20.305  32.470  19.901  1.00  0.00     0.167 HD
ATOM     57  O   UNL     1      18.807  29.946  21.320  1.00  0.00    -0.225 OA
BRANCH  55  58
ATOM     58  O   UNL     1      21.045  30.319  21.272  1.00  0.00    -0.443 OA
BRANCH  58  59
ATOM     59  C   UNL     1      21.325  29.572  22.425  1.00  0.00     0.294 C 
BRANCH  59  60
ATOM     60  C   UNL     1      21.186  28.108  22.250  1.00  0.00     0.120 A 
ATOM     61  C   UNL     1      21.533  27.168  23.233  1.00  0.00     0.138 A 
ATOM     62  N   UNL     1      20.741  27.394  21.213  1.00  0.00    -0.132 NA
ATOM     63  N   UNL     1      21.284  25.956  22.749  1.00  0.00    -0.248 N 
ATOM     64  N   UNL     1      20.801  26.114  21.513  1.00  0.00    -0.067 NA
BRANCH  63  65
ATOM     65  C   UNL     1      21.462  24.650  23.385  1.00  0.00     0.182 C 
BRANCH  65  66
ATOM     66  C   UNL     1      22.476  24.650  24.460  1.00  0.00    -0.012 A 
ATOM     67  C   UNL     1      22.009  24.761  25.781  1.00  0.00     0.007 A 
ATOM     68  C   UNL     1      23.826  24.578  24.250  1.00  0.00     0.023 A 
ATOM     69  C   UNL     1      22.911  24.794  26.800  1.00  0.00     0.000 A 
ATOM     70  C   UNL     1      24.732  24.614  25.298  1.00  0.00     0.016 A 
ATOM     71  Br  UNL     1      24.519  24.366  22.494  1.00  0.00    -0.050 Br
ATOM     72  C   UNL     1      24.260  24.723  26.580  1.00  0.00     0.001 A 
ENDBRANCH  65  66
ENDBRANCH  63  65
ENDBRANCH  59  60
ENDBRANCH  58  59
ENDBRANCH  55  58
ENDBRANCH  53  54
ENDBRANCH  50  53
ENDBRANCH  47  50
ENDBRANCH   5  47
BRANCH   4  73
ATOM     73  N   UNL     1      16.642  30.419  23.234  1.00  0.00    -0.348 N 
ATOM     74  C   UNL     1      16.924  31.321  24.304  1.00  0.00     0.217 C 
ATOM     75  H   UNL     1      17.347  29.662  23.106  1.00  0.00     0.163 HD
ATOM     76  C   UNL     1      18.150  31.144  25.145  1.00  0.00     0.114 C 
ATOM     77  O   UNL     1      16.129  32.247  24.513  1.00  0.00    -0.275 OA
ENDBRANCH   4  73
TORSDOF 31
