REMARK VINA RESULT:    -4.919      2.988     11.191
REMARK INTER + INTRA:         -21.881
REMARK INTER:                 -13.764
REMARK INTRA:                  -8.117
REMARK UNBOUND:                -8.334
REMARK SMILES CC[N+](C)(CC)CCCn1cc(COC(=O)NC[C@@H](O)C(O)[C@@H]2O[C@@](OC[C@H]3O[C@@H](O[C@H]4[C@H](O)[C@@H](O)[C@H](OCCN=[N+]=[N-])O[C@@H]4CO)[C@H](O)[C@@H](O)[C@H]3O)(C(=O)O)C[C@H](O)[C@H]2NC(C)=O)nn1
REMARK SMILES IDX 21 1 23 2 25 3 57 4 24 5 58 6 60 7 26 8 27 9 28 10 30 11
REMARK SMILES IDX 29 12 48 13 50 14 52 15 31 16 32 17 45 18 44 19 37 20 33 21
REMARK SMILES IDX 35 22 46 23 47 24 38 26 39 27 40 28 41 29 42 30 43 31 34 32
REMARK SMILES IDX 36 34 49 36 51 38 53 40 54 42 55 43 56 44 59 46 61 48 62 49
REMARK SMILES IDX 63 51 64 52 22 53 19 55 20 56 18 58 17 59 15 60 16 62 14 63
REMARK SMILES IDX 13 64 12 65 11 66 65 67 10 68 66 69 9 70 8 71 7 72 3 73 4 74
REMARK SMILES IDX 2 75 1 76 5 77 6 78
REMARK H PARENT 47 25 34 33 36 35 49 37 51 39 53 41 56 45 59 47 61 50 22 54
REMARK H PARENT 20 57 17 61
REMARK Flexibility Score: inf
ROOT
ATOM      1  C   UNL     1      21.775  28.085  24.204  1.00  0.00     0.176 C 
ENDROOT
BRANCH   1   2
ATOM      2  C   UNL     1      22.400  26.751  23.805  1.00  0.00     0.178 C 
ATOM      3  C   UNL     1      23.298  25.684  21.902  1.00  0.00     0.272 C 
ATOM      4  C   UNL     1      22.756  24.449  22.542  1.00  0.00     0.113 C 
ATOM      5  O   UNL     1      22.530  26.758  22.434  1.00  0.00    -0.332 OA
ATOM      6  C   UNL     1      21.391  24.658  23.143  1.00  0.00     0.145 C 
ATOM      7  C   UNL     1      21.536  25.638  24.304  1.00  0.00     0.142 C 
BRANCH   3   8
ATOM      8  O   UNL     1      23.050  25.772  20.548  1.00  0.00    -0.338 OA
BRANCH   8   9
ATOM      9  C   UNL     1      23.922  25.261  19.663  1.00  0.00     0.199 C 
BRANCH   9  10
ATOM     10  C   UNL     1      23.185  24.688  18.424  1.00  0.00     0.179 C 
ATOM     11  C   UNL     1      22.609  26.650  17.249  1.00  0.00     0.282 C 
ATOM     12  O   UNL     1      22.239  25.505  17.942  1.00  0.00    -0.341 OA
ATOM     13  C   UNL     1      23.867  26.509  16.479  1.00  0.00     0.202 C 
ATOM     14  C   UNL     1      23.927  25.017  16.083  1.00  0.00     0.179 C 
ATOM     15  C   UNL     1      24.232  24.300  17.380  1.00  0.00     0.177 C 
BRANCH  11  16
ATOM     16  O   UNL     1      22.514  27.776  18.078  1.00  0.00    -0.341 OA
BRANCH  16  17
ATOM     17  C   UNL     1      21.305  28.400  17.985  1.00  0.00     0.184 C 
ATOM     18  C   UNL     1      21.218  29.768  17.463  1.00  0.00     0.178 C 
ATOM     19  O   UNL     1      19.896  30.078  17.198  1.00  0.00    -0.341 OA
ATOM     20  C   UNL     1      18.914  29.372  17.793  1.00  0.00     0.281 C 
ATOM     21  C   UNL     1      20.616  28.445  19.368  1.00  0.00     0.180 C 
ATOM     22  C   UNL     1      19.177  28.848  19.182  1.00  0.00     0.202 C 
BRANCH  18  23
ATOM     23  C   UNL     1      22.016  30.064  16.208  1.00  0.00     0.191 C 
BRANCH  23  24
ATOM     24  O   UNL     1      21.765  29.175  15.171  1.00  0.00    -0.394 OA
ATOM     25  H   UNL     1      21.157  29.663  14.527  1.00  0.00     0.210 HD
ENDBRANCH  23  24
ENDBRANCH  18  23
BRANCH  20  26
ATOM     26  O   UNL     1      18.409  28.401  16.947  1.00  0.00    -0.350 OA
BRANCH  26  27
ATOM     27  C   UNL     1      17.082  28.476  16.677  1.00  0.00     0.169 C 
BRANCH  27  28
ATOM     28  C   UNL     1      16.753  29.282  15.437  1.00  0.00     0.119 C 
BRANCH  28  29
ATOM     29  N   UNL     1      17.462  28.724  14.298  1.00  0.00    -0.092 NA
ATOM     30  N   UNL     1      18.485  29.224  13.835  1.00  0.00     0.001 N 
ATOM     31  N   UNL     1      19.525  29.695  13.371  1.00  0.00    -0.003 NA
ENDBRANCH  28  29
ENDBRANCH  27  28
ENDBRANCH  26  27
ENDBRANCH  20  26
BRANCH  21  32
ATOM     32  O   UNL     1      20.814  27.215  19.950  1.00  0.00    -0.387 OA
ATOM     33  H   UNL     1      21.365  26.594  19.448  1.00  0.00     0.211 HD
ENDBRANCH  21  32
BRANCH  22  34
ATOM     34  O   UNL     1      18.833  29.750  20.176  1.00  0.00    -0.385 OA
ATOM     35  H   UNL     1      18.029  30.293  19.965  1.00  0.00     0.211 HD
ENDBRANCH  22  34
ENDBRANCH  16  17
ENDBRANCH  11  16
BRANCH  13  36
ATOM     36  O   UNL     1      23.873  27.221  15.269  1.00  0.00    -0.385 OA
ATOM     37  H   UNL     1      23.242  27.966  15.371  1.00  0.00     0.211 HD
ENDBRANCH  13  36
BRANCH  14  38
ATOM     38  O   UNL     1      24.956  24.823  15.162  1.00  0.00    -0.387 OA
ATOM     39  H   UNL     1      24.614  24.210  14.480  1.00  0.00     0.211 HD
ENDBRANCH  14  38
BRANCH  15  40
ATOM     40  O   UNL     1      25.451  24.810  17.822  1.00  0.00    -0.387 OA
ATOM     41  H   UNL     1      25.663  25.706  17.518  1.00  0.00     0.211 HD
ENDBRANCH  15  40
ENDBRANCH   9  10
ENDBRANCH   8   9
ENDBRANCH   3   8
BRANCH   3  42
ATOM     42  C   UNL     1      24.725  25.938  22.162  1.00  0.00     0.364 C 
ATOM     43  O   UNL     1      25.496  25.034  22.553  1.00  0.00    -0.246 OA
BRANCH  42  44
ATOM     44  O   UNL     1      25.264  27.189  21.984  1.00  0.00    -0.477 OA
ATOM     45  H   UNL     1      24.764  28.050  22.198  1.00  0.00     0.296 HD
ENDBRANCH  42  44
ENDBRANCH   3  42
BRANCH   6  46
ATOM     46  O   UNL     1      20.466  25.143  22.249  1.00  0.00    -0.391 OA
ATOM     47  H   UNL     1      20.776  25.046  21.297  1.00  0.00     0.211 HD
ENDBRANCH   6  46
BRANCH   7  48
ATOM     48  N   UNL     1      22.281  24.887  25.330  1.00  0.00    -0.348 N 
ATOM     49  C   UNL     1      22.285  25.298  26.692  1.00  0.00     0.217 C 
ATOM     50  H   UNL     1      22.838  24.034  25.121  1.00  0.00     0.163 HD
ATOM     51  C   UNL     1      23.018  24.571  27.759  1.00  0.00     0.114 C 
ATOM     52  O   UNL     1      21.640  26.315  27.002  1.00  0.00    -0.275 OA
ENDBRANCH   7  48
ENDBRANCH   1   2
BRANCH   1  53
ATOM     53  O   UNL     1      20.404  27.849  24.560  1.00  0.00    -0.388 OA
ATOM     54  H   UNL     1      20.417  27.490  25.486  1.00  0.00     0.211 HD
ENDBRANCH   1  53
BRANCH   1  55
ATOM     55  C   UNL     1      21.750  29.032  23.048  1.00  0.00     0.165 C 
BRANCH  55  56
ATOM     56  O   UNL     1      23.158  29.360  22.870  1.00  0.00    -0.388 OA
ATOM     57  H   UNL     1      23.280  29.577  21.895  1.00  0.00     0.211 HD
ENDBRANCH  55  56
BRANCH  55  58
ATOM     58  C   UNL     1      21.018  30.311  23.218  1.00  0.00     0.154 C 
BRANCH  58  59
ATOM     59  N   UNL     1      19.723  30.510  22.743  1.00  0.00    -0.319 N 
ATOM     60  C   UNL     1      18.506  30.476  23.463  1.00  0.00     0.407 C 
ATOM     61  H   UNL     1      19.614  30.719  21.667  1.00  0.00     0.167 HD
ATOM     62  O   UNL     1      18.431  30.253  24.681  1.00  0.00    -0.225 OA
BRANCH  60  63
ATOM     63  O   UNL     1      17.282  30.694  22.784  1.00  0.00    -0.443 OA
BRANCH  63  64
ATOM     64  C   UNL     1      16.257  29.697  22.963  1.00  0.00     0.294 C 
BRANCH  64  65
ATOM     65  C   UNL     1      15.688  29.546  21.572  1.00  0.00     0.120 A 
ATOM     66  C   UNL     1      15.456  30.551  20.664  1.00  0.00     0.138 A 
ATOM     67  N   UNL     1      15.348  28.423  20.931  1.00  0.00    -0.132 NA
ATOM     68  N   UNL     1      14.984  29.997  19.501  1.00  0.00    -0.252 N 
ATOM     69  N   UNL     1      14.933  28.694  19.711  1.00  0.00    -0.067 NA
BRANCH  68  70
ATOM     70  C   UNL     1      14.664  30.724  18.286  1.00  0.00     0.152 C 
BRANCH  70  71
ATOM     71  C   UNL     1      13.705  30.013  17.432  1.00  0.00     0.085 C 
BRANCH  71  72
ATOM     72  C   UNL     1      12.657  30.749  16.706  1.00  0.00     0.265 C 
BRANCH  72  73
ATOM     73  N   UNL     1      12.384  30.406  15.350  1.00  0.00    -0.326 N 
ATOM     74  C   UNL     1      13.176  31.214  14.462  1.00  0.00     0.334 C 
BRANCH  73  75
ATOM     75  C   UNL     1      11.000  30.424  14.970  1.00  0.00     0.260 C 
ATOM     76  C   UNL     1      10.140  31.245  15.902  1.00  0.00     0.071 C 
ENDBRANCH  73  75
BRANCH  73  77
ATOM     77  C   UNL     1      12.884  29.033  15.173  1.00  0.00     0.260 C 
ATOM     78  C   UNL     1      13.392  28.746  13.804  1.00  0.00     0.071 C 
ENDBRANCH  73  77
ENDBRANCH  72  73
ENDBRANCH  71  72
ENDBRANCH  70  71
ENDBRANCH  68  70
ENDBRANCH  64  65
ENDBRANCH  63  64
ENDBRANCH  60  63
ENDBRANCH  58  59
ENDBRANCH  55  58
ENDBRANCH   1  55
TORSDOF 35
