REMARK VINA RESULT:    -6.102     22.190     27.185
REMARK INTER + INTRA:         -24.894
REMARK INTER:                 -17.139
REMARK INTRA:                  -7.754
REMARK UNBOUND:                -8.981
REMARK SMILES CC(=O)N[C@@H]1[C@@H](O)C[C@](OC[C@H]2O[C@@H](O[C@H]3[C@H](O)[C@@H](O)[C@H](OCCN=[N+]=[N-])O[C@@H]3CO)[C@H](O)[C@@H](O)[C@H]2O)(C(=O)O)O[C@H]1C(O)[C@H](O)CNC(=O)OCc1cn(-c2cc(C(=O)O)nc(-c3ccccc3)c2)nn1
REMARK SMILES IDX 9 1 8 2 6 3 5 4 42 5 41 6 10 7 11 8 12 9 14 10 13 11 32 12
REMARK SMILES IDX 34 13 36 14 15 15 16 16 29 17 28 18 21 19 17 20 19 21 30 22
REMARK SMILES IDX 31 23 22 25 23 26 24 27 25 28 26 29 27 30 18 31 20 33 33 35
REMARK SMILES IDX 35 37 37 39 38 41 39 42 40 43 7 45 43 47 44 48 45 50 46 51
REMARK SMILES IDX 47 53 48 54 49 55 50 57 51 58 52 59 53 60 54 61 72 62 55 63
REMARK SMILES IDX 71 64 56 65 57 66 70 67 58 68 63 69 62 70 59 71 60 72 61 73
REMARK SMILES IDX 64 75 65 76 69 77 66 78 68 79 67 80 4 81 2 82 1 84 3 85
REMARK H PARENT 31 24 18 32 20 34 33 36 35 38 37 40 40 44 7 46 44 49 46 52
REMARK H PARENT 48 56 61 74 4 83
REMARK Flexibility Score: inf
ROOT
ATOM      1  C   UNL     1       9.017  23.835  35.945  1.00  0.00     0.272 C 
ATOM      2  C   UNL     1      10.144  22.862  36.344  1.00  0.00     0.113 C 
ATOM      3  C   UNL     1      11.063  23.391  37.383  1.00  0.00     0.145 C 
ATOM      4  C   UNL     1      11.414  24.860  37.187  1.00  0.00     0.142 C 
ATOM      5  C   UNL     1      10.798  25.217  35.831  1.00  0.00     0.178 C 
ATOM      6  O   UNL     1       9.435  25.163  36.020  1.00  0.00    -0.332 OA
ENDROOT
BRANCH   1   7
ATOM      7  O   UNL     1       8.024  23.621  36.847  1.00  0.00    -0.338 OA
BRANCH   7   8
ATOM      8  C   UNL     1       7.583  24.647  37.618  1.00  0.00     0.199 C 
BRANCH   8   9
ATOM      9  C   UNL     1       6.090  24.941  37.328  1.00  0.00     0.179 C 
ATOM     10  C   UNL     1       4.508  24.545  35.652  1.00  0.00     0.282 C 
ATOM     11  O   UNL     1       5.803  24.451  36.094  1.00  0.00    -0.341 OA
ATOM     12  C   UNL     1       3.617  24.916  36.822  1.00  0.00     0.202 C 
ATOM     13  C   UNL     1       3.882  24.090  38.057  1.00  0.00     0.179 C 
ATOM     14  C   UNL     1       5.334  24.138  38.375  1.00  0.00     0.177 C 
BRANCH  10  15
ATOM     15  O   UNL     1       4.155  23.320  35.116  1.00  0.00    -0.341 OA
BRANCH  15  16
ATOM     16  C   UNL     1       3.557  23.378  33.868  1.00  0.00     0.184 C 
ATOM     17  C   UNL     1       2.261  22.658  33.794  1.00  0.00     0.178 C 
ATOM     18  O   UNL     1       2.296  21.618  32.881  1.00  0.00    -0.341 OA
ATOM     19  C   UNL     1       3.374  20.762  33.093  1.00  0.00     0.281 C 
ATOM     20  C   UNL     1       4.575  22.931  32.860  1.00  0.00     0.180 C 
ATOM     21  C   UNL     1       4.598  21.474  32.560  1.00  0.00     0.202 C 
BRANCH  17  22
ATOM     22  C   UNL     1       1.179  23.612  33.332  1.00  0.00     0.191 C 
BRANCH  22  23
ATOM     23  O   UNL     1       1.496  24.932  33.596  1.00  0.00    -0.394 OA
ATOM     24  H   UNL     1       2.299  24.968  34.179  1.00  0.00     0.210 HD
ENDBRANCH  22  23
ENDBRANCH  17  22
BRANCH  19  25
ATOM     25  O   UNL     1       3.143  19.625  32.334  1.00  0.00    -0.350 OA
BRANCH  25  26
ATOM     26  C   UNL     1       2.070  18.879  32.825  1.00  0.00     0.169 C 
BRANCH  26  27
ATOM     27  C   UNL     1       2.550  17.861  33.828  1.00  0.00     0.119 C 
BRANCH  27  28
ATOM     28  N   UNL     1       2.358  18.379  35.164  1.00  0.00    -0.092 NA
ATOM     29  N   UNL     1       3.298  18.347  35.945  1.00  0.00     0.001 N 
ATOM     30  N   UNL     1       4.097  18.681  36.836  1.00  0.00    -0.003 NA
ENDBRANCH  27  28
ENDBRANCH  26  27
ENDBRANCH  25  26
ENDBRANCH  19  25
BRANCH  20  31
ATOM     31  O   UNL     1       4.269  23.592  31.647  1.00  0.00    -0.387 OA
ATOM     32  H   UNL     1       3.471  23.186  31.224  1.00  0.00     0.211 HD
ENDBRANCH  20  31
BRANCH  21  33
ATOM     33  O   UNL     1       5.783  20.930  33.097  1.00  0.00    -0.385 OA
ATOM     34  H   UNL     1       6.320  21.623  33.570  1.00  0.00     0.211 HD
ENDBRANCH  21  33
ENDBRANCH  15  16
ENDBRANCH  10  15
BRANCH  12  35
ATOM     35  O   UNL     1       3.699  26.258  37.172  1.00  0.00    -0.385 OA
ATOM     36  H   UNL     1       2.784  26.625  37.014  1.00  0.00     0.211 HD
ENDBRANCH  12  35
BRANCH  13  37
ATOM     37  O   UNL     1       3.426  22.800  37.783  1.00  0.00    -0.387 OA
ATOM     38  H   UNL     1       2.624  22.895  37.207  1.00  0.00     0.211 HD
ENDBRANCH  13  37
BRANCH  14  39
ATOM     39  O   UNL     1       5.806  22.810  38.326  1.00  0.00    -0.387 OA
ATOM     40  H   UNL     1       5.158  22.169  38.660  1.00  0.00     0.211 HD
ENDBRANCH  14  39
ENDBRANCH   8   9
ENDBRANCH   7   8
ENDBRANCH   1   7
BRANCH   1  41
ATOM     41  C   UNL     1       8.659  23.577  34.528  1.00  0.00     0.364 C 
ATOM     42  O   UNL     1       7.755  22.762  34.198  1.00  0.00    -0.246 OA
BRANCH  41  43
ATOM     43  O   UNL     1       9.315  24.233  33.511  1.00  0.00    -0.477 OA
ATOM     44  H   UNL     1       8.840  24.641  32.696  1.00  0.00     0.296 HD
ENDBRANCH  41  43
ENDBRANCH   1  41
BRANCH   3  45
ATOM     45  O   UNL     1      10.667  23.106  38.672  1.00  0.00    -0.391 OA
ATOM     46  H   UNL     1      11.206  23.631  39.297  1.00  0.00     0.211 HD
ENDBRANCH   3  45
BRANCH   5  47
ATOM     47  C   UNL     1      11.334  26.464  35.236  1.00  0.00     0.176 C 
BRANCH  47  48
ATOM     48  O   UNL     1      10.845  27.564  35.977  1.00  0.00    -0.388 OA
ATOM     49  H   UNL     1       9.996  27.299  36.454  1.00  0.00     0.211 HD
ENDBRANCH  47  48
BRANCH  47  50
ATOM     50  C   UNL     1      11.062  26.669  33.772  1.00  0.00     0.165 C 
BRANCH  50  51
ATOM     51  O   UNL     1      12.217  27.077  33.136  1.00  0.00    -0.388 OA
ATOM     52  H   UNL     1      12.130  27.071  32.146  1.00  0.00     0.211 HD
ENDBRANCH  50  51
BRANCH  50  53
ATOM     53  C   UNL     1       9.964  27.700  33.674  1.00  0.00     0.154 C 
BRANCH  53  54
ATOM     54  N   UNL     1       8.635  27.205  33.690  1.00  0.00    -0.319 N 
ATOM     55  C   UNL     1       7.674  27.672  34.624  1.00  0.00     0.407 C 
ATOM     56  H   UNL     1       8.323  26.474  33.005  1.00  0.00     0.167 HD
ATOM     57  O   UNL     1       8.006  28.525  35.468  1.00  0.00    -0.225 OA
BRANCH  55  58
ATOM     58  O   UNL     1       6.352  27.185  34.607  1.00  0.00    -0.443 OA
BRANCH  58  59
ATOM     59  C   UNL     1       5.343  27.999  34.065  1.00  0.00     0.294 C 
BRANCH  59  60
ATOM     60  C   UNL     1       4.782  27.409  32.827  1.00  0.00     0.121 A 
ATOM     61  C   UNL     1       5.248  27.453  31.534  1.00  0.00     0.144 A 
ATOM     62  N   UNL     1       3.621  26.699  32.725  1.00  0.00    -0.131 NA
ATOM     63  N   UNL     1       4.409  26.804  30.699  1.00  0.00    -0.220 N 
ATOM     64  N   UNL     1       3.420  26.353  31.471  1.00  0.00    -0.062 NA
BRANCH  63  65
ATOM     65  C   UNL     1       4.544  26.666  29.295  1.00  0.00     0.071 A 
ATOM     66  C   UNL     1       3.835  25.644  28.683  1.00  0.00     0.064 A 
ATOM     67  C   UNL     1       5.312  27.476  28.485  1.00  0.00     0.057 A 
ATOM     68  C   UNL     1       3.927  25.485  27.313  1.00  0.00     0.151 A 
ATOM     69  C   UNL     1       5.397  27.314  27.138  1.00  0.00     0.073 A 
ATOM     70  N   UNL     1       4.696  26.311  26.573  1.00  0.00    -0.241 NA
BRANCH  68  71
ATOM     71  C   UNL     1       3.192  24.424  26.640  1.00  0.00     0.354 C 
ATOM     72  O   UNL     1       2.019  24.666  26.260  1.00  0.00    -0.245 OA
BRANCH  71  73
ATOM     73  O   UNL     1       3.705  23.172  26.394  1.00  0.00    -0.477 OA
ATOM     74  H   UNL     1       3.424  22.603  25.586  1.00  0.00     0.297 HD
ENDBRANCH  71  73
ENDBRANCH  68  71
BRANCH  69  75
ATOM     75  C   UNL     1       6.209  28.187  26.299  1.00  0.00     0.000 A 
ATOM     76  C   UNL     1       7.077  27.591  25.387  1.00  0.00     0.010 A 
ATOM     77  C   UNL     1       6.171  29.550  26.355  1.00  0.00     0.010 A 
ATOM     78  C   UNL     1       7.877  28.332  24.557  1.00  0.00     0.001 A 
ATOM     79  C   UNL     1       6.984  30.289  25.513  1.00  0.00     0.001 A 
ATOM     80  C   UNL     1       7.836  29.714  24.616  1.00  0.00     0.000 A 
ENDBRANCH  69  75
ENDBRANCH  63  65
ENDBRANCH  59  60
ENDBRANCH  58  59
ENDBRANCH  55  58
ENDBRANCH  53  54
ENDBRANCH  50  53
ENDBRANCH  47  50
ENDBRANCH   5  47
BRANCH   4  81
ATOM     81  N   UNL     1      12.820  25.093  37.250  1.00  0.00    -0.348 N 
ATOM     82  C   UNL     1      13.370  25.844  38.320  1.00  0.00     0.217 C 
ATOM     83  H   UNL     1      13.432  24.702  36.497  1.00  0.00     0.163 HD
ATOM     84  C   UNL     1      14.826  26.117  38.438  1.00  0.00     0.114 C 
ATOM     85  O   UNL     1      12.617  26.318  39.236  1.00  0.00    -0.275 OA
ENDBRANCH   4  81
TORSDOF 33
