REMARK VINA RESULT:    -6.451      4.022     12.315
REMARK INTER + INTRA:         -22.831
REMARK INTER:                 -15.538
REMARK INTRA:                  -7.293
REMARK UNBOUND:                -6.197
REMARK SMILES CC(=O)N[C@@H]1[C@@H](O)C[C@](OC[C@H]2O[C@@H](O[C@H]3[C@H](O)[C@@H](O)[C@H](OCCN=[N+]=[N-])O[C@@H]3CO)[C@H](O)[C@@H](O)[C@H]2O)(C(=O)O)O[C@H]1C(O)[C@H](O)CNC(=O)OCc1cn(Cc2cccc(C#N)c2)nn1
REMARK SMILES IDX 9 1 8 2 6 3 5 4 42 5 41 6 10 7 11 8 12 9 14 10 13 11 32 12
REMARK SMILES IDX 34 13 36 14 15 15 16 16 29 17 28 18 21 19 17 20 19 21 30 22
REMARK SMILES IDX 31 23 22 25 23 26 24 27 25 28 26 29 27 30 18 31 20 33 33 35
REMARK SMILES IDX 35 37 37 39 38 41 39 42 40 43 7 45 43 47 44 48 45 50 46 51
REMARK SMILES IDX 47 53 48 54 49 55 50 57 51 58 52 59 53 60 54 61 66 62 55 63
REMARK SMILES IDX 65 64 56 65 57 66 58 67 64 68 59 69 61 70 60 71 62 72 63 73
REMARK SMILES IDX 4 74 2 75 1 77 3 78
REMARK H PARENT 31 24 18 32 20 34 33 36 35 38 37 40 40 44 7 46 44 49 46 52
REMARK H PARENT 48 56 4 76
REMARK Flexibility Score: inf
ROOT
ATOM      1  C   UNL     1      22.660  25.767  26.737  1.00  0.00     0.272 C 
ATOM      2  C   UNL     1      21.609  26.156  27.749  1.00  0.00     0.113 C 
ATOM      3  C   UNL     1      21.712  27.492  28.353  1.00  0.00     0.145 C 
ATOM      4  C   UNL     1      23.167  27.956  28.476  1.00  0.00     0.142 C 
ATOM      5  C   UNL     1      23.947  27.731  27.260  1.00  0.00     0.178 C 
ATOM      6  O   UNL     1      23.614  26.690  26.457  1.00  0.00    -0.332 OA
ENDROOT
BRANCH   1   7
ATOM      7  O   UNL     1      22.059  25.432  25.610  1.00  0.00    -0.338 OA
BRANCH   7   8
ATOM      8  C   UNL     1      21.914  24.629  24.669  1.00  0.00     0.199 C 
BRANCH   8   9
ATOM      9  C   UNL     1      22.696  24.548  23.389  1.00  0.00     0.179 C 
ATOM     10  C   UNL     1      23.182  25.728  21.531  1.00  0.00     0.282 C 
ATOM     11  O   UNL     1      22.840  25.894  22.880  1.00  0.00    -0.341 OA
ATOM     12  C   UNL     1      24.561  25.184  21.375  1.00  0.00     0.202 C 
ATOM     13  C   UNL     1      24.863  24.072  22.362  1.00  0.00     0.179 C 
ATOM     14  C   UNL     1      24.175  24.225  23.676  1.00  0.00     0.177 C 
BRANCH  10  15
ATOM     15  O   UNL     1      23.080  26.956  20.884  1.00  0.00    -0.341 OA
BRANCH  15  16
ATOM     16  C   UNL     1      21.949  27.062  20.117  1.00  0.00     0.184 C 
ATOM     17  C   UNL     1      22.213  27.624  18.769  1.00  0.00     0.178 C 
ATOM     18  O   UNL     1      21.080  27.815  18.012  1.00  0.00    -0.341 OA
ATOM     19  C   UNL     1      20.059  28.512  18.621  1.00  0.00     0.281 C 
ATOM     20  C   UNL     1      21.084  28.154  20.825  1.00  0.00     0.180 C 
ATOM     21  C   UNL     1      19.786  28.143  20.044  1.00  0.00     0.202 C 
BRANCH  17  22
ATOM     22  C   UNL     1      23.116  26.706  17.976  1.00  0.00     0.191 C 
BRANCH  22  23
ATOM     23  O   UNL     1      22.663  25.388  18.085  1.00  0.00    -0.394 OA
ATOM     24  H   UNL     1      22.895  24.837  17.318  1.00  0.00     0.210 HD
ENDBRANCH  22  23
ENDBRANCH  17  22
BRANCH  19  25
ATOM     25  O   UNL     1      18.883  28.202  17.905  1.00  0.00    -0.350 OA
BRANCH  25  26
ATOM     26  C   UNL     1      18.428  29.316  17.250  1.00  0.00     0.169 C 
BRANCH  26  27
ATOM     27  C   UNL     1      16.977  29.598  17.522  1.00  0.00     0.119 C 
BRANCH  27  28
ATOM     28  N   UNL     1      16.223  28.417  17.868  1.00  0.00    -0.092 NA
ATOM     29  N   UNL     1      16.284  27.993  19.031  1.00  0.00     0.001 N 
ATOM     30  N   UNL     1      16.332  27.416  20.140  1.00  0.00    -0.003 NA
ENDBRANCH  27  28
ENDBRANCH  26  27
ENDBRANCH  25  26
ENDBRANCH  19  25
BRANCH  20  31
ATOM     31  O   UNL     1      20.949  27.788  22.138  1.00  0.00    -0.387 OA
ATOM     32  H   UNL     1      20.601  26.855  22.234  1.00  0.00     0.211 HD
ENDBRANCH  20  31
BRANCH  21  33
ATOM     33  O   UNL     1      18.955  29.109  20.605  1.00  0.00    -0.385 OA
ATOM     34  H   UNL     1      19.298  29.997  20.293  1.00  0.00     0.211 HD
ENDBRANCH  21  33
ENDBRANCH  15  16
ENDBRANCH  10  15
BRANCH  12  35
ATOM     35  O   UNL     1      24.641  24.567  20.106  1.00  0.00    -0.385 OA
ATOM     36  H   UNL     1      24.007  25.058  19.527  1.00  0.00     0.211 HD
ENDBRANCH  12  35
BRANCH  13  37
ATOM     37  O   UNL     1      26.243  24.140  22.604  1.00  0.00    -0.387 OA
ATOM     38  H   UNL     1      26.779  23.708  21.911  1.00  0.00     0.211 HD
ENDBRANCH  13  37
BRANCH  14  39
ATOM     39  O   UNL     1      24.733  25.352  24.301  1.00  0.00    -0.387 OA
ATOM     40  H   UNL     1      25.573  25.146  24.756  1.00  0.00     0.211 HD
ENDBRANCH  14  39
ENDBRANCH   8   9
ENDBRANCH   7   8
ENDBRANCH   1   7
BRANCH   1  41
ATOM     41  C   UNL     1      23.406  24.609  27.349  1.00  0.00     0.364 C 
ATOM     42  O   UNL     1      24.574  24.295  26.936  1.00  0.00    -0.246 OA
BRANCH  41  43
ATOM     43  O   UNL     1      22.870  23.856  28.358  1.00  0.00    -0.477 OA
ATOM     44  H   UNL     1      22.306  24.355  29.066  1.00  0.00     0.296 HD
ENDBRANCH  41  43
ENDBRANCH   1  41
BRANCH   3  45
ATOM     45  O   UNL     1      21.011  28.417  27.593  1.00  0.00    -0.391 OA
ATOM     46  H   UNL     1      21.145  29.348  27.889  1.00  0.00     0.211 HD
ENDBRANCH   3  45
BRANCH   5  47
ATOM     47  C   UNL     1      23.994  28.900  26.298  1.00  0.00     0.176 C 
BRANCH  47  48
ATOM     48  O   UNL     1      25.336  28.871  25.789  1.00  0.00    -0.388 OA
ATOM     49  H   UNL     1      25.291  28.461  24.896  1.00  0.00     0.211 HD
ENDBRANCH  47  48
BRANCH  47  50
ATOM     50  C   UNL     1      23.133  28.874  25.105  1.00  0.00     0.165 C 
BRANCH  50  51
ATOM     51  O   UNL     1      24.069  28.464  24.059  1.00  0.00    -0.388 OA
ATOM     52  H   UNL     1      23.578  28.544  23.186  1.00  0.00     0.211 HD
ENDBRANCH  50  51
BRANCH  50  53
ATOM     53  C   UNL     1      22.593  30.157  24.588  1.00  0.00     0.154 C 
BRANCH  53  54
ATOM     54  N   UNL     1      21.456  30.086  23.728  1.00  0.00    -0.319 N 
ATOM     55  C   UNL     1      20.144  29.954  24.292  1.00  0.00     0.407 C 
ATOM     56  H   UNL     1      21.516  30.129  22.704  1.00  0.00     0.167 HD
ATOM     57  O   UNL     1      20.062  29.908  25.541  1.00  0.00    -0.225 OA
BRANCH  55  58
ATOM     58  O   UNL     1      19.008  29.881  23.540  1.00  0.00    -0.443 OA
BRANCH  58  59
ATOM     59  C   UNL     1      18.013  30.925  23.563  1.00  0.00     0.294 C 
BRANCH  59  60
ATOM     60  C   UNL     1      16.659  30.303  23.516  1.00  0.00     0.120 A 
ATOM     61  C   UNL     1      15.927  29.996  22.392  1.00  0.00     0.138 A 
ATOM     62  N   UNL     1      15.904  29.933  24.556  1.00  0.00    -0.132 NA
ATOM     63  N   UNL     1      14.739  29.444  22.767  1.00  0.00    -0.248 N 
ATOM     64  N   UNL     1      14.757  29.419  24.090  1.00  0.00    -0.067 NA
BRANCH  63  65
ATOM     65  C   UNL     1      13.695  29.000  21.889  1.00  0.00     0.181 C 
BRANCH  65  66
ATOM     66  C   UNL     1      13.258  30.129  21.035  1.00  0.00    -0.025 A 
ATOM     67  C   UNL     1      12.500  31.171  21.498  1.00  0.00     0.006 A 
ATOM     68  C   UNL     1      13.625  30.145  19.694  1.00  0.00     0.025 A 
ATOM     69  C   UNL     1      12.096  32.209  20.701  1.00  0.00     0.002 A 
ATOM     70  C   UNL     1      13.220  31.186  18.894  1.00  0.00     0.052 A 
ATOM     71  C   UNL     1      12.448  32.250  19.359  1.00  0.00     0.019 A 
BRANCH  70  72
ATOM     72  C   UNL     1      13.608  31.197  17.508  1.00  0.00     0.099 C 
ATOM     73  N   UNL     1      13.938  31.204  16.386  1.00  0.00    -0.192 NA
ENDBRANCH  70  72
ENDBRANCH  65  66
ENDBRANCH  63  65
ENDBRANCH  59  60
ENDBRANCH  58  59
ENDBRANCH  55  58
ENDBRANCH  53  54
ENDBRANCH  50  53
ENDBRANCH  47  50
ENDBRANCH   5  47
BRANCH   4  74
ATOM     74  N   UNL     1      23.723  27.408  29.712  1.00  0.00    -0.348 N 
ATOM     75  C   UNL     1      23.852  28.243  30.842  1.00  0.00     0.217 C 
ATOM     76  H   UNL     1      24.038  26.425  29.829  1.00  0.00     0.163 HD
ATOM     77  C   UNL     1      24.408  27.770  32.141  1.00  0.00     0.114 C 
ATOM     78  O   UNL     1      23.487  29.427  30.753  1.00  0.00    -0.275 OA
ENDBRANCH   4  74
TORSDOF 32
