REMARK VINA RESULT:    -6.161      8.382     15.168
REMARK INTER + INTRA:         -22.082
REMARK INTER:                 -17.292
REMARK INTRA:                  -4.791
REMARK UNBOUND:                -6.197
REMARK SMILES CC(=O)N[C@@H]1[C@@H](O)C[C@](OC[C@H]2O[C@@H](O[C@H]3[C@H](O)[C@@H](O)[C@H](OCCN=[N+]=[N-])O[C@@H]3CO)[C@H](O)[C@@H](O)[C@H]2O)(C(=O)O)O[C@H]1C(O)[C@H](O)CNC(=O)OCc1cn(Cc2cccc(C#N)c2)nn1
REMARK SMILES IDX 9 1 8 2 6 3 5 4 42 5 41 6 10 7 11 8 12 9 14 10 13 11 32 12
REMARK SMILES IDX 34 13 36 14 15 15 16 16 29 17 28 18 21 19 17 20 19 21 30 22
REMARK SMILES IDX 31 23 22 25 23 26 24 27 25 28 26 29 27 30 18 31 20 33 33 35
REMARK SMILES IDX 35 37 37 39 38 41 39 42 40 43 7 45 43 47 44 48 45 50 46 51
REMARK SMILES IDX 47 53 48 54 49 55 50 57 51 58 52 59 53 60 54 61 66 62 55 63
REMARK SMILES IDX 65 64 56 65 57 66 58 67 64 68 59 69 61 70 60 71 62 72 63 73
REMARK SMILES IDX 4 74 2 75 1 77 3 78
REMARK H PARENT 31 24 18 32 20 34 33 36 35 38 37 40 40 44 7 46 44 49 46 52
REMARK H PARENT 48 56 4 76
REMARK Flexibility Score: inf
ROOT
ATOM      1  C   UNL     1      30.040  20.416  20.089  1.00  0.00     0.272 C 
ATOM      2  C   UNL     1      29.287  19.462  20.984  1.00  0.00     0.113 C 
ATOM      3  C   UNL     1      28.898  19.947  22.316  1.00  0.00     0.145 C 
ATOM      4  C   UNL     1      29.902  20.961  22.875  1.00  0.00     0.142 C 
ATOM      5  C   UNL     1      30.291  21.980  21.901  1.00  0.00     0.178 C 
ATOM      6  O   UNL     1      30.288  21.655  20.583  1.00  0.00    -0.332 OA
ENDROOT
BRANCH   1   7
ATOM      7  O   UNL     1      29.376  20.545  18.955  1.00  0.00    -0.338 OA
BRANCH   7   8
ATOM      8  C   UNL     1      28.290  20.587  18.346  1.00  0.00     0.199 C 
BRANCH   8   9
ATOM      9  C   UNL     1      27.928  19.927  17.045  1.00  0.00     0.179 C 
ATOM     10  C   UNL     1      27.116  20.382  14.993  1.00  0.00     0.282 C 
ATOM     11  O   UNL     1      27.844  20.963  16.040  1.00  0.00    -0.341 OA
ATOM     12  C   UNL     1      27.902  19.327  14.292  1.00  0.00     0.202 C 
ATOM     13  C   UNL     1      28.664  18.436  15.254  1.00  0.00     0.179 C 
ATOM     14  C   UNL     1      29.125  19.131  16.490  1.00  0.00     0.177 C 
BRANCH  10  15
ATOM     15  O   UNL     1      26.747  21.377  14.091  1.00  0.00    -0.341 OA
BRANCH  15  16
ATOM     16  C   UNL     1      25.389  21.528  13.991  1.00  0.00     0.184 C 
ATOM     17  C   UNL     1      24.925  21.688  12.590  1.00  0.00     0.178 C 
ATOM     18  O   UNL     1      23.574  21.923  12.473  1.00  0.00    -0.341 OA
ATOM     19  C   UNL     1      23.069  22.939  13.255  1.00  0.00     0.281 C 
ATOM     20  C   UNL     1      25.088  22.911  14.655  1.00  0.00     0.180 C 
ATOM     21  C   UNL     1      23.575  22.983  14.661  1.00  0.00     0.202 C 
BRANCH  17  22
ATOM     22  C   UNL     1      25.221  20.443  11.786  1.00  0.00     0.191 C 
BRANCH  22  23
ATOM     23  O   UNL     1      26.548  20.467  11.347  1.00  0.00    -0.394 OA
ATOM     24  H   UNL     1      26.652  20.844  10.458  1.00  0.00     0.210 HD
ENDBRANCH  22  23
ENDBRANCH  17  22
BRANCH  19  25
ATOM     25  O   UNL     1      21.679  22.717  13.347  1.00  0.00    -0.350 OA
BRANCH  25  26
ATOM     26  C   UNL     1      21.183  22.350  12.123  1.00  0.00     0.169 C 
BRANCH  26  27
ATOM     27  C   UNL     1      19.912  21.555  12.225  1.00  0.00     0.119 C 
BRANCH  27  28
ATOM     28  N   UNL     1      20.104  20.143  11.992  1.00  0.00    -0.092 NA
ATOM     29  N   UNL     1      19.106  19.420  11.868  1.00  0.00     0.001 N 
ATOM     30  N   UNL     1      18.185  18.573  11.817  1.00  0.00    -0.003 NA
ENDBRANCH  27  28
ENDBRANCH  26  27
ENDBRANCH  25  26
ENDBRANCH  19  25
BRANCH  20  31
ATOM     31  O   UNL     1      25.652  22.902  15.902  1.00  0.00    -0.387 OA
ATOM     32  H   UNL     1      25.322  23.657  16.469  1.00  0.00     0.211 HD
ENDBRANCH  20  31
BRANCH  21  33
ATOM     33  O   UNL     1      23.218  24.204  15.227  1.00  0.00    -0.385 OA
ATOM     34  H   UNL     1      23.664  24.913  14.679  1.00  0.00     0.211 HD
ENDBRANCH  21  33
ENDBRANCH  15  16
ENDBRANCH  10  15
BRANCH  12  35
ATOM     35  O   UNL     1      26.988  18.462  13.649  1.00  0.00    -0.385 OA
ATOM     36  H   UNL     1      27.324  18.352  12.726  1.00  0.00     0.211 HD
ENDBRANCH  12  35
BRANCH  13  37
ATOM     37  O   UNL     1      29.810  18.017  14.560  1.00  0.00    -0.387 OA
ATOM     38  H   UNL     1      29.631  17.312  13.909  1.00  0.00     0.211 HD
ENDBRANCH  13  37
BRANCH  14  39
ATOM     39  O   UNL     1      30.099  20.062  16.097  1.00  0.00    -0.387 OA
ATOM     40  H   UNL     1      30.721  19.694  15.441  1.00  0.00     0.211 HD
ENDBRANCH  14  39
ENDBRANCH   8   9
ENDBRANCH   7   8
ENDBRANCH   1   7
BRANCH   1  41
ATOM     41  C   UNL     1      31.399  19.799  19.884  1.00  0.00     0.364 C 
ATOM     42  O   UNL     1      32.070  19.357  20.878  1.00  0.00    -0.246 OA
BRANCH  41  43
ATOM     43  O   UNL     1      31.962  19.687  18.642  1.00  0.00    -0.477 OA
ATOM     44  H   UNL     1      31.664  18.885  18.062  1.00  0.00     0.296 HD
ENDBRANCH  41  43
ENDBRANCH   1  41
BRANCH   3  45
ATOM     45  O   UNL     1      27.645  20.541  22.263  1.00  0.00    -0.391 OA
ATOM     46  H   UNL     1      27.342  20.892  23.133  1.00  0.00     0.211 HD
ENDBRANCH   3  45
BRANCH   5  47
ATOM     47  C   UNL     1      29.473  23.254  21.938  1.00  0.00     0.176 C 
BRANCH  47  48
ATOM     48  O   UNL     1      30.455  24.295  21.828  1.00  0.00    -0.388 OA
ATOM     49  H   UNL     1      29.994  25.141  22.028  1.00  0.00     0.211 HD
ENDBRANCH  47  48
BRANCH  47  50
ATOM     50  C   UNL     1      28.515  23.516  20.851  1.00  0.00     0.165 C 
BRANCH  50  51
ATOM     51  O   UNL     1      29.111  24.676  20.189  1.00  0.00    -0.388 OA
ATOM     52  H   UNL     1      29.997  24.376  19.824  1.00  0.00     0.211 HD
ENDBRANCH  50  51
BRANCH  50  53
ATOM     53  C   UNL     1      27.154  23.993  21.201  1.00  0.00     0.154 C 
BRANCH  53  54
ATOM     54  N   UNL     1      26.169  23.967  20.169  1.00  0.00    -0.319 N 
ATOM     55  C   UNL     1      25.803  25.185  19.503  1.00  0.00     0.407 C 
ATOM     56  H   UNL     1      25.695  23.111  19.859  1.00  0.00     0.167 HD
ATOM     57  O   UNL     1      26.383  26.232  19.871  1.00  0.00    -0.225 OA
BRANCH  55  58
ATOM     58  O   UNL     1      24.873  25.244  18.507  1.00  0.00    -0.443 OA
BRANCH  58  59
ATOM     59  C   UNL     1      23.663  24.459  18.549  1.00  0.00     0.294 C 
BRANCH  59  60
ATOM     60  C   UNL     1      22.828  24.921  19.693  1.00  0.00     0.120 A 
ATOM     61  C   UNL     1      22.565  24.236  20.857  1.00  0.00     0.138 A 
ATOM     62  N   UNL     1      22.175  26.084  19.799  1.00  0.00    -0.132 NA
ATOM     63  N   UNL     1      21.758  24.993  21.652  1.00  0.00    -0.248 N 
ATOM     64  N   UNL     1      21.539  26.112  20.979  1.00  0.00    -0.067 NA
BRANCH  63  65
ATOM     65  C   UNL     1      21.252  24.626  22.944  1.00  0.00     0.181 C 
BRANCH  65  66
ATOM     66  C   UNL     1      22.358  24.650  23.929  1.00  0.00    -0.025 A 
ATOM     67  C   UNL     1      23.681  24.632  23.573  1.00  0.00     0.006 A 
ATOM     68  C   UNL     1      22.056  24.689  25.285  1.00  0.00     0.025 A 
ATOM     69  C   UNL     1      24.698  24.650  24.491  1.00  0.00     0.002 A 
ATOM     70  C   UNL     1      23.075  24.706  26.205  1.00  0.00     0.052 A 
ATOM     71  C   UNL     1      24.424  24.688  25.852  1.00  0.00     0.019 A 
BRANCH  70  72
ATOM     72  C   UNL     1      22.753  24.752  27.608  1.00  0.00     0.099 C 
ATOM     73  N   UNL     1      22.495  24.773  28.748  1.00  0.00    -0.192 NA
ENDBRANCH  70  72
ENDBRANCH  65  66
ENDBRANCH  63  65
ENDBRANCH  59  60
ENDBRANCH  58  59
ENDBRANCH  55  58
ENDBRANCH  53  54
ENDBRANCH  50  53
ENDBRANCH  47  50
ENDBRANCH   5  47
BRANCH   4  74
ATOM     74  N   UNL     1      30.992  20.227  23.514  1.00  0.00    -0.348 N 
ATOM     75  C   UNL     1      31.289  20.474  24.871  1.00  0.00     0.217 C 
ATOM     76  H   UNL     1      31.581  19.516  23.037  1.00  0.00     0.163 HD
ATOM     77  C   UNL     1      32.382  19.774  25.603  1.00  0.00     0.114 C 
ATOM     78  O   UNL     1      30.611  21.313  25.486  1.00  0.00    -0.275 OA
ENDBRANCH   4  74
TORSDOF 32
