REMARK VINA RESULT:    -5.341      5.779     11.534
REMARK INTER + INTRA:         -20.315
REMARK INTER:                 -13.266
REMARK INTRA:                  -7.049
REMARK UNBOUND:                -6.855
REMARK SMILES CC(=O)N[C@@H]1[C@@H](O)C[C@](OC[C@H]2O[C@@H](O[C@H]3[C@H](O)[C@@H](O)[C@H](OCCN=[N+]=[N-])O[C@@H]3CO)[C@H](O)[C@@H](O)[C@H]2O)(C(=O)O)O[C@H]1C(O)[C@H](O)CNC(=O)OCc1cn(Cc2ccsc2)nn1
REMARK SMILES IDX 9 1 8 2 6 3 5 4 42 5 41 6 10 7 11 8 12 9 14 10 13 11 32 12
REMARK SMILES IDX 34 13 36 14 15 15 16 16 29 17 28 18 21 19 17 20 19 21 30 22
REMARK SMILES IDX 31 23 22 25 23 26 24 27 25 28 26 29 27 30 18 31 20 33 33 35
REMARK SMILES IDX 35 37 37 39 38 41 39 42 40 43 7 45 43 47 44 48 45 50 46 51
REMARK SMILES IDX 47 53 48 54 49 55 50 57 51 58 52 59 53 60 54 61 63 62 55 63
REMARK SMILES IDX 62 64 56 65 57 66 58 67 61 68 59 69 60 70 4 71 2 72 1 74
REMARK SMILES IDX 3 75
REMARK H PARENT 31 24 18 32 20 34 33 36 35 38 37 40 40 44 7 46 44 49 46 52
REMARK H PARENT 48 56 4 73
REMARK Flexibility Score: inf
ROOT
ATOM      1  C   UNL     1      23.036  24.868  23.228  1.00  0.00     0.272 C 
ATOM      2  C   UNL     1      24.449  24.665  22.767  1.00  0.00     0.113 C 
ATOM      3  C   UNL     1      24.841  25.464  21.554  1.00  0.00     0.145 C 
ATOM      4  C   UNL     1      24.351  26.859  21.590  1.00  0.00     0.142 C 
ATOM      5  C   UNL     1      23.083  27.066  22.397  1.00  0.00     0.178 C 
ATOM      6  O   UNL     1      22.941  26.291  23.492  1.00  0.00    -0.332 OA
ENDROOT
BRANCH   1   7
ATOM      7  O   UNL     1      22.880  24.354  24.466  1.00  0.00    -0.338 OA
BRANCH   7   8
ATOM      8  C   UNL     1      23.821  24.257  25.386  1.00  0.00     0.199 C 
BRANCH   8   9
ATOM      9  C   UNL     1      23.678  24.666  26.793  1.00  0.00     0.179 C 
ATOM     10  C   UNL     1      24.895  25.835  28.318  1.00  0.00     0.282 C 
ATOM     11  O   UNL     1      24.536  25.819  26.950  1.00  0.00    -0.341 OA
ATOM     12  C   UNL     1      23.723  25.702  29.226  1.00  0.00     0.202 C 
ATOM     13  C   UNL     1      22.381  25.723  28.588  1.00  0.00     0.179 C 
ATOM     14  C   UNL     1      22.324  25.246  27.165  1.00  0.00     0.177 C 
BRANCH  10  15
ATOM     15  O   UNL     1      25.642  26.965  28.540  1.00  0.00    -0.341 OA
BRANCH  15  16
ATOM     16  C   UNL     1      25.486  27.951  27.552  1.00  0.00     0.184 C 
ATOM     17  C   UNL     1      26.793  28.403  27.003  1.00  0.00     0.178 C 
ATOM     18  O   UNL     1      27.344  29.528  27.536  1.00  0.00    -0.341 OA
ATOM     19  C   UNL     1      26.639  30.076  28.622  1.00  0.00     0.281 C 
ATOM     20  C   UNL     1      24.553  29.037  27.986  1.00  0.00     0.180 C 
ATOM     21  C   UNL     1      25.266  30.391  28.094  1.00  0.00     0.202 C 
BRANCH  17  22
ATOM     22  C   UNL     1      26.770  28.553  25.490  1.00  0.00     0.191 C 
BRANCH  22  23
ATOM     23  O   UNL     1      25.971  27.523  24.997  1.00  0.00    -0.394 OA
ATOM     24  H   UNL     1      25.621  26.941  25.735  1.00  0.00     0.210 HD
ENDBRANCH  22  23
ENDBRANCH  17  22
BRANCH  19  25
ATOM     25  O   UNL     1      27.359  31.149  29.073  1.00  0.00    -0.350 OA
BRANCH  25  26
ATOM     26  C   UNL     1      27.906  30.976  30.329  1.00  0.00     0.169 C 
BRANCH  26  27
ATOM     27  C   UNL     1      29.115  30.101  30.396  1.00  0.00     0.119 C 
BRANCH  27  28
ATOM     28  N   UNL     1      28.942  29.049  31.362  1.00  0.00    -0.092 NA
ATOM     29  N   UNL     1      27.824  28.520  31.458  1.00  0.00     0.001 N 
ATOM     30  N   UNL     1      26.884  27.763  31.698  1.00  0.00    -0.003 NA
ENDBRANCH  27  28
ENDBRANCH  26  27
ENDBRANCH  25  26
ENDBRANCH  19  25
BRANCH  20  31
ATOM     31  O   UNL     1      23.409  29.143  27.224  1.00  0.00    -0.387 OA
ATOM     32  H   UNL     1      23.580  29.622  26.386  1.00  0.00     0.211 HD
ENDBRANCH  20  31
BRANCH  21  33
ATOM     33  O   UNL     1      24.586  31.283  28.882  1.00  0.00    -0.385 OA
ATOM     34  H   UNL     1      24.208  32.044  28.362  1.00  0.00     0.211 HD
ENDBRANCH  21  33
ENDBRANCH  15  16
ENDBRANCH  10  15
BRANCH  12  35
ATOM     35  O   UNL     1      23.868  24.592  30.100  1.00  0.00    -0.385 OA
ATOM     36  H   UNL     1      24.728  24.132  29.914  1.00  0.00     0.211 HD
ENDBRANCH  12  35
BRANCH  13  37
ATOM     37  O   UNL     1      21.898  27.047  28.593  1.00  0.00    -0.387 OA
ATOM     38  H   UNL     1      20.959  27.033  28.299  1.00  0.00     0.211 HD
ENDBRANCH  13  37
BRANCH  14  39
ATOM     39  O   UNL     1      22.149  26.341  26.284  1.00  0.00    -0.387 OA
ATOM     40  H   UNL     1      22.842  27.010  26.579  1.00  0.00     0.211 HD
ENDBRANCH  14  39
ENDBRANCH   8   9
ENDBRANCH   7   8
ENDBRANCH   1   7
BRANCH   1  41
ATOM     41  C   UNL     1      22.011  24.629  22.212  1.00  0.00     0.364 C 
ATOM     42  O   UNL     1      20.852  25.078  22.293  1.00  0.00    -0.246 OA
BRANCH  41  43
ATOM     43  O   UNL     1      22.267  23.864  21.059  1.00  0.00    -0.477 OA
ATOM     44  H   UNL     1      22.655  22.934  21.128  1.00  0.00     0.296 HD
ENDBRANCH  41  43
ENDBRANCH   1  41
BRANCH   3  45
ATOM     45  O   UNL     1      26.261  25.497  21.601  1.00  0.00    -0.391 OA
ATOM     46  H   UNL     1      26.637  24.932  20.870  1.00  0.00     0.211 HD
ENDBRANCH   3  45
BRANCH   5  47
ATOM     47  C   UNL     1      23.097  28.519  22.930  1.00  0.00     0.176 C 
BRANCH  47  48
ATOM     48  O   UNL     1      23.340  28.494  24.301  1.00  0.00    -0.388 OA
ATOM     49  H   UNL     1      23.698  27.615  24.563  1.00  0.00     0.211 HD
ENDBRANCH  47  48
BRANCH  47  50
ATOM     50  C   UNL     1      21.746  29.100  22.705  1.00  0.00     0.165 C 
BRANCH  50  51
ATOM     51  O   UNL     1      20.791  28.093  22.833  1.00  0.00    -0.388 OA
ATOM     52  H   UNL     1      20.178  28.278  23.585  1.00  0.00     0.211 HD
ENDBRANCH  50  51
BRANCH  50  53
ATOM     53  C   UNL     1      21.556  29.745  21.358  1.00  0.00     0.154 C 
BRANCH  53  54
ATOM     54  N   UNL     1      20.479  29.178  20.604  1.00  0.00    -0.319 N 
ATOM     55  C   UNL     1      20.617  28.404  19.446  1.00  0.00     0.407 C 
ATOM     56  H   UNL     1      19.491  29.362  20.954  1.00  0.00     0.167 HD
ATOM     57  O   UNL     1      21.762  28.166  19.004  1.00  0.00    -0.225 OA
BRANCH  55  58
ATOM     58  O   UNL     1      19.491  27.918  18.815  1.00  0.00    -0.443 OA
BRANCH  58  59
ATOM     59  C   UNL     1      18.487  28.723  18.267  1.00  0.00     0.294 C 
BRANCH  59  60
ATOM     60  C   UNL     1      17.278  28.634  19.109  1.00  0.00     0.120 A 
ATOM     61  C   UNL     1      16.012  28.988  18.761  1.00  0.00     0.138 A 
ATOM     62  N   UNL     1      17.248  28.178  20.370  1.00  0.00    -0.132 NA
ATOM     63  N   UNL     1      15.229  28.740  19.825  1.00  0.00    -0.248 N 
ATOM     64  N   UNL     1      15.982  28.252  20.790  1.00  0.00    -0.067 NA
BRANCH  63  65
ATOM     65  C   UNL     1      13.808  28.973  19.882  1.00  0.00     0.182 C 
BRANCH  65  66
ATOM     66  C   UNL     1      13.505  29.824  21.121  1.00  0.00    -0.016 A 
ATOM     67  C   UNL     1      12.926  29.355  22.208  1.00  0.00     0.017 A 
ATOM     68  C   UNL     1      13.870  31.168  21.075  1.00  0.00     0.070 A 
ATOM     69  C   UNL     1      12.676  30.167  23.298  1.00  0.00     0.065 A 
ATOM     70  S   UNL     1      13.340  31.764  22.692  1.00  0.00    -0.152 S 
ENDBRANCH  65  66
ENDBRANCH  63  65
ENDBRANCH  59  60
ENDBRANCH  58  59
ENDBRANCH  55  58
ENDBRANCH  53  54
ENDBRANCH  50  53
ENDBRANCH  47  50
ENDBRANCH   5  47
BRANCH   4  71
ATOM     71  N   UNL     1      24.146  27.459  20.306  1.00  0.00    -0.348 N 
ATOM     72  C   UNL     1      25.155  28.194  19.632  1.00  0.00     0.217 C 
ATOM     73  H   UNL     1      23.224  27.363  19.826  1.00  0.00     0.163 HD
ATOM     74  C   UNL     1      24.953  28.824  18.291  1.00  0.00     0.114 C 
ATOM     75  O   UNL     1      26.260  28.290  20.242  1.00  0.00    -0.275 OA
ENDBRANCH   4  71
TORSDOF 31
