REMARK VINA RESULT:    -5.693      6.481     13.811
REMARK INTER + INTRA:         -19.978
REMARK INTER:                 -14.014
REMARK INTRA:                  -5.964
REMARK UNBOUND:                -5.964
REMARK SMILES CC(=O)N[C@@H]1[C@@H](O)C[C@](OC[C@H]2O[C@@H](O[C@H]3[C@H](O)[C@@H](O)[C@H](OCCN=[N+]=[N-])O[C@@H]3CO)[C@H](O)[C@@H](O)[C@H]2O)(C(=O)O)O[C@H]1C(O)[C@H](O)CNC(=O)OCc1cn(C2CCN(C)CC2)nn1
REMARK SMILES IDX 9 1 8 2 6 3 5 4 42 5 41 6 10 7 11 8 12 9 14 10 13 11 32 12
REMARK SMILES IDX 34 13 36 14 15 15 16 16 29 17 28 18 21 19 17 20 19 21 30 22
REMARK SMILES IDX 31 23 22 25 23 26 24 27 25 28 26 29 27 30 18 31 20 33 33 35
REMARK SMILES IDX 35 37 37 39 38 41 39 42 40 43 7 45 43 47 44 48 45 50 46 51
REMARK SMILES IDX 47 53 48 54 49 55 50 57 51 58 52 59 53 60 54 61 64 62 55 63
REMARK SMILES IDX 63 64 56 65 57 66 62 67 58 68 61 69 59 70 60 71 4 72 2 73
REMARK SMILES IDX 1 75 3 76
REMARK H PARENT 31 24 18 32 20 34 33 36 35 38 37 40 40 44 7 46 44 49 46 52
REMARK H PARENT 48 56 4 74
REMARK Flexibility Score: inf
ROOT
ATOM      1  C   UNL     1      22.524  25.667  23.230  1.00  0.00     0.272 C 
ATOM      2  C   UNL     1      23.287  24.355  23.252  1.00  0.00     0.113 C 
ATOM      3  C   UNL     1      24.103  24.053  22.065  1.00  0.00     0.145 C 
ATOM      4  C   UNL     1      24.821  25.243  21.467  1.00  0.00     0.142 C 
ATOM      5  C   UNL     1      24.215  26.542  21.832  1.00  0.00     0.178 C 
ATOM      6  O   UNL     1      23.502  26.675  22.944  1.00  0.00    -0.332 OA
ENDROOT
BRANCH   1   7
ATOM      7  O   UNL     1      22.163  25.968  24.487  1.00  0.00    -0.338 OA
BRANCH   7   8
ATOM      8  C   UNL     1      21.058  26.365  25.021  1.00  0.00     0.199 C 
BRANCH   8   9
ATOM      9  C   UNL     1      20.933  27.567  25.906  1.00  0.00     0.179 C 
ATOM     10  C   UNL     1      23.128  28.200  26.601  1.00  0.00     0.282 C 
ATOM     11  O   UNL     1      21.976  27.513  26.789  1.00  0.00    -0.341 OA
ATOM     12  C   UNL     1      23.197  28.954  25.345  1.00  0.00     0.202 C 
ATOM     13  C   UNL     1      21.922  29.813  25.304  1.00  0.00     0.179 C 
ATOM     14  C   UNL     1      20.793  28.857  25.169  1.00  0.00     0.177 C 
BRANCH  10  15
ATOM     15  O   UNL     1      24.126  27.270  26.864  1.00  0.00    -0.341 OA
BRANCH  15  16
ATOM     16  C   UNL     1      24.412  27.008  28.139  1.00  0.00     0.184 C 
ATOM     17  C   UNL     1      25.880  27.047  28.389  1.00  0.00     0.178 C 
ATOM     18  O   UNL     1      26.094  27.190  29.765  1.00  0.00    -0.341 OA
ATOM     19  C   UNL     1      25.693  26.050  30.421  1.00  0.00     0.281 C 
ATOM     20  C   UNL     1      24.000  25.598  28.594  1.00  0.00     0.180 C 
ATOM     21  C   UNL     1      24.302  25.580  30.090  1.00  0.00     0.202 C 
BRANCH  17  22
ATOM     22  C   UNL     1      26.637  28.049  27.587  1.00  0.00     0.191 C 
BRANCH  22  23
ATOM     23  O   UNL     1      27.940  27.599  27.425  1.00  0.00    -0.394 OA
ATOM     24  H   UNL     1      28.221  27.609  26.474  1.00  0.00     0.210 HD
ENDBRANCH  22  23
ENDBRANCH  17  22
BRANCH  19  25
ATOM     25  O   UNL     1      25.676  26.364  31.787  1.00  0.00    -0.350 OA
BRANCH  25  26
ATOM     26  C   UNL     1      24.805  27.369  32.122  1.00  0.00     0.169 C 
BRANCH  26  27
ATOM     27  C   UNL     1      24.107  27.151  33.449  1.00  0.00     0.119 C 
BRANCH  27  28
ATOM     28  N   UNL     1      25.050  27.213  34.549  1.00  0.00    -0.092 NA
ATOM     29  N   UNL     1      25.310  26.215  35.218  1.00  0.00     0.001 N 
ATOM     30  N   UNL     1      25.312  25.477  36.205  1.00  0.00    -0.003 NA
ENDBRANCH  27  28
ENDBRANCH  26  27
ENDBRANCH  25  26
ENDBRANCH  19  25
BRANCH  20  31
ATOM     31  O   UNL     1      22.659  25.359  28.462  1.00  0.00    -0.387 OA
ATOM     32  H   UNL     1      22.159  26.126  28.815  1.00  0.00     0.211 HD
ENDBRANCH  20  31
BRANCH  21  33
ATOM     33  O   UNL     1      24.097  24.314  30.578  1.00  0.00    -0.385 OA
ATOM     34  H   UNL     1      24.835  23.709  30.397  1.00  0.00     0.211 HD
ENDBRANCH  21  33
ENDBRANCH  15  16
ENDBRANCH  10  15
BRANCH  12  35
ATOM     35  O   UNL     1      24.219  29.899  25.279  1.00  0.00    -0.385 OA
ATOM     36  H   UNL     1      25.053  29.530  25.662  1.00  0.00     0.211 HD
ENDBRANCH  12  35
BRANCH  13  37
ATOM     37  O   UNL     1      21.951  30.752  24.304  1.00  0.00    -0.387 OA
ATOM     38  H   UNL     1      21.944  30.272  23.438  1.00  0.00     0.211 HD
ENDBRANCH  13  37
BRANCH  14  39
ATOM     39  O   UNL     1      20.605  28.585  23.817  1.00  0.00    -0.387 OA
ATOM     40  H   UNL     1      20.226  29.344  23.317  1.00  0.00     0.211 HD
ENDBRANCH  14  39
ENDBRANCH   8   9
ENDBRANCH   7   8
ENDBRANCH   1   7
BRANCH   1  41
ATOM     41  C   UNL     1      21.562  25.639  22.139  1.00  0.00     0.364 C 
ATOM     42  O   UNL     1      21.306  24.480  21.614  1.00  0.00    -0.246 OA
BRANCH  41  43
ATOM     43  O   UNL     1      20.856  26.648  21.540  1.00  0.00    -0.477 OA
ATOM     44  H   UNL     1      19.841  26.741  21.578  1.00  0.00     0.296 HD
ENDBRANCH  41  43
ENDBRANCH   1  41
BRANCH   3  45
ATOM     45  O   UNL     1      25.076  23.070  22.418  1.00  0.00    -0.391 OA
ATOM     46  H   UNL     1      24.818  22.186  22.084  1.00  0.00     0.211 HD
ENDBRANCH   3  45
BRANCH   5  47
ATOM     47  C   UNL     1      25.289  27.665  21.847  1.00  0.00     0.176 C 
BRANCH  47  48
ATOM     48  O   UNL     1      25.578  27.998  23.164  1.00  0.00    -0.388 OA
ATOM     49  H   UNL     1      25.888  28.922  23.268  1.00  0.00     0.211 HD
ENDBRANCH  47  48
BRANCH  47  50
ATOM     50  C   UNL     1      24.842  28.820  21.076  1.00  0.00     0.165 C 
BRANCH  50  51
ATOM     51  O   UNL     1      26.028  29.611  20.816  1.00  0.00    -0.388 OA
ATOM     52  H   UNL     1      26.554  29.679  21.649  1.00  0.00     0.211 HD
ENDBRANCH  50  51
BRANCH  50  53
ATOM     53  C   UNL     1      23.824  29.736  21.607  1.00  0.00     0.154 C 
BRANCH  53  54
ATOM     54  N   UNL     1      22.453  29.445  21.612  1.00  0.00    -0.319 N 
ATOM     55  C   UNL     1      21.460  29.964  20.745  1.00  0.00     0.407 C 
ATOM     56  H   UNL     1      22.102  28.751  22.357  1.00  0.00     0.167 HD
ATOM     57  O   UNL     1      21.749  30.746  19.819  1.00  0.00    -0.225 OA
BRANCH  55  58
ATOM     58  O   UNL     1      20.118  29.574  20.953  1.00  0.00    -0.443 OA
BRANCH  58  59
ATOM     59  C   UNL     1      19.149  29.956  20.010  1.00  0.00     0.294 C 
BRANCH  59  60
ATOM     60  C   UNL     1      17.886  29.239  20.312  1.00  0.00     0.120 A 
ATOM     61  C   UNL     1      16.825  29.735  21.089  1.00  0.00     0.138 A 
ATOM     62  N   UNL     1      17.464  28.023  19.936  1.00  0.00    -0.132 NA
ATOM     63  N   UNL     1      15.839  28.823  21.144  1.00  0.00    -0.249 N 
ATOM     64  N   UNL     1      16.251  27.801  20.441  1.00  0.00    -0.067 NA
BRANCH  63  65
ATOM     65  C   UNL     1      14.583  28.959  21.844  1.00  0.00     0.111 C 
ATOM     66  C   UNL     1      14.881  29.491  23.217  1.00  0.00     0.043 C 
ATOM     67  C   UNL     1      13.638  29.896  21.142  1.00  0.00     0.043 C 
ATOM     68  C   UNL     1      14.539  30.962  23.267  1.00  0.00     0.086 C 
ATOM     69  C   UNL     1      12.551  30.422  22.040  1.00  0.00     0.086 C 
ATOM     70  N   UNL     1      13.082  31.079  23.216  1.00  0.00    -0.306 NA
ATOM     71  C   UNL     1      12.548  30.434  24.403  1.00  0.00     0.105 C 
ENDBRANCH  63  65
ENDBRANCH  59  60
ENDBRANCH  58  59
ENDBRANCH  55  58
ENDBRANCH  53  54
ENDBRANCH  50  53
ENDBRANCH  47  50
ENDBRANCH   5  47
BRANCH   4  72
ATOM     72  N   UNL     1      24.968  25.110  20.031  1.00  0.00    -0.348 N 
ATOM     73  C   UNL     1      26.112  24.463  19.510  1.00  0.00     0.217 C 
ATOM     74  H   UNL     1      24.253  25.480  19.358  1.00  0.00     0.163 HD
ATOM     75  C   UNL     1      26.313  24.303  18.033  1.00  0.00     0.114 C 
ATOM     76  O   UNL     1      26.996  24.003  20.301  1.00  0.00    -0.275 OA
ENDBRANCH   4  72
TORSDOF 30
