REMARK VINA RESULT:    -5.919      4.591     10.583
REMARK INTER + INTRA:         -23.064
REMARK INTER:                 -15.749
REMARK INTRA:                  -7.315
REMARK UNBOUND:                -8.149
REMARK SMILES CC(=O)N[C@@H]1[C@@H](O)C[C@](OC[C@H]2O[C@@H](O[C@H]3[C@H](O)[C@@H](O)[C@H](OCCN=[N+]=[N-])O[C@@H]3CO)[C@H](O)[C@@H](O)[C@H]2O)(C(=O)O)O[C@H]1C(O)[C@H](O)CNC(=O)OCc1cn(Cc2ccc3c(c2)OCO3)nn1
REMARK SMILES IDX 9 1 8 2 6 3 5 4 42 5 41 6 10 7 11 8 12 9 14 10 13 11 32 12
REMARK SMILES IDX 34 13 36 14 15 15 16 16 29 17 28 18 21 19 17 20 19 21 30 22
REMARK SMILES IDX 31 23 22 25 23 26 24 27 25 28 26 29 27 30 18 31 20 33 33 35
REMARK SMILES IDX 35 37 37 39 38 41 39 42 40 43 7 45 43 47 44 48 45 50 46 51
REMARK SMILES IDX 47 53 48 54 49 55 50 57 51 58 52 59 53 60 54 61 67 62 55 63
REMARK SMILES IDX 66 64 56 65 57 66 58 67 62 68 59 69 61 70 60 71 63 72 65 73
REMARK SMILES IDX 64 74 4 75 2 76 1 78 3 79
REMARK H PARENT 31 24 18 32 20 34 33 36 35 38 37 40 40 44 7 46 44 49 46 52
REMARK H PARENT 48 56 4 77
REMARK Flexibility Score: inf
ROOT
ATOM      1  C   UNL     1      18.163  30.139  21.732  1.00  0.00     0.272 C 
ATOM      2  C   UNL     1      17.102  30.959  22.440  1.00  0.00     0.113 C 
ATOM      3  C   UNL     1      15.774  30.277  22.308  1.00  0.00     0.145 C 
ATOM      4  C   UNL     1      15.452  30.250  20.791  1.00  0.00     0.142 C 
ATOM      5  C   UNL     1      16.604  29.606  20.107  1.00  0.00     0.178 C 
ATOM      6  O   UNL     1      17.601  29.148  20.965  1.00  0.00    -0.332 OA
ENDROOT
BRANCH   1   7
ATOM      7  O   UNL     1      19.080  29.616  22.658  1.00  0.00    -0.338 OA
BRANCH   7   8
ATOM      8  C   UNL     1      19.091  30.176  23.891  1.00  0.00     0.199 C 
BRANCH   8   9
ATOM      9  C   UNL     1      20.366  29.724  24.621  1.00  0.00     0.179 C 
ATOM     10  C   UNL     1      21.866  27.987  24.778  1.00  0.00     0.282 C 
ATOM     11  O   UNL     1      20.611  28.407  24.337  1.00  0.00    -0.341 OA
ATOM     12  C   UNL     1      22.931  28.725  23.964  1.00  0.00     0.202 C 
ATOM     13  C   UNL     1      22.511  30.073  23.503  1.00  0.00     0.179 C 
ATOM     14  C   UNL     1      21.495  30.668  24.418  1.00  0.00     0.177 C 
BRANCH  10  15
ATOM     15  O   UNL     1      22.012  26.681  24.522  1.00  0.00    -0.341 OA
BRANCH  15  16
ATOM     16  C   UNL     1      22.407  26.238  23.297  1.00  0.00     0.184 C 
ATOM     17  C   UNL     1      21.281  25.795  22.404  1.00  0.00     0.178 C 
ATOM     18  O   UNL     1      21.307  24.469  22.127  1.00  0.00    -0.341 OA
ATOM     19  C   UNL     1      22.453  24.002  21.450  1.00  0.00     0.281 C 
ATOM     20  C   UNL     1      23.405  25.125  23.474  1.00  0.00     0.180 C 
ATOM     21  C   UNL     1      23.703  24.541  22.107  1.00  0.00     0.202 C 
BRANCH  17  22
ATOM     22  C   UNL     1      21.325  26.593  21.125  1.00  0.00     0.191 C 
BRANCH  22  23
ATOM     23  O   UNL     1      20.434  27.696  21.199  1.00  0.00    -0.394 OA
ATOM     24  H   UNL     1      19.490  27.414  21.191  1.00  0.00     0.210 HD
ENDBRANCH  22  23
ENDBRANCH  17  22
BRANCH  19  25
ATOM     25  O   UNL     1      22.369  24.223  20.113  1.00  0.00    -0.350 OA
BRANCH  25  26
ATOM     26  C   UNL     1      23.398  24.609  19.361  1.00  0.00     0.169 C 
BRANCH  26  27
ATOM     27  C   UNL     1      23.116  24.868  17.914  1.00  0.00     0.119 C 
BRANCH  27  28
ATOM     28  N   UNL     1      23.197  26.220  17.489  1.00  0.00    -0.092 NA
ATOM     29  N   UNL     1      22.337  27.068  17.705  1.00  0.00     0.001 N 
ATOM     30  N   UNL     1      21.241  27.654  17.648  1.00  0.00    -0.003 NA
ENDBRANCH  27  28
ENDBRANCH  26  27
ENDBRANCH  25  26
ENDBRANCH  19  25
BRANCH  20  31
ATOM     31  O   UNL     1      24.576  25.674  23.990  1.00  0.00    -0.387 OA
ATOM     32  H   UNL     1      24.494  25.861  24.961  1.00  0.00     0.211 HD
ENDBRANCH  20  31
BRANCH  21  33
ATOM     33  O   UNL     1      24.624  23.518  22.317  1.00  0.00    -0.385 OA
ATOM     34  H   UNL     1      24.262  22.657  21.975  1.00  0.00     0.211 HD
ENDBRANCH  21  33
ENDBRANCH  15  16
ENDBRANCH  10  15
BRANCH  12  35
ATOM     35  O   UNL     1      24.124  28.793  24.683  1.00  0.00    -0.385 OA
ATOM     36  H   UNL     1      24.662  27.998  24.535  1.00  0.00     0.211 HD
ENDBRANCH  12  35
BRANCH  13  37
ATOM     37  O   UNL     1      22.103  30.107  22.179  1.00  0.00    -0.387 OA
ATOM     38  H   UNL     1      21.251  30.611  22.122  1.00  0.00     0.211 HD
ENDBRANCH  13  37
BRANCH  14  39
ATOM     39  O   UNL     1      21.060  31.873  23.846  1.00  0.00    -0.387 OA
ATOM     40  H   UNL     1      21.212  31.827  22.883  1.00  0.00     0.211 HD
ENDBRANCH  14  39
ENDBRANCH   8   9
ENDBRANCH   7   8
ENDBRANCH   1   7
BRANCH   1  41
ATOM     41  C   UNL     1      18.969  31.029  20.877  1.00  0.00     0.364 C 
ATOM     42  O   UNL     1      19.966  30.649  20.250  1.00  0.00    -0.246 OA
BRANCH  41  43
ATOM     43  O   UNL     1      18.639  32.379  20.727  1.00  0.00    -0.477 OA
ATOM     44  H   UNL     1      18.443  32.764  19.788  1.00  0.00     0.296 HD
ENDBRANCH  41  43
ENDBRANCH   1  41
BRANCH   3  45
ATOM     45  O   UNL     1      15.708  28.979  22.722  1.00  0.00    -0.391 OA
ATOM     46  H   UNL     1      15.273  28.367  22.076  1.00  0.00     0.211 HD
ENDBRANCH   3  45
BRANCH   5  47
ATOM     47  C   UNL     1      16.144  28.313  19.389  1.00  0.00     0.176 C 
BRANCH  47  48
ATOM     48  O   UNL     1      14.789  28.171  19.375  1.00  0.00    -0.388 OA
ATOM     49  H   UNL     1      14.417  28.387  20.262  1.00  0.00     0.211 HD
ENDBRANCH  47  48
BRANCH  47  50
ATOM     50  C   UNL     1      16.800  28.028  18.111  1.00  0.00     0.165 C 
BRANCH  50  51
ATOM     51  O   UNL     1      18.173  27.755  18.189  1.00  0.00    -0.388 OA
ATOM     52  H   UNL     1      18.529  28.004  19.081  1.00  0.00     0.211 HD
ENDBRANCH  50  51
BRANCH  50  53
ATOM     53  C   UNL     1      16.607  29.035  17.009  1.00  0.00     0.154 C 
BRANCH  53  54
ATOM     54  N   UNL     1      15.158  29.148  16.769  1.00  0.00    -0.319 N 
ATOM     55  C   UNL     1      14.636  29.867  15.657  1.00  0.00     0.407 C 
ATOM     56  H   UNL     1      14.525  28.688  17.433  1.00  0.00     0.167 HD
ATOM     57  O   UNL     1      15.468  30.407  14.881  1.00  0.00    -0.225 OA
BRANCH  55  58
ATOM     58  O   UNL     1      13.290  29.990  15.407  1.00  0.00    -0.443 OA
BRANCH  58  59
ATOM     59  C   UNL     1      12.809  30.177  14.097  1.00  0.00     0.294 C 
BRANCH  59  60
ATOM     60  C   UNL     1      11.327  30.185  14.136  1.00  0.00     0.120 A 
ATOM     61  C   UNL     1      10.481  31.238  14.464  1.00  0.00     0.138 A 
ATOM     62  N   UNL     1      10.499  29.155  13.868  1.00  0.00    -0.132 NA
ATOM     63  N   UNL     1       9.205  30.816  14.381  1.00  0.00    -0.248 N 
ATOM     64  N   UNL     1       9.245  29.559  14.022  1.00  0.00    -0.067 NA
BRANCH  63  65
ATOM     65  C   UNL     1       8.044  31.615  14.639  1.00  0.00     0.181 C 
BRANCH  65  66
ATOM     66  C   UNL     1       7.095  31.016  15.606  1.00  0.00    -0.023 A 
ATOM     67  C   UNL     1       5.995  30.350  15.163  1.00  0.00     0.010 A 
ATOM     68  C   UNL     1       7.327  31.135  16.982  1.00  0.00     0.056 A 
ATOM     69  C   UNL     1       5.129  29.806  16.076  1.00  0.00     0.051 A 
ATOM     70  C   UNL     1       6.470  30.597  17.903  1.00  0.00     0.166 A 
ATOM     71  C   UNL     1       5.361  29.927  17.420  1.00  0.00     0.165 A 
ATOM     72  O   UNL     1       6.398  30.531  19.281  1.00  0.00    -0.454 OA
ATOM     73  O   UNL     1       4.610  29.451  18.503  1.00  0.00    -0.454 OA
ATOM     74  C   UNL     1       5.460  29.516  19.629  1.00  0.00     0.468 C 
ENDBRANCH  65  66
ENDBRANCH  63  65
ENDBRANCH  59  60
ENDBRANCH  58  59
ENDBRANCH  55  58
ENDBRANCH  53  54
ENDBRANCH  50  53
ENDBRANCH  47  50
ENDBRANCH   5  47
BRANCH   4  75
ATOM     75  N   UNL     1      15.211  31.624  20.454  1.00  0.00    -0.348 N 
ATOM     76  C   UNL     1      14.257  31.913  19.422  1.00  0.00     0.217 C 
ATOM     77  H   UNL     1      15.652  32.460  20.878  1.00  0.00     0.163 HD
ATOM     78  C   UNL     1      13.989  33.343  19.047  1.00  0.00     0.114 C 
ATOM     79  O   UNL     1      13.653  30.982  18.839  1.00  0.00    -0.275 OA
ENDBRANCH   4  75
TORSDOF 31
