REMARK VINA RESULT:    -5.700      5.583      9.915
REMARK INTER + INTRA:         -21.790
REMARK INTER:                 -14.557
REMARK INTRA:                  -7.233
REMARK UNBOUND:                -6.761
REMARK SMILES CC(=O)N[C@@H]1[C@@H](O)C[C@](OC[C@H]2O[C@@H](O[C@H]3[C@H](O)[C@@H](O)[C@H](OCCN=[N+]=[N-])O[C@@H]3CO)[C@H](O)[C@@H](O)[C@H]2O)(C(=O)O)O[C@H]1C(O)[C@H](O)CNC(=O)OCc1cn(CCNS(C)(=O)=O)nn1
REMARK SMILES IDX 43 1 42 2 9 3 8 4 41 5 6 6 5 7 10 8 11 9 12 10 14 11 13 12
REMARK SMILES IDX 32 13 34 14 36 15 15 16 16 17 29 18 28 19 21 20 17 21 19 22
REMARK SMILES IDX 30 23 31 24 22 26 23 27 24 28 25 29 26 30 27 31 18 32 20 34
REMARK SMILES IDX 33 36 35 38 37 40 38 42 39 43 40 44 7 46 4 48 2 49 1 51 3 52
REMARK SMILES IDX 44 53 45 55 46 56 47 58 48 59 49 60 50 62 51 63 52 64 53 65
REMARK SMILES IDX 54 66 64 67 55 68 63 69 56 70 57 71 58 72 59 74 61 75 62 76
REMARK SMILES IDX 60 77
REMARK H PARENT 31 25 18 33 20 35 33 37 35 39 37 41 40 45 7 47 4 50 44 54
REMARK H PARENT 46 57 48 61 58 73
REMARK Flexibility Score: inf
ROOT
ATOM      1  C   UNL     1      20.701  27.949  19.907  1.00  0.00     0.176 C 
ENDROOT
BRANCH   1   2
ATOM      2  C   UNL     1      21.788  27.350  20.820  1.00  0.00     0.178 C 
ATOM      3  C   UNL     1      23.318  25.581  20.728  1.00  0.00     0.272 C 
ATOM      4  C   UNL     1      22.736  24.847  21.869  1.00  0.00     0.113 C 
ATOM      5  O   UNL     1      22.382  26.381  20.085  1.00  0.00    -0.332 OA
ATOM      6  C   UNL     1      21.501  25.457  22.471  1.00  0.00     0.145 C 
ATOM      7  C   UNL     1      21.183  26.858  22.076  1.00  0.00     0.142 C 
BRANCH   3   8
ATOM      8  O   UNL     1      23.854  24.797  19.701  1.00  0.00    -0.338 OA
BRANCH   8   9
ATOM      9  C   UNL     1      22.980  24.635  18.640  1.00  0.00     0.199 C 
BRANCH   9  10
ATOM     10  C   UNL     1      23.660  24.957  17.356  1.00  0.00     0.179 C 
ATOM     11  C   UNL     1      23.522  24.899  15.054  1.00  0.00     0.282 C 
ATOM     12  O   UNL     1      22.817  24.817  16.266  1.00  0.00    -0.341 OA
ATOM     13  C   UNL     1      24.151  26.237  14.873  1.00  0.00     0.202 C 
ATOM     14  C   UNL     1      25.150  26.419  15.995  1.00  0.00     0.179 C 
ATOM     15  C   UNL     1      24.489  26.196  17.313  1.00  0.00     0.177 C 
BRANCH  11  16
ATOM     16  O   UNL     1      22.637  24.606  14.061  1.00  0.00    -0.341 OA
BRANCH  16  17
ATOM     17  C   UNL     1      23.123  23.929  12.996  1.00  0.00     0.184 C 
ATOM     18  C   UNL     1      22.479  24.045  11.672  1.00  0.00     0.178 C 
ATOM     19  O   UNL     1      22.760  22.889  10.943  1.00  0.00    -0.341 OA
ATOM     20  C   UNL     1      22.026  21.817  11.362  1.00  0.00     0.281 C 
ATOM     21  C   UNL     1      23.293  22.420  13.321  1.00  0.00     0.180 C 
ATOM     22  C   UNL     1      21.983  21.805  12.876  1.00  0.00     0.202 C 
BRANCH  18  23
ATOM     23  C   UNL     1      23.118  25.168  10.862  1.00  0.00     0.191 C 
BRANCH  23  24
ATOM     24  O   UNL     1      22.894  26.405  11.508  1.00  0.00    -0.394 OA
ATOM     25  H   UNL     1      22.284  26.311  12.272  1.00  0.00     0.210 HD
ENDBRANCH  23  24
ENDBRANCH  18  23
BRANCH  20  26
ATOM     26  O   UNL     1      22.539  20.611  10.861  1.00  0.00    -0.350 OA
BRANCH  26  27
ATOM     27  C   UNL     1      21.765  20.024   9.893  1.00  0.00     0.169 C 
BRANCH  27  28
ATOM     28  C   UNL     1      21.348  18.670  10.376  1.00  0.00     0.119 C 
BRANCH  28  29
ATOM     29  N   UNL     1      20.622  18.737  11.638  1.00  0.00    -0.092 NA
ATOM     30  N   UNL     1      19.512  19.295  11.573  1.00  0.00     0.001 N 
ATOM     31  N   UNL     1      18.442  19.833  11.834  1.00  0.00    -0.003 NA
ENDBRANCH  28  29
ENDBRANCH  27  28
ENDBRANCH  26  27
ENDBRANCH  20  26
BRANCH  21  32
ATOM     32  O   UNL     1      24.307  21.878  12.526  1.00  0.00    -0.387 OA
ATOM     33  H   UNL     1      24.168  22.170  11.586  1.00  0.00     0.211 HD
ENDBRANCH  21  32
BRANCH  22  34
ATOM     34  O   UNL     1      20.867  22.433  13.383  1.00  0.00    -0.385 OA
ATOM     35  H   UNL     1      20.709  22.264  14.346  1.00  0.00     0.211 HD
ENDBRANCH  22  34
ENDBRANCH  16  17
ENDBRANCH  11  16
BRANCH  13  36
ATOM     36  O   UNL     1      24.911  26.282  13.695  1.00  0.00    -0.385 OA
ATOM     37  H   UNL     1      25.880  26.375  13.881  1.00  0.00     0.211 HD
ENDBRANCH  13  36
BRANCH  14  38
ATOM     38  O   UNL     1      25.846  27.598  15.889  1.00  0.00    -0.387 OA
ATOM     39  H   UNL     1      25.586  28.122  15.068  1.00  0.00     0.211 HD
ENDBRANCH  14  38
BRANCH  15  40
ATOM     40  O   UNL     1      23.667  27.285  17.588  1.00  0.00    -0.387 OA
ATOM     41  H   UNL     1      24.107  27.969  18.155  1.00  0.00     0.211 HD
ENDBRANCH  15  40
ENDBRANCH   9  10
ENDBRANCH   8   9
ENDBRANCH   3   8
BRANCH   3  42
ATOM     42  C   UNL     1      24.450  26.434  21.162  1.00  0.00     0.364 C 
ATOM     43  O   UNL     1      24.704  26.641  22.394  1.00  0.00    -0.246 OA
BRANCH  42  44
ATOM     44  O   UNL     1      25.318  27.072  20.297  1.00  0.00    -0.477 OA
ATOM     45  H   UNL     1      25.217  27.051  19.286  1.00  0.00     0.296 HD
ENDBRANCH  42  44
ENDBRANCH   3  42
BRANCH   6  46
ATOM     46  O   UNL     1      20.391  24.651  22.263  1.00  0.00    -0.391 OA
ATOM     47  H   UNL     1      20.074  24.156  23.045  1.00  0.00     0.211 HD
ENDBRANCH   6  46
BRANCH   7  48
ATOM     48  N   UNL     1      21.576  27.737  23.190  1.00  0.00    -0.348 N 
ATOM     49  C   UNL     1      21.022  27.740  24.474  1.00  0.00     0.217 C 
ATOM     50  H   UNL     1      22.388  28.432  23.031  1.00  0.00     0.163 HD
ATOM     51  C   UNL     1      21.500  28.701  25.530  1.00  0.00     0.114 C 
ATOM     52  O   UNL     1      20.101  26.944  24.804  1.00  0.00    -0.275 OA
ENDBRANCH   7  48
ENDBRANCH   1   2
BRANCH   1  53
ATOM     53  O   UNL     1      19.493  27.996  20.627  1.00  0.00    -0.388 OA
ATOM     54  H   UNL     1      18.978  27.209  20.373  1.00  0.00     0.211 HD
ENDBRANCH   1  53
BRANCH   1  55
ATOM     55  C   UNL     1      21.066  29.333  19.514  1.00  0.00     0.165 C 
BRANCH  55  56
ATOM     56  O   UNL     1      20.479  30.341  20.238  1.00  0.00    -0.388 OA
ATOM     57  H   UNL     1      19.614  30.650  19.860  1.00  0.00     0.211 HD
ENDBRANCH  55  56
BRANCH  55  58
ATOM     58  C   UNL     1      21.028  29.620  18.045  1.00  0.00     0.154 C 
BRANCH  58  59
ATOM     59  N   UNL     1      19.750  29.309  17.461  1.00  0.00    -0.319 N 
ATOM     60  C   UNL     1      18.827  30.403  17.250  1.00  0.00     0.407 C 
ATOM     61  H   UNL     1      19.449  28.361  17.186  1.00  0.00     0.167 HD
ATOM     62  O   UNL     1      19.229  31.550  17.573  1.00  0.00    -0.225 OA
BRANCH  60  63
ATOM     63  O   UNL     1      17.581  30.181  16.724  1.00  0.00    -0.443 OA
BRANCH  63  64
ATOM     64  C   UNL     1      16.997  28.901  16.793  1.00  0.00     0.294 C 
BRANCH  64  65
ATOM     65  C   UNL     1      16.593  28.578  18.174  1.00  0.00     0.120 A 
ATOM     66  C   UNL     1      15.569  29.153  18.908  1.00  0.00     0.138 A 
ATOM     67  N   UNL     1      17.112  27.648  18.964  1.00  0.00    -0.132 NA
ATOM     68  N   UNL     1      15.493  28.568  20.103  1.00  0.00    -0.251 N 
ATOM     69  N   UNL     1      16.452  27.640  20.129  1.00  0.00    -0.067 NA
BRANCH  68  70
ATOM     70  C   UNL     1      14.557  28.888  21.168  1.00  0.00     0.162 C 
BRANCH  70  71
ATOM     71  C   UNL     1      15.163  29.950  22.084  1.00  0.00     0.122 C 
BRANCH  71  72
ATOM     72  N   UNL     1      16.344  29.453  22.729  1.00  0.00    -0.214 NA
ATOM     73  H   UNL     1      16.601  28.522  22.303  1.00  0.00     0.141 HD
BRANCH  72  74
ATOM     74  S   UNL     1      17.705  30.485  22.525  1.00  0.00     0.208 S 
ATOM     75  O   UNL     1      18.988  29.705  22.759  1.00  0.00    -0.213 OA
ATOM     76  O   UNL     1      17.679  30.940  21.078  1.00  0.00    -0.213 OA
ATOM     77  C   UNL     1      17.612  31.881  23.603  1.00  0.00     0.176 C 
ENDBRANCH  72  74
ENDBRANCH  71  72
ENDBRANCH  70  71
ENDBRANCH  68  70
ENDBRANCH  64  65
ENDBRANCH  63  64
ENDBRANCH  60  63
ENDBRANCH  58  59
ENDBRANCH  55  58
ENDBRANCH   1  55
TORSDOF 33
