REMARK VINA RESULT:    -7.692      4.355     11.815
REMARK INTER + INTRA:         -18.556
REMARK INTER:                 -12.900
REMARK INTRA:                  -5.656
REMARK UNBOUND:                 3.076
REMARK SMILES CC(=O)N[C@@H]1[C@@H](O)C[C@](OC[C@H]2O[C@@H](O[C@H]3[C@H](O)[C@@H](O)[C@H](OCCN=[N+]=[N-])O[C@@H]3CO)[C@H](O)[C@@H](O)[C@H]2O)(C(=O)O)O[C@H]1C(O)[C@H](O)CNC(=O)OCc1cn(C2CC(O)C=C[C@@H](O)C2)nn1
REMARK SMILES IDX 43 1 42 2 9 3 8 4 41 5 6 6 5 7 10 8 11 9 12 10 14 11 13 12
REMARK SMILES IDX 32 13 34 14 36 15 15 16 16 17 29 18 28 19 21 20 17 21 19 22
REMARK SMILES IDX 30 23 31 24 22 26 23 27 24 28 25 29 26 30 27 31 18 32 20 34
REMARK SMILES IDX 33 36 35 38 37 40 38 42 39 43 40 44 7 46 4 48 2 49 1 51 3 52
REMARK SMILES IDX 44 53 45 55 46 56 47 58 48 59 49 60 50 62 51 63 52 64 53 65
REMARK SMILES IDX 54 66 66 67 55 68 65 69 56 70 57 71 58 72 59 74 64 76 62 77
REMARK SMILES IDX 61 78 60 79 63 81
REMARK H PARENT 31 25 18 33 20 35 33 37 35 39 37 41 40 45 7 47 4 50 44 54
REMARK H PARENT 46 57 48 61 59 75 63 82
REMARK Flexibility Score: 90.00
ROOT
ATOM      1  C   UNL     1      24.526  30.205  18.808  1.00  0.00     0.176 C 
ENDROOT
BRANCH   1   2
ATOM      2  C   UNL     1      24.716  28.709  18.627  1.00  0.00     0.178 C 
ATOM      3  C   UNL     1      23.956  26.756  19.696  1.00  0.00     0.272 C 
ATOM      4  C   UNL     1      25.042  25.949  19.085  1.00  0.00     0.113 C 
ATOM      5  O   UNL     1      24.070  28.094  19.737  1.00  0.00    -0.332 OA
ATOM      6  C   UNL     1      25.935  26.696  18.163  1.00  0.00     0.145 C 
ATOM      7  C   UNL     1      26.083  28.177  18.636  1.00  0.00     0.142 C 
BRANCH   3   8
ATOM      8  O   UNL     1      23.680  26.218  20.970  1.00  0.00    -0.338 OA
BRANCH   8   9
ATOM      9  C   UNL     1      24.434  25.133  21.311  1.00  0.00     0.199 C 
BRANCH   9  10
ATOM     10  C   UNL     1      23.693  24.244  22.309  1.00  0.00     0.179 C 
ATOM     11  C   UNL     1      22.688  24.694  24.339  1.00  0.00     0.282 C 
ATOM     12  O   UNL     1      23.829  24.797  23.543  1.00  0.00    -0.341 OA
ATOM     13  C   UNL     1      21.655  25.553  23.632  1.00  0.00     0.202 C 
ATOM     14  C   UNL     1      21.227  24.770  22.411  1.00  0.00     0.179 C 
ATOM     15  C   UNL     1      22.315  23.910  21.852  1.00  0.00     0.177 C 
BRANCH  11  16
ATOM     16  O   UNL     1      22.988  25.118  25.611  1.00  0.00    -0.341 OA
BRANCH  16  17
ATOM     17  C   UNL     1      23.647  26.350  25.552  1.00  0.00     0.184 C 
ATOM     18  C   UNL     1      25.068  26.204  26.036  1.00  0.00     0.178 C 
ATOM     19  O   UNL     1      25.202  26.095  27.397  1.00  0.00    -0.341 OA
ATOM     20  C   UNL     1      24.016  26.287  28.103  1.00  0.00     0.281 C 
ATOM     21  C   UNL     1      22.903  27.444  26.268  1.00  0.00     0.180 C 
ATOM     22  C   UNL     1      23.376  27.607  27.686  1.00  0.00     0.202 C 
BRANCH  18  23
ATOM     23  C   UNL     1      25.933  27.344  25.518  1.00  0.00     0.191 C 
BRANCH  23  24
ATOM     24  O   UNL     1      26.943  27.677  26.401  1.00  0.00    -0.394 OA
ATOM     25  H   UNL     1      27.086  28.634  26.476  1.00  0.00     0.210 HD
ENDBRANCH  23  24
ENDBRANCH  18  23
BRANCH  20  26
ATOM     26  O   UNL     1      24.372  26.330  29.447  1.00  0.00    -0.350 OA
BRANCH  26  27
ATOM     27  C   UNL     1      25.673  25.856  29.577  1.00  0.00     0.169 C 
BRANCH  27  28
ATOM     28  C   UNL     1      26.224  26.128  30.966  1.00  0.00     0.119 C 
BRANCH  28  29
ATOM     29  N   UNL     1      27.207  25.130  31.335  1.00  0.00    -0.092 NA
ATOM     30  N   UNL     1      27.903  25.319  32.346  1.00  0.00     0.001 N 
ATOM     31  N   UNL     1      28.597  25.672  33.310  1.00  0.00    -0.003 NA
ENDBRANCH  28  29
ENDBRANCH  27  28
ENDBRANCH  26  27
ENDBRANCH  20  26
BRANCH  21  32
ATOM     32  O   UNL     1      23.039  28.650  25.582  1.00  0.00    -0.387 OA
ATOM     33  H   UNL     1      23.250  28.511  24.627  1.00  0.00     0.211 HD
ENDBRANCH  21  32
BRANCH  22  34
ATOM     34  O   UNL     1      22.317  27.897  28.538  1.00  0.00    -0.385 OA
ATOM     35  H   UNL     1      21.519  28.186  28.022  1.00  0.00     0.211 HD
ENDBRANCH  22  34
ENDBRANCH  16  17
ENDBRANCH  11  16
BRANCH  13  36
ATOM     36  O   UNL     1      20.567  25.875  24.398  1.00  0.00    -0.385 OA
ATOM     37  H   UNL     1      20.120  25.126  24.823  1.00  0.00     0.211 HD
ENDBRANCH  13  36
BRANCH  14  38
ATOM     38  O   UNL     1      20.742  25.698  21.491  1.00  0.00    -0.387 OA
ATOM     39  H   UNL     1      21.181  25.583  20.603  1.00  0.00     0.211 HD
ENDBRANCH  14  38
BRANCH  15  40
ATOM     40  O   UNL     1      22.318  23.994  20.445  1.00  0.00    -0.387 OA
ATOM     41  H   UNL     1      22.266  24.901  20.110  1.00  0.00     0.211 HD
ENDBRANCH  15  40
ENDBRANCH   9  10
ENDBRANCH   8   9
ENDBRANCH   3   8
BRANCH   3  42
ATOM     42  C   UNL     1      22.717  26.462  18.878  1.00  0.00     0.364 C 
ATOM     43  O   UNL     1      22.677  25.541  18.020  1.00  0.00    -0.246 OA
BRANCH  42  44
ATOM     44  O   UNL     1      21.600  27.250  19.103  1.00  0.00    -0.477 OA
ATOM     45  H   UNL     1      21.596  27.963  19.832  1.00  0.00     0.296 HD
ENDBRANCH  42  44
ENDBRANCH   3  42
BRANCH   6  46
ATOM     46  O   UNL     1      27.171  26.110  18.060  1.00  0.00    -0.391 OA
ATOM     47  H   UNL     1      27.852  26.786  17.855  1.00  0.00     0.211 HD
ENDBRANCH   6  46
BRANCH   7  48
ATOM     48  N   UNL     1      27.120  28.785  17.897  1.00  0.00    -0.348 N 
ATOM     49  C   UNL     1      28.409  28.936  18.468  1.00  0.00     0.217 C 
ATOM     50  H   UNL     1      26.971  29.102  16.922  1.00  0.00     0.163 HD
ATOM     51  C   UNL     1      29.517  29.573  17.708  1.00  0.00     0.114 C 
ATOM     52  O   UNL     1      28.623  28.526  19.633  1.00  0.00    -0.275 OA
ENDBRANCH   7  48
ENDBRANCH   1   2
BRANCH   1  53
ATOM     53  O   UNL     1      25.175  30.700  17.593  1.00  0.00    -0.388 OA
ATOM     54  H   UNL     1      26.169  30.593  17.724  1.00  0.00     0.211 HD
ENDBRANCH   1  53
BRANCH   1  55
ATOM     55  C   UNL     1      25.395  30.813  19.872  1.00  0.00     0.165 C 
BRANCH  55  56
ATOM     56  O   UNL     1      26.094  29.865  20.579  1.00  0.00    -0.388 OA
ATOM     57  H   UNL     1      25.529  29.274  21.125  1.00  0.00     0.211 HD
ENDBRANCH  55  56
BRANCH  55  58
ATOM     58  C   UNL     1      24.552  31.577  20.887  1.00  0.00     0.154 C 
BRANCH  58  59
ATOM     59  N   UNL     1      23.378  30.885  21.311  1.00  0.00    -0.319 N 
ATOM     60  C   UNL     1      23.329  30.093  22.491  1.00  0.00     0.407 C 
ATOM     61  H   UNL     1      22.490  30.952  20.730  1.00  0.00     0.167 HD
ATOM     62  O   UNL     1      24.393  30.018  23.172  1.00  0.00    -0.225 OA
BRANCH  60  63
ATOM     63  O   UNL     1      22.167  29.450  22.852  1.00  0.00    -0.443 OA
BRANCH  63  64
ATOM     64  C   UNL     1      20.945  30.173  22.972  1.00  0.00     0.294 C 
BRANCH  64  65
ATOM     65  C   UNL     1      19.992  29.618  21.984  1.00  0.00     0.120 A 
ATOM     66  C   UNL     1      18.739  30.072  21.664  1.00  0.00     0.138 A 
ATOM     67  N   UNL     1      20.209  28.535  21.218  1.00  0.00    -0.132 NA
ATOM     68  N   UNL     1      18.236  29.245  20.713  1.00  0.00    -0.249 N 
ATOM     69  N   UNL     1      19.149  28.328  20.467  1.00  0.00    -0.067 NA
BRANCH  68  70
ATOM     70  C   UNL     1      16.916  29.345  20.076  1.00  0.00     0.115 C 
BRANCH  70  71
ATOM     71  C   UNL     1      15.871  29.307  21.140  1.00  0.00     0.063 C 
BRANCH  71  72
ATOM     72  C   UNL     1      14.568  28.770  20.537  1.00  0.00     0.139 CG0
ATOM     73  G   UNL     1      13.966  29.812  19.690  1.00  0.00     0.000 G0
BRANCH  72  74
ATOM     74  O   UNL     1      13.701  28.378  21.555  1.00  0.00    -0.389 OA
ATOM     75  H   UNL     1      12.834  28.855  21.417  1.00  0.00     0.211 HD
ENDBRANCH  72  74
ENDBRANCH  71  72
ENDBRANCH  70  71
BRANCH  70  76
ATOM     76  C   UNL     1      16.860  30.624  19.301  1.00  0.00     0.063 C 
BRANCH  76  77
ATOM     77  C   UNL     1      15.859  30.401  18.161  1.00  0.00     0.139 C 
BRANCH  77  78
ATOM     78  C   UNL     1      14.472  30.515  18.687  1.00  0.00     0.002 C 
ATOM     79  C   UNL     1      13.958  29.820  19.692  1.00  0.00     0.002 CG0
ATOM     80  G   UNL     1      14.579  28.786  20.535  1.00  0.00     0.000 G0
ENDBRANCH  77  78
BRANCH  77  81
ATOM     81  O   UNL     1      16.077  31.277  17.109  1.00  0.00    -0.389 OA
ATOM     82  H   UNL     1      16.303  30.729  16.306  1.00  0.00     0.211 HD
ENDBRANCH  77  81
ENDBRANCH  76  77
ENDBRANCH  70  76
ENDBRANCH  68  70
ENDBRANCH  64  65
ENDBRANCH  63  64
ENDBRANCH  60  63
ENDBRANCH  58  59
ENDBRANCH  55  58
ENDBRANCH   1  55
TORSDOF 32
