REMARK VINA RESULT:    -5.272      2.978      9.140
REMARK INTER + INTRA:         -20.907
REMARK INTER:                 -13.423
REMARK INTRA:                  -7.483
REMARK UNBOUND:                -7.468
REMARK SMILES CC(=O)N[C@@H]1[C@@H](O)C[C@](OC[C@H]2O[C@@H](O[C@H]3[C@H](O)[C@@H](O)[C@H](OCCN=[N+]=[N-])O[C@@H]3CO)[C@H](O)[C@@H](O)[C@H]2O)(C(=O)O)O[C@H]1C(O)[C@H](O)CNC(=O)OCc1cn(CC(=O)O)nn1
REMARK SMILES IDX 9 1 8 2 6 3 5 4 42 5 41 6 10 7 11 8 12 9 14 10 13 11 32 12
REMARK SMILES IDX 34 13 36 14 15 15 16 16 29 17 28 18 21 19 17 20 19 21 30 22
REMARK SMILES IDX 31 23 22 25 23 26 24 27 25 28 26 29 27 30 18 31 20 33 33 35
REMARK SMILES IDX 35 37 37 39 38 41 39 42 40 43 7 45 43 47 44 48 45 50 46 51
REMARK SMILES IDX 47 53 48 54 49 55 50 57 51 58 52 59 53 60 54 61 61 62 55 63
REMARK SMILES IDX 60 64 56 65 57 66 58 67 59 68 4 70 2 71 1 73 3 74
REMARK H PARENT 31 24 18 32 20 34 33 36 35 38 37 40 40 44 7 46 44 49 46 52
REMARK H PARENT 48 56 59 69 4 72
REMARK Flexibility Score: inf
ROOT
ATOM      1  C   UNL     1       3.401  25.802  30.244  1.00  0.00     0.272 C 
ATOM      2  C   UNL     1       2.253  25.294  31.069  1.00  0.00     0.113 C 
ATOM      3  C   UNL     1       1.742  23.954  30.739  1.00  0.00     0.145 C 
ATOM      4  C   UNL     1       2.143  23.399  29.377  1.00  0.00     0.142 C 
ATOM      5  C   UNL     1       2.477  24.583  28.523  1.00  0.00     0.178 C 
ATOM      6  O   UNL     1       3.665  25.076  29.125  1.00  0.00    -0.332 OA
ENDROOT
BRANCH   1   7
ATOM      7  O   UNL     1       4.587  25.895  31.006  1.00  0.00    -0.338 OA
BRANCH   7   8
ATOM      8  C   UNL     1       4.450  25.567  32.319  1.00  0.00     0.199 C 
BRANCH   8   9
ATOM      9  C   UNL     1       5.767  24.965  32.836  1.00  0.00     0.179 C 
ATOM     10  C   UNL     1       6.596  24.727  34.975  1.00  0.00     0.282 C 
ATOM     11  O   UNL     1       6.265  25.638  33.922  1.00  0.00    -0.341 OA
ATOM     12  C   UNL     1       5.293  24.162  35.404  1.00  0.00     0.202 C 
ATOM     13  C   UNL     1       4.908  23.128  34.333  1.00  0.00     0.179 C 
ATOM     14  C   UNL     1       5.605  23.472  33.045  1.00  0.00     0.177 C 
BRANCH  10  15
ATOM     15  O   UNL     1       7.323  25.416  35.900  1.00  0.00    -0.341 OA
BRANCH  15  16
ATOM     16  C   UNL     1       8.637  24.967  36.037  1.00  0.00     0.184 C 
ATOM     17  C   UNL     1       9.239  24.847  34.668  1.00  0.00     0.178 C 
ATOM     18  O   UNL     1      10.190  23.864  34.627  1.00  0.00    -0.341 OA
ATOM     19  C   UNL     1      10.979  23.713  35.739  1.00  0.00     0.281 C 
ATOM     20  C   UNL     1       8.687  23.607  36.700  1.00  0.00     0.180 C 
ATOM     21  C   UNL     1      10.165  23.299  36.953  1.00  0.00     0.202 C 
BRANCH  17  22
ATOM     22  C   UNL     1       9.862  26.174  34.277  1.00  0.00     0.191 C 
BRANCH  22  23
ATOM     23  O   UNL     1       8.850  26.907  33.652  1.00  0.00    -0.394 OA
ATOM     24  H   UNL     1       7.980  26.463  33.757  1.00  0.00     0.210 HD
ENDBRANCH  22  23
ENDBRANCH  17  22
BRANCH  19  25
ATOM     25  O   UNL     1      11.731  24.834  35.965  1.00  0.00    -0.350 OA
BRANCH  25  26
ATOM     26  C   UNL     1      12.168  24.976  37.258  1.00  0.00     0.169 C 
BRANCH  26  27
ATOM     27  C   UNL     1      13.136  26.108  37.475  1.00  0.00     0.119 C 
BRANCH  27  28
ATOM     28  N   UNL     1      14.447  25.799  36.899  1.00  0.00    -0.092 NA
ATOM     29  N   UNL     1      14.865  26.612  36.050  1.00  0.00     0.001 N 
ATOM     30  N   UNL     1      15.389  26.968  34.978  1.00  0.00    -0.003 NA
ENDBRANCH  27  28
ENDBRANCH  26  27
ENDBRANCH  25  26
ENDBRANCH  19  25
BRANCH  20  31
ATOM     31  O   UNL     1       8.051  23.564  37.916  1.00  0.00    -0.387 OA
ATOM     32  H   UNL     1       7.096  23.397  37.886  1.00  0.00     0.211 HD
ENDBRANCH  20  31
BRANCH  21  33
ATOM     33  O   UNL     1      10.360  21.955  37.205  1.00  0.00    -0.385 OA
ATOM     34  H   UNL     1      11.148  21.800  37.786  1.00  0.00     0.211 HD
ENDBRANCH  21  33
ENDBRANCH  15  16
ENDBRANCH  10  15
BRANCH  12  35
ATOM     35  O   UNL     1       5.213  23.661  36.671  1.00  0.00    -0.385 OA
ATOM     36  H   UNL     1       4.494  23.011  36.738  1.00  0.00     0.211 HD
ENDBRANCH  12  35
BRANCH  13  37
ATOM     37  O   UNL     1       3.531  23.194  34.186  1.00  0.00    -0.387 OA
ATOM     38  H   UNL     1       3.043  22.636  34.854  1.00  0.00     0.211 HD
ENDBRANCH  13  37
BRANCH  14  39
ATOM     39  O   UNL     1       4.798  22.982  32.019  1.00  0.00    -0.387 OA
ATOM     40  H   UNL     1       4.891  22.009  31.898  1.00  0.00     0.211 HD
ENDBRANCH  14  39
ENDBRANCH   8   9
ENDBRANCH   7   8
ENDBRANCH   1   7
BRANCH   1  41
ATOM     41  C   UNL     1       3.097  27.194  29.843  1.00  0.00     0.364 C 
ATOM     42  O   UNL     1       1.971  27.696  30.024  1.00  0.00    -0.246 OA
BRANCH  41  43
ATOM     43  O   UNL     1       4.049  28.005  29.248  1.00  0.00    -0.477 OA
ATOM     44  H   UNL     1       3.815  28.712  28.539  1.00  0.00     0.296 HD
ENDBRANCH  41  43
ENDBRANCH   1  41
BRANCH   3  45
ATOM     45  O   UNL     1       1.913  23.006  31.753  1.00  0.00    -0.391 OA
ATOM     46  H   UNL     1       2.785  23.039  32.182  1.00  0.00     0.211 HD
ENDBRANCH   3  45
BRANCH   5  47
ATOM     47  C   UNL     1       2.741  24.335  27.077  1.00  0.00     0.176 C 
BRANCH  47  48
ATOM     48  O   UNL     1       3.928  23.530  27.067  1.00  0.00    -0.388 OA
ATOM     49  H   UNL     1       3.861  22.840  27.787  1.00  0.00     0.211 HD
ENDBRANCH  47  48
BRANCH  47  50
ATOM     50  C   UNL     1       3.025  25.584  26.272  1.00  0.00     0.165 C 
BRANCH  50  51
ATOM     51  O   UNL     1       4.275  26.116  26.683  1.00  0.00    -0.388 OA
ATOM     52  H   UNL     1       4.194  26.334  27.637  1.00  0.00     0.211 HD
ENDBRANCH  50  51
BRANCH  50  53
ATOM     53  C   UNL     1       1.983  26.625  26.407  1.00  0.00     0.154 C 
BRANCH  53  54
ATOM     54  N   UNL     1       2.517  27.896  26.802  1.00  0.00    -0.319 N 
ATOM     55  C   UNL     1       2.206  29.161  26.257  1.00  0.00     0.407 C 
ATOM     56  H   UNL     1       3.243  27.955  27.604  1.00  0.00     0.167 HD
ATOM     57  O   UNL     1       1.404  29.287  25.328  1.00  0.00    -0.225 OA
BRANCH  55  58
ATOM     58  O   UNL     1       2.788  30.341  26.736  1.00  0.00    -0.443 OA
BRANCH  58  59
ATOM     59  C   UNL     1       3.945  30.884  26.123  1.00  0.00     0.294 C 
BRANCH  59  60
ATOM     60  C   UNL     1       5.022  29.851  26.026  1.00  0.00     0.120 A 
ATOM     61  C   UNL     1       5.759  29.527  24.895  1.00  0.00     0.139 A 
ATOM     62  N   UNL     1       5.481  29.046  26.996  1.00  0.00    -0.132 NA
ATOM     63  N   UNL     1       6.624  28.551  25.225  1.00  0.00    -0.241 N 
ATOM     64  N   UNL     1       6.436  28.274  26.506  1.00  0.00    -0.066 NA
BRANCH  63  65
ATOM     65  C   UNL     1       7.606  27.893  24.357  1.00  0.00     0.268 C 
BRANCH  65  66
ATOM     66  C   UNL     1       7.718  26.486  24.781  1.00  0.00     0.325 C 
ATOM     67  O   UNL     1       8.833  25.969  24.947  1.00  0.00    -0.250 OA
BRANCH  66  68
ATOM     68  O   UNL     1       6.576  25.742  24.991  1.00  0.00    -0.480 OA
ATOM     69  H   UNL     1       5.758  25.824  24.424  1.00  0.00     0.296 HD
ENDBRANCH  66  68
ENDBRANCH  65  66
ENDBRANCH  63  65
ENDBRANCH  59  60
ENDBRANCH  58  59
ENDBRANCH  55  58
ENDBRANCH  53  54
ENDBRANCH  50  53
ENDBRANCH  47  50
ENDBRANCH   5  47
BRANCH   4  70
ATOM     70  N   UNL     1       1.176  22.479  28.888  1.00  0.00    -0.348 N 
ATOM     71  C   UNL     1       1.277  21.062  29.114  1.00  0.00     0.217 C 
ATOM     72  H   UNL     1       0.345  22.806  28.358  1.00  0.00     0.163 HD
ATOM     73  C   UNL     1       0.221  20.177  28.569  1.00  0.00     0.114 C 
ATOM     74  O   UNL     1       2.235  20.578  29.760  1.00  0.00    -0.275 OA
ENDBRANCH   4  70
TORSDOF 32
