REMARK VINA RESULT:    -5.330     10.218     15.325
REMARK INTER + INTRA:         -22.523
REMARK INTER:                 -15.037
REMARK INTRA:                  -7.486
REMARK UNBOUND:                -8.936
REMARK SMILES CC(=O)N[C@@H]1[C@@H](O)C[C@](OC[C@H]2O[C@@H](O[C@H]3[C@H](O)[C@@H](O)[C@H](OCCN=[N+]=[N-])O[C@@H]3CO)[C@H](O)[C@@H](O)[C@H]2O)(C(=O)O)O[C@H]1C(O)[C@H](O)CNC(=O)OCc1cn(-c2ccc(S(N)(=O)=O)cc2)nn1
REMARK SMILES IDX 9 1 8 2 6 3 5 4 42 5 41 6 10 7 11 8 12 9 14 10 13 11 32 12
REMARK SMILES IDX 34 13 36 14 15 15 16 16 29 17 28 18 21 19 17 20 19 21 30 22
REMARK SMILES IDX 31 23 22 25 23 26 24 27 25 28 26 29 27 30 18 31 20 33 33 35
REMARK SMILES IDX 35 37 37 39 38 41 39 42 40 43 7 45 43 47 44 48 45 50 46 51
REMARK SMILES IDX 47 53 48 54 49 55 50 57 51 58 52 59 53 60 54 61 67 62 55 63
REMARK SMILES IDX 66 64 56 65 57 66 65 67 58 68 64 69 59 70 60 71 62 72 63 73
REMARK SMILES IDX 61 74 4 77 2 78 1 80 3 81
REMARK H PARENT 31 24 18 32 20 34 33 36 35 38 37 40 40 44 7 46 44 49 46 52
REMARK H PARENT 48 56 61 75 61 76 4 79
REMARK Flexibility Score: inf
ROOT
ATOM      1  C   UNL     1      25.752  27.882  21.904  1.00  0.00     0.272 C 
ATOM      2  C   UNL     1      24.769  28.783  21.139  1.00  0.00     0.113 C 
ATOM      3  C   UNL     1      24.171  28.090  19.966  1.00  0.00     0.145 C 
ATOM      4  C   UNL     1      25.228  27.254  19.293  1.00  0.00     0.142 C 
ATOM      5  C   UNL     1      26.564  27.864  19.732  1.00  0.00     0.178 C 
ATOM      6  O   UNL     1      26.743  27.455  21.052  1.00  0.00    -0.332 OA
ENDROOT
BRANCH   1   7
ATOM      7  O   UNL     1      24.977  26.863  22.444  1.00  0.00    -0.338 OA
BRANCH   7   8
ATOM      8  C   UNL     1      25.631  25.673  22.597  1.00  0.00     0.199 C 
BRANCH   8   9
ATOM      9  C   UNL     1      24.576  24.609  22.949  1.00  0.00     0.179 C 
ATOM     10  C   UNL     1      22.415  24.600  23.845  1.00  0.00     0.282 C 
ATOM     11  O   UNL     1      23.718  25.187  23.830  1.00  0.00    -0.341 OA
ATOM     12  C   UNL     1      21.865  24.941  22.490  1.00  0.00     0.202 C 
ATOM     13  C   UNL     1      22.604  24.146  21.421  1.00  0.00     0.179 C 
ATOM     14  C   UNL     1      24.030  23.918  21.766  1.00  0.00     0.177 C 
BRANCH  10  15
ATOM     15  O   UNL     1      21.720  25.200  24.836  1.00  0.00    -0.341 OA
BRANCH  15  16
ATOM     16  C   UNL     1      22.490  26.036  25.688  1.00  0.00     0.184 C 
ATOM     17  C   UNL     1      22.294  25.587  27.063  1.00  0.00     0.178 C 
ATOM     18  O   UNL     1      22.168  26.562  28.031  1.00  0.00    -0.341 OA
ATOM     19  C   UNL     1      22.731  27.777  27.759  1.00  0.00     0.281 C 
ATOM     20  C   UNL     1      22.145  27.481  25.409  1.00  0.00     0.180 C 
ATOM     21  C   UNL     1      21.996  28.365  26.584  1.00  0.00     0.202 C 
BRANCH  17  22
ATOM     22  C   UNL     1      23.357  24.629  27.562  1.00  0.00     0.191 C 
BRANCH  22  23
ATOM     23  O   UNL     1      24.513  24.743  26.803  1.00  0.00    -0.394 OA
ATOM     24  H   UNL     1      25.003  23.886  26.741  1.00  0.00     0.210 HD
ENDBRANCH  22  23
ENDBRANCH  17  22
BRANCH  19  25
ATOM     25  O   UNL     1      24.095  27.790  27.595  1.00  0.00    -0.350 OA
BRANCH  25  26
ATOM     26  C   UNL     1      24.728  27.740  28.831  1.00  0.00     0.169 C 
BRANCH  26  27
ATOM     27  C   UNL     1      26.156  27.253  28.605  1.00  0.00     0.119 C 
BRANCH  27  28
ATOM     28  N   UNL     1      26.267  25.923  29.138  1.00  0.00    -0.092 NA
ATOM     29  N   UNL     1      27.185  25.596  29.922  1.00  0.00     0.001 N 
ATOM     30  N   UNL     1      28.283  25.072  30.179  1.00  0.00    -0.003 NA
ENDBRANCH  27  28
ENDBRANCH  26  27
ENDBRANCH  25  26
ENDBRANCH  19  25
BRANCH  20  31
ATOM     31  O   UNL     1      23.082  28.064  24.552  1.00  0.00    -0.387 OA
ATOM     32  H   UNL     1      23.746  28.556  25.087  1.00  0.00     0.211 HD
ENDBRANCH  20  31
BRANCH  21  33
ATOM     33  O   UNL     1      20.678  28.627  26.940  1.00  0.00    -0.385 OA
ATOM     34  H   UNL     1      20.523  29.582  26.645  1.00  0.00     0.211 HD
ENDBRANCH  21  33
ENDBRANCH  15  16
ENDBRANCH  10  15
BRANCH  12  35
ATOM     35  O   UNL     1      20.509  24.869  22.370  1.00  0.00    -0.385 OA
ATOM     36  H   UNL     1      20.135  25.256  21.555  1.00  0.00     0.211 HD
ENDBRANCH  12  35
BRANCH  13  37
ATOM     37  O   UNL     1      22.378  24.664  20.157  1.00  0.00    -0.387 OA
ATOM     38  H   UNL     1      21.928  24.063  19.530  1.00  0.00     0.211 HD
ENDBRANCH  13  37
BRANCH  14  39
ATOM     39  O   UNL     1      24.798  24.324  20.647  1.00  0.00    -0.387 OA
ATOM     40  H   UNL     1      24.820  25.324  20.701  1.00  0.00     0.211 HD
ENDBRANCH  14  39
ENDBRANCH   8   9
ENDBRANCH   7   8
ENDBRANCH   1   7
BRANCH   1  41
ATOM     41  C   UNL     1      26.283  28.777  22.999  1.00  0.00     0.364 C 
ATOM     42  O   UNL     1      27.479  29.157  23.000  1.00  0.00    -0.246 OA
BRANCH  41  43
ATOM     43  O   UNL     1      25.472  29.208  24.030  1.00  0.00    -0.477 OA
ATOM     44  H   UNL     1      25.910  29.503  24.889  1.00  0.00     0.296 HD
ENDBRANCH  41  43
ENDBRANCH   1  41
BRANCH   3  45
ATOM     45  O   UNL     1      23.072  27.350  20.398  1.00  0.00    -0.391 OA
ATOM     46  H   UNL     1      22.315  27.960  20.558  1.00  0.00     0.211 HD
ENDBRANCH   3  45
BRANCH   5  47
ATOM     47  C   UNL     1      27.698  27.335  18.896  1.00  0.00     0.176 C 
BRANCH  47  48
ATOM     48  O   UNL     1      28.637  28.285  18.550  1.00  0.00    -0.388 OA
ATOM     49  H   UNL     1      29.349  27.930  17.963  1.00  0.00     0.211 HD
ENDBRANCH  47  48
BRANCH  47  50
ATOM     50  C   UNL     1      28.374  26.181  19.598  1.00  0.00     0.165 C 
BRANCH  50  51
ATOM     51  O   UNL     1      29.493  26.640  20.325  1.00  0.00    -0.388 OA
ATOM     52  H   UNL     1      29.963  25.869  20.755  1.00  0.00     0.211 HD
ENDBRANCH  50  51
BRANCH  50  53
ATOM     53  C   UNL     1      28.800  25.104  18.632  1.00  0.00     0.154 C 
BRANCH  53  54
ATOM     54  N   UNL     1      28.987  23.832  19.290  1.00  0.00    -0.319 N 
ATOM     55  C   UNL     1      27.930  22.885  19.303  1.00  0.00     0.407 C 
ATOM     56  H   UNL     1      29.875  23.574  19.762  1.00  0.00     0.167 HD
ATOM     57  O   UNL     1      26.840  23.185  18.734  1.00  0.00    -0.225 OA
BRANCH  55  58
ATOM     58  O   UNL     1      28.009  21.639  19.901  1.00  0.00    -0.443 OA
BRANCH  58  59
ATOM     59  C   UNL     1      29.109  20.780  19.720  1.00  0.00     0.294 C 
BRANCH  59  60
ATOM     60  C   UNL     1      30.016  20.899  20.893  1.00  0.00     0.121 A 
ATOM     61  C   UNL     1      30.011  20.072  22.022  1.00  0.00     0.144 A 
ATOM     62  N   UNL     1      30.998  21.784  21.136  1.00  0.00    -0.131 NA
ATOM     63  N   UNL     1      30.975  20.488  22.880  1.00  0.00    -0.220 N 
ATOM     64  N   UNL     1      31.551  21.512  22.327  1.00  0.00    -0.062 NA
BRANCH  63  65
ATOM     65  C   UNL     1      31.293  19.911  24.152  1.00  0.00     0.066 A 
ATOM     66  C   UNL     1      31.138  20.626  25.318  1.00  0.00     0.030 A 
ATOM     67  C   UNL     1      31.762  18.620  24.249  1.00  0.00     0.030 A 
ATOM     68  C   UNL     1      31.447  20.060  26.554  1.00  0.00     0.024 A 
ATOM     69  C   UNL     1      32.073  18.045  25.479  1.00  0.00     0.024 A 
ATOM     70  C   UNL     1      31.917  18.766  26.646  1.00  0.00     0.082 A 
BRANCH  70  71
ATOM     71  S   UNL     1      32.297  18.080  28.225  1.00  0.00     0.238 S 
ATOM     72  O   UNL     1      31.717  16.694  28.366  1.00  0.00    -0.207 OA
ATOM     73  O   UNL     1      33.780  17.959  28.399  1.00  0.00    -0.207 OA
BRANCH  71  74
ATOM     74  N   UNL     1      31.677  19.081  29.501  1.00  0.00    -0.225 NA
ATOM     75  H   UNL     1      31.762  20.088  29.179  1.00  0.00     0.137 HD
ATOM     76  H   UNL     1      32.193  18.941  30.401  1.00  0.00     0.137 HD
ENDBRANCH  71  74
ENDBRANCH  70  71
ENDBRANCH  63  65
ENDBRANCH  59  60
ENDBRANCH  58  59
ENDBRANCH  55  58
ENDBRANCH  53  54
ENDBRANCH  50  53
ENDBRANCH  47  50
ENDBRANCH   5  47
BRANCH   4  77
ATOM     77  N   UNL     1      25.130  27.213  17.858  1.00  0.00    -0.348 N 
ATOM     78  C   UNL     1      24.346  26.225  17.226  1.00  0.00     0.217 C 
ATOM     79  H   UNL     1      25.629  27.906  17.270  1.00  0.00     0.163 HD
ATOM     80  C   UNL     1      24.272  26.216  15.744  1.00  0.00     0.114 C 
ATOM     81  O   UNL     1      23.709  25.353  17.861  1.00  0.00    -0.275 OA
ENDBRANCH   4  77
TORSDOF 32
