REMARK VINA RESULT:    -6.576      3.906     11.144
REMARK INTER + INTRA:         -24.549
REMARK INTER:                 -15.626
REMARK INTRA:                  -8.923
REMARK UNBOUND:                -7.402
REMARK SMILES CC(=O)N[C@@H]1[C@@H](O)C[C@](OC[C@H]2O[C@@H](O[C@H]3[C@H](O)[C@@H](O)[C@H](OCCN=[N+]=[N-])O[C@@H]3CO)[C@H](O)[C@@H](O)[C@H]2O)(C(=O)O)O[C@H]1C(O)[C@H](O)CNC(=O)OCc1cn(-c2ccc(S(=O)(=O)c3ccc(N)cc3)cc2)nn1
REMARK SMILES IDX 43 1 42 2 9 3 8 4 41 5 6 6 5 7 10 8 11 9 12 10 14 11 13 12
REMARK SMILES IDX 32 13 34 14 36 15 15 16 16 17 29 18 28 19 21 20 17 21 19 22
REMARK SMILES IDX 30 23 31 24 22 26 23 27 24 28 25 29 26 30 27 31 18 32 20 34
REMARK SMILES IDX 33 36 35 38 37 40 38 42 39 43 40 44 7 46 4 48 2 49 1 51 3 52
REMARK SMILES IDX 44 53 45 55 46 56 47 58 48 59 49 60 50 62 51 63 52 64 53 65
REMARK SMILES IDX 54 66 73 67 55 68 72 69 56 70 57 71 71 72 58 73 70 74 59 75
REMARK SMILES IDX 60 76 61 77 62 78 63 79 64 80 69 81 65 82 68 83 66 84 67 85
REMARK H PARENT 31 25 18 33 20 35 33 37 35 39 37 41 40 45 7 47 4 50 44 54
REMARK H PARENT 46 57 48 61 67 86 67 87
REMARK Flexibility Score: inf
ROOT
ATOM      1  C   UNL     1      22.542  29.506  19.970  1.00  0.00     0.176 C 
ENDROOT
BRANCH   1   2
ATOM      2  C   UNL     1      21.883  29.872  21.299  1.00  0.00     0.178 C 
ATOM      3  C   UNL     1      21.032  28.998  23.265  1.00  0.00     0.272 C 
ATOM      4  C   UNL     1      19.841  29.894  23.167  1.00  0.00     0.113 C 
ATOM      5  O   UNL     1      21.568  28.741  21.989  1.00  0.00    -0.332 OA
ATOM      6  C   UNL     1      19.493  30.077  21.699  1.00  0.00     0.145 C 
ATOM      7  C   UNL     1      20.644  30.737  21.018  1.00  0.00     0.142 C 
BRANCH   3   8
ATOM      8  O   UNL     1      20.773  27.727  23.785  1.00  0.00    -0.338 OA
BRANCH   8   9
ATOM      9  C   UNL     1      20.694  27.632  25.142  1.00  0.00     0.199 C 
BRANCH   9  10
ATOM     10  C   UNL     1      21.376  26.362  25.598  1.00  0.00     0.179 C 
ATOM     11  C   UNL     1      22.892  24.765  24.996  1.00  0.00     0.282 C 
ATOM     12  O   UNL     1      22.358  26.035  24.656  1.00  0.00    -0.341 OA
ATOM     13  C   UNL     1      23.733  25.003  26.218  1.00  0.00     0.202 C 
ATOM     14  C   UNL     1      22.827  25.375  27.370  1.00  0.00     0.179 C 
ATOM     15  C   UNL     1      21.953  26.549  26.959  1.00  0.00     0.177 C 
BRANCH  11  16
ATOM     16  O   UNL     1      23.563  24.288  23.901  1.00  0.00    -0.341 OA
BRANCH  16  17
ATOM     17  C   UNL     1      23.519  25.221  22.838  1.00  0.00     0.184 C 
ATOM     18  C   UNL     1      22.970  24.521  21.636  1.00  0.00     0.178 C 
ATOM     19  O   UNL     1      23.733  24.611  20.503  1.00  0.00    -0.341 OA
ATOM     20  C   UNL     1      25.059  24.306  20.607  1.00  0.00     0.281 C 
ATOM     21  C   UNL     1      24.971  25.636  22.637  1.00  0.00     0.180 C 
ATOM     22  C   UNL     1      25.641  24.437  21.996  1.00  0.00     0.202 C 
BRANCH  18  23
ATOM     23  C   UNL     1      21.647  25.237  21.305  1.00  0.00     0.191 C 
BRANCH  23  24
ATOM     24  O   UNL     1      20.722  25.139  22.315  1.00  0.00    -0.394 OA
ATOM     25  H   UNL     1      21.057  25.398  23.209  1.00  0.00     0.210 HD
ENDBRANCH  23  24
ENDBRANCH  18  23
BRANCH  20  26
ATOM     26  O   UNL     1      25.760  25.193  19.797  1.00  0.00    -0.350 OA
BRANCH  26  27
ATOM     27  C   UNL     1      27.113  24.997  19.747  1.00  0.00     0.169 C 
BRANCH  27  28
ATOM     28  C   UNL     1      27.755  25.912  18.759  1.00  0.00     0.119 C 
BRANCH  28  29
ATOM     29  N   UNL     1      28.133  27.170  19.426  1.00  0.00    -0.092 NA
ATOM     30  N   UNL     1      27.318  28.078  19.576  1.00  0.00     0.001 N 
ATOM     31  N   UNL     1      26.451  28.786  20.117  1.00  0.00    -0.003 NA
ENDBRANCH  28  29
ENDBRANCH  27  28
ENDBRANCH  26  27
ENDBRANCH  20  26
BRANCH  21  32
ATOM     32  O   UNL     1      25.046  26.706  21.777  1.00  0.00    -0.387 OA
ATOM     33  H   UNL     1      25.904  26.690  21.272  1.00  0.00     0.211 HD
ENDBRANCH  21  32
BRANCH  22  34
ATOM     34  O   UNL     1      25.523  23.294  22.751  1.00  0.00    -0.385 OA
ATOM     35  H   UNL     1      26.051  22.534  22.390  1.00  0.00     0.211 HD
ENDBRANCH  22  34
ENDBRANCH  16  17
ENDBRANCH  11  16
BRANCH  13  36
ATOM     36  O   UNL     1      24.542  23.913  26.533  1.00  0.00    -0.385 OA
ATOM     37  H   UNL     1      25.032  23.671  25.684  1.00  0.00     0.211 HD
ENDBRANCH  13  36
BRANCH  14  38
ATOM     38  O   UNL     1      23.623  25.850  28.422  1.00  0.00    -0.387 OA
ATOM     39  H   UNL     1      23.086  26.380  29.040  1.00  0.00     0.211 HD
ENDBRANCH  14  38
BRANCH  15  40
ATOM     40  O   UNL     1      22.646  27.745  27.071  1.00  0.00    -0.387 OA
ATOM     41  H   UNL     1      22.617  28.238  26.219  1.00  0.00     0.211 HD
ENDBRANCH  15  40
ENDBRANCH   9  10
ENDBRANCH   8   9
ENDBRANCH   3   8
BRANCH   3  42
ATOM     42  C   UNL     1      22.135  29.563  24.088  1.00  0.00     0.364 C 
ATOM     43  O   UNL     1      22.092  30.650  24.710  1.00  0.00    -0.246 OA
BRANCH  42  44
ATOM     44  O   UNL     1      23.320  28.855  24.196  1.00  0.00    -0.477 OA
ATOM     45  H   UNL     1      24.002  28.821  23.422  1.00  0.00     0.296 HD
ENDBRANCH  42  44
ENDBRANCH   3  42
BRANCH   6  46
ATOM     46  O   UNL     1      19.371  28.787  21.171  1.00  0.00    -0.391 OA
ATOM     47  H   UNL     1      18.426  28.564  20.955  1.00  0.00     0.211 HD
ENDBRANCH   6  46
BRANCH   7  48
ATOM     48  N   UNL     1      20.895  32.090  21.401  1.00  0.00    -0.348 N 
ATOM     49  C   UNL     1      21.308  33.116  20.505  1.00  0.00     0.217 C 
ATOM     50  H   UNL     1      20.768  32.364  22.406  1.00  0.00     0.163 HD
ATOM     51  C   UNL     1      21.537  34.487  21.025  1.00  0.00     0.114 C 
ATOM     52  O   UNL     1      21.461  32.819  19.313  1.00  0.00    -0.275 OA
ENDBRANCH   7  48
ENDBRANCH   1   2
BRANCH   1  53
ATOM     53  O   UNL     1      23.818  30.038  19.882  1.00  0.00    -0.388 OA
ATOM     54  H   UNL     1      23.796  31.022  20.079  1.00  0.00     0.211 HD
ENDBRANCH   1  53
BRANCH   1  55
ATOM     55  C   UNL     1      22.462  28.058  19.671  1.00  0.00     0.165 C 
BRANCH  55  56
ATOM     56  O   UNL     1      23.734  27.512  19.482  1.00  0.00    -0.388 OA
ATOM     57  H   UNL     1      23.730  26.588  19.184  1.00  0.00     0.211 HD
ENDBRANCH  55  56
BRANCH  55  58
ATOM     58  C   UNL     1      21.710  27.803  18.383  1.00  0.00     0.154 C 
BRANCH  58  59
ATOM     59  N   UNL     1      20.474  28.527  18.284  1.00  0.00    -0.319 N 
ATOM     60  C   UNL     1      19.948  28.805  16.998  1.00  0.00     0.407 C 
ATOM     61  H   UNL     1      19.964  28.847  19.122  1.00  0.00     0.167 HD
ATOM     62  O   UNL     1      20.582  28.394  15.983  1.00  0.00    -0.225 OA
BRANCH  60  63
ATOM     63  O   UNL     1      18.784  29.500  16.764  1.00  0.00    -0.443 OA
BRANCH  63  64
ATOM     64  C   UNL     1      17.503  28.910  16.696  1.00  0.00     0.294 C 
BRANCH  64  65
ATOM     65  C   UNL     1      17.029  28.651  18.078  1.00  0.00     0.121 A 
ATOM     66  C   UNL     1      16.106  29.329  18.848  1.00  0.00     0.144 A 
ATOM     67  N   UNL     1      17.441  27.612  18.872  1.00  0.00    -0.131 NA
ATOM     68  N   UNL     1      15.985  28.698  20.056  1.00  0.00    -0.220 N 
ATOM     69  N   UNL     1      16.805  27.677  20.020  1.00  0.00    -0.062 NA
BRANCH  68  70
ATOM     70  C   UNL     1      15.144  29.041  21.136  1.00  0.00     0.066 A 
ATOM     71  C   UNL     1      13.754  29.012  20.991  1.00  0.00     0.030 A 
ATOM     72  C   UNL     1      15.617  29.419  22.367  1.00  0.00     0.030 A 
ATOM     73  C   UNL     1      12.893  29.337  22.009  1.00  0.00     0.023 A 
ATOM     74  C   UNL     1      14.748  29.751  23.407  1.00  0.00     0.023 A 
ATOM     75  C   UNL     1      13.381  29.714  23.240  1.00  0.00     0.072 A 
BRANCH  75  76
ATOM     76  S   UNL     1      12.293  30.127  24.548  1.00  0.00     0.206 S 
ATOM     77  O   UNL     1      12.985  31.143  25.442  1.00  0.00    -0.219 OA
ATOM     78  O   UNL     1      11.831  28.939  25.323  1.00  0.00    -0.219 OA
BRANCH  76  79
ATOM     79  C   UNL     1      10.897  30.972  23.876  1.00  0.00     0.072 A 
ATOM     80  C   UNL     1       9.629  30.614  24.244  1.00  0.00     0.023 A 
ATOM     81  C   UNL     1      11.064  31.996  22.974  1.00  0.00     0.023 A 
ATOM     82  C   UNL     1       8.557  31.273  23.716  1.00  0.00     0.027 A 
ATOM     83  C   UNL     1       9.978  32.649  22.450  1.00  0.00     0.027 A 
ATOM     84  C   UNL     1       8.700  32.314  22.800  1.00  0.00     0.031 A 
BRANCH  84  85
ATOM     85  N   UNL     1       7.563  32.967  22.277  1.00  0.00    -0.399 N 
ATOM     86  H   UNL     1       7.028  32.564  21.495  1.00  0.00     0.156 HD
ATOM     87  H   UNL     1       7.259  33.868  22.684  1.00  0.00     0.156 HD
ENDBRANCH  84  85
ENDBRANCH  76  79
ENDBRANCH  75  76
ENDBRANCH  68  70
ENDBRANCH  64  65
ENDBRANCH  63  64
ENDBRANCH  60  63
ENDBRANCH  58  59
ENDBRANCH  55  58
ENDBRANCH   1  55
TORSDOF 33
