REMARK VINA RESULT:    -4.768      3.093      9.510
REMARK INTER + INTRA:         -20.354
REMARK INTER:                 -13.251
REMARK INTRA:                  -7.104
REMARK UNBOUND:                -8.339
REMARK SMILES CC(=O)N[C@@H]1[C@@H](O)C[C@](OC[C@H]2O[C@@H](O[C@H]3[C@H](O)[C@@H](O)[C@H](OCCN=[N+]=[N-])O[C@@H]3CO)[C@H](O)[C@@H](O)[C@H]2O)(C(=O)O)O[C@H]1C(O)[C@H](O)CNC(=O)OCc1cn(Cc2ccccc2)nn1
REMARK SMILES IDX 9 1 8 2 6 3 5 4 42 5 41 6 10 7 11 8 12 9 14 10 13 11 32 12
REMARK SMILES IDX 34 13 36 14 15 15 16 16 29 17 28 18 21 19 17 20 19 21 30 22
REMARK SMILES IDX 31 23 22 25 23 26 24 27 25 28 26 29 27 30 18 31 20 33 33 35
REMARK SMILES IDX 35 37 37 39 38 41 39 42 40 43 7 45 43 47 44 48 45 50 46 51
REMARK SMILES IDX 47 53 48 54 49 55 50 57 51 58 52 59 53 60 54 61 64 62 55 63
REMARK SMILES IDX 63 64 56 65 57 66 58 67 62 68 59 69 61 70 60 71 4 72 2 73
REMARK SMILES IDX 1 75 3 76
REMARK H PARENT 31 24 18 32 20 34 33 36 35 38 37 40 40 44 7 46 44 49 46 52
REMARK H PARENT 48 56 4 74
REMARK Flexibility Score: inf
ROOT
ATOM      1  C   UNL     1      22.796  29.446  19.339  1.00  0.00     0.272 C 
ATOM      2  C   UNL     1      23.246  30.640  20.097  1.00  0.00     0.113 C 
ATOM      3  C   UNL     1      22.280  30.932  21.179  1.00  0.00     0.145 C 
ATOM      4  C   UNL     1      21.034  30.032  21.169  1.00  0.00     0.142 C 
ATOM      5  C   UNL     1      20.535  29.828  19.802  1.00  0.00     0.178 C 
ATOM      6  O   UNL     1      21.529  29.755  18.809  1.00  0.00    -0.332 OA
ENDROOT
BRANCH   1   7
ATOM      7  O   UNL     1      22.776  28.254  20.033  1.00  0.00    -0.338 OA
BRANCH   7   8
ATOM      8  C   UNL     1      24.013  28.015  20.607  1.00  0.00     0.199 C 
BRANCH   8   9
ATOM      9  C   UNL     1      24.200  26.564  20.988  1.00  0.00     0.179 C 
ATOM     10  C   UNL     1      24.315  25.234  22.902  1.00  0.00     0.282 C 
ATOM     11  O   UNL     1      24.707  26.411  22.259  1.00  0.00    -0.341 OA
ATOM     12  C   UNL     1      24.269  24.062  21.995  1.00  0.00     0.202 C 
ATOM     13  C   UNL     1      23.255  24.274  20.916  1.00  0.00     0.179 C 
ATOM     14  C   UNL     1      22.959  25.746  20.748  1.00  0.00     0.177 C 
BRANCH  10  15
ATOM     15  O   UNL     1      23.107  25.400  23.558  1.00  0.00    -0.341 OA
BRANCH  15  16
ATOM     16  C   UNL     1      23.194  26.184  24.702  1.00  0.00     0.184 C 
ATOM     17  C   UNL     1      23.005  25.355  25.918  1.00  0.00     0.178 C 
ATOM     18  O   UNL     1      23.057  26.223  27.029  1.00  0.00    -0.341 OA
ATOM     19  C   UNL     1      21.798  26.857  27.057  1.00  0.00     0.281 C 
ATOM     20  C   UNL     1      22.006  27.155  24.601  1.00  0.00     0.180 C 
ATOM     21  C   UNL     1      21.704  27.835  25.895  1.00  0.00     0.202 C 
BRANCH  17  22
ATOM     22  C   UNL     1      24.081  24.284  26.066  1.00  0.00     0.191 C 
BRANCH  22  23
ATOM     23  O   UNL     1      24.939  24.713  27.102  1.00  0.00    -0.394 OA
ATOM     24  H   UNL     1      24.497  24.539  27.966  1.00  0.00     0.210 HD
ENDBRANCH  22  23
ENDBRANCH  17  22
BRANCH  19  25
ATOM     25  O   UNL     1      21.656  27.524  28.248  1.00  0.00    -0.350 OA
BRANCH  25  26
ATOM     26  C   UNL     1      21.563  26.619  29.288  1.00  0.00     0.169 C 
BRANCH  26  27
ATOM     27  C   UNL     1      22.256  27.032  30.551  1.00  0.00     0.119 C 
BRANCH  27  28
ATOM     28  N   UNL     1      23.631  27.391  30.169  1.00  0.00    -0.092 NA
ATOM     29  N   UNL     1      24.455  26.479  30.144  1.00  0.00     0.001 N 
ATOM     30  N   UNL     1      25.451  25.796  29.868  1.00  0.00    -0.003 NA
ENDBRANCH  27  28
ENDBRANCH  26  27
ENDBRANCH  25  26
ENDBRANCH  19  25
BRANCH  20  31
ATOM     31  O   UNL     1      22.423  28.128  23.669  1.00  0.00    -0.387 OA
ATOM     32  H   UNL     1      23.337  28.467  23.868  1.00  0.00     0.211 HD
ENDBRANCH  20  31
BRANCH  21  33
ATOM     33  O   UNL     1      20.399  28.324  25.867  1.00  0.00    -0.385 OA
ATOM     34  H   UNL     1      20.004  28.415  26.775  1.00  0.00     0.211 HD
ENDBRANCH  21  33
ENDBRANCH  15  16
ENDBRANCH  10  15
BRANCH  12  35
ATOM     35  O   UNL     1      25.532  23.746  21.465  1.00  0.00    -0.385 OA
ATOM     36  H   UNL     1      25.359  23.308  20.594  1.00  0.00     0.211 HD
ENDBRANCH  12  35
BRANCH  13  37
ATOM     37  O   UNL     1      22.097  23.580  21.244  1.00  0.00    -0.387 OA
ATOM     38  H   UNL     1      21.550  23.353  20.444  1.00  0.00     0.211 HD
ENDBRANCH  13  37
BRANCH  14  39
ATOM     39  O   UNL     1      21.842  26.171  21.413  1.00  0.00    -0.387 OA
ATOM     40  H   UNL     1      21.036  26.327  20.882  1.00  0.00     0.211 HD
ENDBRANCH  14  39
ENDBRANCH   8   9
ENDBRANCH   7   8
ENDBRANCH   1   7
BRANCH   1  41
ATOM     41  C   UNL     1      23.613  29.220  18.097  1.00  0.00     0.364 C 
ATOM     42  O   UNL     1      24.634  29.884  17.914  1.00  0.00    -0.246 OA
BRANCH  41  43
ATOM     43  O   UNL     1      23.217  28.276  17.177  1.00  0.00    -0.477 OA
ATOM     44  H   UNL     1      22.271  28.247  16.792  1.00  0.00     0.296 HD
ENDBRANCH  41  43
ENDBRANCH   1  41
BRANCH   3  45
ATOM     45  O   UNL     1      22.814  30.816  22.477  1.00  0.00    -0.391 OA
ATOM     46  H   UNL     1      23.771  30.668  22.486  1.00  0.00     0.211 HD
ENDBRANCH   3  45
BRANCH   5  47
ATOM     47  C   UNL     1      19.610  28.721  19.514  1.00  0.00     0.176 C 
BRANCH  47  48
ATOM     48  O   UNL     1      18.554  28.582  20.389  1.00  0.00    -0.388 OA
ATOM     49  H   UNL     1      18.541  27.742  20.896  1.00  0.00     0.211 HD
ENDBRANCH  47  48
BRANCH  47  50
ATOM     50  C   UNL     1      19.113  28.556  18.107  1.00  0.00     0.165 C 
BRANCH  50  51
ATOM     51  O   UNL     1      20.022  28.012  17.253  1.00  0.00    -0.388 OA
ATOM     52  H   UNL     1      20.833  28.542  17.125  1.00  0.00     0.211 HD
ENDBRANCH  50  51
BRANCH  50  53
ATOM     53  C   UNL     1      18.329  29.743  17.627  1.00  0.00     0.154 C 
BRANCH  53  54
ATOM     54  N   UNL     1      17.042  29.901  18.251  1.00  0.00    -0.319 N 
ATOM     55  C   UNL     1      15.786  29.644  17.611  1.00  0.00     0.407 C 
ATOM     56  H   UNL     1      16.940  30.229  19.258  1.00  0.00     0.167 HD
ATOM     57  O   UNL     1      15.771  29.257  16.420  1.00  0.00    -0.225 OA
BRANCH  55  58
ATOM     58  O   UNL     1      14.586  29.816  18.276  1.00  0.00    -0.443 OA
BRANCH  58  59
ATOM     59  C   UNL     1      14.147  28.828  19.176  1.00  0.00     0.294 C 
BRANCH  59  60
ATOM     60  C   UNL     1      14.698  29.051  20.530  1.00  0.00     0.120 A 
ATOM     61  C   UNL     1      14.068  29.830  21.510  1.00  0.00     0.138 A 
ATOM     62  N   UNL     1      15.820  28.611  21.108  1.00  0.00    -0.132 NA
ATOM     63  N   UNL     1      14.830  29.820  22.615  1.00  0.00    -0.248 N 
ATOM     64  N   UNL     1      15.875  29.088  22.361  1.00  0.00    -0.067 NA
BRANCH  63  65
ATOM     65  C   UNL     1      14.518  30.503  23.851  1.00  0.00     0.181 C 
BRANCH  65  66
ATOM     66  C   UNL     1      13.047  30.659  23.969  1.00  0.00    -0.026 A 
ATOM     67  C   UNL     1      12.432  31.896  23.883  1.00  0.00     0.005 A 
ATOM     68  C   UNL     1      12.272  29.527  24.170  1.00  0.00     0.005 A 
ATOM     69  C   UNL     1      11.056  31.989  23.999  1.00  0.00     0.000 A 
ATOM     70  C   UNL     1      10.899  29.633  24.285  1.00  0.00     0.000 A 
ATOM     71  C   UNL     1      10.298  30.863  24.199  1.00  0.00     0.000 A 
ENDBRANCH  65  66
ENDBRANCH  63  65
ENDBRANCH  59  60
ENDBRANCH  58  59
ENDBRANCH  55  58
ENDBRANCH  53  54
ENDBRANCH  50  53
ENDBRANCH  47  50
ENDBRANCH   5  47
BRANCH   4  72
ATOM     72  N   UNL     1      20.086  30.863  21.938  1.00  0.00    -0.348 N 
ATOM     73  C   UNL     1      19.333  30.369  23.027  1.00  0.00     0.217 C 
ATOM     74  H   UNL     1      19.958  31.863  21.669  1.00  0.00     0.163 HD
ATOM     75  C   UNL     1      18.377  31.233  23.783  1.00  0.00     0.114 C 
ATOM     76  O   UNL     1      19.480  29.169  23.362  1.00  0.00    -0.275 OA
ENDBRANCH   4  72
TORSDOF 31
