REMARK VINA RESULT:    -5.376      5.298      9.917
REMARK INTER + INTRA:         -21.310
REMARK INTER:                 -14.282
REMARK INTRA:                  -7.028
REMARK UNBOUND:                -7.606
REMARK SMILES CC(=O)N[C@@H]1[C@@H](O)C[C@](OC[C@H]2O[C@@H](O[C@H]3[C@H](O)[C@@H](O)[C@H](OCCN=[N+]=[N-])O[C@@H]3CO)[C@H](O)[C@@H](O)[C@H]2O)(C(=O)O)O[C@H]1C(O)[C@H](O)CNC(=O)OCc1cn(-c2ccc(CO)cn2)nn1
REMARK SMILES IDX 9 1 8 2 6 3 5 4 42 5 41 6 10 7 11 8 12 9 14 10 13 11 32 12
REMARK SMILES IDX 34 13 36 14 15 15 16 16 29 17 28 18 21 19 17 20 19 21 30 22
REMARK SMILES IDX 31 23 22 25 23 26 24 27 25 28 26 29 27 30 18 31 20 33 33 35
REMARK SMILES IDX 35 37 37 39 38 41 39 42 40 43 7 45 43 47 44 48 45 50 46 51
REMARK SMILES IDX 47 53 48 54 49 55 50 57 51 58 52 59 53 60 54 61 65 62 55 63
REMARK SMILES IDX 64 64 56 65 57 66 63 67 58 68 62 69 59 70 60 71 61 72 4 74
REMARK SMILES IDX 2 75 1 77 3 78
REMARK H PARENT 31 24 18 32 20 34 33 36 35 38 37 40 40 44 7 46 44 49 46 52
REMARK H PARENT 48 56 61 73 4 76
REMARK Flexibility Score: inf
ROOT
ATOM      1  C   UNL     1      19.218  29.874  19.539  1.00  0.00     0.272 C 
ATOM      2  C   UNL     1      19.409  30.108  20.991  1.00  0.00     0.113 C 
ATOM      3  C   UNL     1      20.423  29.176  21.595  1.00  0.00     0.145 C 
ATOM      4  C   UNL     1      21.673  29.143  20.738  1.00  0.00     0.142 C 
ATOM      5  C   UNL     1      21.329  28.894  19.327  1.00  0.00     0.178 C 
ATOM      6  O   UNL     1      20.386  29.728  18.835  1.00  0.00    -0.332 OA
ENDROOT
BRANCH   1   7
ATOM      7  O   UNL     1      18.484  30.862  18.905  1.00  0.00    -0.338 OA
BRANCH   7   8
ATOM      8  C   UNL     1      17.601  31.508  19.745  1.00  0.00     0.199 C 
BRANCH   8   9
ATOM      9  C   UNL     1      16.195  31.240  19.302  1.00  0.00     0.179 C 
ATOM     10  C   UNL     1      14.979  30.497  17.547  1.00  0.00     0.282 C 
ATOM     11  O   UNL     1      16.139  30.232  18.319  1.00  0.00    -0.341 OA
ATOM     12  C   UNL     1      13.812  30.674  18.428  1.00  0.00     0.202 C 
ATOM     13  C   UNL     1      14.002  30.244  19.873  1.00  0.00     0.179 C 
ATOM     14  C   UNL     1      15.318  30.786  20.422  1.00  0.00     0.177 C 
BRANCH  10  15
ATOM     15  O   UNL     1      14.841  29.505  16.570  1.00  0.00    -0.341 OA
BRANCH  15  16
ATOM     16  C   UNL     1      15.858  29.527  15.640  1.00  0.00     0.184 C 
ATOM     17  C   UNL     1      16.076  30.836  14.948  1.00  0.00     0.178 C 
ATOM     18  O   UNL     1      15.744  30.813  13.596  1.00  0.00    -0.341 OA
ATOM     19  C   UNL     1      14.448  30.431  13.360  1.00  0.00     0.281 C 
ATOM     20  C   UNL     1      15.462  28.510  14.554  1.00  0.00     0.180 C 
ATOM     21  C   UNL     1      14.146  29.061  13.988  1.00  0.00     0.202 C 
BRANCH  17  22
ATOM     22  C   UNL     1      17.592  31.106  14.973  1.00  0.00     0.191 C 
BRANCH  22  23
ATOM     23  O   UNL     1      18.164  30.479  16.092  1.00  0.00    -0.394 OA
ATOM     24  H   UNL     1      19.140  30.704  16.159  1.00  0.00     0.210 HD
ENDBRANCH  22  23
ENDBRANCH  17  22
BRANCH  19  25
ATOM     25  O   UNL     1      14.260  30.342  11.983  1.00  0.00    -0.350 OA
BRANCH  25  26
ATOM     26  C   UNL     1      13.241  31.134  11.521  1.00  0.00     0.169 C 
BRANCH  26  27
ATOM     27  C   UNL     1      11.969  30.296  11.493  1.00  0.00     0.119 C 
BRANCH  27  28
ATOM     28  N   UNL     1      11.027  30.773  12.497  1.00  0.00    -0.092 NA
ATOM     29  N   UNL     1      10.520  30.059  13.345  1.00  0.00     0.001 N 
ATOM     30  N   UNL     1      10.281  29.531  14.431  1.00  0.00    -0.003 NA
ENDBRANCH  27  28
ENDBRANCH  26  27
ENDBRANCH  25  26
ENDBRANCH  19  25
BRANCH  20  31
ATOM     31  O   UNL     1      16.431  28.340  13.603  1.00  0.00    -0.387 OA
ATOM     32  H   UNL     1      17.247  28.027  14.020  1.00  0.00     0.211 HD
ENDBRANCH  20  31
BRANCH  21  33
ATOM     33  O   UNL     1      13.292  29.217  15.077  1.00  0.00    -0.385 OA
ATOM     34  H   UNL     1      12.904  30.126  15.022  1.00  0.00     0.211 HD
ENDBRANCH  21  33
ENDBRANCH  15  16
ENDBRANCH  10  15
BRANCH  12  35
ATOM     35  O   UNL     1      13.445  32.041  18.432  1.00  0.00    -0.385 OA
ATOM     36  H   UNL     1      14.240  32.630  18.368  1.00  0.00     0.211 HD
ENDBRANCH  12  35
BRANCH  13  37
ATOM     37  O   UNL     1      13.877  28.874  20.031  1.00  0.00    -0.387 OA
ATOM     38  H   UNL     1      14.505  28.353  19.508  1.00  0.00     0.211 HD
ENDBRANCH  13  37
BRANCH  14  39
ATOM     39  O   UNL     1      15.903  29.780  21.159  1.00  0.00    -0.387 OA
ATOM     40  H   UNL     1      16.014  30.074  22.085  1.00  0.00     0.211 HD
ENDBRANCH  14  39
ENDBRANCH   8   9
ENDBRANCH   7   8
ENDBRANCH   1   7
BRANCH   1  41
ATOM     41  C   UNL     1      18.449  28.595  19.282  1.00  0.00     0.364 C 
ATOM     42  O   UNL     1      17.802  27.996  20.174  1.00  0.00    -0.246 OA
BRANCH  41  43
ATOM     43  O   UNL     1      18.436  28.029  18.023  1.00  0.00    -0.477 OA
ATOM     44  H   UNL     1      17.538  27.820  17.569  1.00  0.00     0.296 HD
ENDBRANCH  41  43
ENDBRANCH   1  41
BRANCH   3  45
ATOM     45  O   UNL     1      20.812  29.756  22.818  1.00  0.00    -0.391 OA
ATOM     46  H   UNL     1      20.254  30.508  23.086  1.00  0.00     0.211 HD
ENDBRANCH   3  45
BRANCH   5  47
ATOM     47  C   UNL     1      22.534  28.854  18.406  1.00  0.00     0.176 C 
BRANCH  47  48
ATOM     48  O   UNL     1      22.795  30.135  17.923  1.00  0.00    -0.388 OA
ATOM     49  H   UNL     1      22.266  30.315  17.111  1.00  0.00     0.211 HD
ENDBRANCH  47  48
BRANCH  47  50
ATOM     50  C   UNL     1      22.425  27.932  17.251  1.00  0.00     0.165 C 
BRANCH  50  51
ATOM     51  O   UNL     1      21.168  27.321  17.153  1.00  0.00    -0.388 OA
ATOM     52  H   UNL     1      21.201  26.414  16.814  1.00  0.00     0.211 HD
ENDBRANCH  50  51
BRANCH  50  53
ATOM     53  C   UNL     1      23.525  26.920  17.105  1.00  0.00     0.154 C 
BRANCH  53  54
ATOM     54  N   UNL     1      23.876  26.354  18.381  1.00  0.00    -0.319 N 
ATOM     55  C   UNL     1      23.232  25.180  18.839  1.00  0.00     0.407 C 
ATOM     56  H   UNL     1      24.627  26.825  18.984  1.00  0.00     0.167 HD
ATOM     57  O   UNL     1      22.351  24.586  18.179  1.00  0.00    -0.225 OA
BRANCH  55  58
ATOM     58  O   UNL     1      23.558  24.615  20.077  1.00  0.00    -0.443 OA
BRANCH  58  59
ATOM     59  C   UNL     1      22.562  23.971  20.819  1.00  0.00     0.294 C 
BRANCH  59  60
ATOM     60  C   UNL     1      22.049  24.703  21.970  1.00  0.00     0.121 A 
ATOM     61  C   UNL     1      22.485  24.611  23.268  1.00  0.00     0.146 A 
ATOM     62  N   UNL     1      21.050  25.601  21.978  1.00  0.00    -0.131 NA
ATOM     63  N   UNL     1      21.748  25.447  24.027  1.00  0.00    -0.202 N 
ATOM     64  N   UNL     1      20.891  26.027  23.207  1.00  0.00    -0.061 NA
BRANCH  63  65
ATOM     65  C   UNL     1      21.906  25.622  25.426  1.00  0.00     0.155 A 
ATOM     66  C   UNL     1      22.540  24.668  26.215  1.00  0.00     0.049 A 
ATOM     67  N   UNL     1      21.439  26.719  26.045  1.00  0.00    -0.237 NA
ATOM     68  C   UNL     1      22.677  24.853  27.585  1.00  0.00     0.011 A 
ATOM     69  C   UNL     1      21.562  26.919  27.380  1.00  0.00     0.119 A 
ATOM     70  C   UNL     1      22.188  25.988  28.192  1.00  0.00    -0.004 A 
BRANCH  70  71
ATOM     71  C   UNL     1      22.336  26.179  29.660  1.00  0.00     0.193 C 
BRANCH  71  72
ATOM     72  O   UNL     1      21.214  26.810  30.195  1.00  0.00    -0.392 OA
ATOM     73  H   UNL     1      20.922  26.405  31.038  1.00  0.00     0.211 HD
ENDBRANCH  71  72
ENDBRANCH  70  71
ENDBRANCH  63  65
ENDBRANCH  59  60
ENDBRANCH  58  59
ENDBRANCH  55  58
ENDBRANCH  53  54
ENDBRANCH  50  53
ENDBRANCH  47  50
ENDBRANCH   5  47
BRANCH   4  74
ATOM     74  N   UNL     1      22.598  28.142  21.272  1.00  0.00    -0.348 N 
ATOM     75  C   UNL     1      23.876  28.465  21.722  1.00  0.00     0.217 C 
ATOM     76  H   UNL     1      22.270  27.156  21.317  1.00  0.00     0.163 HD
ATOM     77  C   UNL     1      24.730  27.331  22.243  1.00  0.00     0.114 C 
ATOM     78  O   UNL     1      24.346  29.611  21.720  1.00  0.00    -0.275 OA
ENDBRANCH   4  74
TORSDOF 32
